MODEL 1
REMARK VINA RESULT:     -12.0      0.000      0.000
REMARK SMILES CCc1cc(=O)oc2c3c(cc(OCC(=O)NCC(=O)NCCCNC(=O)c4ccc(-c5c6nc(c(-c7ccc(S(=O)(=O)[O-])cc7)c7ccc([nH]7)c(-c7ccc(S(=O)(=O)[O-])cc7)c7nc(c(-c8ccc(S(=O)(=O)[O-])cc8)c8ccc5[nH]8)C=C7)C=C6)cc4)c12)OC(C)(C)CC3
REMARK SMILES IDX 22 1 21 2 19 3 20 4 18 6 17 7 15 8 16 9 14 11 13 12 12 13
REMARK SMILES IDX 3 14 4 15 88 16 5 17 8 18 6 19 7 20 9 21 11 22 10 23 94 24
REMARK SMILES IDX 89 25 93 26 90 27 91 28 92 29 2 30 1 31 23 32 24 33 25 34
REMARK SMILES IDX 26 35 27 37 28 38 29 39 87 40 30 41 86 42 31 43 32 44 33 45
REMARK SMILES IDX 80 46 34 47 85 48 79 49 81 50 35 51 84 52 78 53 77 54 36 56
REMARK SMILES IDX 66 57 47 58 65 59 48 60 51 61 64 62 82 63 49 64 50 65 63 67
REMARK SMILES IDX 83 68 52 69 37 70 38 71 46 72 39 73 45 74 40 75 41 76 42 77
REMARK SMILES IDX 43 78 44 79 67 80 68 81 76 82 69 83 75 84 70 85 71 86 72 87
REMARK SMILES IDX 73 88 74 89 53 90 54 91 62 92 55 93 61 94 56 95 57 96 58 97
REMARK SMILES IDX 59 98 60 99
REMARK H PARENT 21 5 17 10 25 36 81 55 51 66
REMARK Flexibility Score: inf
ROOT
ATOM      1  C   UNL A   1      35.406  22.162  24.276  1.00  0.00     0.117 C 
ENDROOT
BRANCH   1   2
ATOM      2  N   UNL A   1      34.067  22.304  24.804  1.00  0.00    -0.355 N 
ATOM      3  C   UNL A   1      32.888  22.263  24.111  1.00  0.00     0.239 C 
ATOM      4  O   UNL A   1      31.836  22.180  24.747  1.00  0.00    -0.273 OA
ATOM      5  H   UNL A   1      33.996  22.448  25.776  1.00  0.00     0.163 HD
BRANCH   3   6
ATOM      6  C   UNL A   1      32.894  22.212  22.575  1.00  0.00     0.216 C 
BRANCH   6   7
ATOM      7  N   UNL A   1      33.484  23.395  21.975  1.00  0.00    -0.344 N 
ATOM      8  C   UNL A   1      32.990  24.663  21.915  1.00  0.00     0.258 C 
ATOM      9  O   UNL A   1      33.744  25.558  21.529  1.00  0.00    -0.271 OA
ATOM     10  H   UNL A   1      34.364  23.262  21.552  1.00  0.00     0.164 HD
BRANCH   8  11
ATOM     11  C   UNL A   1      31.541  24.967  22.346  1.00  0.00     0.329 C 
BRANCH  11  12
ATOM     12  O   UNL A   1      31.310  25.601  23.598  1.00  0.00    -0.483 OA
BRANCH  12  13
ATOM     13  C   UNL A   1      31.101  26.958  23.640  1.00  0.00     0.135 A 
ATOM     14  C   UNL A   1      32.329  27.110  25.931  1.00  0.00    -0.026 A 
ATOM     15  C   UNL A   1      32.738  27.953  26.894  1.00  0.00     0.098 A 
ATOM     16  C   UNL A   1      31.597  27.683  24.757  1.00  0.00     0.063 A 
ATOM     17  C   UNL A   1      32.530  29.403  26.878  1.00  0.00     0.336 A 
ATOM     18  C   UNL A   1      31.281  29.055  24.808  1.00  0.00     0.149 A 
ATOM     19  O   UNL A   1      33.038  30.114  27.737  1.00  0.00    -0.246 OA
ATOM     20  O   UNL A   1      31.740  29.883  25.861  1.00  0.00    -0.422 OA
ATOM     21  C   UNL A   1      30.465  29.696  23.859  1.00  0.00     0.038 A 
ATOM     22  C   UNL A   1      30.365  27.620  22.645  1.00  0.00     0.094 A 
ATOM     23  C   UNL A   1      29.996  28.952  22.788  1.00  0.00     0.130 A 
ATOM     24  C   UNL A   1      29.996  31.105  24.065  1.00  0.00     0.047 C 
ATOM     25  O   UNL A   1      29.131  29.431  21.845  1.00  0.00    -0.487 OA
ATOM     26  C   UNL A   1      29.251  31.650  22.857  1.00  0.00     0.053 C 
ATOM     27  C   UNL A   1      28.350  30.582  22.221  1.00  0.00     0.104 C 
ATOM     28  C   UNL A   1      27.765  31.138  20.916  1.00  0.00     0.056 C 
ATOM     29  C   UNL A   1      27.186  30.139  23.126  1.00  0.00     0.056 C 
BRANCH  14  30
ATOM     30  C   UNL A   1      32.555  25.616  26.051  1.00  0.00     0.033 C 
ATOM     31  C   UNL A   1      31.517  24.797  26.819  1.00  0.00     0.009 C 
ENDBRANCH  14  30
ENDBRANCH  12  13
ENDBRANCH  11  12
ENDBRANCH   8  11
ENDBRANCH   6   7
ENDBRANCH   3   6
ENDBRANCH   1   2
BRANCH   1  32
ATOM     32  C   UNL A   1      36.180  23.468  24.219  1.00  0.00     0.042 C 
BRANCH  32  33
ATOM     33  C   UNL A   1      37.059  23.729  25.435  1.00  0.00     0.118 C 
BRANCH  33  34
ATOM     34  N   UNL A   1      38.185  22.805  25.560  1.00  0.00    -0.352 N 
ATOM     35  C   UNL A   1      39.414  22.927  26.169  1.00  0.00     0.251 C 
ATOM     36  H   UNL A   1      38.038  21.933  25.127  1.00  0.00     0.163 HD
ATOM     37  O   UNL A   1      40.218  22.002  26.064  1.00  0.00    -0.269 OA
BRANCH  35  38
ATOM     38  C   UNL A   1      39.813  24.155  26.901  1.00  0.00     0.039 A 
ATOM     39  C   UNL A   1      40.712  25.051  26.298  1.00  0.00     0.014 A 
ATOM     40  C   UNL A   1      39.325  24.431  28.173  1.00  0.00     0.014 A 
ATOM     41  C   UNL A   1      41.019  26.273  26.908  1.00  0.00     0.010 A 
ATOM     42  C   UNL A   1      39.578  25.667  28.755  1.00  0.00     0.010 A 
ATOM     43  C   UNL A   1      40.427  26.597  28.131  1.00  0.00    -0.014 A 
BRANCH  43  44
ATOM     44  C   UNL A   1      40.767  27.812  28.907  1.00  0.00     0.031 A 
ATOM     45  C   UNL A   1      41.952  27.730  29.822  1.00  0.00     0.074 A 
ATOM     46  C   UNL A   1      39.951  28.880  28.933  1.00  0.00     0.049 A 
ATOM     47  N   UNL A   1      42.270  28.486  30.836  1.00  0.00    -0.248 NA
ATOM     48  C   UNL A   1      42.882  26.612  29.576  1.00  0.00     0.031 C 
ATOM     49  C   UNL A   1      38.805  29.097  28.056  1.00  0.00     0.029 A 
ATOM     50  N   UNL A   1      39.930  29.963  29.777  1.00  0.00    -0.354 N 
ATOM     51  C   UNL A   1      43.422  27.921  31.367  1.00  0.00     0.074 A 
ATOM     52  C   UNL A   1      43.717  26.736  30.595  1.00  0.00     0.031 C 
ATOM     53  C   UNL A   1      38.145  30.199  28.452  1.00  0.00     0.029 A 
ATOM     54  C   UNL A   1      38.817  30.759  29.619  1.00  0.00     0.049 A 
ATOM     55  H   UNL A   1      40.641  30.151  30.433  1.00  0.00     0.167 HD
ATOM     56  C   UNL A   1      44.175  28.365  32.398  1.00  0.00     0.031 A 
ATOM     57  C   UNL A   1      38.379  31.801  30.351  1.00  0.00     0.031 A 
ATOM     58  C   UNL A   1      43.870  29.547  33.152  1.00  0.00     0.049 A 
ATOM     59  C   UNL A   1      39.201  32.251  31.530  1.00  0.00     0.074 A 
ATOM     60  C   UNL A   1      44.572  30.107  34.202  1.00  0.00     0.029 A 
ATOM     61  N   UNL A   1      42.766  30.357  32.925  1.00  0.00    -0.354 N 
ATOM     62  N   UNL A   1      40.300  31.723  32.013  1.00  0.00    -0.248 NA
ATOM     63  C   UNL A   1      38.738  33.446  32.247  1.00  0.00     0.031 C 
ATOM     64  C   UNL A   1      43.878  31.245  34.628  1.00  0.00     0.029 A 
ATOM     65  C   UNL A   1      42.767  31.414  33.814  1.00  0.00     0.049 A 
ATOM     66  H   UNL A   1      42.084  30.201  32.233  1.00  0.00     0.167 HD
ATOM     67  C   UNL A   1      40.694  32.557  33.053  1.00  0.00     0.074 A 
ATOM     68  C   UNL A   1      39.705  33.613  33.140  1.00  0.00     0.031 C 
ATOM     69  C   UNL A   1      41.785  32.468  33.852  1.00  0.00     0.031 A 
BRANCH  56  70
ATOM     70  C   UNL A   1      45.386  27.551  32.753  1.00  0.00    -0.014 A 
ATOM     71  C   UNL A   1      46.623  27.788  32.123  1.00  0.00     0.010 A 
ATOM     72  C   UNL A   1      45.286  26.517  33.700  1.00  0.00     0.010 A 
ATOM     73  C   UNL A   1      47.721  26.969  32.388  1.00  0.00     0.020 A 
ATOM     74  C   UNL A   1      46.391  25.712  33.989  1.00  0.00     0.020 A 
ATOM     75  C   UNL A   1      47.595  25.929  33.313  1.00  0.00     0.054 A 
BRANCH  75  76
ATOM     76  S   UNL A   1      49.031  24.869  33.632  1.00  0.00     0.124 S 
ATOM     77  O   UNL A   1      48.399  23.655  34.143  1.00  0.00    -0.237 OA
ATOM     78  O   UNL A   1      49.642  24.749  32.310  1.00  0.00    -0.237 OA
ATOM     79  O   UNL A   1      49.809  25.625  34.609  1.00  0.00    -0.744 OA
ENDBRANCH  75  76
ENDBRANCH  56  70
BRANCH  57  80
ATOM     80  C   UNL A   1      37.120  32.505  29.983  1.00  0.00    -0.014 A 
ATOM     81  C   UNL A   1      37.155  33.602  29.103  1.00  0.00     0.010 A 
ATOM     82  C   UNL A   1      35.883  32.093  30.510  1.00  0.00     0.010 A 
ATOM     83  C   UNL A   1      35.982  34.291  28.778  1.00  0.00     0.020 A 
ATOM     84  C   UNL A   1      34.703  32.767  30.170  1.00  0.00     0.020 A 
ATOM     85  C   UNL A   1      34.763  33.870  29.316  1.00  0.00     0.054 A 
BRANCH  85  86
ATOM     86  S   UNL A   1      33.252  34.765  28.856  1.00  0.00     0.124 S 
ATOM     87  O   UNL A   1      32.564  34.880  30.138  1.00  0.00    -0.237 OA
ATOM     88  O   UNL A   1      33.780  36.012  28.308  1.00  0.00    -0.237 OA
ATOM     89  O   UNL A   1      32.616  33.884  27.880  1.00  0.00    -0.744 OA
ENDBRANCH  85  86
ENDBRANCH  57  80
BRANCH  69  90
ATOM     90  C   UNL A   1      42.020  33.581  34.834  1.00  0.00    -0.014 A 
ATOM     91  C   UNL A   1      41.567  33.494  36.160  1.00  0.00     0.010 A 
ATOM     92  C   UNL A   1      42.800  34.684  34.439  1.00  0.00     0.010 A 
ATOM     93  C   UNL A   1      41.886  34.499  37.076  1.00  0.00     0.020 A 
ATOM     94  C   UNL A   1      43.138  35.677  35.357  1.00  0.00     0.020 A 
ATOM     95  C   UNL A   1      42.675  35.581  36.670  1.00  0.00     0.054 A 
BRANCH  95  96
ATOM     96  S   UNL A   1      43.153  36.826  37.900  1.00  0.00     0.124 S 
ATOM     97  O   UNL A   1      41.871  37.143  38.524  1.00  0.00    -0.237 OA
ATOM     98  O   UNL A   1      44.100  36.100  38.742  1.00  0.00    -0.237 OA
ATOM     99  O   UNL A   1      43.738  37.898  37.097  1.00  0.00    -0.744 OA
ENDBRANCH  95  96
ENDBRANCH  69  90
ENDBRANCH  43  44
ENDBRANCH  35  38
ENDBRANCH  33  34
ENDBRANCH  32  33
ENDBRANCH   1  32
TORSDOF 18
ENDMDL
MODEL 2
REMARK VINA RESULT:     -11.8      3.087      9.831
REMARK SMILES CCc1cc(=O)oc2c3c(cc(OCC(=O)NCC(=O)NCCCNC(=O)c4ccc(-c5c6nc(c(-c7ccc(S(=O)(=O)[O-])cc7)c7ccc([nH]7)c(-c7ccc(S(=O)(=O)[O-])cc7)c7nc(c(-c8ccc(S(=O)(=O)[O-])cc8)c8ccc5[nH]8)C=C7)C=C6)cc4)c12)OC(C)(C)CC3
REMARK SMILES IDX 22 1 21 2 19 3 20 4 18 6 17 7 15 8 16 9 14 11 13 12 12 13
REMARK SMILES IDX 3 14 4 15 88 16 5 17 8 18 6 19 7 20 9 21 11 22 10 23 94 24
REMARK SMILES IDX 89 25 93 26 90 27 91 28 92 29 2 30 1 31 23 32 24 33 25 34
REMARK SMILES IDX 26 35 27 37 28 38 29 39 87 40 30 41 86 42 31 43 32 44 33 45
REMARK SMILES IDX 80 46 34 47 85 48 79 49 81 50 35 51 84 52 78 53 77 54 36 56
REMARK SMILES IDX 66 57 47 58 65 59 48 60 51 61 64 62 82 63 49 64 50 65 63 67
REMARK SMILES IDX 83 68 52 69 37 70 38 71 46 72 39 73 45 74 40 75 41 76 42 77
REMARK SMILES IDX 43 78 44 79 67 80 68 81 76 82 69 83 75 84 70 85 71 86 72 87
REMARK SMILES IDX 73 88 74 89 53 90 54 91 62 92 55 93 61 94 56 95 57 96 58 97
REMARK SMILES IDX 59 98 60 99
REMARK H PARENT 21 5 17 10 25 36 81 55 51 66
REMARK Flexibility Score: inf
ROOT
ATOM      1  C   UNL A   1      31.513  28.509  25.264  1.00  0.00     0.117 C 
ENDROOT
BRANCH   1   2
ATOM      2  N   UNL A   1      30.720  27.535  24.546  1.00  0.00    -0.355 N 
ATOM      3  C   UNL A   1      30.524  26.219  24.866  1.00  0.00     0.239 C 
ATOM      4  O   UNL A   1      29.645  25.595  24.270  1.00  0.00    -0.273 OA
ATOM      5  H   UNL A   1      30.269  27.857  23.731  1.00  0.00     0.163 HD
BRANCH   3   6
ATOM      6  C   UNL A   1      31.314  25.576  26.016  1.00  0.00     0.216 C 
BRANCH   6   7
ATOM      7  N   UNL A   1      30.511  24.662  26.808  1.00  0.00    -0.344 N 
ATOM      8  C   UNL A   1      30.352  23.317  26.665  1.00  0.00     0.258 C 
ATOM      9  O   UNL A   1      29.777  22.704  27.566  1.00  0.00    -0.271 OA
ATOM     10  H   UNL A   1      30.011  25.071  27.552  1.00  0.00     0.164 HD
BRANCH   8  11
ATOM     11  C   UNL A   1      30.902  22.584  25.423  1.00  0.00     0.329 C 
BRANCH  11  12
ATOM     12  O   UNL A   1      32.276  22.733  25.086  1.00  0.00    -0.483 OA
BRANCH  12  13
ATOM     13  C   UNL A   1      33.110  21.644  25.155  1.00  0.00     0.135 A 
ATOM     14  C   UNL A   1      35.197  23.188  24.959  1.00  0.00    -0.026 A 
ATOM     15  C   UNL A   1      36.540  23.208  24.940  1.00  0.00     0.098 A 
ATOM     16  C   UNL A   1      34.513  21.864  25.101  1.00  0.00     0.063 A 
ATOM     17  C   UNL A   1      37.394  22.023  25.059  1.00  0.00     0.336 A 
ATOM     18  C   UNL A   1      35.330  20.717  25.080  1.00  0.00     0.149 A 
ATOM     19  O   UNL A   1      38.610  22.140  25.152  1.00  0.00    -0.246 OA
ATOM     20  O   UNL A   1      36.743  20.813  25.050  1.00  0.00    -0.422 OA
ATOM     21  C   UNL A   1      34.822  19.406  25.044  1.00  0.00     0.038 A 
ATOM     22  C   UNL A   1      32.607  20.335  25.214  1.00  0.00     0.094 A 
ATOM     23  C   UNL A   1      33.448  19.234  25.092  1.00  0.00     0.130 A 
ATOM     24  C   UNL A   1      35.724  18.230  24.823  1.00  0.00     0.047 C 
ATOM     25  O   UNL A   1      32.824  18.023  24.982  1.00  0.00    -0.487 OA
ATOM     26  C   UNL A   1      34.995  16.904  24.966  1.00  0.00     0.053 C 
ATOM     27  C   UNL A   1      33.585  16.968  24.362  1.00  0.00     0.104 C 
ATOM     28  C   UNL A   1      32.843  15.666  24.692  1.00  0.00     0.056 C 
ATOM     29  C   UNL A   1      33.577  17.159  22.834  1.00  0.00     0.056 C 
BRANCH  14  30
ATOM     30  C   UNL A   1      34.394  24.463  24.791  1.00  0.00     0.033 C 
ATOM     31  C   UNL A   1      34.085  24.929  23.368  1.00  0.00     0.009 C 
ENDBRANCH  14  30
ENDBRANCH  12  13
ENDBRANCH  11  12
ENDBRANCH   8  11
ENDBRANCH   6   7
ENDBRANCH   3   6
ENDBRANCH   1   2
BRANCH   1  32
ATOM     32  C   UNL A   1      32.990  28.472  24.910  1.00  0.00     0.042 C 
BRANCH  32  33
ATOM     33  C   UNL A   1      33.923  28.690  26.094  1.00  0.00     0.118 C 
BRANCH  33  34
ATOM     34  N   UNL A   1      33.697  29.948  26.802  1.00  0.00    -0.352 N 
ATOM     35  C   UNL A   1      34.453  30.635  27.726  1.00  0.00     0.251 C 
ATOM     36  H   UNL A   1      32.845  30.387  26.577  1.00  0.00     0.163 HD
ATOM     37  O   UNL A   1      33.987  31.658  28.225  1.00  0.00    -0.269 OA
BRANCH  35  38
ATOM     38  C   UNL A   1      35.783  30.151  28.172  1.00  0.00     0.039 A 
ATOM     39  C   UNL A   1      36.861  30.184  27.271  1.00  0.00     0.014 A 
ATOM     40  C   UNL A   1      35.982  29.656  29.456  1.00  0.00     0.014 A 
ATOM     41  C   UNL A   1      38.153  29.846  27.692  1.00  0.00     0.010 A 
ATOM     42  C   UNL A   1      37.270  29.378  29.896  1.00  0.00     0.010 A 
ATOM     43  C   UNL A   1      38.365  29.467  29.019  1.00  0.00    -0.014 A 
BRANCH  43  44
ATOM     44  C   UNL A   1      39.670  28.989  29.534  1.00  0.00     0.031 A 
ATOM     45  C   UNL A   1      40.554  30.000  30.199  1.00  0.00     0.074 A 
ATOM     46  C   UNL A   1      40.123  27.753  29.260  1.00  0.00     0.049 A 
ATOM     47  N   UNL A   1      41.837  29.954  30.431  1.00  0.00    -0.248 NA
ATOM     48  C   UNL A   1      39.899  31.251  30.625  1.00  0.00     0.031 C 
ATOM     49  C   UNL A   1      39.341  26.672  28.669  1.00  0.00     0.029 A 
ATOM     50  N   UNL A   1      41.380  27.217  29.392  1.00  0.00    -0.354 N 
ATOM     51  C   UNL A   1      42.149  31.179  31.005  1.00  0.00     0.074 A 
ATOM     52  C   UNL A   1      40.934  31.962  31.041  1.00  0.00     0.031 C 
ATOM     53  C   UNL A   1      40.148  25.627  28.417  1.00  0.00     0.029 A 
ATOM     54  C   UNL A   1      41.507  25.971  28.818  1.00  0.00     0.049 A 
ATOM     55  H   UNL A   1      42.119  27.679  29.850  1.00  0.00     0.167 HD
ATOM     56  C   UNL A   1      43.343  31.605  31.475  1.00  0.00     0.031 A 
ATOM     57  C   UNL A   1      42.600  25.212  28.617  1.00  0.00     0.031 A 
ATOM     58  C   UNL A   1      44.540  30.813  31.435  1.00  0.00     0.049 A 
ATOM     59  C   UNL A   1      43.933  25.723  29.097  1.00  0.00     0.074 A 
ATOM     60  C   UNL A   1      45.801  31.129  31.903  1.00  0.00     0.029 A 
ATOM     61  N   UNL A   1      44.615  29.536  30.898  1.00  0.00    -0.354 N 
ATOM     62  N   UNL A   1      44.217  26.874  29.658  1.00  0.00    -0.248 NA
ATOM     63  C   UNL A   1      45.086  24.826  28.942  1.00  0.00     0.031 C 
ATOM     64  C   UNL A   1      46.647  30.051  31.626  1.00  0.00     0.029 A 
ATOM     65  C   UNL A   1      45.901  29.048  31.024  1.00  0.00     0.049 A 
ATOM     66  H   UNL A   1      43.863  29.050  30.490  1.00  0.00     0.167 HD
ATOM     67  C   UNL A   1      45.568  26.817  29.977  1.00  0.00     0.074 A 
ATOM     68  C   UNL A   1      46.048  25.525  29.530  1.00  0.00     0.031 C 
ATOM     69  C   UNL A   1      46.338  27.742  30.598  1.00  0.00     0.031 A 
BRANCH  56  70
ATOM     70  C   UNL A   1      43.388  32.988  32.058  1.00  0.00    -0.014 A 
ATOM     71  C   UNL A   1      43.523  34.116  31.226  1.00  0.00     0.010 A 
ATOM     72  C   UNL A   1      43.327  33.166  33.451  1.00  0.00     0.010 A 
ATOM     73  C   UNL A   1      43.657  35.391  31.778  1.00  0.00     0.020 A 
ATOM     74  C   UNL A   1      43.433  34.445  34.007  1.00  0.00     0.020 A 
ATOM     75  C   UNL A   1      43.621  35.545  33.166  1.00  0.00     0.054 A 
BRANCH  75  76
ATOM     76  S   UNL A   1      43.810  37.209  33.862  1.00  0.00     0.124 S 
ATOM     77  O   UNL A   1      44.675  36.956  35.011  1.00  0.00    -0.237 OA
ATOM     78  O   UNL A   1      44.427  37.948  32.763  1.00  0.00    -0.237 OA
ATOM     79  O   UNL A   1      42.443  37.606  34.186  1.00  0.00    -0.744 OA
ENDBRANCH  75  76
ENDBRANCH  56  70
BRANCH  57  80
ATOM     80  C   UNL A   1      42.485  23.884  27.953  1.00  0.00    -0.014 A 
ATOM     81  C   UNL A   1      42.421  22.711  28.726  1.00  0.00     0.010 A 
ATOM     82  C   UNL A   1      42.445  23.780  26.552  1.00  0.00     0.010 A 
ATOM     83  C   UNL A   1      42.346  21.457  28.111  1.00  0.00     0.020 A 
ATOM     84  C   UNL A   1      42.349  22.528  25.931  1.00  0.00     0.020 A 
ATOM     85  C   UNL A   1      42.313  21.374  26.716  1.00  0.00     0.054 A 
BRANCH  85  86
ATOM     86  S   UNL A   1      42.188  19.735  25.945  1.00  0.00     0.124 S 
ATOM     87  O   UNL A   1      40.820  19.739  25.439  1.00  0.00    -0.237 OA
ATOM     88  O   UNL A   1      43.237  19.785  24.929  1.00  0.00    -0.237 OA
ATOM     89  O   UNL A   1      42.446  18.816  27.051  1.00  0.00    -0.744 OA
ENDBRANCH  85  86
ENDBRANCH  57  80
BRANCH  69  90
ATOM     90  C   UNL A   1      47.759  27.366  30.913  1.00  0.00    -0.014 A 
ATOM     91  C   UNL A   1      48.094  26.703  32.105  1.00  0.00     0.010 A 
ATOM     92  C   UNL A   1      48.754  27.594  29.944  1.00  0.00     0.010 A 
ATOM     93  C   UNL A   1      49.406  26.279  32.325  1.00  0.00     0.020 A 
ATOM     94  C   UNL A   1      50.059  27.151  30.151  1.00  0.00     0.020 A 
ATOM     95  C   UNL A   1      50.379  26.500  31.344  1.00  0.00     0.054 A 
BRANCH  95  96
ATOM     96  S   UNL A   1      52.054  25.858  31.613  1.00  0.00     0.124 S 
ATOM     97  O   UNL A   1      52.668  26.055  30.302  1.00  0.00    -0.237 OA
ATOM     98  O   UNL A   1      52.561  26.716  32.681  1.00  0.00    -0.237 OA
ATOM     99  O   UNL A   1      51.833  24.465  31.994  1.00  0.00    -0.744 OA
ENDBRANCH  95  96
ENDBRANCH  69  90
ENDBRANCH  43  44
ENDBRANCH  35  38
ENDBRANCH  33  34
ENDBRANCH  32  33
ENDBRANCH   1  32
TORSDOF 18
ENDMDL
MODEL 3
REMARK VINA RESULT:     -11.5      2.772      8.948
REMARK SMILES CCc1cc(=O)oc2c3c(cc(OCC(=O)NCC(=O)NCCCNC(=O)c4ccc(-c5c6nc(c(-c7ccc(S(=O)(=O)[O-])cc7)c7ccc([nH]7)c(-c7ccc(S(=O)(=O)[O-])cc7)c7nc(c(-c8ccc(S(=O)(=O)[O-])cc8)c8ccc5[nH]8)C=C7)C=C6)cc4)c12)OC(C)(C)CC3
REMARK SMILES IDX 22 1 21 2 19 3 20 4 18 6 17 7 15 8 16 9 14 11 13 12 12 13
REMARK SMILES IDX 3 14 4 15 88 16 5 17 8 18 6 19 7 20 9 21 11 22 10 23 94 24
REMARK SMILES IDX 89 25 93 26 90 27 91 28 92 29 2 30 1 31 23 32 24 33 25 34
REMARK SMILES IDX 26 35 27 37 28 38 29 39 87 40 30 41 86 42 31 43 32 44 33 45
REMARK SMILES IDX 80 46 34 47 85 48 79 49 81 50 35 51 84 52 78 53 77 54 36 56
REMARK SMILES IDX 66 57 47 58 65 59 48 60 51 61 64 62 82 63 49 64 50 65 63 67
REMARK SMILES IDX 83 68 52 69 37 70 38 71 46 72 39 73 45 74 40 75 41 76 42 77
REMARK SMILES IDX 43 78 44 79 67 80 68 81 76 82 69 83 75 84 70 85 71 86 72 87
REMARK SMILES IDX 73 88 74 89 53 90 54 91 62 92 55 93 61 94 56 95 57 96 58 97
REMARK SMILES IDX 59 98 60 99
REMARK H PARENT 21 5 17 10 25 36 81 55 51 66
REMARK Flexibility Score: inf
ROOT
ATOM      1  C   UNL A   1      41.427  22.681  26.438  1.00  0.00     0.117 C 
ENDROOT
BRANCH   1   2
ATOM      2  N   UNL A   1      40.738  23.512  27.401  1.00  0.00    -0.355 N 
ATOM      3  C   UNL A   1      39.455  23.982  27.331  1.00  0.00     0.239 C 
ATOM      4  O   UNL A   1      38.960  24.489  28.340  1.00  0.00    -0.273 OA
ATOM      5  H   UNL A   1      41.253  23.769  28.200  1.00  0.00     0.163 HD
BRANCH   3   6
ATOM      6  C   UNL A   1      38.625  23.780  26.055  1.00  0.00     0.216 C 
BRANCH   6   7
ATOM      7  N   UNL A   1      37.667  22.696  26.171  1.00  0.00    -0.344 N 
ATOM      8  C   UNL A   1      36.545  22.460  25.435  1.00  0.00     0.258 C 
ATOM      9  O   UNL A   1      35.980  21.375  25.575  1.00  0.00    -0.271 OA
ATOM     10  H   UNL A   1      37.853  22.040  26.882  1.00  0.00     0.164 HD
BRANCH   8  11
ATOM     11  C   UNL A   1      36.021  23.513  24.436  1.00  0.00     0.329 C 
BRANCH  11  12
ATOM     12  O   UNL A   1      34.618  23.635  24.233  1.00  0.00    -0.483 OA
BRANCH  12  13
ATOM     13  C   UNL A   1      33.883  24.446  25.063  1.00  0.00     0.135 A 
ATOM     14  C   UNL A   1      32.096  22.576  25.362  1.00  0.00    -0.026 A 
ATOM     15  C   UNL A   1      30.946  22.257  25.979  1.00  0.00     0.098 A 
ATOM     16  C   UNL A   1      32.676  23.934  25.611  1.00  0.00     0.063 A 
ATOM     17  C   UNL A   1      30.215  23.140  26.891  1.00  0.00     0.336 A 
ATOM     18  C   UNL A   1      31.905  24.827  26.381  1.00  0.00     0.149 A 
ATOM     19  O   UNL A   1      29.237  22.728  27.505  1.00  0.00    -0.246 OA
ATOM     20  O   UNL A   1      30.695  24.423  26.995  1.00  0.00    -0.422 OA
ATOM     21  C   UNL A   1      32.243  26.180  26.564  1.00  0.00     0.038 A 
ATOM     22  C   UNL A   1      34.267  25.770  25.326  1.00  0.00     0.094 A 
ATOM     23  C   UNL A   1      33.425  26.642  26.008  1.00  0.00     0.130 A 
ATOM     24  C   UNL A   1      31.293  27.134  27.221  1.00  0.00     0.047 C 
ATOM     25  O   UNL A   1      33.828  27.947  26.043  1.00  0.00    -0.487 OA
ATOM     26  C   UNL A   1      31.912  28.504  27.450  1.00  0.00     0.053 C 
ATOM     27  C   UNL A   1      32.797  28.927  26.269  1.00  0.00     0.104 C 
ATOM     28  C   UNL A   1      33.526  30.227  26.634  1.00  0.00     0.056 C 
ATOM     29  C   UNL A   1      32.014  29.158  24.963  1.00  0.00     0.056 C 
BRANCH  14  30
ATOM     30  C   UNL A   1      32.763  21.611  24.403  1.00  0.00     0.033 C 
ATOM     31  C   UNL A   1      32.214  21.528  22.978  1.00  0.00     0.009 C 
ENDBRANCH  14  30
ENDBRANCH  12  13
ENDBRANCH  11  12
ENDBRANCH   8  11
ENDBRANCH   6   7
ENDBRANCH   3   6
ENDBRANCH   1   2
BRANCH   1  32
ATOM     32  C   UNL A   1      42.320  23.461  25.489  1.00  0.00     0.042 C 
BRANCH  32  33
ATOM     33  C   UNL A   1      42.939  24.712  26.098  1.00  0.00     0.118 C 
BRANCH  33  34
ATOM     34  N   UNL A   1      42.898  25.880  25.218  1.00  0.00    -0.352 N 
ATOM     35  C   UNL A   1      42.547  27.192  25.446  1.00  0.00     0.251 C 
ATOM     36  H   UNL A   1      43.171  25.692  24.292  1.00  0.00     0.163 HD
ATOM     37  O   UNL A   1      42.537  27.971  24.494  1.00  0.00    -0.269 OA
BRANCH  35  38
ATOM     38  C   UNL A   1      42.137  27.678  26.786  1.00  0.00     0.039 A 
ATOM     39  C   UNL A   1      41.158  26.967  27.502  1.00  0.00     0.014 A 
ATOM     40  C   UNL A   1      42.690  28.826  27.342  1.00  0.00     0.014 A 
ATOM     41  C   UNL A   1      40.831  27.329  28.814  1.00  0.00     0.010 A 
ATOM     42  C   UNL A   1      42.414  29.153  28.664  1.00  0.00     0.010 A 
ATOM     43  C   UNL A   1      41.482  28.411  29.410  1.00  0.00    -0.014 A 
BRANCH  43  44
ATOM     44  C   UNL A   1      41.133  28.938  30.750  1.00  0.00     0.031 A 
ATOM     45  C   UNL A   1      40.008  29.926  30.824  1.00  0.00     0.074 A 
ATOM     46  C   UNL A   1      41.901  28.689  31.825  1.00  0.00     0.049 A 
ATOM     47  N   UNL A   1      39.715  30.779  31.765  1.00  0.00    -0.248 NA
ATOM     48  C   UNL A   1      39.116  29.978  29.650  1.00  0.00     0.031 C 
ATOM     49  C   UNL A   1      42.984  27.713  31.889  1.00  0.00     0.029 A 
ATOM     50  N   UNL A   1      41.922  29.287  33.061  1.00  0.00    -0.354 N 
ATOM     51  C   UNL A   1      38.621  31.489  31.289  1.00  0.00     0.074 A 
ATOM     52  C   UNL A   1      38.335  31.001  29.958  1.00  0.00     0.031 C 
ATOM     53  C   UNL A   1      43.615  27.827  33.070  1.00  0.00     0.029 A 
ATOM     54  C   UNL A   1      42.987  28.894  33.841  1.00  0.00     0.049 A 
ATOM     55  H   UNL A   1      41.242  29.934  33.360  1.00  0.00     0.167 HD
ATOM     56  C   UNL A   1      37.909  32.453  31.915  1.00  0.00     0.031 A 
ATOM     57  C   UNL A   1      43.419  29.364  35.027  1.00  0.00     0.031 A 
ATOM     58  C   UNL A   1      38.203  32.924  33.238  1.00  0.00     0.049 A 
ATOM     59  C   UNL A   1      42.647  30.475  35.688  1.00  0.00     0.074 A 
ATOM     60  C   UNL A   1      37.538  33.878  33.983  1.00  0.00     0.029 A 
ATOM     61  N   UNL A   1      39.255  32.462  34.017  1.00  0.00    -0.354 N 
ATOM     62  N   UNL A   1      41.601  31.128  35.239  1.00  0.00    -0.248 NA
ATOM     63  C   UNL A   1      43.096  30.897  37.022  1.00  0.00     0.031 C 
ATOM     64  C   UNL A   1      38.203  34.012  35.207  1.00  0.00     0.029 A 
ATOM     65  C   UNL A   1      39.257  33.110  35.237  1.00  0.00     0.049 A 
ATOM     66  H   UNL A   1      39.902  31.774  33.740  1.00  0.00     0.167 HD
ATOM     67  C   UNL A   1      41.230  31.995  36.260  1.00  0.00     0.074 A 
ATOM     68  C   UNL A   1      42.174  31.796  37.341  1.00  0.00     0.031 C 
ATOM     69  C   UNL A   1      40.192  32.864  36.306  1.00  0.00     0.031 A 
BRANCH  56  70
ATOM     70  C   UNL A   1      36.758  33.047  31.155  1.00  0.00    -0.014 A 
ATOM     71  C   UNL A   1      36.983  33.859  30.027  1.00  0.00     0.010 A 
ATOM     72  C   UNL A   1      35.439  32.822  31.586  1.00  0.00     0.010 A 
ATOM     73  C   UNL A   1      35.915  34.484  29.380  1.00  0.00     0.020 A 
ATOM     74  C   UNL A   1      34.365  33.423  30.924  1.00  0.00     0.020 A 
ATOM     75  C   UNL A   1      34.613  34.269  29.840  1.00  0.00     0.054 A 
BRANCH  75  76
ATOM     76  S   UNL A   1      33.243  35.101  28.992  1.00  0.00     0.124 S 
ATOM     77  O   UNL A   1      33.915  36.253  28.396  1.00  0.00    -0.237 OA
ATOM     78  O   UNL A   1      32.784  34.085  28.049  1.00  0.00    -0.237 OA
ATOM     79  O   UNL A   1      32.309  35.414  30.071  1.00  0.00    -0.744 OA
ENDBRANCH  75  76
ENDBRANCH  56  70
BRANCH  57  80
ATOM     80  C   UNL A   1      44.622  28.776  35.678  1.00  0.00    -0.014 A 
ATOM     81  C   UNL A   1      44.489  27.687  36.557  1.00  0.00     0.010 A 
ATOM     82  C   UNL A   1      45.903  29.301  35.432  1.00  0.00     0.010 A 
ATOM     83  C   UNL A   1      45.609  27.150  37.200  1.00  0.00     0.020 A 
ATOM     84  C   UNL A   1      47.031  28.753  36.056  1.00  0.00     0.020 A 
ATOM     85  C   UNL A   1      46.874  27.689  36.947  1.00  0.00     0.054 A 
BRANCH  85  86
ATOM     86  S   UNL A   1      48.314  26.955  37.773  1.00  0.00     0.124 S 
ATOM     87  O   UNL A   1      48.316  25.598  37.235  1.00  0.00    -0.237 OA
ATOM     88  O   UNL A   1      49.406  27.814  37.324  1.00  0.00    -0.237 OA
ATOM     89  O   UNL A   1      47.987  27.066  39.193  1.00  0.00    -0.744 OA
ENDBRANCH  85  86
ENDBRANCH  57  80
BRANCH  69  90
ATOM     90  C   UNL A   1      39.964  33.607  37.591  1.00  0.00    -0.014 A 
ATOM     91  C   UNL A   1      40.235  34.981  37.701  1.00  0.00     0.010 A 
ATOM     92  C   UNL A   1      39.370  32.930  38.673  1.00  0.00     0.010 A 
ATOM     93  C   UNL A   1      39.920  35.665  38.877  1.00  0.00     0.020 A 
ATOM     94  C   UNL A   1      39.034  33.615  39.840  1.00  0.00     0.020 A 
ATOM     95  C   UNL A   1      39.316  34.978  39.937  1.00  0.00     0.054 A 
BRANCH  95  96
ATOM     96  S   UNL A   1      38.832  35.907  41.418  1.00  0.00     0.124 S 
ATOM     97  O   UNL A   1      38.914  37.288  40.950  1.00  0.00    -0.237 OA
ATOM     98  O   UNL A   1      37.484  35.412  41.684  1.00  0.00    -0.237 OA
ATOM     99  O   UNL A   1      39.836  35.524  42.409  1.00  0.00    -0.744 OA
ENDBRANCH  95  96
ENDBRANCH  69  90
ENDBRANCH  43  44
ENDBRANCH  35  38
ENDBRANCH  33  34
ENDBRANCH  32  33
ENDBRANCH   1  32
TORSDOF 18
ENDMDL
