MODEL 1
REMARK VINA RESULT:     -12.2      0.000      0.000
REMARK SMILES O=C(CCn1cc(/C=C2/[NH+]=C(S)N(c3ccccc3)C2=O)c(-c2ccc(Br)cc2)n1)NCCCNC(=O)c1ccc(-c2c3nc(c(-c4ccc(S(=O)(=O)[O-])cc4)c4ccc([nH]4)c(-c4ccc(S(=O)(=O)[O-])cc4)c4nc(c(-c5ccc(S(=O)(=O)[O-])cc5)c5ccc2[nH]5)C=C4)C=C3)cc1
REMARK SMILES IDX 32 1 31 2 1 3 2 4 3 6 4 7 5 8 6 9 30 10 7 11 22 12 8 13 9 14
REMARK SMILES IDX 10 15 20 16 11 17 13 19 21 20 12 21 14 23 15 24 19 25 16 26
REMARK SMILES IDX 18 27 17 28 23 29 24 30 29 31 25 32 28 33 26 34 27 35 33 36
REMARK SMILES IDX 34 37 35 38 36 39 37 41 38 42 39 43 97 44 40 45 96 46 41 47
REMARK SMILES IDX 42 48 43 49 90 50 44 51 95 52 89 53 91 54 45 55 94 56 88 57
REMARK SMILES IDX 87 58 46 60 76 61 57 62 75 63 58 64 61 65 74 66 92 67 59 68
REMARK SMILES IDX 60 69 73 71 93 72 62 73 47 74 48 75 56 76 49 77 55 78 50 79
REMARK SMILES IDX 51 80 52 81 53 82 54 83 77 84 78 85 86 86 79 87 85 88 80 89
REMARK SMILES IDX 81 90 82 91 83 92 84 93 63 94 64 95 72 96 65 97 71 98 66 99
REMARK SMILES IDX 67 100 68 101 69 102 70 103
REMARK H PARENT 31 5 10 18 12 22 35 40 91 59 61 70
REMARK Flexibility Score: inf
ROOT
ATOM      1  C   UNL A   1      32.256  28.199  25.917  1.00  0.00     0.117 C 
ENDROOT
BRANCH   1   2
ATOM      2  N   UNL A   1      32.417  27.360  24.741  1.00  0.00    -0.356 N 
ATOM      3  O   UNL A   1      31.281  25.512  25.470  1.00  0.00    -0.275 OA
ATOM      4  C   UNL A   1      31.883  26.108  24.581  1.00  0.00     0.221 C 
ATOM      5  H   UNL A   1      32.954  27.720  23.999  1.00  0.00     0.163 HD
BRANCH   4   6
ATOM      6  C   UNL A   1      32.084  25.499  23.200  1.00  0.00     0.123 C 
BRANCH   6   7
ATOM      7  C   UNL A   1      33.545  25.122  22.922  1.00  0.00     0.154 C 
BRANCH   7   8
ATOM      8  N   UNL A   1      33.941  23.752  23.232  1.00  0.00    -0.271 N 
ATOM      9  C   UNL A   1      35.214  23.318  23.536  1.00  0.00     0.117 A 
ATOM     10  N   UNL A   1      33.004  22.794  23.398  1.00  0.00    -0.172 NA
ATOM     11  C   UNL A   1      35.098  21.986  23.868  1.00  0.00     0.025 A 
ATOM     12  C   UNL A   1      33.696  21.745  23.853  1.00  0.00     0.100 A 
BRANCH  11  13
ATOM     13  C   UNL A   1      36.092  21.098  24.404  1.00  0.00     0.072 C 
ATOM     14  C   UNL A   1      37.112  21.379  25.245  1.00  0.00     0.217 C 
ATOM     15  N   UNL A   1      38.262  20.627  25.266  1.00  0.00    -0.228 N 
ATOM     16  C   UNL A   1      37.332  22.582  26.112  1.00  0.00     0.386 C 
ATOM     17  C   UNL A   1      39.135  21.377  25.877  1.00  0.00     0.321 C 
ATOM     18  H   UNL A   1      38.397  19.723  24.899  1.00  0.00     0.313 HD
ATOM     19  N   UNL A   1      38.694  22.577  26.372  1.00  0.00    -0.149 N 
ATOM     20  O   UNL A   1      36.428  23.332  26.468  1.00  0.00    -0.236 OA
BRANCH  17  21
ATOM     21  S   UNL A   1      40.740  20.740  26.037  1.00  0.00    -0.055 SA
ATOM     22  H   UNL A   1      41.086  20.090  24.894  1.00  0.00     0.116 HD
ENDBRANCH  17  21
BRANCH  19  23
ATOM     23  C   UNL A   1      39.406  23.705  26.931  1.00  0.00     0.137 A 
ATOM     24  C   UNL A   1      38.862  24.999  27.045  1.00  0.00     0.052 A 
ATOM     25  C   UNL A   1      40.652  23.524  27.557  1.00  0.00     0.052 A 
ATOM     26  C   UNL A   1      39.481  26.019  27.794  1.00  0.00     0.004 A 
ATOM     27  C   UNL A   1      41.246  24.524  28.342  1.00  0.00     0.004 A 
ATOM     28  C   UNL A   1      40.660  25.770  28.472  1.00  0.00     0.000 A 
ENDBRANCH  19  23
ENDBRANCH  11  13
BRANCH  12  29
ATOM     29  C   UNL A   1      33.070  20.524  24.311  1.00  0.00     0.003 A 
ATOM     30  C   UNL A   1      33.164  20.120  25.640  1.00  0.00     0.011 A 
ATOM     31  C   UNL A   1      32.663  19.621  23.350  1.00  0.00     0.011 A 
ATOM     32  C   UNL A   1      32.904  18.792  25.979  1.00  0.00     0.016 A 
ATOM     33  C   UNL A   1      32.481  18.283  23.670  1.00  0.00     0.016 A 
ATOM     34  C   UNL A   1      32.586  17.870  24.990  1.00  0.00     0.018 A 
ATOM     35  Br  UNL A   1      32.271  16.069  25.461  1.00  0.00    -0.051 Br
ENDBRANCH  12  29
ENDBRANCH   7   8
ENDBRANCH   6   7
ENDBRANCH   4   6
ENDBRANCH   1   2
BRANCH   1  36
ATOM     36  C   UNL A   1      33.445  28.150  26.874  1.00  0.00     0.042 C 
BRANCH  36  37
ATOM     37  C   UNL A   1      33.387  29.219  27.944  1.00  0.00     0.118 C 
BRANCH  37  38
ATOM     38  N   UNL A   1      33.609  30.589  27.563  1.00  0.00    -0.352 N 
ATOM     39  C   UNL A   1      34.769  31.322  27.744  1.00  0.00     0.251 C 
ATOM     40  H   UNL A   1      32.858  31.053  27.130  1.00  0.00     0.163 HD
ATOM     41  O   UNL A   1      34.736  32.514  27.430  1.00  0.00    -0.269 OA
BRANCH  39  42
ATOM     42  C   UNL A   1      36.062  30.701  28.216  1.00  0.00     0.039 A 
ATOM     43  C   UNL A   1      36.892  31.482  29.029  1.00  0.00     0.014 A 
ATOM     44  C   UNL A   1      36.577  29.477  27.763  1.00  0.00     0.014 A 
ATOM     45  C   UNL A   1      38.239  31.139  29.173  1.00  0.00     0.010 A 
ATOM     46  C   UNL A   1      37.901  29.116  27.919  1.00  0.00     0.010 A 
ATOM     47  C   UNL A   1      38.762  30.000  28.523  1.00  0.00    -0.014 A 
BRANCH  47  48
ATOM     48  C   UNL A   1      40.153  29.597  28.707  1.00  0.00     0.031 A 
ATOM     49  C   UNL A   1      40.428  29.520  30.147  1.00  0.00     0.074 A 
ATOM     50  C   UNL A   1      41.050  29.180  27.787  1.00  0.00     0.049 A 
ATOM     51  N   UNL A   1      41.086  30.382  30.842  1.00  0.00    -0.248 NA
ATOM     52  C   UNL A   1      39.623  28.564  30.931  1.00  0.00     0.031 C 
ATOM     53  C   UNL A   1      40.851  28.986  26.355  1.00  0.00     0.029 A 
ATOM     54  N   UNL A   1      42.349  28.776  27.950  1.00  0.00    -0.354 N 
ATOM     55  C   UNL A   1      40.973  29.922  32.139  1.00  0.00     0.074 A 
ATOM     56  C   UNL A   1      39.856  29.010  32.165  1.00  0.00     0.031 C 
ATOM     57  C   UNL A   1      41.896  28.334  25.812  1.00  0.00     0.029 A 
ATOM     58  C   UNL A   1      42.890  28.128  26.839  1.00  0.00     0.049 A 
ATOM     59  H   UNL A   1      42.857  28.928  28.781  1.00  0.00     0.167 HD
ATOM     60  C   UNL A   1      42.029  30.000  32.985  1.00  0.00     0.031 A 
ATOM     61  C   UNL A   1      44.050  27.432  26.747  1.00  0.00     0.031 A 
ATOM     62  C   UNL A   1      43.050  30.888  32.498  1.00  0.00     0.049 A 
ATOM     63  C   UNL A   1      44.914  27.894  27.855  1.00  0.00     0.074 A 
ATOM     64  C   UNL A   1      43.174  32.247  32.326  1.00  0.00     0.029 A 
ATOM     65  N   UNL A   1      44.017  30.286  31.730  1.00  0.00    -0.354 N 
ATOM     66  N   UNL A   1      45.449  29.083  27.900  1.00  0.00    -0.248 NA
ATOM     67  C   UNL A   1      44.866  27.188  29.128  1.00  0.00     0.031 C 
ATOM     68  C   UNL A   1      44.111  32.423  31.267  1.00  0.00     0.029 A 
ATOM     69  C   UNL A   1      44.560  31.171  30.833  1.00  0.00     0.049 A 
ATOM     70  H   UNL A   1      44.286  29.342  31.811  1.00  0.00     0.167 HD
ATOM     71  C   UNL A   1      45.400  29.445  29.237  1.00  0.00     0.074 A 
ATOM     72  C   UNL A   1      45.176  28.192  29.952  1.00  0.00     0.031 C 
ATOM     73  C   UNL A   1      45.257  30.753  29.616  1.00  0.00     0.031 A 
BRANCH  60  74
ATOM     74  C   UNL A   1      42.333  28.881  33.939  1.00  0.00    -0.014 A 
ATOM     75  C   UNL A   1      42.578  27.599  33.426  1.00  0.00     0.010 A 
ATOM     76  C   UNL A   1      42.125  28.999  35.333  1.00  0.00     0.010 A 
ATOM     77  C   UNL A   1      42.602  26.487  34.276  1.00  0.00     0.020 A 
ATOM     78  C   UNL A   1      42.198  27.910  36.191  1.00  0.00     0.020 A 
ATOM     79  C   UNL A   1      42.412  26.653  35.652  1.00  0.00     0.054 A 
BRANCH  79  80
ATOM     80  S   UNL A   1      42.384  25.205  36.728  1.00  0.00     0.124 S 
ATOM     81  O   UNL A   1      43.311  25.599  37.783  1.00  0.00    -0.237 OA
ATOM     82  O   UNL A   1      40.975  25.134  37.108  1.00  0.00    -0.237 OA
ATOM     83  O   UNL A   1      42.844  24.125  35.858  1.00  0.00    -0.744 OA
ENDBRANCH  79  80
ENDBRANCH  60  74
BRANCH  61  84
ATOM     84  C   UNL A   1      44.326  26.224  25.917  1.00  0.00    -0.014 A 
ATOM     85  C   UNL A   1      45.636  25.737  25.744  1.00  0.00     0.010 A 
ATOM     86  C   UNL A   1      43.269  25.384  25.504  1.00  0.00     0.010 A 
ATOM     87  C   UNL A   1      45.870  24.429  25.276  1.00  0.00     0.020 A 
ATOM     88  C   UNL A   1      43.493  24.089  25.021  1.00  0.00     0.020 A 
ATOM     89  C   UNL A   1      44.793  23.603  24.946  1.00  0.00     0.054 A 
BRANCH  89  90
ATOM     90  S   UNL A   1      45.077  21.845  24.575  1.00  0.00     0.124 S 
ATOM     91  O   UNL A   1      46.532  21.746  24.622  1.00  0.00    -0.237 OA
ATOM     92  O   UNL A   1      44.360  21.174  25.655  1.00  0.00    -0.237 OA
ATOM     93  O   UNL A   1      44.487  21.675  23.248  1.00  0.00    -0.744 OA
ENDBRANCH  89  90
ENDBRANCH  61  84
BRANCH  73  94
ATOM     94  C   UNL A   1      45.694  31.846  28.650  1.00  0.00    -0.014 A 
ATOM     95  C   UNL A   1      44.833  32.596  27.827  1.00  0.00     0.010 A 
ATOM     96  C   UNL A   1      47.058  32.197  28.646  1.00  0.00     0.010 A 
ATOM     97  C   UNL A   1      45.307  33.678  27.067  1.00  0.00     0.020 A 
ATOM     98  C   UNL A   1      47.539  33.282  27.905  1.00  0.00     0.020 A 
ATOM     99  C   UNL A   1      46.658  34.024  27.122  1.00  0.00     0.054 A 
BRANCH  99 100
ATOM    100  S   UNL A   1      47.256  35.447  26.170  1.00  0.00     0.124 S 
ATOM    101  O   UNL A   1      47.955  34.815  25.054  1.00  0.00    -0.237 OA
ATOM    102  O   UNL A   1      46.020  36.146  25.822  1.00  0.00    -0.237 OA
ATOM    103  O   UNL A   1      48.118  36.158  27.113  1.00  0.00    -0.744 OA
ENDBRANCH  99 100
ENDBRANCH  73  94
ENDBRANCH  47  48
ENDBRANCH  39  42
ENDBRANCH  37  38
ENDBRANCH  36  37
ENDBRANCH   1  36
TORSDOF 19
ENDMDL
MODEL 2
REMARK VINA RESULT:     -12.0      3.138      9.700
REMARK SMILES O=C(CCn1cc(/C=C2/[NH+]=C(S)N(c3ccccc3)C2=O)c(-c2ccc(Br)cc2)n1)NCCCNC(=O)c1ccc(-c2c3nc(c(-c4ccc(S(=O)(=O)[O-])cc4)c4ccc([nH]4)c(-c4ccc(S(=O)(=O)[O-])cc4)c4nc(c(-c5ccc(S(=O)(=O)[O-])cc5)c5ccc2[nH]5)C=C4)C=C3)cc1
REMARK SMILES IDX 32 1 31 2 1 3 2 4 3 6 4 7 5 8 6 9 30 10 7 11 22 12 8 13 9 14
REMARK SMILES IDX 10 15 20 16 11 17 13 19 21 20 12 21 14 23 15 24 19 25 16 26
REMARK SMILES IDX 18 27 17 28 23 29 24 30 29 31 25 32 28 33 26 34 27 35 33 36
REMARK SMILES IDX 34 37 35 38 36 39 37 41 38 42 39 43 97 44 40 45 96 46 41 47
REMARK SMILES IDX 42 48 43 49 90 50 44 51 95 52 89 53 91 54 45 55 94 56 88 57
REMARK SMILES IDX 87 58 46 60 76 61 57 62 75 63 58 64 61 65 74 66 92 67 59 68
REMARK SMILES IDX 60 69 73 71 93 72 62 73 47 74 48 75 56 76 49 77 55 78 50 79
REMARK SMILES IDX 51 80 52 81 53 82 54 83 77 84 78 85 86 86 79 87 85 88 80 89
REMARK SMILES IDX 81 90 82 91 83 92 84 93 63 94 64 95 72 96 65 97 71 98 66 99
REMARK SMILES IDX 67 100 68 101 69 102 70 103
REMARK H PARENT 31 5 10 18 12 22 35 40 91 59 61 70
REMARK Flexibility Score: inf
ROOT
ATOM      1  C   UNL A   1      36.066  20.324  25.031  1.00  0.00     0.117 C 
ENDROOT
BRANCH   1   2
ATOM      2  N   UNL A   1      34.728  19.856  24.707  1.00  0.00    -0.356 N 
ATOM      3  O   UNL A   1      35.169  17.616  24.546  1.00  0.00    -0.275 OA
ATOM      4  C   UNL A   1      34.367  18.545  24.538  1.00  0.00     0.221 C 
ATOM      5  H   UNL A   1      34.025  20.536  24.600  1.00  0.00     0.163 HD
BRANCH   4   6
ATOM      6  C   UNL A   1      32.874  18.314  24.341  1.00  0.00     0.123 C 
BRANCH   6   7
ATOM      7  C   UNL A   1      32.249  19.282  23.328  1.00  0.00     0.154 C 
BRANCH   7   8
ATOM      8  N   UNL A   1      32.169  20.685  23.724  1.00  0.00    -0.271 N 
ATOM      9  C   UNL A   1      31.703  21.170  24.927  1.00  0.00     0.117 A 
ATOM     10  N   UNL A   1      32.718  21.643  22.947  1.00  0.00    -0.172 NA
ATOM     11  C   UNL A   1      31.918  22.530  24.904  1.00  0.00     0.025 A 
ATOM     12  C   UNL A   1      32.631  22.748  23.693  1.00  0.00     0.100 A 
BRANCH  11  13
ATOM     13  C   UNL A   1      31.753  23.490  25.960  1.00  0.00     0.072 C 
ATOM     14  C   UNL A   1      31.201  24.722  25.904  1.00  0.00     0.217 C 
ATOM     15  N   UNL A   1      31.561  25.718  26.780  1.00  0.00    -0.228 N 
ATOM     16  C   UNL A   1      30.326  25.331  24.849  1.00  0.00     0.386 C 
ATOM     17  C   UNL A   1      31.148  26.818  26.216  1.00  0.00     0.321 C 
ATOM     18  H   UNL A   1      32.028  25.622  27.642  1.00  0.00     0.313 HD
ATOM     19  N   UNL A   1      30.450  26.697  25.043  1.00  0.00    -0.149 N 
ATOM     20  O   UNL A   1      29.673  24.668  24.049  1.00  0.00    -0.236 OA
BRANCH  17  21
ATOM     21  S   UNL A   1      31.489  28.301  27.049  1.00  0.00    -0.055 SA
ATOM     22  H   UNL A   1      32.062  29.184  26.188  1.00  0.00     0.116 HD
ENDBRANCH  17  21
BRANCH  19  23
ATOM     23  C   UNL A   1      30.010  27.685  24.082  1.00  0.00     0.137 A 
ATOM     24  C   UNL A   1      28.725  27.703  23.505  1.00  0.00     0.052 A 
ATOM     25  C   UNL A   1      30.811  28.804  23.790  1.00  0.00     0.052 A 
ATOM     26  C   UNL A   1      28.245  28.794  22.754  1.00  0.00     0.004 A 
ATOM     27  C   UNL A   1      30.318  29.911  23.082  1.00  0.00     0.004 A 
ATOM     28  C   UNL A   1      29.033  29.915  22.570  1.00  0.00     0.000 A 
ENDBRANCH  19  23
ENDBRANCH  11  13
BRANCH  12  29
ATOM     29  C   UNL A   1      33.234  24.007  23.313  1.00  0.00     0.003 A 
ATOM     30  C   UNL A   1      34.013  24.733  24.211  1.00  0.00     0.011 A 
ATOM     31  C   UNL A   1      32.762  24.618  22.170  1.00  0.00     0.011 A 
ATOM     32  C   UNL A   1      34.256  26.087  23.977  1.00  0.00     0.016 A 
ATOM     33  C   UNL A   1      32.935  25.981  21.974  1.00  0.00     0.016 A 
ATOM     34  C   UNL A   1      33.697  26.715  22.870  1.00  0.00     0.018 A 
ATOM     35  Br  UNL A   1      34.008  28.555  22.586  1.00  0.00    -0.051 Br
ENDBRANCH  12  29
ENDBRANCH   7   8
ENDBRANCH   6   7
ENDBRANCH   4   6
ENDBRANCH   1   2
BRANCH   1  36
ATOM     36  C   UNL A   1      36.175  21.844  25.140  1.00  0.00     0.042 C 
BRANCH  36  37
ATOM     37  C   UNL A   1      37.606  22.329  25.221  1.00  0.00     0.118 C 
BRANCH  37  38
ATOM     38  N   UNL A   1      38.621  21.411  25.666  1.00  0.00    -0.352 N 
ATOM     39  C   UNL A   1      39.839  21.736  26.237  1.00  0.00     0.251 C 
ATOM     40  H   UNL A   1      38.429  20.453  25.554  1.00  0.00     0.163 HD
ATOM     41  O   UNL A   1      40.616  20.808  26.473  1.00  0.00    -0.269 OA
BRANCH  39  42
ATOM     42  C   UNL A   1      40.199  23.144  26.649  1.00  0.00     0.039 A 
ATOM     43  C   UNL A   1      41.457  23.343  27.230  1.00  0.00     0.014 A 
ATOM     44  C   UNL A   1      39.310  24.230  26.657  1.00  0.00     0.014 A 
ATOM     45  C   UNL A   1      41.698  24.501  27.976  1.00  0.00     0.010 A 
ATOM     46  C   UNL A   1      39.547  25.388  27.372  1.00  0.00     0.010 A 
ATOM     47  C   UNL A   1      40.690  25.478  28.128  1.00  0.00    -0.014 A 
BRANCH  47  48
ATOM     48  C   UNL A   1      40.944  26.718  28.857  1.00  0.00     0.031 A 
ATOM     49  C   UNL A   1      42.079  27.403  28.226  1.00  0.00     0.074 A 
ATOM     50  C   UNL A   1      40.214  27.298  29.834  1.00  0.00     0.049 A 
ATOM     51  N   UNL A   1      43.284  27.452  28.680  1.00  0.00    -0.248 NA
ATOM     52  C   UNL A   1      41.924  27.791  26.812  1.00  0.00     0.031 C 
ATOM     53  C   UNL A   1      38.945  26.851  30.399  1.00  0.00     0.029 A 
ATOM     54  N   UNL A   1      40.427  28.472  30.508  1.00  0.00    -0.354 N 
ATOM     55  C   UNL A   1      43.987  28.107  27.689  1.00  0.00     0.074 A 
ATOM     56  C   UNL A   1      43.195  28.023  26.487  1.00  0.00     0.031 C 
ATOM     57  C   UNL A   1      38.406  27.809  31.175  1.00  0.00     0.029 A 
ATOM     58  C   UNL A   1      39.325  28.920  31.237  1.00  0.00     0.049 A 
ATOM     59  H   UNL A   1      41.283  28.957  30.478  1.00  0.00     0.167 HD
ATOM     60  C   UNL A   1      44.949  29.004  28.014  1.00  0.00     0.031 A 
ATOM     61  C   UNL A   1      39.136  30.126  31.828  1.00  0.00     0.031 A 
ATOM     62  C   UNL A   1      45.347  28.897  29.392  1.00  0.00     0.049 A 
ATOM     63  C   UNL A   1      40.478  30.716  32.033  1.00  0.00     0.074 A 
ATOM     64  C   UNL A   1      46.040  27.982  30.149  1.00  0.00     0.029 A 
ATOM     65  N   UNL A   1      44.643  29.699  30.257  1.00  0.00    -0.354 N 
ATOM     66  N   UNL A   1      41.341  30.252  32.894  1.00  0.00    -0.248 NA
ATOM     67  C   UNL A   1      41.035  31.575  30.998  1.00  0.00     0.031 C 
ATOM     68  C   UNL A   1      45.559  28.134  31.482  1.00  0.00     0.029 A 
ATOM     69  C   UNL A   1      44.605  29.155  31.517  1.00  0.00     0.049 A 
ATOM     70  H   UNL A   1      44.221  30.553  30.008  1.00  0.00     0.167 HD
ATOM     71  C   UNL A   1      42.572  30.392  32.274  1.00  0.00     0.074 A 
ATOM     72  C   UNL A   1      42.336  31.340  31.189  1.00  0.00     0.031 C 
ATOM     73  C   UNL A   1      43.594  29.513  32.513  1.00  0.00     0.031 A 
BRANCH  60  74
ATOM     74  C   UNL A   1      45.106  30.278  27.234  1.00  0.00    -0.014 A 
ATOM     75  C   UNL A   1      46.393  30.801  27.041  1.00  0.00     0.010 A 
ATOM     76  C   UNL A   1      44.007  31.109  26.914  1.00  0.00     0.010 A 
ATOM     77  C   UNL A   1      46.565  32.103  26.558  1.00  0.00     0.020 A 
ATOM     78  C   UNL A   1      44.168  32.383  26.385  1.00  0.00     0.020 A 
ATOM     79  C   UNL A   1      45.450  32.882  26.234  1.00  0.00     0.054 A 
BRANCH  79  80
ATOM     80  S   UNL A   1      45.683  34.581  25.671  1.00  0.00     0.124 S 
ATOM     81  O   UNL A   1      46.998  34.509  25.043  1.00  0.00    -0.237 OA
ATOM     82  O   UNL A   1      44.551  34.762  24.767  1.00  0.00    -0.237 OA
ATOM     83  O   UNL A   1      45.620  35.361  26.905  1.00  0.00    -0.744 OA
ENDBRANCH  79  80
ENDBRANCH  60  74
BRANCH  61  84
ATOM     84  C   UNL A   1      37.858  30.880  31.976  1.00  0.00    -0.014 A 
ATOM     85  C   UNL A   1      37.456  31.403  33.220  1.00  0.00     0.010 A 
ATOM     86  C   UNL A   1      37.152  31.321  30.835  1.00  0.00     0.010 A 
ATOM     87  C   UNL A   1      36.462  32.398  33.303  1.00  0.00     0.020 A 
ATOM     88  C   UNL A   1      36.152  32.296  30.910  1.00  0.00     0.020 A 
ATOM     89  C   UNL A   1      35.837  32.859  32.142  1.00  0.00     0.054 A 
BRANCH  89  90
ATOM     90  S   UNL A   1      34.734  34.304  32.216  1.00  0.00     0.124 S 
ATOM     91  O   UNL A   1      35.531  35.269  32.966  1.00  0.00    -0.237 OA
ATOM     92  O   UNL A   1      34.524  34.614  30.804  1.00  0.00    -0.237 OA
ATOM     93  O   UNL A   1      33.553  33.798  32.915  1.00  0.00    -0.744 OA
ENDBRANCH  89  90
ENDBRANCH  61  84
BRANCH  73  94
ATOM     94  C   UNL A   1      43.597  28.734  33.822  1.00  0.00    -0.014 A 
ATOM     95  C   UNL A   1      43.715  29.301  35.105  1.00  0.00     0.010 A 
ATOM     96  C   UNL A   1      43.370  27.346  33.748  1.00  0.00     0.010 A 
ATOM     97  C   UNL A   1      43.570  28.521  36.265  1.00  0.00     0.020 A 
ATOM     98  C   UNL A   1      43.210  26.562  34.895  1.00  0.00     0.020 A 
ATOM     99  C   UNL A   1      43.303  27.156  36.152  1.00  0.00     0.054 A 
BRANCH  99 100
ATOM    100  S   UNL A   1      43.077  26.162  37.652  1.00  0.00     0.124 S 
ATOM    101  O   UNL A   1      43.951  26.830  38.613  1.00  0.00    -0.237 OA
ATOM    102  O   UNL A   1      41.644  26.289  37.912  1.00  0.00    -0.237 OA
ATOM    103  O   UNL A   1      43.512  24.824  37.252  1.00  0.00    -0.744 OA
ENDBRANCH  99 100
ENDBRANCH  73  94
ENDBRANCH  47  48
ENDBRANCH  39  42
ENDBRANCH  37  38
ENDBRANCH  36  37
ENDBRANCH   1  36
TORSDOF 19
ENDMDL
MODEL 3
REMARK VINA RESULT:     -11.7      2.524      9.156
REMARK SMILES O=C(CCn1cc(/C=C2/[NH+]=C(S)N(c3ccccc3)C2=O)c(-c2ccc(Br)cc2)n1)NCCCNC(=O)c1ccc(-c2c3nc(c(-c4ccc(S(=O)(=O)[O-])cc4)c4ccc([nH]4)c(-c4ccc(S(=O)(=O)[O-])cc4)c4nc(c(-c5ccc(S(=O)(=O)[O-])cc5)c5ccc2[nH]5)C=C4)C=C3)cc1
REMARK SMILES IDX 32 1 31 2 1 3 2 4 3 6 4 7 5 8 6 9 30 10 7 11 22 12 8 13 9 14
REMARK SMILES IDX 10 15 20 16 11 17 13 19 21 20 12 21 14 23 15 24 19 25 16 26
REMARK SMILES IDX 18 27 17 28 23 29 24 30 29 31 25 32 28 33 26 34 27 35 33 36
REMARK SMILES IDX 34 37 35 38 36 39 37 41 38 42 39 43 97 44 40 45 96 46 41 47
REMARK SMILES IDX 42 48 43 49 90 50 44 51 95 52 89 53 91 54 45 55 94 56 88 57
REMARK SMILES IDX 87 58 46 60 76 61 57 62 75 63 58 64 61 65 74 66 92 67 59 68
REMARK SMILES IDX 60 69 73 71 93 72 62 73 47 74 48 75 56 76 49 77 55 78 50 79
REMARK SMILES IDX 51 80 52 81 53 82 54 83 77 84 78 85 86 86 79 87 85 88 80 89
REMARK SMILES IDX 81 90 82 91 83 92 84 93 63 94 64 95 72 96 65 97 71 98 66 99
REMARK SMILES IDX 67 100 68 101 69 102 70 103
REMARK H PARENT 31 5 10 18 12 22 35 40 91 59 61 70
REMARK Flexibility Score: inf
ROOT
ATOM      1  C   UNL A   1      41.243  21.824  28.023  1.00  0.00     0.117 C 
ENDROOT
BRANCH   1   2
ATOM      2  N   UNL A   1      40.058  22.191  27.264  1.00  0.00    -0.356 N 
ATOM      3  O   UNL A   1      39.944  24.403  27.837  1.00  0.00    -0.275 OA
ATOM      4  C   UNL A   1      39.526  23.451  27.185  1.00  0.00     0.221 C 
ATOM      5  H   UNL A   1      39.601  21.475  26.766  1.00  0.00     0.163 HD
BRANCH   4   6
ATOM      6  C   UNL A   1      38.363  23.594  26.212  1.00  0.00     0.123 C 
BRANCH   6   7
ATOM      7  C   UNL A   1      38.055  22.294  25.456  1.00  0.00     0.154 C 
BRANCH   7   8
ATOM      8  N   UNL A   1      36.647  21.937  25.310  1.00  0.00    -0.271 N 
ATOM      9  C   UNL A   1      35.631  22.771  24.893  1.00  0.00     0.117 A 
ATOM     10  N   UNL A   1      36.255  20.652  25.438  1.00  0.00    -0.172 NA
ATOM     11  C   UNL A   1      34.503  21.986  24.795  1.00  0.00     0.025 A 
ATOM     12  C   UNL A   1      34.974  20.669  25.057  1.00  0.00     0.100 A 
BRANCH  11  13
ATOM     13  C   UNL A   1      33.211  22.321  24.265  1.00  0.00     0.072 C 
ATOM     14  C   UNL A   1      32.625  23.535  24.169  1.00  0.00     0.217 C 
ATOM     15  N   UNL A   1      31.259  23.680  24.155  1.00  0.00    -0.228 N 
ATOM     16  C   UNL A   1      33.234  24.901  24.276  1.00  0.00     0.386 C 
ATOM     17  C   UNL A   1      31.059  24.937  24.438  1.00  0.00     0.321 C 
ATOM     18  H   UNL A   1      30.582  22.989  23.974  1.00  0.00     0.313 HD
ATOM     19  N   UNL A   1      32.167  25.732  24.579  1.00  0.00    -0.149 N 
ATOM     20  O   UNL A   1      34.427  25.124  24.098  1.00  0.00    -0.236 OA
BRANCH  17  21
ATOM     21  S   UNL A   1      29.410  25.461  24.552  1.00  0.00    -0.055 SA
ATOM     22  H   UNL A   1      29.358  26.665  25.183  1.00  0.00     0.116 HD
ENDBRANCH  17  21
BRANCH  19  23
ATOM     23  C   UNL A   1      32.319  27.090  25.053  1.00  0.00     0.137 A 
ATOM     24  C   UNL A   1      32.714  27.425  26.362  1.00  0.00     0.052 A 
ATOM     25  C   UNL A   1      32.239  28.173  24.158  1.00  0.00     0.052 A 
ATOM     26  C   UNL A   1      33.076  28.735  26.735  1.00  0.00     0.004 A 
ATOM     27  C   UNL A   1      32.643  29.468  24.515  1.00  0.00     0.004 A 
ATOM     28  C   UNL A   1      33.072  29.753  25.799  1.00  0.00     0.000 A 
ENDBRANCH  19  23
ENDBRANCH  11  13
BRANCH  12  29
ATOM     29  C   UNL A   1      34.181  19.469  24.895  1.00  0.00     0.003 A 
ATOM     30  C   UNL A   1      32.997  19.287  25.604  1.00  0.00     0.011 A 
ATOM     31  C   UNL A   1      34.782  18.390  24.281  1.00  0.00     0.011 A 
ATOM     32  C   UNL A   1      32.461  18.006  25.738  1.00  0.00     0.016 A 
ATOM     33  C   UNL A   1      34.297  17.104  24.478  1.00  0.00     0.016 A 
ATOM     34  C   UNL A   1      33.125  16.913  25.194  1.00  0.00     0.018 A 
ATOM     35  Br  UNL A   1      32.405  15.182  25.413  1.00  0.00    -0.051 Br
ENDBRANCH  12  29
ENDBRANCH   7   8
ENDBRANCH   6   7
ENDBRANCH   4   6
ENDBRANCH   1   2
BRANCH   1  36
ATOM     36  C   UNL A   1      42.525  21.815  27.193  1.00  0.00     0.042 C 
BRANCH  36  37
ATOM     37  C   UNL A   1      42.295  22.188  25.745  1.00  0.00     0.118 C 
BRANCH  37  38
ATOM     38  N   UNL A   1      43.432  22.279  24.867  1.00  0.00    -0.352 N 
ATOM     39  C   UNL A   1      44.148  23.421  24.554  1.00  0.00     0.251 C 
ATOM     40  H   UNL A   1      43.730  21.442  24.445  1.00  0.00     0.163 HD
ATOM     41  O   UNL A   1      45.040  23.312  23.709  1.00  0.00    -0.269 OA
BRANCH  39  42
ATOM     42  C   UNL A   1      43.937  24.738  25.262  1.00  0.00     0.039 A 
ATOM     43  C   UNL A   1      44.695  24.979  26.414  1.00  0.00     0.014 A 
ATOM     44  C   UNL A   1      42.921  25.658  24.960  1.00  0.00     0.014 A 
ATOM     45  C   UNL A   1      44.285  25.964  27.318  1.00  0.00     0.010 A 
ATOM     46  C   UNL A   1      42.523  26.650  25.835  1.00  0.00     0.010 A 
ATOM     47  C   UNL A   1      43.127  26.730  27.066  1.00  0.00    -0.014 A 
BRANCH  47  48
ATOM     48  C   UNL A   1      42.717  27.800  27.971  1.00  0.00     0.031 A 
ATOM     49  C   UNL A   1      43.801  28.787  28.045  1.00  0.00     0.074 A 
ATOM     50  C   UNL A   1      41.514  28.017  28.546  1.00  0.00     0.049 A 
ATOM     51  N   UNL A   1      44.632  28.932  29.019  1.00  0.00    -0.248 NA
ATOM     52  C   UNL A   1      44.188  29.451  26.785  1.00  0.00     0.031 C 
ATOM     53  C   UNL A   1      40.283  27.252  28.380  1.00  0.00     0.029 A 
ATOM     54  N   UNL A   1      41.110  29.029  29.376  1.00  0.00    -0.354 N 
ATOM     55  C   UNL A   1      45.508  29.899  28.569  1.00  0.00     0.074 A 
ATOM     56  C   UNL A   1      45.370  29.956  27.135  1.00  0.00     0.031 C 
ATOM     57  C   UNL A   1      39.238  27.909  28.916  1.00  0.00     0.029 A 
ATOM     58  C   UNL A   1      39.727  29.114  29.542  1.00  0.00     0.049 A 
ATOM     59  H   UNL A   1      41.741  29.644  29.816  1.00  0.00     0.167 HD
ATOM     60  C   UNL A   1      45.972  30.848  29.418  1.00  0.00     0.031 A 
ATOM     61  C   UNL A   1      39.003  30.109  30.113  1.00  0.00     0.031 A 
ATOM     62  C   UNL A   1      45.741  30.503  30.795  1.00  0.00     0.049 A 
ATOM     63  C   UNL A   1      39.924  30.852  31.001  1.00  0.00     0.074 A 
ATOM     64  C   UNL A   1      46.239  29.569  31.675  1.00  0.00     0.029 A 
ATOM     65  N   UNL A   1      44.554  30.963  31.312  1.00  0.00    -0.354 N 
ATOM     66  N   UNL A   1      40.411  30.357  32.105  1.00  0.00    -0.248 NA
ATOM     67  C   UNL A   1      40.643  32.001  30.468  1.00  0.00     0.031 C 
ATOM     68  C   UNL A   1      45.203  29.337  32.625  1.00  0.00     0.029 A 
ATOM     69  C   UNL A   1      44.107  30.152  32.325  1.00  0.00     0.049 A 
ATOM     70  H   UNL A   1      44.084  31.769  30.997  1.00  0.00     0.167 HD
ATOM     71  C   UNL A   1      41.710  30.834  32.167  1.00  0.00     0.074 A 
ATOM     72  C   UNL A   1      41.742  31.948  31.225  1.00  0.00     0.031 C 
ATOM     73  C   UNL A   1      42.709  30.106  32.756  1.00  0.00     0.031 A 
BRANCH  60  74
ATOM     74  C   UNL A   1      46.130  32.271  28.968  1.00  0.00    -0.014 A 
ATOM     75  C   UNL A   1      47.350  32.923  29.193  1.00  0.00     0.010 A 
ATOM     76  C   UNL A   1      45.028  33.064  28.568  1.00  0.00     0.010 A 
ATOM     77  C   UNL A   1      47.454  34.310  29.034  1.00  0.00     0.020 A 
ATOM     78  C   UNL A   1      45.134  34.432  28.357  1.00  0.00     0.020 A 
ATOM     79  C   UNL A   1      46.344  35.052  28.617  1.00  0.00     0.054 A 
BRANCH  79  80
ATOM     80  S   UNL A   1      46.475  36.846  28.476  1.00  0.00     0.124 S 
ATOM     81  O   UNL A   1      45.540  37.296  29.502  1.00  0.00    -0.237 OA
ATOM     82  O   UNL A   1      47.890  37.073  28.757  1.00  0.00    -0.237 OA
ATOM     83  O   UNL A   1      46.068  37.111  27.097  1.00  0.00    -0.744 OA
ENDBRANCH  79  80
ENDBRANCH  60  74
BRANCH  61  84
ATOM     84  C   UNL A   1      37.645  30.588  29.725  1.00  0.00    -0.014 A 
ATOM     85  C   UNL A   1      36.766  31.146  30.673  1.00  0.00     0.010 A 
ATOM     86  C   UNL A   1      37.305  30.745  28.363  1.00  0.00     0.010 A 
ATOM     87  C   UNL A   1      35.654  31.912  30.272  1.00  0.00     0.020 A 
ATOM     88  C   UNL A   1      36.192  31.491  27.956  1.00  0.00     0.020 A 
ATOM     89  C   UNL A   1      35.393  32.104  28.913  1.00  0.00     0.054 A 
BRANCH  89  90
ATOM     90  S   UNL A   1      34.110  33.283  28.393  1.00  0.00     0.124 S 
ATOM     91  O   UNL A   1      34.857  34.207  27.545  1.00  0.00    -0.237 OA
ATOM     92  O   UNL A   1      33.151  32.423  27.703  1.00  0.00    -0.237 OA
ATOM     93  O   UNL A   1      33.630  33.848  29.654  1.00  0.00    -0.744 OA
ENDBRANCH  89  90
ENDBRANCH  61  84
BRANCH  73  94
ATOM     94  C   UNL A   1      42.335  29.065  33.803  1.00  0.00    -0.014 A 
ATOM     95  C   UNL A   1      41.982  27.730  33.533  1.00  0.00     0.010 A 
ATOM     96  C   UNL A   1      42.439  29.444  35.156  1.00  0.00     0.010 A 
ATOM     97  C   UNL A   1      41.784  26.801  34.569  1.00  0.00     0.020 A 
ATOM     98  C   UNL A   1      42.259  28.525  36.195  1.00  0.00     0.020 A 
ATOM     99  C   UNL A   1      41.939  27.203  35.896  1.00  0.00     0.054 A 
BRANCH  99 100
ATOM    100  S   UNL A   1      41.722  25.991  37.228  1.00  0.00     0.124 S 
ATOM    101  O   UNL A   1      42.786  26.348  38.163  1.00  0.00    -0.237 OA
ATOM    102  O   UNL A   1      40.362  26.258  37.692  1.00  0.00    -0.237 OA
ATOM    103  O   UNL A   1      41.899  24.703  36.558  1.00  0.00    -0.744 OA
ENDBRANCH  99 100
ENDBRANCH  73  94
ENDBRANCH  47  48
ENDBRANCH  39  42
ENDBRANCH  37  38
ENDBRANCH  36  37
ENDBRANCH   1  36
TORSDOF 19
ENDMDL
