MODEL 1
REMARK VINA RESULT:     -12.0      0.000      0.000
REMARK SMILES O=C(NCCCNC(=O)c1cc(-c2ccn(C(F)F)c(=O)c2)ccc1O)c1ccc(-c2c3nc(c(-c4ccc(S(=O)(=O)[O-])cc4)c4ccc([nH]4)c(-c4ccc(S(=O)(=O)[O-])cc4)c4nc(c(-c5ccc(S(=O)(=O)[O-])cc5)c5ccc2[nH]5)C=C4)C=C3)cc1
REMARK SMILES IDX 4 1 3 2 1 3 2 4 27 6 28 7 86 8 29 9 85 10 30 11 31 12 32 13
REMARK SMILES IDX 79 14 33 15 84 16 78 17 80 18 34 19 83 20 77 21 76 22 35 24
REMARK SMILES IDX 65 25 46 26 64 27 47 28 50 29 63 30 81 31 48 32 49 33 62 35
REMARK SMILES IDX 82 36 51 37 36 38 37 39 45 40 38 41 44 42 39 43 40 44 41 45
REMARK SMILES IDX 42 46 43 47 66 48 67 49 75 50 68 51 74 52 69 53 70 54 71 55
REMARK SMILES IDX 72 56 73 57 52 58 53 59 61 60 54 61 60 62 55 63 56 64 57 65
REMARK SMILES IDX 58 66 59 67 5 68 6 69 7 70 8 71 9 73 10 74 11 75 25 76 12 77
REMARK SMILES IDX 24 78 23 79 26 80 13 82 14 83 22 84 15 85 20 86 16 87 21 88
REMARK SMILES IDX 17 89 18 90 19 91
REMARK H PARENT 3 5 80 23 50 34 7 72 26 81
REMARK Flexibility Score: inf
ROOT
ATOM      1  C   UNL A   1      33.464  28.501  27.357  1.00  0.00     0.118 C 
ENDROOT
BRANCH   1   2
ATOM      2  N   UNL A   1      33.472  29.941  27.573  1.00  0.00    -0.352 N 
ATOM      3  O   UNL A   1      34.147  31.915  28.399  1.00  0.00    -0.269 OA
ATOM      4  C   UNL A   1      34.433  30.754  28.120  1.00  0.00     0.251 C 
ATOM      5  H   UNL A   1      32.656  30.406  27.281  1.00  0.00     0.163 HD
BRANCH   4   6
ATOM      6  C   UNL A   1      35.803  30.251  28.377  1.00  0.00     0.039 A 
ATOM      7  C   UNL A   1      36.118  29.778  29.656  1.00  0.00     0.014 A 
ATOM      8  C   UNL A   1      36.793  30.306  27.394  1.00  0.00     0.014 A 
ATOM      9  C   UNL A   1      37.412  29.328  29.935  1.00  0.00     0.010 A 
ATOM     10  C   UNL A   1      38.059  29.785  27.649  1.00  0.00     0.010 A 
ATOM     11  C   UNL A   1      38.388  29.314  28.928  1.00  0.00    -0.014 A 
BRANCH  11  12
ATOM     12  C   UNL A   1      39.778  28.865  29.190  1.00  0.00     0.031 A 
ATOM     13  C   UNL A   1      40.761  29.819  29.811  1.00  0.00     0.074 A 
ATOM     14  C   UNL A   1      40.178  27.637  28.807  1.00  0.00     0.049 A 
ATOM     15  N   UNL A   1      42.044  29.665  30.007  1.00  0.00    -0.248 NA
ATOM     16  C   UNL A   1      40.239  31.126  30.244  1.00  0.00     0.031 C 
ATOM     17  C   UNL A   1      39.320  26.626  28.191  1.00  0.00     0.029 A 
ATOM     18  N   UNL A   1      41.411  27.037  28.869  1.00  0.00    -0.354 N 
ATOM     19  C   UNL A   1      42.487  30.863  30.555  1.00  0.00     0.074 A 
ATOM     20  C   UNL A   1      41.346  31.747  30.627  1.00  0.00     0.031 C 
ATOM     21  C   UNL A   1      40.045  25.523  27.953  1.00  0.00     0.029 A 
ATOM     22  C   UNL A   1      41.433  25.766  28.348  1.00  0.00     0.049 A 
ATOM     23  H   UNL A   1      42.205  27.476  29.251  1.00  0.00     0.167 HD
ATOM     24  C   UNL A   1      43.731  31.187  30.977  1.00  0.00     0.031 A 
ATOM     25  C   UNL A   1      42.449  24.895  28.188  1.00  0.00     0.031 A 
ATOM     26  C   UNL A   1      44.849  30.286  30.942  1.00  0.00     0.049 A 
ATOM     27  C   UNL A   1      43.831  25.283  28.632  1.00  0.00     0.074 A 
ATOM     28  C   UNL A   1      46.125  30.491  31.436  1.00  0.00     0.029 A 
ATOM     29  N   UNL A   1      44.832  29.018  30.380  1.00  0.00    -0.354 N 
ATOM     30  N   UNL A   1      44.221  26.397  29.203  1.00  0.00    -0.248 NA
ATOM     31  C   UNL A   1      44.908  24.309  28.411  1.00  0.00     0.031 C 
ATOM     32  C   UNL A   1      46.899  29.375  31.111  1.00  0.00     0.029 A 
ATOM     33  C   UNL A   1      46.090  28.448  30.472  1.00  0.00     0.049 A 
ATOM     34  H   UNL A   1      44.044  28.589  29.975  1.00  0.00     0.167 HD
ATOM     35  C   UNL A   1      45.588  26.260  29.414  1.00  0.00     0.074 A 
ATOM     36  C   UNL A   1      45.957  24.948  28.922  1.00  0.00     0.031 C 
ATOM     37  C   UNL A   1      46.453  27.145  29.965  1.00  0.00     0.031 A 
BRANCH  24  38
ATOM     38  C   UNL A   1      43.960  32.574  31.517  1.00  0.00    -0.014 A 
ATOM     39  C   UNL A   1      43.596  32.871  32.844  1.00  0.00     0.010 A 
ATOM     40  C   UNL A   1      44.451  33.605  30.696  1.00  0.00     0.010 A 
ATOM     41  C   UNL A   1      43.705  34.174  33.336  1.00  0.00     0.020 A 
ATOM     42  C   UNL A   1      44.589  34.904  31.194  1.00  0.00     0.020 A 
ATOM     43  C   UNL A   1      44.196  35.183  32.506  1.00  0.00     0.054 A 
BRANCH  43  44
ATOM     44  S   UNL A   1      44.340  36.869  33.161  1.00  0.00     0.124 S 
ATOM     45  O   UNL A   1      44.214  37.681  31.955  1.00  0.00    -0.237 OA
ATOM     46  O   UNL A   1      43.220  36.947  34.096  1.00  0.00    -0.237 OA
ATOM     47  O   UNL A   1      45.661  36.878  33.788  1.00  0.00    -0.744 OA
ENDBRANCH  43  44
ENDBRANCH  24  38
BRANCH  25  48
ATOM     48  C   UNL A   1      42.152  23.560  27.602  1.00  0.00    -0.014 A 
ATOM     49  C   UNL A   1      41.804  22.477  28.432  1.00  0.00     0.010 A 
ATOM     50  C   UNL A   1      42.376  23.329  26.234  1.00  0.00     0.010 A 
ATOM     51  C   UNL A   1      41.770  21.177  27.922  1.00  0.00     0.020 A 
ATOM     52  C   UNL A   1      42.319  22.033  25.714  1.00  0.00     0.020 A 
ATOM     53  C   UNL A   1      42.057  20.961  26.571  1.00  0.00     0.054 A 
BRANCH  53  54
ATOM     54  S   UNL A   1      42.145  19.253  25.961  1.00  0.00     0.124 S 
ATOM     55  O   UNL A   1      43.060  19.388  24.830  1.00  0.00    -0.237 OA
ATOM     56  O   UNL A   1      42.671  18.528  27.114  1.00  0.00    -0.237 OA
ATOM     57  O   UNL A   1      40.760  18.943  25.611  1.00  0.00    -0.744 OA
ENDBRANCH  53  54
ENDBRANCH  25  48
BRANCH  37  58
ATOM     58  C   UNL A   1      47.908  26.770  30.057  1.00  0.00    -0.014 A 
ATOM     59  C   UNL A   1      48.390  26.115  31.206  1.00  0.00     0.010 A 
ATOM     60  C   UNL A   1      48.824  27.237  29.099  1.00  0.00     0.010 A 
ATOM     61  C   UNL A   1      49.763  25.989  31.425  1.00  0.00     0.020 A 
ATOM     62  C   UNL A   1      50.199  27.090  29.302  1.00  0.00     0.020 A 
ATOM     63  C   UNL A   1      50.659  26.496  30.480  1.00  0.00     0.054 A 
BRANCH  63  64
ATOM     64  S   UNL A   1      52.438  26.401  30.826  1.00  0.00     0.124 S 
ATOM     65  O   UNL A   1      53.003  26.260  29.487  1.00  0.00    -0.237 OA
ATOM     66  O   UNL A   1      52.704  27.673  31.491  1.00  0.00    -0.237 OA
ATOM     67  O   UNL A   1      52.558  25.222  31.682  1.00  0.00    -0.744 OA
ENDBRANCH  63  64
ENDBRANCH  37  58
ENDBRANCH  11  12
ENDBRANCH   4   6
ENDBRANCH   1   2
BRANCH   1  68
ATOM     68  C   UNL A   1      33.672  28.128  25.896  1.00  0.00     0.042 C 
BRANCH  68  69
ATOM     69  C   UNL A   1      33.142  29.152  24.903  1.00  0.00     0.118 C 
BRANCH  69  70
ATOM     70  N   UNL A   1      33.837  29.114  23.626  1.00  0.00    -0.352 N 
ATOM     71  C   UNL A   1      33.722  28.187  22.619  1.00  0.00     0.255 C 
ATOM     72  H   UNL A   1      34.472  29.848  23.462  1.00  0.00     0.163 HD
ATOM     73  O   UNL A   1      34.428  28.265  21.615  1.00  0.00    -0.269 OA
BRANCH  71  74
ATOM     74  C   UNL A   1      32.804  27.042  22.772  1.00  0.00     0.082 A 
ATOM     75  C   UNL A   1      33.351  25.836  23.231  1.00  0.00     0.026 A 
ATOM     76  C   UNL A   1      31.439  27.130  22.473  1.00  0.00     0.128 A 
ATOM     77  C   UNL A   1      32.521  24.731  23.449  1.00  0.00    -0.017 A 
ATOM     78  C   UNL A   1      30.604  26.041  22.707  1.00  0.00     0.047 A 
ATOM     79  C   UNL A   1      31.145  24.852  23.202  1.00  0.00     0.012 A 
BRANCH  76  80
ATOM     80  O   UNL A   1      30.912  28.284  21.963  1.00  0.00    -0.507 OA
ATOM     81  H   UNL A   1      30.828  28.390  21.036  1.00  0.00     0.293 HD
ENDBRANCH  76  80
BRANCH  77  82
ATOM     82  C   UNL A   1      33.056  23.434  23.907  1.00  0.00    -0.011 A 
ATOM     83  C   UNL A   1      34.475  23.132  23.852  1.00  0.00     0.027 A 
ATOM     84  C   UNL A   1      32.205  22.489  24.343  1.00  0.00     0.080 A 
ATOM     85  C   UNL A   1      34.927  21.915  24.174  1.00  0.00     0.095 A 
ATOM     86  C   UNL A   1      32.697  21.134  24.728  1.00  0.00     0.255 A 
ATOM     87  N   UNL A   1      34.061  20.924  24.591  1.00  0.00    -0.258 N 
ATOM     88  O   UNL A   1      31.886  20.302  25.116  1.00  0.00    -0.269 OA
BRANCH  87  89
ATOM     89  C   UNL A   1      34.553  19.604  24.889  1.00  0.00     0.451 C 
ATOM     90  F   UNL A   1      34.148  18.702  23.962  1.00  0.00    -0.185 F 
ATOM     91  F   UNL A   1      35.908  19.588  24.932  1.00  0.00    -0.185 F 
ENDBRANCH  87  89
ENDBRANCH  77  82
ENDBRANCH  71  74
ENDBRANCH  69  70
ENDBRANCH  68  69
ENDBRANCH   1  68
TORSDOF 16
ENDMDL
MODEL 2
REMARK VINA RESULT:     -11.9      1.508      2.110
REMARK SMILES O=C(NCCCNC(=O)c1cc(-c2ccn(C(F)F)c(=O)c2)ccc1O)c1ccc(-c2c3nc(c(-c4ccc(S(=O)(=O)[O-])cc4)c4ccc([nH]4)c(-c4ccc(S(=O)(=O)[O-])cc4)c4nc(c(-c5ccc(S(=O)(=O)[O-])cc5)c5ccc2[nH]5)C=C4)C=C3)cc1
REMARK SMILES IDX 4 1 3 2 1 3 2 4 27 6 28 7 86 8 29 9 85 10 30 11 31 12 32 13
REMARK SMILES IDX 79 14 33 15 84 16 78 17 80 18 34 19 83 20 77 21 76 22 35 24
REMARK SMILES IDX 65 25 46 26 64 27 47 28 50 29 63 30 81 31 48 32 49 33 62 35
REMARK SMILES IDX 82 36 51 37 36 38 37 39 45 40 38 41 44 42 39 43 40 44 41 45
REMARK SMILES IDX 42 46 43 47 66 48 67 49 75 50 68 51 74 52 69 53 70 54 71 55
REMARK SMILES IDX 72 56 73 57 52 58 53 59 61 60 54 61 60 62 55 63 56 64 57 65
REMARK SMILES IDX 58 66 59 67 5 68 6 69 7 70 8 71 9 73 10 74 11 75 25 76 12 77
REMARK SMILES IDX 24 78 23 79 26 80 13 82 14 83 22 84 15 85 20 86 16 87 21 88
REMARK SMILES IDX 17 89 18 90 19 91
REMARK H PARENT 3 5 80 23 50 34 7 72 26 81
REMARK Flexibility Score: inf
ROOT
ATOM      1  C   UNL A   1      33.853  28.711  26.555  1.00  0.00     0.118 C 
ENDROOT
BRANCH   1   2
ATOM      2  N   UNL A   1      33.738  30.030  27.163  1.00  0.00    -0.352 N 
ATOM      3  O   UNL A   1      34.184  31.711  28.581  1.00  0.00    -0.269 OA
ATOM      4  C   UNL A   1      34.579  30.689  28.025  1.00  0.00     0.251 C 
ATOM      5  H   UNL A   1      32.926  30.528  26.917  1.00  0.00     0.163 HD
BRANCH   4   6
ATOM      6  C   UNL A   1      35.945  30.186  28.294  1.00  0.00     0.039 A 
ATOM      7  C   UNL A   1      36.232  29.656  29.558  1.00  0.00     0.014 A 
ATOM      8  C   UNL A   1      36.960  30.294  27.341  1.00  0.00     0.014 A 
ATOM      9  C   UNL A   1      37.523  29.204  29.849  1.00  0.00     0.010 A 
ATOM     10  C   UNL A   1      38.223  29.772  27.604  1.00  0.00     0.010 A 
ATOM     11  C   UNL A   1      38.524  29.245  28.868  1.00  0.00    -0.014 A 
BRANCH  11  12
ATOM     12  C   UNL A   1      39.911  28.795  29.145  1.00  0.00     0.031 A 
ATOM     13  C   UNL A   1      40.889  29.749  29.775  1.00  0.00     0.074 A 
ATOM     14  C   UNL A   1      40.314  27.567  28.767  1.00  0.00     0.049 A 
ATOM     15  N   UNL A   1      42.169  29.595  29.985  1.00  0.00    -0.248 NA
ATOM     16  C   UNL A   1      40.363  31.057  30.202  1.00  0.00     0.031 C 
ATOM     17  C   UNL A   1      39.462  26.555  28.143  1.00  0.00     0.029 A 
ATOM     18  N   UNL A   1      41.547  26.966  28.842  1.00  0.00    -0.354 N 
ATOM     19  C   UNL A   1      42.607  30.793  30.536  1.00  0.00     0.074 A 
ATOM     20  C   UNL A   1      41.466  31.678  30.595  1.00  0.00     0.031 C 
ATOM     21  C   UNL A   1      40.189  25.452  27.913  1.00  0.00     0.029 A 
ATOM     22  C   UNL A   1      41.573  25.694  28.322  1.00  0.00     0.049 A 
ATOM     23  H   UNL A   1      42.337  27.405  29.232  1.00  0.00     0.167 HD
ATOM     24  C   UNL A   1      43.847  31.117  30.971  1.00  0.00     0.031 A 
ATOM     25  C   UNL A   1      42.591  24.823  28.174  1.00  0.00     0.031 A 
ATOM     26  C   UNL A   1      44.965  30.216  30.947  1.00  0.00     0.049 A 
ATOM     27  C   UNL A   1      43.968  25.211  28.632  1.00  0.00     0.074 A 
ATOM     28  C   UNL A   1      46.235  30.420  31.455  1.00  0.00     0.029 A 
ATOM     29  N   UNL A   1      44.953  28.947  30.386  1.00  0.00    -0.354 N 
ATOM     30  N   UNL A   1      44.353  26.325  29.206  1.00  0.00    -0.248 NA
ATOM     31  C   UNL A   1      45.047  24.236  28.423  1.00  0.00     0.031 C 
ATOM     32  C   UNL A   1      47.012  29.303  31.139  1.00  0.00     0.029 A 
ATOM     33  C   UNL A   1      46.210  28.376  30.492  1.00  0.00     0.049 A 
ATOM     34  H   UNL A   1      44.169  28.518  29.974  1.00  0.00     0.167 HD
ATOM     35  C   UNL A   1      45.718  26.187  29.431  1.00  0.00     0.074 A 
ATOM     36  C   UNL A   1      46.090  24.875  28.944  1.00  0.00     0.031 C 
ATOM     37  C   UNL A   1      46.577  27.073  29.990  1.00  0.00     0.031 A 
BRANCH  24  38
ATOM     38  C   UNL A   1      44.071  32.505  31.512  1.00  0.00    -0.014 A 
ATOM     39  C   UNL A   1      43.886  32.752  32.885  1.00  0.00     0.010 A 
ATOM     40  C   UNL A   1      44.378  33.580  30.658  1.00  0.00     0.010 A 
ATOM     41  C   UNL A   1      43.989  34.049  33.393  1.00  0.00     0.020 A 
ATOM     42  C   UNL A   1      44.512  34.874  31.168  1.00  0.00     0.020 A 
ATOM     43  C   UNL A   1      44.297  35.103  32.530  1.00  0.00     0.054 A 
BRANCH  43  44
ATOM     44  S   UNL A   1      44.436  36.781  33.206  1.00  0.00     0.124 S 
ATOM     45  O   UNL A   1      43.209  36.902  33.986  1.00  0.00    -0.237 OA
ATOM     46  O   UNL A   1      45.674  36.715  33.980  1.00  0.00    -0.237 OA
ATOM     47  O   UNL A   1      44.505  37.623  32.013  1.00  0.00    -0.744 OA
ENDBRANCH  43  44
ENDBRANCH  24  38
BRANCH  25  48
ATOM     48  C   UNL A   1      42.299  23.487  27.586  1.00  0.00    -0.014 A 
ATOM     49  C   UNL A   1      41.964  22.400  28.415  1.00  0.00     0.010 A 
ATOM     50  C   UNL A   1      42.514  23.262  26.216  1.00  0.00     0.010 A 
ATOM     51  C   UNL A   1      41.936  21.101  27.902  1.00  0.00     0.020 A 
ATOM     52  C   UNL A   1      42.463  21.967  25.693  1.00  0.00     0.020 A 
ATOM     53  C   UNL A   1      42.215  20.891  26.548  1.00  0.00     0.054 A 
BRANCH  53  54
ATOM     54  S   UNL A   1      42.310  19.186  25.933  1.00  0.00     0.124 S 
ATOM     55  O   UNL A   1      40.906  18.890  25.657  1.00  0.00    -0.237 OA
ATOM     56  O   UNL A   1      43.169  19.317  24.759  1.00  0.00    -0.237 OA
ATOM     57  O   UNL A   1      42.896  18.450  27.051  1.00  0.00    -0.744 OA
ENDBRANCH  53  54
ENDBRANCH  25  48
BRANCH  37  58
ATOM     58  C   UNL A   1      48.031  26.697  30.097  1.00  0.00    -0.014 A 
ATOM     59  C   UNL A   1      48.488  25.985  31.223  1.00  0.00     0.010 A 
ATOM     60  C   UNL A   1      48.967  27.214  29.186  1.00  0.00     0.010 A 
ATOM     61  C   UNL A   1      49.856  25.851  31.468  1.00  0.00     0.020 A 
ATOM     62  C   UNL A   1      50.337  27.060  29.415  1.00  0.00     0.020 A 
ATOM     63  C   UNL A   1      50.772  26.408  30.572  1.00  0.00     0.054 A 
BRANCH  63  64
ATOM     64  S   UNL A   1      52.542  26.300  30.954  1.00  0.00     0.124 S 
ATOM     65  O   UNL A   1      53.134  26.154  29.627  1.00  0.00    -0.237 OA
ATOM     66  O   UNL A   1      52.804  27.571  31.624  1.00  0.00    -0.237 OA
ATOM     67  O   UNL A   1      52.636  25.120  31.813  1.00  0.00    -0.744 OA
ENDBRANCH  63  64
ENDBRANCH  37  58
ENDBRANCH  11  12
ENDBRANCH   4   6
ENDBRANCH   1   2
BRANCH   1  68
ATOM     68  C   UNL A   1      32.907  27.695  27.180  1.00  0.00     0.042 C 
BRANCH  68  69
ATOM     69  C   UNL A   1      31.436  27.932  26.872  1.00  0.00     0.118 C 
BRANCH  69  70
ATOM     70  N   UNL A   1      31.116  27.751  25.465  1.00  0.00    -0.352 N 
ATOM     71  C   UNL A   1      31.093  26.587  24.737  1.00  0.00     0.255 C 
ATOM     72  H   UNL A   1      30.884  28.570  24.970  1.00  0.00     0.163 HD
ATOM     73  O   UNL A   1      30.856  26.608  23.531  1.00  0.00    -0.269 OA
BRANCH  71  74
ATOM     74  C   UNL A   1      31.435  25.306  25.385  1.00  0.00     0.082 A 
ATOM     75  C   UNL A   1      32.724  24.800  25.169  1.00  0.00     0.026 A 
ATOM     76  C   UNL A   1      30.525  24.603  26.184  1.00  0.00     0.128 A 
ATOM     77  C   UNL A   1      33.125  23.618  25.801  1.00  0.00    -0.017 A 
ATOM     78  C   UNL A   1      30.924  23.438  26.832  1.00  0.00     0.047 A 
ATOM     79  C   UNL A   1      32.221  22.956  26.647  1.00  0.00     0.012 A 
BRANCH  76  80
ATOM     80  O   UNL A   1      29.246  25.058  26.345  1.00  0.00    -0.507 OA
ATOM     81  H   UNL A   1      28.567  24.466  26.603  1.00  0.00     0.293 HD
ENDBRANCH  76  80
BRANCH  77  82
ATOM     82  C   UNL A   1      34.463  23.034  25.584  1.00  0.00    -0.011 A 
ATOM     83  C   UNL A   1      34.645  21.617  25.331  1.00  0.00     0.027 A 
ATOM     84  C   UNL A   1      35.547  23.826  25.670  1.00  0.00     0.080 A 
ATOM     85  C   UNL A   1      35.872  21.092  25.240  1.00  0.00     0.095 A 
ATOM     86  C   UNL A   1      36.921  23.258  25.548  1.00  0.00     0.255 A 
ATOM     87  N   UNL A   1      36.995  21.886  25.360  1.00  0.00    -0.258 N 
ATOM     88  O   UNL A   1      37.881  24.015  25.636  1.00  0.00    -0.269 OA
BRANCH  87  89
ATOM     89  C   UNL A   1      38.310  21.301  25.309  1.00  0.00     0.451 C 
ATOM     90  F   UNL A   1      38.965  21.448  26.486  1.00  0.00    -0.185 F 
ATOM     91  F   UNL A   1      38.244  19.978  25.023  1.00  0.00    -0.185 F 
ENDBRANCH  87  89
ENDBRANCH  77  82
ENDBRANCH  71  74
ENDBRANCH  69  70
ENDBRANCH  68  69
ENDBRANCH   1  68
TORSDOF 16
ENDMDL
MODEL 3
REMARK VINA RESULT:     -11.7      3.408      9.466
REMARK SMILES O=C(NCCCNC(=O)c1cc(-c2ccn(C(F)F)c(=O)c2)ccc1O)c1ccc(-c2c3nc(c(-c4ccc(S(=O)(=O)[O-])cc4)c4ccc([nH]4)c(-c4ccc(S(=O)(=O)[O-])cc4)c4nc(c(-c5ccc(S(=O)(=O)[O-])cc5)c5ccc2[nH]5)C=C4)C=C3)cc1
REMARK SMILES IDX 4 1 3 2 1 3 2 4 27 6 28 7 86 8 29 9 85 10 30 11 31 12 32 13
REMARK SMILES IDX 79 14 33 15 84 16 78 17 80 18 34 19 83 20 77 21 76 22 35 24
REMARK SMILES IDX 65 25 46 26 64 27 47 28 50 29 63 30 81 31 48 32 49 33 62 35
REMARK SMILES IDX 82 36 51 37 36 38 37 39 45 40 38 41 44 42 39 43 40 44 41 45
REMARK SMILES IDX 42 46 43 47 66 48 67 49 75 50 68 51 74 52 69 53 70 54 71 55
REMARK SMILES IDX 72 56 73 57 52 58 53 59 61 60 54 61 60 62 55 63 56 64 57 65
REMARK SMILES IDX 58 66 59 67 5 68 6 69 7 70 8 71 9 73 10 74 11 75 25 76 12 77
REMARK SMILES IDX 24 78 23 79 26 80 13 82 14 83 22 84 15 85 20 86 16 87 21 88
REMARK SMILES IDX 17 89 18 90 19 91
REMARK H PARENT 3 5 80 23 50 34 7 72 26 81
REMARK Flexibility Score: inf
ROOT
ATOM      1  C   UNL A   1      36.887  23.836  25.088  1.00  0.00     0.118 C 
ENDROOT
BRANCH   1   2
ATOM      2  N   UNL A   1      37.905  22.854  25.434  1.00  0.00    -0.352 N 
ATOM      3  O   UNL A   1      39.904  22.074  26.090  1.00  0.00    -0.269 OA
ATOM      4  C   UNL A   1      39.100  23.003  26.091  1.00  0.00     0.251 C 
ATOM      5  H   UNL A   1      37.703  21.934  25.149  1.00  0.00     0.163 HD
BRANCH   4   6
ATOM      6  C   UNL A   1      39.432  24.263  26.796  1.00  0.00     0.039 A 
ATOM      7  C   UNL A   1      40.199  25.226  26.129  1.00  0.00     0.014 A 
ATOM      8  C   UNL A   1      39.055  24.474  28.123  1.00  0.00     0.014 A 
ATOM      9  C   UNL A   1      40.554  26.410  26.782  1.00  0.00     0.010 A 
ATOM     10  C   UNL A   1      39.342  25.686  28.746  1.00  0.00     0.010 A 
ATOM     11  C   UNL A   1      40.114  26.655  28.091  1.00  0.00    -0.014 A 
BRANCH  11  12
ATOM     12  C   UNL A   1      40.489  27.889  28.825  1.00  0.00     0.031 A 
ATOM     13  C   UNL A   1      41.821  27.965  29.519  1.00  0.00     0.074 A 
ATOM     14  C   UNL A   1      39.611  28.906  28.934  1.00  0.00     0.049 A 
ATOM     15  N   UNL A   1      42.284  28.897  30.310  1.00  0.00    -0.248 NA
ATOM     16  C   UNL A   1      42.743  26.835  29.316  1.00  0.00     0.031 C 
ATOM     17  C   UNL A   1      38.289  28.948  28.312  1.00  0.00     0.029 A 
ATOM     18  N   UNL A   1      39.698  30.094  29.616  1.00  0.00    -0.354 N 
ATOM     19  C   UNL A   1      43.534  28.451  30.724  1.00  0.00     0.074 A 
ATOM     20  C   UNL A   1      43.742  27.151  30.128  1.00  0.00     0.031 C 
ATOM     21  C   UNL A   1      37.696  30.111  28.621  1.00  0.00     0.029 A 
ATOM     22  C   UNL A   1      38.573  30.875  29.508  1.00  0.00     0.049 A 
ATOM     23  H   UNL A   1      40.491  30.361  30.134  1.00  0.00     0.167 HD
ATOM     24  C   UNL A   1      44.433  29.080  31.516  1.00  0.00     0.031 A 
ATOM     25  C   UNL A   1      38.267  32.064  30.067  1.00  0.00     0.031 A 
ATOM     26  C   UNL A   1      44.234  30.391  32.069  1.00  0.00     0.049 A 
ATOM     27  C   UNL A   1      39.263  32.734  30.970  1.00  0.00     0.074 A 
ATOM     28  C   UNL A   1      45.127  31.151  32.802  1.00  0.00     0.029 A 
ATOM     29  N   UNL A   1      43.068  31.134  31.956  1.00  0.00    -0.354 N 
ATOM     30  N   UNL A   1      40.464  32.327  31.304  1.00  0.00    -0.248 NA
ATOM     31  C   UNL A   1      38.870  34.013  31.575  1.00  0.00     0.031 C 
ATOM     32  C   UNL A   1      44.477  32.324  33.193  1.00  0.00     0.029 A 
ATOM     33  C   UNL A   1      43.202  32.325  32.649  1.00  0.00     0.049 A 
ATOM     34  H   UNL A   1      42.265  30.856  31.459  1.00  0.00     0.167 HD
ATOM     35  C   UNL A   1      40.975  33.300  32.155  1.00  0.00     0.074 A 
ATOM     36  C   UNL A   1      39.957  34.325  32.275  1.00  0.00     0.031 C 
ATOM     37  C   UNL A   1      42.177  33.334  32.777  1.00  0.00     0.031 A 
BRANCH  24  38
ATOM     38  C   UNL A   1      45.719  28.366  31.838  1.00  0.00    -0.014 A 
ATOM     39  C   UNL A   1      45.801  27.575  32.999  1.00  0.00     0.010 A 
ATOM     40  C   UNL A   1      46.869  28.543  31.048  1.00  0.00     0.010 A 
ATOM     41  C   UNL A   1      47.011  26.985  33.372  1.00  0.00     0.020 A 
ATOM     42  C   UNL A   1      48.074  27.930  31.403  1.00  0.00     0.020 A 
ATOM     43  C   UNL A   1      48.141  27.171  32.574  1.00  0.00     0.054 A 
BRANCH  43  44
ATOM     44  S   UNL A   1      49.704  26.392  33.068  1.00  0.00     0.124 S 
ATOM     45  O   UNL A   1      50.691  27.364  32.610  1.00  0.00    -0.237 OA
ATOM     46  O   UNL A   1      49.560  26.271  34.517  1.00  0.00    -0.237 OA
ATOM     47  O   UNL A   1      49.693  25.122  32.344  1.00  0.00    -0.744 OA
ENDBRANCH  43  44
ENDBRANCH  24  38
BRANCH  25  48
ATOM     48  C   UNL A   1      36.955  32.684  29.737  1.00  0.00    -0.014 A 
ATOM     49  C   UNL A   1      36.854  33.636  28.704  1.00  0.00     0.010 A 
ATOM     50  C   UNL A   1      35.841  32.446  30.560  1.00  0.00     0.010 A 
ATOM     51  C   UNL A   1      35.693  34.399  28.556  1.00  0.00     0.020 A 
ATOM     52  C   UNL A   1      34.669  33.191  30.400  1.00  0.00     0.020 A 
ATOM     53  C   UNL A   1      34.619  34.191  29.425  1.00  0.00     0.054 A 
BRANCH  53  54
ATOM     54  S   UNL A   1      33.177  35.287  29.305  1.00  0.00     0.124 S 
ATOM     55  O   UNL A   1      32.630  35.208  30.658  1.00  0.00    -0.237 OA
ATOM     56  O   UNL A   1      33.777  36.567  28.943  1.00  0.00    -0.237 OA
ATOM     57  O   UNL A   1      32.360  34.666  28.264  1.00  0.00    -0.744 OA
ENDBRANCH  53  54
ENDBRANCH  25  48
BRANCH  37  58
ATOM     58  C   UNL A   1      42.488  34.496  33.683  1.00  0.00    -0.014 A 
ATOM     59  C   UNL A   1      43.118  35.641  33.160  1.00  0.00     0.010 A 
ATOM     60  C   UNL A   1      42.334  34.372  35.074  1.00  0.00     0.010 A 
ATOM     61  C   UNL A   1      43.643  36.612  34.014  1.00  0.00     0.020 A 
ATOM     62  C   UNL A   1      42.835  35.355  35.932  1.00  0.00     0.020 A 
ATOM     63  C   UNL A   1      43.516  36.452  35.397  1.00  0.00     0.054 A 
BRANCH  63  64
ATOM     64  S   UNL A   1      44.282  37.680  36.492  1.00  0.00     0.124 S 
ATOM     65  O   UNL A   1      44.348  38.858  35.632  1.00  0.00    -0.237 OA
ATOM     66  O   UNL A   1      43.332  37.760  37.598  1.00  0.00    -0.237 OA
ATOM     67  O   UNL A   1      45.571  37.081  36.830  1.00  0.00    -0.744 OA
ENDBRANCH  63  64
ENDBRANCH  37  58
ENDBRANCH  11  12
ENDBRANCH   4   6
ENDBRANCH   1   2
BRANCH   1  68
ATOM     68  C   UNL A   1      35.588  23.626  25.854  1.00  0.00     0.042 C 
BRANCH  68  69
ATOM     69  C   UNL A   1      34.572  22.745  25.141  1.00  0.00     0.118 C 
BRANCH  69  70
ATOM     70  N   UNL A   1      34.613  22.891  23.694  1.00  0.00    -0.352 N 
ATOM     71  C   UNL A   1      33.791  23.640  22.888  1.00  0.00     0.255 C 
ATOM     72  H   UNL A   1      35.322  22.388  23.233  1.00  0.00     0.163 HD
ATOM     73  O   UNL A   1      33.921  23.613  21.666  1.00  0.00    -0.269 OA
BRANCH  71  74
ATOM     74  C   UNL A   1      32.691  24.423  23.483  1.00  0.00     0.082 A 
ATOM     75  C   UNL A   1      33.037  25.574  24.204  1.00  0.00     0.026 A 
ATOM     76  C   UNL A   1      31.348  24.049  23.352  1.00  0.00     0.128 A 
ATOM     77  C   UNL A   1      32.035  26.387  24.745  1.00  0.00    -0.017 A 
ATOM     78  C   UNL A   1      30.345  24.864  23.869  1.00  0.00     0.047 A 
ATOM     79  C   UNL A   1      30.691  26.032  24.553  1.00  0.00     0.012 A 
BRANCH  76  80
ATOM     80  O   UNL A   1      31.008  22.893  22.706  1.00  0.00    -0.507 OA
ATOM     81  H   UNL A   1      30.184  22.827  22.266  1.00  0.00     0.293 HD
ENDBRANCH  76  80
BRANCH  77  82
ATOM     82  C   UNL A   1      32.353  27.594  25.532  1.00  0.00    -0.011 A 
ATOM     83  C   UNL A   1      31.591  28.821  25.388  1.00  0.00     0.027 A 
ATOM     84  C   UNL A   1      33.404  27.575  26.370  1.00  0.00     0.080 A 
ATOM     85  C   UNL A   1      31.960  29.933  26.033  1.00  0.00     0.095 A 
ATOM     86  C   UNL A   1      33.814  28.801  27.114  1.00  0.00     0.255 A 
ATOM     87  N   UNL A   1      33.057  29.938  26.870  1.00  0.00    -0.258 N 
ATOM     88  O   UNL A   1      34.780  28.739  27.865  1.00  0.00    -0.269 OA
BRANCH  87  89
ATOM     89  C   UNL A   1      33.473  31.153  27.522  1.00  0.00     0.451 C 
ATOM     90  F   UNL A   1      34.726  31.511  27.152  1.00  0.00    -0.185 F 
ATOM     91  F   UNL A   1      32.635  32.176  27.223  1.00  0.00    -0.185 F 
ENDBRANCH  87  89
ENDBRANCH  77  82
ENDBRANCH  71  74
ENDBRANCH  69  70
ENDBRANCH  68  69
ENDBRANCH   1  68
TORSDOF 16
ENDMDL
