MODEL 1
REMARK VINA RESULT:     -13.0      0.000      0.000
REMARK SMILES O=C(NC1(C(=O)NCCCNC(=O)c2ccc(-c3c4nc(c(-c5ccc(S(=O)(=O)[O-])cc5)c5ccc([nH]5)c(-c5ccc(S(=O)(=O)[O-])cc5)c5nc(c(-c6ccc(S(=O)(=O)[O-])cc6)c6ccc3[nH]6)C=C5)C=C4)cc2)Cc2ccccc2C1)OCC1c2ccccc2-c2ccccc21
REMARK SMILES IDX 8 1 7 2 5 3 6 4 4 6 74 7 81 8 75 9 80 10 76 11 79 12 77 13
REMARK SMILES IDX 78 14 3 15 1 16 2 17 82 19 83 20 84 21 85 22 96 23 86 24
REMARK SMILES IDX 90 25 91 26 95 27 87 28 89 29 92 30 94 31 88 32 93 33 9 34
REMARK SMILES IDX 10 35 11 36 12 37 13 39 14 40 15 41 73 42 16 43 72 44 17 45
REMARK SMILES IDX 18 46 19 47 66 48 20 49 71 50 65 51 67 52 21 53 70 54 64 55
REMARK SMILES IDX 63 56 22 58 52 59 33 60 51 61 34 62 37 63 50 64 68 65 35 66
REMARK SMILES IDX 36 67 49 69 69 70 38 71 23 72 24 73 32 74 25 75 31 76 26 77
REMARK SMILES IDX 27 78 28 79 29 80 30 81 53 82 54 83 62 84 55 85 61 86 56 87
REMARK SMILES IDX 57 88 58 89 59 90 60 91 39 92 40 93 48 94 41 95 47 96 42 97
REMARK SMILES IDX 43 98 44 99 45 100 46 101
REMARK H PARENT 7 5 3 18 11 38 67 57 37 68
REMARK Flexibility Score: inf
ROOT
ATOM      1  C   UNL A   1      32.614  26.859  26.683  1.00  0.00     0.117 C 
ENDROOT
BRANCH   1   2
ATOM      2  N   UNL A   1      31.299  26.317  26.895  1.00  0.00    -0.354 N 
ATOM      3  C   UNL A   1      30.474  25.597  26.112  1.00  0.00     0.246 C 
ATOM      4  O   UNL A   1      29.351  25.411  26.614  1.00  0.00    -0.272 OA
ATOM      5  H   UNL A   1      30.929  26.511  27.786  1.00  0.00     0.163 HD
BRANCH   3   6
ATOM      6  C   UNL A   1      30.768  25.092  24.655  1.00  0.00     0.130 C 
ATOM      7  C   UNL A   1      32.170  25.105  24.008  1.00  0.00     0.075 C 
ATOM      8  C   UNL A   1      29.906  25.993  23.720  1.00  0.00     0.075 C 
ATOM      9  C   UNL A   1      32.208  26.367  23.228  1.00  0.00    -0.042 A 
ATOM     10  C   UNL A   1      30.941  26.945  23.173  1.00  0.00    -0.042 A 
ATOM     11  C   UNL A   1      33.353  27.010  22.788  1.00  0.00     0.004 A 
ATOM     12  C   UNL A   1      30.815  28.254  22.748  1.00  0.00     0.004 A 
ATOM     13  C   UNL A   1      33.233  28.329  22.376  1.00  0.00     0.000 A 
ATOM     14  C   UNL A   1      31.976  28.953  22.377  1.00  0.00     0.000 A 
BRANCH   6  15
ATOM     15  N   UNL A   1      30.355  23.673  24.775  1.00  0.00    -0.306 N 
ATOM     16  O   UNL A   1      30.277  21.831  26.125  1.00  0.00    -0.225 OA
ATOM     17  C   UNL A   1      30.853  22.859  25.772  1.00  0.00     0.408 C 
ATOM     18  H   UNL A   1      29.712  23.304  24.127  1.00  0.00     0.168 HD
BRANCH  17  19
ATOM     19  O   UNL A   1      31.989  23.332  26.372  1.00  0.00    -0.449 OA
BRANCH  19  20
ATOM     20  C   UNL A   1      33.034  22.359  26.413  1.00  0.00     0.248 C 
BRANCH  20  21
ATOM     21  C   UNL A   1      34.057  22.387  25.239  1.00  0.00     0.088 C 
ATOM     22  C   UNL A   1      35.562  22.468  25.533  1.00  0.00    -0.029 A 
ATOM     23  C   UNL A   1      33.972  20.975  24.629  1.00  0.00    -0.029 A 
ATOM     24  C   UNL A   1      36.335  23.562  25.900  1.00  0.00     0.005 A 
ATOM     25  C   UNL A   1      36.191  21.236  25.237  1.00  0.00    -0.014 A 
ATOM     26  C   UNL A   1      35.191  20.291  24.811  1.00  0.00    -0.014 A 
ATOM     27  C   UNL A   1      32.844  20.324  24.155  1.00  0.00     0.005 A 
ATOM     28  C   UNL A   1      37.722  23.396  26.036  1.00  0.00     0.000 A 
ATOM     29  C   UNL A   1      37.572  21.085  25.319  1.00  0.00     0.009 A 
ATOM     30  C   UNL A   1      35.257  18.919  24.656  1.00  0.00     0.009 A 
ATOM     31  C   UNL A   1      32.917  18.943  23.973  1.00  0.00     0.000 A 
ATOM     32  C   UNL A   1      38.336  22.168  25.751  1.00  0.00     0.001 A 
ATOM     33  C   UNL A   1      34.101  18.242  24.256  1.00  0.00     0.001 A 
ENDBRANCH  20  21
ENDBRANCH  19  20
ENDBRANCH  17  19
ENDBRANCH   6  15
ENDBRANCH   3   6
ENDBRANCH   1   2
BRANCH   1  34
ATOM     34  C   UNL A   1      32.562  28.310  26.247  1.00  0.00     0.042 C 
BRANCH  34  35
ATOM     35  C   UNL A   1      33.935  28.961  26.341  1.00  0.00     0.118 C 
BRANCH  35  36
ATOM     36  N   UNL A   1      33.868  30.272  26.986  1.00  0.00    -0.352 N 
ATOM     37  C   UNL A   1      34.677  30.825  27.945  1.00  0.00     0.251 C 
ATOM     38  H   UNL A   1      33.126  30.846  26.685  1.00  0.00     0.163 HD
ATOM     39  O   UNL A   1      34.314  31.824  28.557  1.00  0.00    -0.269 OA
BRANCH  37  40
ATOM     40  C   UNL A   1      35.978  30.193  28.229  1.00  0.00     0.039 A 
ATOM     41  C   UNL A   1      36.974  30.189  27.250  1.00  0.00     0.014 A 
ATOM     42  C   UNL A   1      36.217  29.639  29.488  1.00  0.00     0.014 A 
ATOM     43  C   UNL A   1      38.240  29.698  27.568  1.00  0.00     0.010 A 
ATOM     44  C   UNL A   1      37.502  29.256  29.834  1.00  0.00     0.010 A 
ATOM     45  C   UNL A   1      38.525  29.271  28.877  1.00  0.00    -0.014 A 
BRANCH  45  46
ATOM     46  C   UNL A   1      39.882  28.829  29.278  1.00  0.00     0.031 A 
ATOM     47  C   UNL A   1      40.801  29.793  29.979  1.00  0.00     0.074 A 
ATOM     48  C   UNL A   1      40.313  27.601  28.927  1.00  0.00     0.049 A 
ATOM     49  N   UNL A   1      42.053  29.637  30.319  1.00  0.00    -0.248 NA
ATOM     50  C   UNL A   1      40.253  31.121  30.307  1.00  0.00     0.031 C 
ATOM     51  C   UNL A   1      39.528  26.600  28.199  1.00  0.00     0.029 A 
ATOM     52  N   UNL A   1      41.523  26.988  29.128  1.00  0.00    -0.354 N 
ATOM     53  C   UNL A   1      42.447  30.848  30.874  1.00  0.00     0.074 A 
ATOM     54  C   UNL A   1      41.322  31.749  30.772  1.00  0.00     0.031 C 
ATOM     55  C   UNL A   1      40.265  25.489  28.045  1.00  0.00     0.029 A 
ATOM     56  C   UNL A   1      41.589  25.714  28.615  1.00  0.00     0.049 A 
ATOM     57  H   UNL A   1      42.275  27.420  29.594  1.00  0.00     0.167 HD
ATOM     58  C   UNL A   1      43.632  31.174  31.441  1.00  0.00     0.031 A 
ATOM     59  C   UNL A   1      42.606  24.829  28.598  1.00  0.00     0.031 A 
ATOM     60  C   UNL A   1      44.739  30.264  31.556  1.00  0.00     0.049 A 
ATOM     61  C   UNL A   1      43.913  25.216  29.232  1.00  0.00     0.074 A 
ATOM     62  C   UNL A   1      45.960  30.469  32.171  1.00  0.00     0.029 A 
ATOM     63  N   UNL A   1      44.758  28.976  31.042  1.00  0.00    -0.354 N 
ATOM     64  N   UNL A   1      44.242  26.342  29.821  1.00  0.00    -0.248 NA
ATOM     65  C   UNL A   1      44.984  24.211  29.208  1.00  0.00     0.031 C 
ATOM     66  C   UNL A   1      46.740  29.326  31.979  1.00  0.00     0.029 A 
ATOM     67  C   UNL A   1      45.981  28.382  31.304  1.00  0.00     0.049 A 
ATOM     68  H   UNL A   1      44.012  28.546  30.563  1.00  0.00     0.167 HD
ATOM     69  C   UNL A   1      45.549  26.170  30.264  1.00  0.00     0.074 A 
ATOM     70  C   UNL A   1      45.943  24.827  29.889  1.00  0.00     0.031 C 
ATOM     71  C   UNL A   1      46.350  27.042  30.923  1.00  0.00     0.031 A 
BRANCH  58  72
ATOM     72  C   UNL A   1      43.790  32.575  31.974  1.00  0.00    -0.014 A 
ATOM     73  C   UNL A   1      43.546  32.872  33.328  1.00  0.00     0.010 A 
ATOM     74  C   UNL A   1      44.226  33.603  31.119  1.00  0.00     0.010 A 
ATOM     75  C   UNL A   1      43.691  34.176  33.805  1.00  0.00     0.020 A 
ATOM     76  C   UNL A   1      44.404  34.903  31.600  1.00  0.00     0.020 A 
ATOM     77  C   UNL A   1      44.118  35.185  32.937  1.00  0.00     0.054 A 
BRANCH  77  78
ATOM     78  S   UNL A   1      44.326  36.863  33.593  1.00  0.00     0.124 S 
ATOM     79  O   UNL A   1      44.741  37.601  32.402  1.00  0.00    -0.237 OA
ATOM     80  O   UNL A   1      42.989  37.177  34.092  1.00  0.00    -0.237 OA
ATOM     81  O   UNL A   1      45.352  36.711  34.620  1.00  0.00    -0.744 OA
ENDBRANCH  77  78
ENDBRANCH  58  72
BRANCH  59  82
ATOM     82  C   UNL A   1      42.420  23.490  27.974  1.00  0.00    -0.014 A 
ATOM     83  C   UNL A   1      43.078  23.164  26.775  1.00  0.00     0.010 A 
ATOM     84  C   UNL A   1      41.594  22.527  28.582  1.00  0.00     0.010 A 
ATOM     85  C   UNL A   1      42.894  21.910  26.183  1.00  0.00     0.020 A 
ATOM     86  C   UNL A   1      41.432  21.262  28.010  1.00  0.00     0.020 A 
ATOM     87  C   UNL A   1      42.074  20.966  26.807  1.00  0.00     0.054 A 
BRANCH  87  88
ATOM     88  S   UNL A   1      41.887  19.330  26.043  1.00  0.00     0.124 S 
ATOM     89  O   UNL A   1      42.760  19.438  24.879  1.00  0.00    -0.237 OA
ATOM     90  O   UNL A   1      42.347  18.436  27.102  1.00  0.00    -0.237 OA
ATOM     91  O   UNL A   1      40.457  19.253  25.751  1.00  0.00    -0.744 OA
ENDBRANCH  87  88
ENDBRANCH  59  82
BRANCH  71  92
ATOM     92  C   UNL A   1      47.722  26.564  31.316  1.00  0.00    -0.014 A 
ATOM     93  C   UNL A   1      47.964  25.996  32.579  1.00  0.00     0.010 A 
ATOM     94  C   UNL A   1      48.769  26.622  30.377  1.00  0.00     0.010 A 
ATOM     95  C   UNL A   1      49.236  25.522  32.907  1.00  0.00     0.020 A 
ATOM     96  C   UNL A   1      50.034  26.121  30.690  1.00  0.00     0.020 A 
ATOM     97  C   UNL A   1      50.263  25.585  31.958  1.00  0.00     0.054 A 
BRANCH  97  98
ATOM     98  S   UNL A   1      51.890  24.914  32.391  1.00  0.00     0.124 S 
ATOM     99  O   UNL A   1      52.010  25.289  33.796  1.00  0.00    -0.237 OA
ATOM    100  O   UNL A   1      51.725  23.485  32.133  1.00  0.00    -0.237 OA
ATOM    101  O   UNL A   1      52.802  25.603  31.482  1.00  0.00    -0.744 OA
ENDBRANCH  97  98
ENDBRANCH  71  92
ENDBRANCH  45  46
ENDBRANCH  37  40
ENDBRANCH  35  36
ENDBRANCH  34  35
ENDBRANCH   1  34
TORSDOF 17
ENDMDL
MODEL 2
REMARK VINA RESULT:     -12.3      3.169      4.097
REMARK SMILES O=C(NC1(C(=O)NCCCNC(=O)c2ccc(-c3c4nc(c(-c5ccc(S(=O)(=O)[O-])cc5)c5ccc([nH]5)c(-c5ccc(S(=O)(=O)[O-])cc5)c5nc(c(-c6ccc(S(=O)(=O)[O-])cc6)c6ccc3[nH]6)C=C5)C=C4)cc2)Cc2ccccc2C1)OCC1c2ccccc2-c2ccccc21
REMARK SMILES IDX 8 1 7 2 5 3 6 4 4 6 74 7 81 8 75 9 80 10 76 11 79 12 77 13
REMARK SMILES IDX 78 14 3 15 1 16 2 17 82 19 83 20 84 21 85 22 96 23 86 24
REMARK SMILES IDX 90 25 91 26 95 27 87 28 89 29 92 30 94 31 88 32 93 33 9 34
REMARK SMILES IDX 10 35 11 36 12 37 13 39 14 40 15 41 73 42 16 43 72 44 17 45
REMARK SMILES IDX 18 46 19 47 66 48 20 49 71 50 65 51 67 52 21 53 70 54 64 55
REMARK SMILES IDX 63 56 22 58 52 59 33 60 51 61 34 62 37 63 50 64 68 65 35 66
REMARK SMILES IDX 36 67 49 69 69 70 38 71 23 72 24 73 32 74 25 75 31 76 26 77
REMARK SMILES IDX 27 78 28 79 29 80 30 81 53 82 54 83 62 84 55 85 61 86 56 87
REMARK SMILES IDX 57 88 58 89 59 90 60 91 39 92 40 93 48 94 41 95 47 96 42 97
REMARK SMILES IDX 43 98 44 99 45 100 46 101
REMARK H PARENT 7 5 3 18 11 38 67 57 37 68
REMARK Flexibility Score: inf
ROOT
ATOM      1  C   UNL A   1      34.078  28.535  25.850  1.00  0.00     0.117 C 
ENDROOT
BRANCH   1   2
ATOM      2  N   UNL A   1      32.903  27.743  26.098  1.00  0.00    -0.354 N 
ATOM      3  C   UNL A   1      31.871  27.376  25.316  1.00  0.00     0.246 C 
ATOM      4  O   UNL A   1      30.972  26.777  25.931  1.00  0.00    -0.272 OA
ATOM      5  H   UNL A   1      32.842  27.404  27.020  1.00  0.00     0.163 HD
BRANCH   3   6
ATOM      6  C   UNL A   1      31.679  27.719  23.797  1.00  0.00     0.130 C 
ATOM      7  C   UNL A   1      31.322  29.126  23.272  1.00  0.00     0.075 C 
ATOM      8  C   UNL A   1      30.502  26.819  23.312  1.00  0.00     0.075 C 
ATOM      9  C   UNL A   1      29.846  29.102  23.117  1.00  0.00    -0.042 A 
ATOM     10  C   UNL A   1      29.361  27.805  23.269  1.00  0.00    -0.042 A 
ATOM     11  C   UNL A   1      29.024  30.215  23.041  1.00  0.00     0.004 A 
ATOM     12  C   UNL A   1      28.004  27.610  23.449  1.00  0.00     0.004 A 
ATOM     13  C   UNL A   1      27.664  30.024  23.236  1.00  0.00     0.000 A 
ATOM     14  C   UNL A   1      27.161  28.733  23.460  1.00  0.00     0.000 A 
BRANCH   6  15
ATOM     15  N   UNL A   1      33.027  27.386  23.274  1.00  0.00    -0.306 N 
ATOM     16  O   UNL A   1      34.263  25.942  22.006  1.00  0.00    -0.225 OA
ATOM     17  C   UNL A   1      33.314  26.137  22.765  1.00  0.00     0.408 C 
ATOM     18  H   UNL A   1      33.731  28.074  23.292  1.00  0.00     0.168 HD
BRANCH  17  19
ATOM     19  O   UNL A   1      32.417  25.164  23.117  1.00  0.00    -0.449 OA
BRANCH  19  20
ATOM     20  C   UNL A   1      32.682  23.916  22.476  1.00  0.00     0.248 C 
BRANCH  20  21
ATOM     21  C   UNL A   1      33.380  22.823  23.341  1.00  0.00     0.088 C 
ATOM     22  C   UNL A   1      34.781  23.077  23.916  1.00  0.00    -0.029 A 
ATOM     23  C   UNL A   1      32.553  22.784  24.640  1.00  0.00    -0.029 A 
ATOM     24  C   UNL A   1      36.019  23.015  23.290  1.00  0.00     0.005 A 
ATOM     25  C   UNL A   1      34.715  23.266  25.316  1.00  0.00    -0.014 A 
ATOM     26  C   UNL A   1      33.336  23.216  25.729  1.00  0.00    -0.014 A 
ATOM     27  C   UNL A   1      31.189  22.578  24.769  1.00  0.00     0.005 A 
ATOM     28  C   UNL A   1      37.177  23.214  24.058  1.00  0.00     0.000 A 
ATOM     29  C   UNL A   1      35.864  23.408  26.087  1.00  0.00     0.009 A 
ATOM     30  C   UNL A   1      32.739  23.584  26.921  1.00  0.00     0.009 A 
ATOM     31  C   UNL A   1      30.589  22.924  25.980  1.00  0.00     0.000 A 
ATOM     32  C   UNL A   1      37.101  23.411  25.445  1.00  0.00     0.001 A 
ATOM     33  C   UNL A   1      31.351  23.457  27.033  1.00  0.00     0.001 A 
ENDBRANCH  20  21
ENDBRANCH  19  20
ENDBRANCH  17  19
ENDBRANCH   6  15
ENDBRANCH   3   6
ENDBRANCH   1   2
BRANCH   1  34
ATOM     34  C   UNL A   1      34.258  29.619  26.895  1.00  0.00     0.042 C 
BRANCH  34  35
ATOM     35  C   UNL A   1      35.541  29.410  27.687  1.00  0.00     0.118 C 
BRANCH  35  36
ATOM     36  N   UNL A   1      35.388  29.823  29.082  1.00  0.00    -0.352 N 
ATOM     37  C   UNL A   1      36.299  29.823  30.107  1.00  0.00     0.251 C 
ATOM     38  H   UNL A   1      34.491  30.152  29.322  1.00  0.00     0.163 HD
ATOM     39  O   UNL A   1      35.922  29.952  31.267  1.00  0.00    -0.269 OA
BRANCH  37  40
ATOM     40  C   UNL A   1      37.728  29.656  29.788  1.00  0.00     0.039 A 
ATOM     41  C   UNL A   1      38.633  29.352  30.806  1.00  0.00     0.014 A 
ATOM     42  C   UNL A   1      38.158  29.765  28.464  1.00  0.00     0.014 A 
ATOM     43  C   UNL A   1      39.961  29.077  30.478  1.00  0.00     0.010 A 
ATOM     44  C   UNL A   1      39.446  29.383  28.129  1.00  0.00     0.010 A 
ATOM     45  C   UNL A   1      40.365  29.045  29.132  1.00  0.00    -0.014 A 
BRANCH  45  46
ATOM     46  C   UNL A   1      41.743  28.668  28.737  1.00  0.00     0.031 A 
ATOM     47  C   UNL A   1      42.813  29.724  28.671  1.00  0.00     0.074 A 
ATOM     48  C   UNL A   1      42.003  27.403  28.351  1.00  0.00     0.049 A 
ATOM     49  N   UNL A   1      44.047  29.621  28.253  1.00  0.00    -0.248 NA
ATOM     50  C   UNL A   1      42.436  31.085  29.094  1.00  0.00     0.031 C 
ATOM     51  C   UNL A   1      41.031  26.306  28.323  1.00  0.00     0.029 A 
ATOM     52  N   UNL A   1      43.162  26.828  27.897  1.00  0.00    -0.354 N 
ATOM     53  C   UNL A   1      44.582  30.901  28.338  1.00  0.00     0.074 A 
ATOM     54  C   UNL A   1      43.525  31.775  28.790  1.00  0.00     0.031 C 
ATOM     55  C   UNL A   1      41.643  25.186  27.908  1.00  0.00     0.029 A 
ATOM     56  C   UNL A   1      43.033  25.493  27.591  1.00  0.00     0.049 A 
ATOM     57  H   UNL A   1      44.007  27.323  27.797  1.00  0.00     0.167 HD
ATOM     58  C   UNL A   1      45.848  31.307  28.086  1.00  0.00     0.031 A 
ATOM     59  C   UNL A   1      43.933  24.617  27.102  1.00  0.00     0.031 A 
ATOM     60  C   UNL A   1      46.899  30.425  27.656  1.00  0.00     0.049 A 
ATOM     61  C   UNL A   1      45.333  25.093  26.828  1.00  0.00     0.074 A 
ATOM     62  C   UNL A   1      48.232  30.719  27.437  1.00  0.00     0.029 A 
ATOM     63  N   UNL A   1      46.733  29.076  27.378  1.00  0.00    -0.354 N 
ATOM     64  N   UNL A   1      45.841  26.293  26.988  1.00  0.00    -0.248 NA
ATOM     65  C   UNL A   1      46.284  24.098  26.317  1.00  0.00     0.031 C 
ATOM     66  C   UNL A   1      48.861  29.561  26.971  1.00  0.00     0.029 A 
ATOM     67  C   UNL A   1      47.935  28.529  26.964  1.00  0.00     0.049 A 
ATOM     68  H   UNL A   1      45.886  28.581  27.464  1.00  0.00     0.167 HD
ATOM     69  C   UNL A   1      47.179  26.189  26.624  1.00  0.00     0.074 A 
ATOM     70  C   UNL A   1      47.404  24.807  26.252  1.00  0.00     0.031 C 
ATOM     71  C   UNL A   1      48.136  27.149  26.601  1.00  0.00     0.031 A 
BRANCH  58  72
ATOM     72  C   UNL A   1      46.162  32.770  28.266  1.00  0.00    -0.014 A 
ATOM     73  C   UNL A   1      46.008  33.685  27.208  1.00  0.00     0.010 A 
ATOM     74  C   UNL A   1      46.581  33.245  29.522  1.00  0.00     0.010 A 
ATOM     75  C   UNL A   1      46.309  35.037  27.390  1.00  0.00     0.020 A 
ATOM     76  C   UNL A   1      46.851  34.602  29.717  1.00  0.00     0.020 A 
ATOM     77  C   UNL A   1      46.729  35.487  28.644  1.00  0.00     0.054 A 
BRANCH  77  78
ATOM     78  S   UNL A   1      47.085  37.252  28.858  1.00  0.00     0.124 S 
ATOM     79  O   UNL A   1      46.602  37.810  27.596  1.00  0.00    -0.237 OA
ATOM     80  O   UNL A   1      46.296  37.595  30.039  1.00  0.00    -0.237 OA
ATOM     81  O   UNL A   1      48.532  37.297  29.044  1.00  0.00    -0.744 OA
ENDBRANCH  77  78
ENDBRANCH  58  72
BRANCH  59  82
ATOM     82  C   UNL A   1      43.541  23.202  26.858  1.00  0.00    -0.014 A 
ATOM     83  C   UNL A   1      43.631  22.649  25.568  1.00  0.00     0.010 A 
ATOM     84  C   UNL A   1      43.087  22.393  27.916  1.00  0.00     0.010 A 
ATOM     85  C   UNL A   1      43.252  21.323  25.336  1.00  0.00     0.020 A 
ATOM     86  C   UNL A   1      42.736  21.058  27.695  1.00  0.00     0.020 A 
ATOM     87  C   UNL A   1      42.809  20.535  26.402  1.00  0.00     0.054 A 
BRANCH  87  88
ATOM     88  S   UNL A   1      42.366  18.804  26.085  1.00  0.00     0.124 S 
ATOM     89  O   UNL A   1      43.318  18.433  25.044  1.00  0.00    -0.237 OA
ATOM     90  O   UNL A   1      42.577  18.183  27.389  1.00  0.00    -0.237 OA
ATOM     91  O   UNL A   1      40.970  18.883  25.660  1.00  0.00    -0.744 OA
ENDBRANCH  87  88
ENDBRANCH  59  82
BRANCH  71  92
ATOM     92  C   UNL A   1      49.525  26.734  26.196  1.00  0.00    -0.014 A 
ATOM     93  C   UNL A   1      50.376  26.059  27.089  1.00  0.00     0.010 A 
ATOM     94  C   UNL A   1      49.958  26.967  24.877  1.00  0.00     0.010 A 
ATOM     95  C   UNL A   1      51.646  25.648  26.677  1.00  0.00     0.020 A 
ATOM     96  C   UNL A   1      51.214  26.531  24.453  1.00  0.00     0.020 A 
ATOM     97  C   UNL A   1      52.056  25.884  25.360  1.00  0.00     0.054 A 
BRANCH  97  98
ATOM     98  S   UNL A   1      53.688  25.293  24.838  1.00  0.00     0.124 S 
ATOM     99  O   UNL A   1      53.506  23.845  24.853  1.00  0.00    -0.237 OA
ATOM    100  O   UNL A   1      53.837  25.894  23.514  1.00  0.00    -0.237 OA
ATOM    101  O   UNL A   1      54.590  25.819  25.859  1.00  0.00    -0.744 OA
ENDBRANCH  97  98
ENDBRANCH  71  92
ENDBRANCH  45  46
ENDBRANCH  37  40
ENDBRANCH  35  36
ENDBRANCH  34  35
ENDBRANCH   1  34
TORSDOF 17
ENDMDL
MODEL 3
REMARK VINA RESULT:     -12.0      2.900      4.029
REMARK SMILES O=C(NC1(C(=O)NCCCNC(=O)c2ccc(-c3c4nc(c(-c5ccc(S(=O)(=O)[O-])cc5)c5ccc([nH]5)c(-c5ccc(S(=O)(=O)[O-])cc5)c5nc(c(-c6ccc(S(=O)(=O)[O-])cc6)c6ccc3[nH]6)C=C5)C=C4)cc2)Cc2ccccc2C1)OCC1c2ccccc2-c2ccccc21
REMARK SMILES IDX 8 1 7 2 5 3 6 4 4 6 74 7 81 8 75 9 80 10 76 11 79 12 77 13
REMARK SMILES IDX 78 14 3 15 1 16 2 17 82 19 83 20 84 21 85 22 96 23 86 24
REMARK SMILES IDX 90 25 91 26 95 27 87 28 89 29 92 30 94 31 88 32 93 33 9 34
REMARK SMILES IDX 10 35 11 36 12 37 13 39 14 40 15 41 73 42 16 43 72 44 17 45
REMARK SMILES IDX 18 46 19 47 66 48 20 49 71 50 65 51 67 52 21 53 70 54 64 55
REMARK SMILES IDX 63 56 22 58 52 59 33 60 51 61 34 62 37 63 50 64 68 65 35 66
REMARK SMILES IDX 36 67 49 69 69 70 38 71 23 72 24 73 32 74 25 75 31 76 26 77
REMARK SMILES IDX 27 78 28 79 29 80 30 81 53 82 54 83 62 84 55 85 61 86 56 87
REMARK SMILES IDX 57 88 58 89 59 90 60 91 39 92 40 93 48 94 41 95 47 96 42 97
REMARK SMILES IDX 43 98 44 99 45 100 46 101
REMARK H PARENT 7 5 3 18 11 38 67 57 37 68
REMARK Flexibility Score: inf
ROOT
ATOM      1  C   UNL A   1      33.710  28.940  25.767  1.00  0.00     0.117 C 
ENDROOT
BRANCH   1   2
ATOM      2  N   UNL A   1      32.844  27.860  26.158  1.00  0.00    -0.354 N 
ATOM      3  C   UNL A   1      31.989  27.083  25.467  1.00  0.00     0.246 C 
ATOM      4  O   UNL A   1      31.320  26.321  26.186  1.00  0.00    -0.272 OA
ATOM      5  H   UNL A   1      32.885  27.647  27.117  1.00  0.00     0.163 HD
BRANCH   3   6
ATOM      6  C   UNL A   1      31.713  27.138  23.922  1.00  0.00     0.130 C 
ATOM      7  C   UNL A   1      31.244  28.406  23.178  1.00  0.00     0.075 C 
ATOM      8  C   UNL A   1      30.577  26.101  23.665  1.00  0.00     0.075 C 
ATOM      9  C   UNL A   1      29.768  28.272  23.106  1.00  0.00    -0.042 A 
ATOM     10  C   UNL A   1      29.374  26.998  23.509  1.00  0.00    -0.042 A 
ATOM     11  C   UNL A   1      28.873  29.305  22.879  1.00  0.00     0.004 A 
ATOM     12  C   UNL A   1      28.041  26.762  23.790  1.00  0.00     0.004 A 
ATOM     13  C   UNL A   1      27.538  29.077  23.175  1.00  0.00     0.000 A 
ATOM     14  C   UNL A   1      27.129  27.821  23.648  1.00  0.00     0.000 A 
BRANCH   6  15
ATOM     15  N   UNL A   1      33.057  26.794  23.397  1.00  0.00    -0.306 N 
ATOM     16  O   UNL A   1      34.337  25.207  22.365  1.00  0.00    -0.225 OA
ATOM     17  C   UNL A   1      33.411  25.489  23.125  1.00  0.00     0.408 C 
ATOM     18  H   UNL A   1      33.709  27.514  23.240  1.00  0.00     0.168 HD
BRANCH  17  19
ATOM     19  O   UNL A   1      32.604  24.550  23.711  1.00  0.00    -0.449 OA
BRANCH  19  20
ATOM     20  C   UNL A   1      33.032  23.215  23.442  1.00  0.00     0.248 C 
BRANCH  20  21
ATOM     21  C   UNL A   1      33.186  22.272  24.673  1.00  0.00     0.088 C 
ATOM     22  C   UNL A   1      33.264  20.751  24.472  1.00  0.00    -0.029 A 
ATOM     23  C   UNL A   1      34.610  22.554  25.189  1.00  0.00    -0.029 A 
ATOM     24  C   UNL A   1      32.248  19.839  24.218  1.00  0.00     0.005 A 
ATOM     25  C   UNL A   1      34.574  20.285  24.727  1.00  0.00    -0.014 A 
ATOM     26  C   UNL A   1      35.419  21.410  25.037  1.00  0.00    -0.014 A 
ATOM     27  C   UNL A   1      35.151  23.775  25.558  1.00  0.00     0.005 A 
ATOM     28  C   UNL A   1      32.565  18.473  24.151  1.00  0.00     0.000 A 
ATOM     29  C   UNL A   1      34.879  18.927  24.717  1.00  0.00     0.009 A 
ATOM     30  C   UNL A   1      36.796  21.508  25.111  1.00  0.00     0.009 A 
ATOM     31  C   UNL A   1      36.538  23.869  25.659  1.00  0.00     0.000 A 
ATOM     32  C   UNL A   1      33.870  18.020  24.396  1.00  0.00     0.001 A 
ATOM     33  C   UNL A   1      37.355  22.756  25.402  1.00  0.00     0.001 A 
ENDBRANCH  20  21
ENDBRANCH  19  20
ENDBRANCH  17  19
ENDBRANCH   6  15
ENDBRANCH   3   6
ENDBRANCH   1   2
BRANCH   1  34
ATOM     34  C   UNL A   1      33.976  29.892  26.916  1.00  0.00     0.042 C 
BRANCH  34  35
ATOM     35  C   UNL A   1      35.204  29.466  27.709  1.00  0.00     0.118 C 
BRANCH  35  36
ATOM     36  N   UNL A   1      35.321  30.210  28.963  1.00  0.00    -0.352 N 
ATOM     37  C   UNL A   1      36.338  30.233  29.883  1.00  0.00     0.251 C 
ATOM     38  H   UNL A   1      34.550  30.784  29.180  1.00  0.00     0.163 HD
ATOM     39  O   UNL A   1      36.150  30.706  30.999  1.00  0.00    -0.269 OA
BRANCH  37  40
ATOM     40  C   UNL A   1      37.649  29.672  29.508  1.00  0.00     0.039 A 
ATOM     41  C   UNL A   1      38.074  29.736  28.180  1.00  0.00     0.014 A 
ATOM     42  C   UNL A   1      38.470  29.119  30.493  1.00  0.00     0.014 A 
ATOM     43  C   UNL A   1      39.364  29.314  27.858  1.00  0.00     0.010 A 
ATOM     44  C   UNL A   1      39.785  28.806  30.190  1.00  0.00     0.010 A 
ATOM     45  C   UNL A   1      40.244  28.890  28.869  1.00  0.00    -0.014 A 
BRANCH  45  46
ATOM     46  C   UNL A   1      41.650  28.521  28.579  1.00  0.00     0.031 A 
ATOM     47  C   UNL A   1      42.714  29.586  28.583  1.00  0.00     0.074 A 
ATOM     48  C   UNL A   1      41.947  27.256  28.221  1.00  0.00     0.049 A 
ATOM     49  N   UNL A   1      43.976  29.490  28.257  1.00  0.00    -0.248 NA
ATOM     50  C   UNL A   1      42.297  30.946  28.968  1.00  0.00     0.031 C 
ATOM     51  C   UNL A   1      40.988  26.151  28.130  1.00  0.00     0.029 A 
ATOM     52  N   UNL A   1      43.140  26.687  27.858  1.00  0.00    -0.354 N 
ATOM     53  C   UNL A   1      44.494  30.774  28.373  1.00  0.00     0.074 A 
ATOM     54  C   UNL A   1      43.399  31.643  28.739  1.00  0.00     0.031 C 
ATOM     55  C   UNL A   1      41.637  25.033  27.770  1.00  0.00     0.029 A 
ATOM     56  C   UNL A   1      43.045  25.349  27.554  1.00  0.00     0.049 A 
ATOM     57  H   UNL A   1      43.987  27.189  27.817  1.00  0.00     0.167 HD
ATOM     58  C   UNL A   1      45.772  31.189  28.211  1.00  0.00     0.031 A 
ATOM     59  C   UNL A   1      43.985  24.477  27.138  1.00  0.00     0.031 A 
ATOM     60  C   UNL A   1      46.858  30.312  27.866  1.00  0.00     0.049 A 
ATOM     61  C   UNL A   1      45.397  24.963  26.963  1.00  0.00     0.074 A 
ATOM     62  C   UNL A   1      48.201  30.616  27.743  1.00  0.00     0.029 A 
ATOM     63  N   UNL A   1      46.723  28.961  27.586  1.00  0.00    -0.354 N 
ATOM     64  N   UNL A   1      45.883  26.168  27.151  1.00  0.00    -0.248 NA
ATOM     65  C   UNL A   1      46.391  23.972  26.531  1.00  0.00     0.031 C 
ATOM     66  C   UNL A   1      48.871  29.460  27.332  1.00  0.00     0.029 A 
ATOM     67  C   UNL A   1      47.956  28.420  27.265  1.00  0.00     0.049 A 
ATOM     68  H   UNL A   1      45.876  28.459  27.613  1.00  0.00     0.167 HD
ATOM     69  C   UNL A   1      47.245  26.072  26.888  1.00  0.00     0.074 A 
ATOM     70  C   UNL A   1      47.507  24.689  26.543  1.00  0.00     0.031 C 
ATOM     71  C   UNL A   1      48.194  27.040  26.928  1.00  0.00     0.031 A 
BRANCH  58  72
ATOM     72  C   UNL A   1      46.060  32.656  28.403  1.00  0.00    -0.014 A 
ATOM     73  C   UNL A   1      46.412  33.171  29.664  1.00  0.00     0.010 A 
ATOM     74  C   UNL A   1      46.016  33.527  27.298  1.00  0.00     0.010 A 
ATOM     75  C   UNL A   1      46.671  34.534  29.825  1.00  0.00     0.020 A 
ATOM     76  C   UNL A   1      46.305  34.885  27.450  1.00  0.00     0.020 A 
ATOM     77  C   UNL A   1      46.615  35.383  28.717  1.00  0.00     0.054 A 
BRANCH  77  78
ATOM     78  S   UNL A   1      46.983  37.143  28.953  1.00  0.00     0.124 S 
ATOM     79  O   UNL A   1      45.656  37.745  28.840  1.00  0.00    -0.237 OA
ATOM     80  O   UNL A   1      47.572  37.169  30.290  1.00  0.00    -0.237 OA
ATOM     81  O   UNL A   1      47.903  37.456  27.863  1.00  0.00    -0.744 OA
ENDBRANCH  77  78
ENDBRANCH  58  72
BRANCH  59  82
ATOM     82  C   UNL A   1      43.622  23.057  26.876  1.00  0.00    -0.014 A 
ATOM     83  C   UNL A   1      43.000  22.284  27.872  1.00  0.00     0.010 A 
ATOM     84  C   UNL A   1      43.886  22.472  25.624  1.00  0.00     0.010 A 
ATOM     85  C   UNL A   1      42.670  20.946  27.630  1.00  0.00     0.020 A 
ATOM     86  C   UNL A   1      43.531  21.145  25.367  1.00  0.00     0.020 A 
ATOM     87  C   UNL A   1      42.936  20.386  26.377  1.00  0.00     0.054 A 
BRANCH  87  88
ATOM     88  S   UNL A   1      42.458  18.663  26.072  1.00  0.00     0.124 S 
ATOM     89  O   UNL A   1      42.685  18.049  27.377  1.00  0.00    -0.237 OA
ATOM     90  O   UNL A   1      41.062  18.792  25.665  1.00  0.00    -0.237 OA
ATOM     91  O   UNL A   1      43.370  18.239  25.012  1.00  0.00    -0.744 OA
ENDBRANCH  87  88
ENDBRANCH  59  82
BRANCH  71  92
ATOM     92  C   UNL A   1      49.612  26.633  26.628  1.00  0.00    -0.014 A 
ATOM     93  C   UNL A   1      50.125  26.681  25.320  1.00  0.00     0.010 A 
ATOM     94  C   UNL A   1      50.462  26.262  27.687  1.00  0.00     0.010 A 
ATOM     95  C   UNL A   1      51.456  26.337  25.072  1.00  0.00     0.020 A 
ATOM     96  C   UNL A   1      51.801  25.948  27.447  1.00  0.00     0.020 A 
ATOM     97  C   UNL A   1      52.286  25.976  26.139  1.00  0.00     0.054 A 
BRANCH  97  98
ATOM     98  S   UNL A   1      54.023  25.587  25.796  1.00  0.00     0.124 S 
ATOM     99  O   UNL A   1      54.533  26.868  25.316  1.00  0.00    -0.237 OA
ATOM    100  O   UNL A   1      54.520  25.161  27.103  1.00  0.00    -0.237 OA
ATOM    101  O   UNL A   1      53.950  24.531  24.789  1.00  0.00    -0.744 OA
ENDBRANCH  97  98
ENDBRANCH  71  92
ENDBRANCH  45  46
ENDBRANCH  37  40
ENDBRANCH  35  36
ENDBRANCH  34  35
ENDBRANCH   1  34
TORSDOF 17
ENDMDL
