MODEL 1
REMARK VINA RESULT:     -13.5      0.000      0.000
REMARK SMILES O=C(NC1(C(=O)NCCCNC(=O)c2ccc(-c3c4nc(c(-c5ccc(S(=O)(=O)[O-])cc5)c5ccc([nH]5)c(-c5ccc(S(=O)(=O)[O-])cc5)c5nc(c(-c6ccc(S(=O)(=O)[O-])cc6)c6ccc3[nH]6)C=C5)C=C4)cc2)CC[NH2+]CC1)OCC1c2ccccc2-c2ccccc21
REMARK SMILES IDX 8 1 7 2 5 3 6 4 4 6 74 7 78 8 75 9 77 10 76 11 3 14 1 15
REMARK SMILES IDX 2 16 79 18 80 19 81 20 82 21 93 22 83 23 87 24 88 25 92 26
REMARK SMILES IDX 84 27 86 28 89 29 91 30 85 31 90 32 9 33 10 34 11 35 12 36
REMARK SMILES IDX 13 38 14 39 15 40 73 41 16 42 72 43 17 44 18 45 19 46 66 47
REMARK SMILES IDX 20 48 71 49 65 50 67 51 21 52 70 53 64 54 63 55 22 57 52 58
REMARK SMILES IDX 33 59 51 60 34 61 37 62 50 63 68 64 35 65 36 66 49 68 69 69
REMARK SMILES IDX 38 70 23 71 24 72 32 73 25 74 31 75 26 76 27 77 28 78 29 79
REMARK SMILES IDX 30 80 53 81 54 82 62 83 55 84 61 85 56 86 57 87 58 88 59 89
REMARK SMILES IDX 60 90 39 91 40 92 48 93 41 94 47 95 42 96 43 97 44 98 45 99
REMARK SMILES IDX 46 100
REMARK H PARENT 7 5 76 12 76 13 3 17 11 37 67 56 37 67
REMARK Flexibility Score: inf
ROOT
ATOM      1  C   UNL A   1      33.169  29.842  26.822  1.00  0.00     0.117 C 
ENDROOT
BRANCH   1   2
ATOM      2  N   UNL A   1      32.245  29.861  25.634  1.00  0.00    -0.354 N 
ATOM      3  C   UNL A   1      31.453  29.192  24.763  1.00  0.00     0.246 C 
ATOM      4  O   UNL A   1      30.657  30.046  24.280  1.00  0.00    -0.272 OA
ATOM      5  H   UNL A   1      32.192  30.806  25.363  1.00  0.00     0.163 HD
BRANCH   3   6
ATOM      6  C   UNL A   1      31.179  27.620  24.161  1.00  0.00     0.132 C 
ATOM      7  C   UNL A   1      31.747  26.747  25.359  1.00  0.00     0.100 C 
ATOM      8  C   UNL A   1      30.112  26.707  23.456  1.00  0.00     0.100 C 
ATOM      9  C   UNL A   1      30.791  25.743  26.059  1.00  0.00     0.263 C 
ATOM     10  C   UNL A   1      29.969  25.261  23.901  1.00  0.00     0.263 C 
ATOM     11  N   UNL A   1      29.638  25.316  25.298  1.00  0.00    -0.346 N 
ATOM     12  H   UNL A   1      28.876  25.978  25.439  1.00  0.00     0.346 HD
ATOM     13  H   UNL A   1      29.353  24.389  25.612  1.00  0.00     0.346 HD
BRANCH   6  14
ATOM     14  N   UNL A   1      32.157  27.820  23.066  1.00  0.00    -0.307 N 
ATOM     15  O   UNL A   1      33.701  27.084  21.599  1.00  0.00    -0.225 OA
ATOM     16  C   UNL A   1      33.007  26.850  22.551  1.00  0.00     0.408 C 
ATOM     17  H   UNL A   1      32.207  28.719  22.668  1.00  0.00     0.168 HD
BRANCH  16  18
ATOM     18  O   UNL A   1      33.158  25.711  23.319  1.00  0.00    -0.449 OA
BRANCH  18  19
ATOM     19  C   UNL A   1      33.279  24.386  22.719  1.00  0.00     0.248 C 
BRANCH  19  20
ATOM     20  C   UNL A   1      33.479  23.185  23.764  1.00  0.00     0.088 C 
ATOM     21  C   UNL A   1      34.868  23.089  24.410  1.00  0.00    -0.029 A 
ATOM     22  C   UNL A   1      33.169  21.622  23.620  1.00  0.00    -0.029 A 
ATOM     23  C   UNL A   1      35.865  24.041  24.536  1.00  0.00     0.005 A 
ATOM     24  C   UNL A   1      35.051  21.788  24.937  1.00  0.00    -0.014 A 
ATOM     25  C   UNL A   1      33.987  20.919  24.513  1.00  0.00    -0.014 A 
ATOM     26  C   UNL A   1      32.277  20.833  22.888  1.00  0.00     0.005 A 
ATOM     27  C   UNL A   1      37.053  23.669  25.167  1.00  0.00     0.000 A 
ATOM     28  C   UNL A   1      36.215  21.430  25.587  1.00  0.00     0.009 A 
ATOM     29  C   UNL A   1      33.806  19.556  24.785  1.00  0.00     0.009 A 
ATOM     30  C   UNL A   1      32.116  19.456  23.103  1.00  0.00     0.000 A 
ATOM     31  C   UNL A   1      37.223  22.379  25.691  1.00  0.00     0.001 A 
ATOM     32  C   UNL A   1      32.850  18.825  24.088  1.00  0.00     0.001 A 
ENDBRANCH  19  20
ENDBRANCH  18  19
ENDBRANCH  16  18
ENDBRANCH   6  14
ENDBRANCH   3   6
ENDBRANCH   1   2
BRANCH   1  33
ATOM     33  C   UNL A   1      34.400  28.949  26.694  1.00  0.00     0.042 C 
BRANCH  33  34
ATOM     34  C   UNL A   1      35.602  29.387  27.544  1.00  0.00     0.118 C 
BRANCH  34  35
ATOM     35  N   UNL A   1      35.371  29.834  28.918  1.00  0.00    -0.352 N 
ATOM     36  C   UNL A   1      36.303  30.124  29.909  1.00  0.00     0.251 C 
ATOM     37  H   UNL A   1      34.426  29.944  29.177  1.00  0.00     0.163 HD
ATOM     38  O   UNL A   1      35.947  30.540  31.009  1.00  0.00    -0.269 OA
BRANCH  36  39
ATOM     39  C   UNL A   1      37.750  29.889  29.681  1.00  0.00     0.039 A 
ATOM     40  C   UNL A   1      38.555  29.406  30.723  1.00  0.00     0.014 A 
ATOM     41  C   UNL A   1      38.311  30.097  28.427  1.00  0.00     0.014 A 
ATOM     42  C   UNL A   1      39.881  29.031  30.467  1.00  0.00     0.010 A 
ATOM     43  C   UNL A   1      39.565  29.579  28.141  1.00  0.00     0.010 A 
ATOM     44  C   UNL A   1      40.380  29.059  29.157  1.00  0.00    -0.014 A 
BRANCH  44  45
ATOM     45  C   UNL A   1      41.754  28.618  28.790  1.00  0.00     0.031 A 
ATOM     46  C   UNL A   1      42.859  29.649  28.740  1.00  0.00     0.074 A 
ATOM     47  C   UNL A   1      41.986  27.357  28.374  1.00  0.00     0.049 A 
ATOM     48  N   UNL A   1      44.055  29.561  28.218  1.00  0.00    -0.248 NA
ATOM     49  C   UNL A   1      42.543  30.985  29.278  1.00  0.00     0.031 C 
ATOM     50  C   UNL A   1      40.995  26.280  28.310  1.00  0.00     0.029 A 
ATOM     51  N   UNL A   1      43.135  26.769  27.905  1.00  0.00    -0.354 N 
ATOM     52  C   UNL A   1      44.594  30.842  28.301  1.00  0.00     0.074 A 
ATOM     53  C   UNL A   1      43.569  31.699  28.846  1.00  0.00     0.031 C 
ATOM     54  C   UNL A   1      41.586  25.157  27.868  1.00  0.00     0.029 A 
ATOM     55  C   UNL A   1      42.985  25.442  27.571  1.00  0.00     0.049 A 
ATOM     56  H   UNL A   1      43.988  27.252  27.816  1.00  0.00     0.167 HD
ATOM     57  C   UNL A   1      45.844  31.262  27.990  1.00  0.00     0.031 A 
ATOM     58  C   UNL A   1      43.877  24.559  27.081  1.00  0.00     0.031 A 
ATOM     59  C   UNL A   1      46.882  30.378  27.537  1.00  0.00     0.049 A 
ATOM     60  C   UNL A   1      45.289  25.021  26.834  1.00  0.00     0.074 A 
ATOM     61  C   UNL A   1      48.211  30.664  27.284  1.00  0.00     0.029 A 
ATOM     62  N   UNL A   1      46.710  29.021  27.304  1.00  0.00    -0.354 N 
ATOM     63  N   UNL A   1      45.794  26.226  26.958  1.00  0.00    -0.248 NA
ATOM     64  C   UNL A   1      46.256  24.002  26.406  1.00  0.00     0.031 C 
ATOM     65  C   UNL A   1      48.837  29.484  26.871  1.00  0.00     0.029 A 
ATOM     66  C   UNL A   1      47.909  28.453  26.918  1.00  0.00     0.049 A 
ATOM     67  H   UNL A   1      45.859  28.535  27.400  1.00  0.00     0.167 HD
ATOM     68  C   UNL A   1      47.148  26.102  26.663  1.00  0.00     0.074 A 
ATOM     69  C   UNL A   1      47.380  24.702  26.364  1.00  0.00     0.031 C 
ATOM     70  C   UNL A   1      48.114  27.054  26.644  1.00  0.00     0.031 A 
BRANCH  57  71
ATOM     71  C   UNL A   1      46.152  32.728  28.162  1.00  0.00    -0.014 A 
ATOM     72  C   UNL A   1      45.953  33.645  27.112  1.00  0.00     0.010 A 
ATOM     73  C   UNL A   1      46.642  33.204  29.393  1.00  0.00     0.010 A 
ATOM     74  C   UNL A   1      46.297  34.990  27.265  1.00  0.00     0.020 A 
ATOM     75  C   UNL A   1      46.950  34.557  29.564  1.00  0.00     0.020 A 
ATOM     76  C   UNL A   1      46.798  35.437  28.490  1.00  0.00     0.054 A 
BRANCH  76  77
ATOM     77  S   UNL A   1      47.221  37.192  28.666  1.00  0.00     0.124 S 
ATOM     78  O   UNL A   1      48.117  37.399  27.529  1.00  0.00    -0.237 OA
ATOM     79  O   UNL A   1      45.919  37.847  28.566  1.00  0.00    -0.237 OA
ATOM     80  O   UNL A   1      47.855  37.267  29.979  1.00  0.00    -0.744 OA
ENDBRANCH  76  77
ENDBRANCH  57  71
BRANCH  58  81
ATOM     81  C   UNL A   1      43.481  23.139  26.852  1.00  0.00    -0.014 A 
ATOM     82  C   UNL A   1      43.749  22.519  25.618  1.00  0.00     0.010 A 
ATOM     83  C   UNL A   1      42.854  22.392  27.865  1.00  0.00     0.010 A 
ATOM     84  C   UNL A   1      43.379  21.190  25.392  1.00  0.00     0.020 A 
ATOM     85  C   UNL A   1      42.508  21.052  27.654  1.00  0.00     0.020 A 
ATOM     86  C   UNL A   1      42.763  20.463  26.414  1.00  0.00     0.054 A 
BRANCH  86  87
ATOM     87  S   UNL A   1      42.340  18.723  26.115  1.00  0.00     0.124 S 
ATOM     88  O   UNL A   1      42.627  18.113  27.409  1.00  0.00    -0.237 OA
ATOM     89  O   UNL A   1      40.927  18.800  25.752  1.00  0.00    -0.237 OA
ATOM     90  O   UNL A   1      43.235  18.336  25.027  1.00  0.00    -0.744 OA
ENDBRANCH  86  87
ENDBRANCH  58  81
BRANCH  70  91
ATOM     91  C   UNL A   1      49.519  26.605  26.356  1.00  0.00    -0.014 A 
ATOM     92  C   UNL A   1      50.064  26.678  25.063  1.00  0.00     0.010 A 
ATOM     93  C   UNL A   1      50.322  26.150  27.419  1.00  0.00     0.010 A 
ATOM     94  C   UNL A   1      51.378  26.262  24.830  1.00  0.00     0.020 A 
ATOM     95  C   UNL A   1      51.644  25.763  27.195  1.00  0.00     0.020 A 
ATOM     96  C   UNL A   1      52.158  25.805  25.898  1.00  0.00     0.054 A 
BRANCH  96  97
ATOM     97  S   UNL A   1      53.868  25.298  25.575  1.00  0.00     0.124 S 
ATOM     98  O   UNL A   1      54.372  26.419  24.787  1.00  0.00    -0.237 OA
ATOM     99  O   UNL A   1      54.425  25.174  26.920  1.00  0.00    -0.237 OA
ATOM    100  O   UNL A   1      53.725  24.039  24.848  1.00  0.00    -0.744 OA
ENDBRANCH  96  97
ENDBRANCH  70  91
ENDBRANCH  44  45
ENDBRANCH  36  39
ENDBRANCH  34  35
ENDBRANCH  33  34
ENDBRANCH   1  33
TORSDOF 17
ENDMDL
MODEL 2
REMARK VINA RESULT:     -13.0      0.645      7.941
REMARK SMILES O=C(NC1(C(=O)NCCCNC(=O)c2ccc(-c3c4nc(c(-c5ccc(S(=O)(=O)[O-])cc5)c5ccc([nH]5)c(-c5ccc(S(=O)(=O)[O-])cc5)c5nc(c(-c6ccc(S(=O)(=O)[O-])cc6)c6ccc3[nH]6)C=C5)C=C4)cc2)CC[NH2+]CC1)OCC1c2ccccc2-c2ccccc21
REMARK SMILES IDX 8 1 7 2 5 3 6 4 4 6 74 7 78 8 75 9 77 10 76 11 3 14 1 15
REMARK SMILES IDX 2 16 79 18 80 19 81 20 82 21 93 22 83 23 87 24 88 25 92 26
REMARK SMILES IDX 84 27 86 28 89 29 91 30 85 31 90 32 9 33 10 34 11 35 12 36
REMARK SMILES IDX 13 38 14 39 15 40 73 41 16 42 72 43 17 44 18 45 19 46 66 47
REMARK SMILES IDX 20 48 71 49 65 50 67 51 21 52 70 53 64 54 63 55 22 57 52 58
REMARK SMILES IDX 33 59 51 60 34 61 37 62 50 63 68 64 35 65 36 66 49 68 69 69
REMARK SMILES IDX 38 70 23 71 24 72 32 73 25 74 31 75 26 76 27 77 28 78 29 79
REMARK SMILES IDX 30 80 53 81 54 82 62 83 55 84 61 85 56 86 57 87 58 88 59 89
REMARK SMILES IDX 60 90 39 91 40 92 48 93 41 94 47 95 42 96 43 97 44 98 45 99
REMARK SMILES IDX 46 100
REMARK H PARENT 7 5 76 12 76 13 3 17 11 37 67 56 37 67
REMARK Flexibility Score: inf
ROOT
ATOM      1  C   UNL A   1      32.804  30.268  26.630  1.00  0.00     0.117 C 
ENDROOT
BRANCH   1   2
ATOM      2  N   UNL A   1      31.879  30.160  25.448  1.00  0.00    -0.354 N 
ATOM      3  C   UNL A   1      31.139  29.391  24.613  1.00  0.00     0.246 C 
ATOM      4  O   UNL A   1      30.278  30.158  24.096  1.00  0.00    -0.272 OA
ATOM      5  H   UNL A   1      31.752  31.084  25.133  1.00  0.00     0.163 HD
BRANCH   3   6
ATOM      6  C   UNL A   1      30.985  27.776  24.087  1.00  0.00     0.132 C 
ATOM      7  C   UNL A   1      31.549  27.003  25.354  1.00  0.00     0.100 C 
ATOM      8  C   UNL A   1      30.007  26.764  23.389  1.00  0.00     0.100 C 
ATOM      9  C   UNL A   1      30.625  25.981  26.067  1.00  0.00     0.263 C 
ATOM     10  C   UNL A   1      29.930  25.337  23.906  1.00  0.00     0.263 C 
ATOM     11  N   UNL A   1      29.535  25.444  25.283  1.00  0.00    -0.346 N 
ATOM     12  H   UNL A   1      28.728  26.065  25.356  1.00  0.00     0.346 HD
ATOM     13  H   UNL A   1      29.290  24.519  25.635  1.00  0.00     0.346 HD
BRANCH   6  14
ATOM     14  N   UNL A   1      31.997  27.979  23.024  1.00  0.00    -0.307 N 
ATOM     15  O   UNL A   1      33.714  27.294  21.735  1.00  0.00    -0.225 OA
ATOM     16  C   UNL A   1      32.996  27.080  22.674  1.00  0.00     0.408 C 
ATOM     17  H   UNL A   1      31.958  28.825  22.522  1.00  0.00     0.168 HD
BRANCH  16  18
ATOM     18  O   UNL A   1      33.242  26.067  23.582  1.00  0.00    -0.449 OA
BRANCH  18  19
ATOM     19  C   UNL A   1      34.399  25.186  23.461  1.00  0.00     0.248 C 
BRANCH  19  20
ATOM     20  C   UNL A   1      34.237  23.755  24.169  1.00  0.00     0.088 C 
ATOM     21  C   UNL A   1      35.530  23.128  24.705  1.00  0.00    -0.029 A 
ATOM     22  C   UNL A   1      33.511  22.423  23.661  1.00  0.00    -0.029 A 
ATOM     23  C   UNL A   1      36.748  23.710  25.013  1.00  0.00     0.005 A 
ATOM     24  C   UNL A   1      35.336  21.737  24.888  1.00  0.00    -0.014 A 
ATOM     25  C   UNL A   1      34.083  21.324  24.314  1.00  0.00    -0.014 A 
ATOM     26  C   UNL A   1      32.454  22.114  22.801  1.00  0.00     0.005 A 
ATOM     27  C   UNL A   1      37.772  22.883  25.477  1.00  0.00     0.000 A 
ATOM     28  C   UNL A   1      36.341  20.926  25.374  1.00  0.00     0.009 A 
ATOM     29  C   UNL A   1      33.529  20.039  24.253  1.00  0.00     0.009 A 
ATOM     30  C   UNL A   1      31.914  20.824  22.679  1.00  0.00     0.000 A 
ATOM     31  C   UNL A   1      37.569  21.508  25.661  1.00  0.00     0.001 A 
ATOM     32  C   UNL A   1      32.424  19.794  23.443  1.00  0.00     0.001 A 
ENDBRANCH  19  20
ENDBRANCH  18  19
ENDBRANCH  16  18
ENDBRANCH   6  14
ENDBRANCH   3   6
ENDBRANCH   1   2
BRANCH   1  33
ATOM     33  C   UNL A   1      33.842  29.158  26.766  1.00  0.00     0.042 C 
BRANCH  33  34
ATOM     34  C   UNL A   1      35.160  29.588  27.428  1.00  0.00     0.118 C 
BRANCH  34  35
ATOM     35  N   UNL A   1      35.195  29.765  28.881  1.00  0.00    -0.352 N 
ATOM     36  C   UNL A   1      36.287  29.696  29.741  1.00  0.00     0.251 C 
ATOM     37  H   UNL A   1      34.329  29.958  29.308  1.00  0.00     0.163 HD
ATOM     38  O   UNL A   1      36.159  29.919  30.942  1.00  0.00    -0.269 OA
BRANCH  36  39
ATOM     39  C   UNL A   1      37.625  29.298  29.237  1.00  0.00     0.039 A 
ATOM     40  C   UNL A   1      37.984  29.572  27.910  1.00  0.00     0.014 A 
ATOM     41  C   UNL A   1      38.549  28.697  30.083  1.00  0.00     0.014 A 
ATOM     42  C   UNL A   1      39.298  29.345  27.478  1.00  0.00     0.010 A 
ATOM     43  C   UNL A   1      39.880  28.624  29.704  1.00  0.00     0.010 A 
ATOM     44  C   UNL A   1      40.275  28.924  28.391  1.00  0.00    -0.014 A 
BRANCH  44  45
ATOM     45  C   UNL A   1      41.705  28.720  28.031  1.00  0.00     0.031 A 
ATOM     46  C   UNL A   1      42.161  27.340  27.615  1.00  0.00     0.074 A 
ATOM     47  C   UNL A   1      42.608  29.706  28.205  1.00  0.00     0.049 A 
ATOM     48  N   UNL A   1      43.373  26.865  27.498  1.00  0.00    -0.248 NA
ATOM     49  C   UNL A   1      41.105  26.337  27.379  1.00  0.00     0.031 C 
ATOM     50  C   UNL A   1      42.313  31.066  28.665  1.00  0.00     0.029 A 
ATOM     51  N   UNL A   1      43.970  29.710  28.032  1.00  0.00    -0.354 N 
ATOM     52  C   UNL A   1      43.220  25.503  27.250  1.00  0.00     0.074 A 
ATOM     53  C   UNL A   1      41.806  25.218  27.315  1.00  0.00     0.031 C 
ATOM     54  C   UNL A   1      43.451  31.780  28.699  1.00  0.00     0.029 A 
ATOM     55  C   UNL A   1      44.563  30.920  28.312  1.00  0.00     0.049 A 
ATOM     56  H   UNL A   1      44.476  28.920  27.735  1.00  0.00     0.167 HD
ATOM     57  C   UNL A   1      44.164  24.579  26.955  1.00  0.00     0.031 A 
ATOM     58  C   UNL A   1      45.858  31.291  28.261  1.00  0.00     0.031 A 
ATOM     59  C   UNL A   1      45.557  24.898  26.801  1.00  0.00     0.049 A 
ATOM     60  C   UNL A   1      46.883  30.273  27.835  1.00  0.00     0.074 A 
ATOM     61  C   UNL A   1      46.594  24.071  26.409  1.00  0.00     0.029 A 
ATOM     62  N   UNL A   1      46.100  26.159  27.001  1.00  0.00    -0.354 N 
ATOM     63  N   UNL A   1      46.716  29.000  27.562  1.00  0.00    -0.248 NA
ATOM     64  C   UNL A   1      48.266  30.747  27.685  1.00  0.00     0.031 C 
ATOM     65  C   UNL A   1      47.771  24.828  26.398  1.00  0.00     0.029 A 
ATOM     66  C   UNL A   1      47.455  26.137  26.733  1.00  0.00     0.049 A 
ATOM     67  H   UNL A   1      45.593  26.952  27.291  1.00  0.00     0.167 HD
ATOM     68  C   UNL A   1      47.964  28.530  27.169  1.00  0.00     0.074 A 
ATOM     69  C   UNL A   1      48.872  29.659  27.232  1.00  0.00     0.031 C 
ATOM     70  C   UNL A   1      48.329  27.280  26.786  1.00  0.00     0.031 A 
BRANCH  57  71
ATOM     71  C   UNL A   1      43.711  23.155  26.750  1.00  0.00    -0.014 A 
ATOM     72  C   UNL A   1      43.021  22.456  27.759  1.00  0.00     0.010 A 
ATOM     73  C   UNL A   1      43.969  22.503  25.530  1.00  0.00     0.010 A 
ATOM     74  C   UNL A   1      42.657  21.120  27.579  1.00  0.00     0.020 A 
ATOM     75  C   UNL A   1      43.571  21.178  25.330  1.00  0.00     0.020 A 
ATOM     76  C   UNL A   1      42.939  20.487  26.366  1.00  0.00     0.054 A 
BRANCH  76  77
ATOM     77  S   UNL A   1      42.441  18.756  26.154  1.00  0.00     0.124 S 
ATOM     78  O   UNL A   1      41.042  18.894  25.751  1.00  0.00    -0.237 OA
ATOM     79  O   UNL A   1      43.351  18.286  25.112  1.00  0.00    -0.237 OA
ATOM     80  O   UNL A   1      42.653  18.170  27.475  1.00  0.00    -0.744 OA
ENDBRANCH  76  77
ENDBRANCH  57  71
BRANCH  58  81
ATOM     81  C   UNL A   1      46.249  32.699  28.560  1.00  0.00    -0.014 A 
ATOM     82  C   UNL A   1      46.022  33.713  27.611  1.00  0.00     0.010 A 
ATOM     83  C   UNL A   1      46.828  33.041  29.795  1.00  0.00     0.010 A 
ATOM     84  C   UNL A   1      46.388  35.036  27.881  1.00  0.00     0.020 A 
ATOM     85  C   UNL A   1      47.170  34.368  30.080  1.00  0.00     0.020 A 
ATOM     86  C   UNL A   1      46.957  35.356  29.116  1.00  0.00     0.054 A 
BRANCH  86  87
ATOM     87  S   UNL A   1      47.375  37.088  29.462  1.00  0.00     0.124 S 
ATOM     88  O   UNL A   1      48.542  37.297  28.612  1.00  0.00    -0.237 OA
ATOM     89  O   UNL A   1      46.162  37.793  29.055  1.00  0.00    -0.237 OA
ATOM     90  O   UNL A   1      47.637  37.095  30.900  1.00  0.00    -0.744 OA
ENDBRANCH  86  87
ENDBRANCH  58  81
BRANCH  70  91
ATOM     91  C   UNL A   1      49.752  27.084  26.341  1.00  0.00    -0.014 A 
ATOM     92  C   UNL A   1      50.141  27.296  25.008  1.00  0.00     0.010 A 
ATOM     93  C   UNL A   1      50.723  26.730  27.295  1.00  0.00     0.010 A 
ATOM     94  C   UNL A   1      51.473  27.115  24.628  1.00  0.00     0.020 A 
ATOM     95  C   UNL A   1      52.061  26.578  26.926  1.00  0.00     0.020 A 
ATOM     96  C   UNL A   1      52.423  26.755  25.589  1.00  0.00     0.054 A 
BRANCH  96  97
ATOM     97  S   UNL A   1      54.150  26.554  25.077  1.00  0.00     0.124 S 
ATOM     98  O   UNL A   1      54.774  26.061  26.302  1.00  0.00    -0.237 OA
ATOM     99  O   UNL A   1      54.051  25.585  23.988  1.00  0.00    -0.237 OA
ATOM    100  O   UNL A   1      54.550  27.899  24.670  1.00  0.00    -0.744 OA
ENDBRANCH  96  97
ENDBRANCH  70  91
ENDBRANCH  44  45
ENDBRANCH  36  39
ENDBRANCH  34  35
ENDBRANCH  33  34
ENDBRANCH   1  33
TORSDOF 17
ENDMDL
MODEL 3
REMARK VINA RESULT:     -12.9      4.604      8.508
REMARK SMILES O=C(NC1(C(=O)NCCCNC(=O)c2ccc(-c3c4nc(c(-c5ccc(S(=O)(=O)[O-])cc5)c5ccc([nH]5)c(-c5ccc(S(=O)(=O)[O-])cc5)c5nc(c(-c6ccc(S(=O)(=O)[O-])cc6)c6ccc3[nH]6)C=C5)C=C4)cc2)CC[NH2+]CC1)OCC1c2ccccc2-c2ccccc21
REMARK SMILES IDX 8 1 7 2 5 3 6 4 4 6 74 7 78 8 75 9 77 10 76 11 3 14 1 15
REMARK SMILES IDX 2 16 79 18 80 19 81 20 82 21 93 22 83 23 87 24 88 25 92 26
REMARK SMILES IDX 84 27 86 28 89 29 91 30 85 31 90 32 9 33 10 34 11 35 12 36
REMARK SMILES IDX 13 38 14 39 15 40 73 41 16 42 72 43 17 44 18 45 19 46 66 47
REMARK SMILES IDX 20 48 71 49 65 50 67 51 21 52 70 53 64 54 63 55 22 57 52 58
REMARK SMILES IDX 33 59 51 60 34 61 37 62 50 63 68 64 35 65 36 66 49 68 69 69
REMARK SMILES IDX 38 70 23 71 24 72 32 73 25 74 31 75 26 76 27 77 28 78 29 79
REMARK SMILES IDX 30 80 53 81 54 82 62 83 55 84 61 85 56 86 57 87 58 88 59 89
REMARK SMILES IDX 60 90 39 91 40 92 48 93 41 94 47 95 42 96 43 97 44 98 45 99
REMARK SMILES IDX 46 100
REMARK H PARENT 7 5 76 12 76 13 3 17 11 37 67 56 37 67
REMARK Flexibility Score: inf
ROOT
ATOM      1  C   UNL A   1      34.643  32.776  30.590  1.00  0.00     0.117 C 
ENDROOT
BRANCH   1   2
ATOM      2  N   UNL A   1      36.067  33.122  30.933  1.00  0.00    -0.354 N 
ATOM      3  C   UNL A   1      37.132  32.993  31.761  1.00  0.00     0.246 C 
ATOM      4  O   UNL A   1      38.149  33.307  31.081  1.00  0.00    -0.272 OA
ATOM      5  H   UNL A   1      36.366  33.729  30.217  1.00  0.00     0.163 HD
BRANCH   3   6
ATOM      6  C   UNL A   1      37.521  32.526  33.354  1.00  0.00     0.132 C 
ATOM      7  C   UNL A   1      39.092  32.759  33.349  1.00  0.00     0.100 C 
ATOM      8  C   UNL A   1      37.087  32.681  34.856  1.00  0.00     0.100 C 
ATOM      9  C   UNL A   1      39.695  33.749  34.381  1.00  0.00     0.263 C 
ATOM     10  C   UNL A   1      38.159  32.836  35.922  1.00  0.00     0.263 C 
ATOM     11  N   UNL A   1      38.900  34.012  35.560  1.00  0.00    -0.346 N 
ATOM     12  H   UNL A   1      38.250  34.774  35.367  1.00  0.00     0.346 HD
ATOM     13  H   UNL A   1      39.516  34.271  36.331  1.00  0.00     0.346 HD
BRANCH   6  14
ATOM     14  N   UNL A   1      37.135  31.122  33.085  1.00  0.00    -0.307 N 
ATOM     15  O   UNL A   1      37.452  28.895  33.222  1.00  0.00    -0.225 OA
ATOM     16  C   UNL A   1      37.891  29.999  33.395  1.00  0.00     0.408 C 
ATOM     17  H   UNL A   1      36.265  30.971  32.649  1.00  0.00     0.168 HD
BRANCH  16  18
ATOM     18  O   UNL A   1      39.220  30.232  33.697  1.00  0.00    -0.449 OA
BRANCH  18  19
ATOM     19  C   UNL A   1      40.249  29.218  33.489  1.00  0.00     0.248 C 
BRANCH  19  20
ATOM     20  C   UNL A   1      41.756  29.735  33.672  1.00  0.00     0.088 C 
ATOM     21  C   UNL A   1      42.850  28.673  33.500  1.00  0.00    -0.029 A 
ATOM     22  C   UNL A   1      42.425  30.586  34.851  1.00  0.00    -0.029 A 
ATOM     23  C   UNL A   1      42.810  27.440  32.872  1.00  0.00     0.005 A 
ATOM     24  C   UNL A   1      44.046  29.129  34.105  1.00  0.00    -0.014 A 
ATOM     25  C   UNL A   1      43.800  30.324  34.867  1.00  0.00    -0.014 A 
ATOM     26  C   UNL A   1      41.991  31.527  35.789  1.00  0.00     0.005 A 
ATOM     27  C   UNL A   1      43.969  26.662  32.881  1.00  0.00     0.000 A 
ATOM     28  C   UNL A   1      45.198  28.371  34.087  1.00  0.00     0.009 A 
ATOM     29  C   UNL A   1      44.700  31.073  35.637  1.00  0.00     0.009 A 
ATOM     30  C   UNL A   1      42.867  32.252  36.611  1.00  0.00     0.000 A 
ATOM     31  C   UNL A   1      45.151  27.124  33.476  1.00  0.00     0.001 A 
ATOM     32  C   UNL A   1      44.229  32.057  36.500  1.00  0.00     0.001 A 
ENDBRANCH  19  20
ENDBRANCH  18  19
ENDBRANCH  16  18
ENDBRANCH   6  14
ENDBRANCH   3   6
ENDBRANCH   1   2
BRANCH   1  33
ATOM     33  C   UNL A   1      34.112  33.359  29.284  1.00  0.00     0.042 C 
BRANCH  33  34
ATOM     34  C   UNL A   1      34.619  32.659  28.014  1.00  0.00     0.118 C 
BRANCH  34  35
ATOM     35  N   UNL A   1      34.025  31.377  27.630  1.00  0.00    -0.352 N 
ATOM     36  C   UNL A   1      34.569  30.100  27.729  1.00  0.00     0.251 C 
ATOM     37  H   UNL A   1      33.118  31.425  27.248  1.00  0.00     0.163 HD
ATOM     38  O   UNL A   1      33.917  29.111  27.405  1.00  0.00    -0.269 OA
BRANCH  36  39
ATOM     39  C   UNL A   1      35.970  29.905  28.179  1.00  0.00     0.039 A 
ATOM     40  C   UNL A   1      36.231  29.441  29.475  1.00  0.00     0.014 A 
ATOM     41  C   UNL A   1      37.030  30.134  27.310  1.00  0.00     0.014 A 
ATOM     42  C   UNL A   1      37.539  29.103  29.848  1.00  0.00     0.010 A 
ATOM     43  C   UNL A   1      38.291  29.652  27.624  1.00  0.00     0.010 A 
ATOM     44  C   UNL A   1      38.574  29.150  28.903  1.00  0.00    -0.014 A 
BRANCH  44  45
ATOM     45  C   UNL A   1      39.977  28.749  29.198  1.00  0.00     0.031 A 
ATOM     46  C   UNL A   1      40.906  29.762  29.826  1.00  0.00     0.074 A 
ATOM     47  C   UNL A   1      40.455  27.556  28.787  1.00  0.00     0.049 A 
ATOM     48  N   UNL A   1      42.208  29.735  29.947  1.00  0.00    -0.248 NA
ATOM     49  C   UNL A   1      40.292  31.012  30.311  1.00  0.00     0.031 C 
ATOM     50  C   UNL A   1      39.682  26.512  28.109  1.00  0.00     0.029 A 
ATOM     51  N   UNL A   1      41.719  27.027  28.866  1.00  0.00    -0.354 N 
ATOM     52  C   UNL A   1      42.564  30.984  30.447  1.00  0.00     0.074 A 
ATOM     53  C   UNL A   1      41.355  31.768  30.531  1.00  0.00     0.031 C 
ATOM     54  C   UNL A   1      40.479  25.456  27.869  1.00  0.00     0.029 A 
ATOM     55  C   UNL A   1      41.827  25.763  28.332  1.00  0.00     0.049 A 
ATOM     56  H   UNL A   1      42.479  27.507  29.267  1.00  0.00     0.167 HD
ATOM     57  C   UNL A   1      43.781  31.428  30.843  1.00  0.00     0.031 A 
ATOM     58  C   UNL A   1      42.895  24.947  28.227  1.00  0.00     0.031 A 
ATOM     59  C   UNL A   1      44.959  30.604  30.842  1.00  0.00     0.049 A 
ATOM     60  C   UNL A   1      44.220  25.422  28.762  1.00  0.00     0.074 A 
ATOM     61  C   UNL A   1      46.225  30.907  31.308  1.00  0.00     0.029 A 
ATOM     62  N   UNL A   1      45.000  29.297  30.380  1.00  0.00    -0.354 N 
ATOM     63  N   UNL A   1      44.531  26.591  29.272  1.00  0.00    -0.248 NA
ATOM     64  C   UNL A   1      45.331  24.462  28.730  1.00  0.00     0.031 C 
ATOM     65  C   UNL A   1      47.041  29.789  31.103  1.00  0.00     0.029 A 
ATOM     66  C   UNL A   1      46.268  28.774  30.557  1.00  0.00     0.049 A 
ATOM     67  H   UNL A   1      44.239  28.812  29.985  1.00  0.00     0.167 HD
ATOM     68  C   UNL A   1      45.863  26.493  29.660  1.00  0.00     0.074 A 
ATOM     69  C   UNL A   1      46.293  25.147  29.333  1.00  0.00     0.031 C 
ATOM     70  C   UNL A   1      46.660  27.426  30.238  1.00  0.00     0.031 A 
BRANCH  57  71
ATOM     71  C   UNL A   1      43.882  32.851  31.332  1.00  0.00    -0.014 A 
ATOM     72  C   UNL A   1      43.792  33.159  32.704  1.00  0.00     0.010 A 
ATOM     73  C   UNL A   1      44.078  33.899  30.414  1.00  0.00     0.010 A 
ATOM     74  C   UNL A   1      43.830  34.486  33.140  1.00  0.00     0.020 A 
ATOM     75  C   UNL A   1      44.156  35.225  30.849  1.00  0.00     0.020 A 
ATOM     76  C   UNL A   1      44.007  35.512  32.208  1.00  0.00     0.054 A 
BRANCH  76  77
ATOM     77  S   UNL A   1      44.067  37.224  32.804  1.00  0.00     0.124 S 
ATOM     78  O   UNL A   1      45.395  37.282  33.414  1.00  0.00    -0.237 OA
ATOM     79  O   UNL A   1      43.908  37.997  31.575  1.00  0.00    -0.237 OA
ATOM     80  O   UNL A   1      42.948  37.305  33.738  1.00  0.00    -0.744 OA
ENDBRANCH  76  77
ENDBRANCH  57  71
BRANCH  58  81
ATOM     81  C   UNL A   1      42.742  23.580  27.652  1.00  0.00    -0.014 A 
ATOM     82  C   UNL A   1      42.483  22.482  28.494  1.00  0.00     0.010 A 
ATOM     83  C   UNL A   1      42.833  23.365  26.265  1.00  0.00     0.010 A 
ATOM     84  C   UNL A   1      42.341  21.196  27.964  1.00  0.00     0.020 A 
ATOM     85  C   UNL A   1      42.664  22.084  25.728  1.00  0.00     0.020 A 
ATOM     86  C   UNL A   1      42.429  21.004  26.583  1.00  0.00     0.054 A 
BRANCH  86  87
ATOM     87  S   UNL A   1      42.189  19.334  25.915  1.00  0.00     0.124 S 
ATOM     88  O   UNL A   1      43.038  19.355  24.728  1.00  0.00    -0.237 OA
ATOM     89  O   UNL A   1      42.655  18.487  27.010  1.00  0.00    -0.237 OA
ATOM     90  O   UNL A   1      40.752  19.272  25.657  1.00  0.00    -0.744 OA
ENDBRANCH  86  87
ENDBRANCH  58  81
BRANCH  70  91
ATOM     91  C   UNL A   1      48.053  27.004  30.616  1.00  0.00    -0.014 A 
ATOM     92  C   UNL A   1      49.128  27.130  29.719  1.00  0.00     0.010 A 
ATOM     93  C   UNL A   1      48.292  26.522  31.916  1.00  0.00     0.010 A 
ATOM     94  C   UNL A   1      50.413  26.739  30.104  1.00  0.00     0.020 A 
ATOM     95  C   UNL A   1      49.580  26.159  32.314  1.00  0.00     0.020 A 
ATOM     96  C   UNL A   1      50.629  26.254  31.398  1.00  0.00     0.054 A 
BRANCH  96  97
ATOM     97  S   UNL A   1      52.310  25.780  31.883  1.00  0.00     0.124 S 
ATOM     98  O   UNL A   1      53.066  26.058  30.665  1.00  0.00    -0.237 OA
ATOM     99  O   UNL A   1      52.582  26.670  33.009  1.00  0.00    -0.237 OA
ATOM    100  O   UNL A   1      52.186  24.367  32.231  1.00  0.00    -0.744 OA
ENDBRANCH  96  97
ENDBRANCH  70  91
ENDBRANCH  44  45
ENDBRANCH  36  39
ENDBRANCH  34  35
ENDBRANCH  33  34
ENDBRANCH   1  33
TORSDOF 17
ENDMDL
