MODEL 1
REMARK VINA RESULT:     -11.9      0.000      0.000
REMARK SMILES CC1=C(C)C[C@@H](C(=O)NCc2cccnc2)[C@H](C(=O)NCCCNC(=O)c2ccc(-c3c4nc(c(-c5ccc(S(=O)(=O)[O-])cc5)c5ccc([nH]5)c(-c5ccc(S(=O)(=O)[O-])cc5)c5nc(c(-c6ccc(S(=O)(=O)[O-])cc6)c6ccc3[nH]6)C=C5)C=C4)cc2)C1
REMARK SMILES IDX 22 1 21 2 20 3 18 4 19 5 17 7 1 8 2 9 3 10 87 11 4 12 5 13
REMARK SMILES IDX 6 14 7 15 8 16 9 17 10 19 11 20 12 21 16 22 13 23 15 24
REMARK SMILES IDX 14 25 23 26 24 27 25 28 26 30 27 31 28 32 86 33 29 34 85 35
REMARK SMILES IDX 30 36 31 37 32 38 79 39 33 40 84 41 78 42 80 43 34 44 83 45
REMARK SMILES IDX 77 46 76 47 35 49 65 50 46 51 64 52 47 53 50 54 63 55 81 56
REMARK SMILES IDX 48 57 49 58 62 60 82 61 51 62 36 63 37 64 45 65 38 66 44 67
REMARK SMILES IDX 39 68 40 69 41 70 42 71 43 72 66 73 67 74 75 75 68 76 74 77
REMARK SMILES IDX 69 78 70 79 71 80 72 81 73 82 52 83 53 84 61 85 54 86 60 87
REMARK SMILES IDX 55 88 56 89 57 90 58 91 59 92
REMARK H PARENT 20 6 9 18 24 29 80 48 50 59
REMARK Flexibility Score: inf
ROOT
ATOM      1  C   UNL A   1      33.600  28.000  25.106  1.00  0.00     0.042 C 
ENDROOT
BRANCH   1   2
ATOM      2  C   UNL A   1      32.983  26.628  24.950  1.00  0.00     0.117 C 
BRANCH   2   3
ATOM      3  N   UNL A   1      33.462  25.928  23.784  1.00  0.00    -0.356 N 
ATOM      4  C   UNL A   1      34.016  24.695  23.677  1.00  0.00     0.224 C 
ATOM      5  O   UNL A   1      34.275  24.287  22.542  1.00  0.00    -0.275 OA
ATOM      6  H   UNL A   1      33.373  26.420  22.935  1.00  0.00     0.163 HD
BRANCH   4   7
ATOM      7  C   UNL A   1      34.339  23.831  24.899  1.00  0.00     0.095 C 
ATOM      8  C   UNL A   1      38.104  23.638  26.029  1.00  0.00     0.039 C 
ATOM      9  C   UNL A   1      36.777  23.131  25.523  1.00  0.00    -0.074 C 
ATOM     10  C   UNL A   1      36.584  21.884  25.041  1.00  0.00    -0.074 C 
ATOM     11  C   UNL A   1      35.684  24.182  25.544  1.00  0.00     0.045 C 
ATOM     12  C   UNL A   1      37.660  20.829  24.940  1.00  0.00     0.039 C 
ATOM     13  C   UNL A   1      35.246  21.401  24.523  1.00  0.00     0.045 C 
ATOM     14  C   UNL A   1      34.051  22.350  24.629  1.00  0.00     0.095 C 
BRANCH  14  15
ATOM     15  C   UNL A   1      32.960  21.820  25.565  1.00  0.00     0.224 C 
ATOM     16  O   UNL A   1      32.601  22.494  26.536  1.00  0.00    -0.275 OA
ATOM     17  N   UNL A   1      32.364  20.610  25.415  1.00  0.00    -0.352 N 
ATOM     18  H   UNL A   1      31.783  20.353  26.167  1.00  0.00     0.163 HD
BRANCH  17  19
ATOM     19  C   UNL A   1      32.427  19.628  24.356  1.00  0.00     0.153 C 
BRANCH  19  20
ATOM     20  C   UNL A   1      33.094  18.339  24.743  1.00  0.00    -0.010 A 
ATOM     21  C   UNL A   1      34.348  17.942  24.271  1.00  0.00     0.009 A 
ATOM     22  C   UNL A   1      32.397  17.417  25.520  1.00  0.00     0.116 A 
ATOM     23  C   UNL A   1      34.836  16.672  24.568  1.00  0.00     0.020 A 
ATOM     24  N   UNL A   1      32.853  16.185  25.844  1.00  0.00    -0.264 NA
ATOM     25  C   UNL A   1      34.061  15.840  25.355  1.00  0.00     0.111 A 
ENDBRANCH  19  20
ENDBRANCH  17  19
ENDBRANCH  14  15
ENDBRANCH   4   7
ENDBRANCH   2   3
ENDBRANCH   1   2
BRANCH   1  26
ATOM     26  C   UNL A   1      34.011  28.271  26.536  1.00  0.00     0.118 C 
BRANCH  26  27
ATOM     27  N   UNL A   1      33.748  29.654  26.924  1.00  0.00    -0.352 N 
ATOM     28  C   UNL A   1      34.463  30.482  27.748  1.00  0.00     0.251 C 
ATOM     29  H   UNL A   1      32.936  30.051  26.534  1.00  0.00     0.163 HD
ATOM     30  O   UNL A   1      33.956  31.527  28.150  1.00  0.00    -0.269 OA
BRANCH  28  31
ATOM     31  C   UNL A   1      35.831  30.105  28.144  1.00  0.00     0.039 A 
ATOM     32  C   UNL A   1      36.062  29.608  29.427  1.00  0.00     0.014 A 
ATOM     33  C   UNL A   1      36.886  30.249  27.240  1.00  0.00     0.014 A 
ATOM     34  C   UNL A   1      37.354  29.225  29.786  1.00  0.00     0.010 A 
ATOM     35  C   UNL A   1      38.134  29.739  27.550  1.00  0.00     0.010 A 
ATOM     36  C   UNL A   1      38.393  29.271  28.842  1.00  0.00    -0.014 A 
BRANCH  36  37
ATOM     37  C   UNL A   1      39.784  28.918  29.201  1.00  0.00     0.031 A 
ATOM     38  C   UNL A   1      40.638  29.931  29.921  1.00  0.00     0.074 A 
ATOM     39  C   UNL A   1      40.289  27.725  28.836  1.00  0.00     0.049 A 
ATOM     40  N   UNL A   1      41.894  29.848  30.273  1.00  0.00    -0.248 NA
ATOM     41  C   UNL A   1      40.009  31.223  30.255  1.00  0.00     0.031 C 
ATOM     42  C   UNL A   1      39.568  26.689  28.092  1.00  0.00     0.029 A 
ATOM     43  N   UNL A   1      41.530  27.183  29.042  1.00  0.00    -0.354 N 
ATOM     44  C   UNL A   1      42.206  31.079  30.840  1.00  0.00     0.074 A 
ATOM     45  C   UNL A   1      41.036  31.915  30.720  1.00  0.00     0.031 C 
ATOM     46  C   UNL A   1      40.367  25.620  27.942  1.00  0.00     0.029 A 
ATOM     47  C   UNL A   1      41.667  25.912  28.535  1.00  0.00     0.049 A 
ATOM     48  H   UNL A   1      42.255  27.658  29.507  1.00  0.00     0.167 HD
ATOM     49  C   UNL A   1      43.356  31.468  31.439  1.00  0.00     0.031 A 
ATOM     50  C   UNL A   1      42.725  25.080  28.551  1.00  0.00     0.031 A 
ATOM     51  C   UNL A   1      44.504  30.616  31.579  1.00  0.00     0.049 A 
ATOM     52  C   UNL A   1      43.989  25.530  29.231  1.00  0.00     0.074 A 
ATOM     53  C   UNL A   1      45.699  30.883  32.219  1.00  0.00     0.029 A 
ATOM     54  N   UNL A   1      44.594  29.328  31.072  1.00  0.00    -0.354 N 
ATOM     55  N   UNL A   1      44.247  26.674  29.821  1.00  0.00    -0.248 NA
ATOM     56  C   UNL A   1      45.099  24.569  29.266  1.00  0.00     0.031 C 
ATOM     57  C   UNL A   1      46.536  29.775  32.051  1.00  0.00     0.029 A 
ATOM     58  C   UNL A   1      45.834  28.792  31.370  1.00  0.00     0.049 A 
ATOM     59  H   UNL A   1      43.883  28.864  30.575  1.00  0.00     0.167 HD
ATOM     60  C   UNL A   1      45.535  26.556  30.331  1.00  0.00     0.074 A 
ATOM     61  C   UNL A   1      45.997  25.225  29.988  1.00  0.00     0.031 C 
ATOM     62  C   UNL A   1      46.268  27.461  31.024  1.00  0.00     0.031 A 
BRANCH  49  63
ATOM     63  C   UNL A   1      43.418  32.871  31.985  1.00  0.00    -0.014 A 
ATOM     64  C   UNL A   1      43.088  33.150  33.325  1.00  0.00     0.010 A 
ATOM     65  C   UNL A   1      43.839  33.924  31.153  1.00  0.00     0.010 A 
ATOM     66  C   UNL A   1      43.135  34.459  33.809  1.00  0.00     0.020 A 
ATOM     67  C   UNL A   1      43.920  35.231  31.643  1.00  0.00     0.020 A 
ATOM     68  C   UNL A   1      43.551  35.493  32.964  1.00  0.00     0.054 A 
BRANCH  68  69
ATOM     69  S   UNL A   1      43.630  37.177  33.629  1.00  0.00     0.124 S 
ATOM     70  O   UNL A   1      43.684  37.980  32.410  1.00  0.00    -0.237 OA
ATOM     71  O   UNL A   1      42.389  37.278  34.393  1.00  0.00    -0.237 OA
ATOM     72  O   UNL A   1      44.852  37.178  34.430  1.00  0.00    -0.744 OA
ENDBRANCH  68  69
ENDBRANCH  49  63
BRANCH  50  73
ATOM     73  C   UNL A   1      42.620  23.731  27.931  1.00  0.00    -0.014 A 
ATOM     74  C   UNL A   1      42.192  22.626  28.688  1.00  0.00     0.010 A 
ATOM     75  C   UNL A   1      42.932  23.546  26.572  1.00  0.00     0.010 A 
ATOM     76  C   UNL A   1      42.104  21.358  28.106  1.00  0.00     0.020 A 
ATOM     77  C   UNL A   1      42.814  22.287  25.978  1.00  0.00     0.020 A 
ATOM     78  C   UNL A   1      42.413  21.197  26.752  1.00  0.00     0.054 A 
BRANCH  78  79
ATOM     79  S   UNL A   1      42.250  19.551  26.008  1.00  0.00     0.124 S 
ATOM     80  O   UNL A   1      43.134  19.651  24.851  1.00  0.00    -0.237 OA
ATOM     81  O   UNL A   1      42.710  18.673  27.082  1.00  0.00    -0.237 OA
ATOM     82  O   UNL A   1      40.825  19.453  25.703  1.00  0.00    -0.744 OA
ENDBRANCH  78  79
ENDBRANCH  50  73
BRANCH  62  83
ATOM     83  C   UNL A   1      47.625  27.028  31.511  1.00  0.00    -0.014 A 
ATOM     84  C   UNL A   1      47.795  26.399  32.756  1.00  0.00     0.010 A 
ATOM     85  C   UNL A   1      48.742  27.208  30.674  1.00  0.00     0.010 A 
ATOM     86  C   UNL A   1      49.066  25.995  33.172  1.00  0.00     0.020 A 
ATOM     87  C   UNL A   1      50.007  26.773  31.071  1.00  0.00     0.020 A 
ATOM     88  C   UNL A   1      50.164  26.184  32.327  1.00  0.00     0.054 A 
BRANCH  88  89
ATOM     89  S   UNL A   1      51.796  25.619  32.876  1.00  0.00     0.124 S 
ATOM     90  O   UNL A   1      52.431  25.251  31.613  1.00  0.00    -0.237 OA
ATOM     91  O   UNL A   1      52.341  26.803  33.533  1.00  0.00    -0.237 OA
ATOM     92  O   UNL A   1      51.493  24.502  33.769  1.00  0.00    -0.744 OA
ENDBRANCH  88  89
ENDBRANCH  62  83
ENDBRANCH  36  37
ENDBRANCH  28  31
ENDBRANCH  26  27
ENDBRANCH   1  26
TORSDOF 16
ENDMDL
MODEL 2
REMARK VINA RESULT:     -11.8      1.312      2.590
REMARK SMILES CC1=C(C)C[C@@H](C(=O)NCc2cccnc2)[C@H](C(=O)NCCCNC(=O)c2ccc(-c3c4nc(c(-c5ccc(S(=O)(=O)[O-])cc5)c5ccc([nH]5)c(-c5ccc(S(=O)(=O)[O-])cc5)c5nc(c(-c6ccc(S(=O)(=O)[O-])cc6)c6ccc3[nH]6)C=C5)C=C4)cc2)C1
REMARK SMILES IDX 22 1 21 2 20 3 18 4 19 5 17 7 1 8 2 9 3 10 87 11 4 12 5 13
REMARK SMILES IDX 6 14 7 15 8 16 9 17 10 19 11 20 12 21 16 22 13 23 15 24
REMARK SMILES IDX 14 25 23 26 24 27 25 28 26 30 27 31 28 32 86 33 29 34 85 35
REMARK SMILES IDX 30 36 31 37 32 38 79 39 33 40 84 41 78 42 80 43 34 44 83 45
REMARK SMILES IDX 77 46 76 47 35 49 65 50 46 51 64 52 47 53 50 54 63 55 81 56
REMARK SMILES IDX 48 57 49 58 62 60 82 61 51 62 36 63 37 64 45 65 38 66 44 67
REMARK SMILES IDX 39 68 40 69 41 70 42 71 43 72 66 73 67 74 75 75 68 76 74 77
REMARK SMILES IDX 69 78 70 79 71 80 72 81 73 82 52 83 53 84 61 85 54 86 60 87
REMARK SMILES IDX 55 88 56 89 57 90 58 91 59 92
REMARK H PARENT 20 6 9 18 24 29 80 48 50 59
REMARK Flexibility Score: inf
ROOT
ATOM      1  C   UNL A   1      33.668  27.649  25.820  1.00  0.00     0.042 C 
ENDROOT
BRANCH   1   2
ATOM      2  C   UNL A   1      33.523  26.146  25.744  1.00  0.00     0.117 C 
BRANCH   2   3
ATOM      3  N   UNL A   1      34.083  25.591  24.536  1.00  0.00    -0.356 N 
ATOM      4  C   UNL A   1      34.732  24.416  24.339  1.00  0.00     0.224 C 
ATOM      5  O   UNL A   1      35.050  24.132  23.181  1.00  0.00    -0.275 OA
ATOM      6  H   UNL A   1      33.980  26.150  23.732  1.00  0.00     0.163 HD
BRANCH   4   7
ATOM      7  C   UNL A   1      35.087  23.471  25.490  1.00  0.00     0.095 C 
ATOM      8  C   UNL A   1      38.840  22.324  25.789  1.00  0.00     0.039 C 
ATOM      9  C   UNL A   1      37.352  22.174  25.597  1.00  0.00    -0.074 C 
ATOM     10  C   UNL A   1      36.757  21.025  25.208  1.00  0.00    -0.074 C 
ATOM     11  C   UNL A   1      36.584  23.462  25.820  1.00  0.00     0.045 C 
ATOM     12  C   UNL A   1      37.492  19.739  24.912  1.00  0.00     0.039 C 
ATOM     13  C   UNL A   1      35.263  20.901  25.005  1.00  0.00     0.045 C 
ATOM     14  C   UNL A   1      34.391  22.114  25.336  1.00  0.00     0.095 C 
BRANCH  14  15
ATOM     15  C   UNL A   1      33.432  21.850  26.501  1.00  0.00     0.224 C 
ATOM     16  O   UNL A   1      33.881  21.657  27.635  1.00  0.00    -0.275 OA
ATOM     17  N   UNL A   1      32.084  21.781  26.363  1.00  0.00    -0.352 N 
ATOM     18  H   UNL A   1      31.613  21.473  27.171  1.00  0.00     0.163 HD
BRANCH  17  19
ATOM     19  C   UNL A   1      31.212  22.075  25.249  1.00  0.00     0.153 C 
BRANCH  19  20
ATOM     20  C   UNL A   1      30.850  23.527  25.110  1.00  0.00    -0.010 A 
ATOM     21  C   UNL A   1      30.408  24.322  26.171  1.00  0.00     0.009 A 
ATOM     22  C   UNL A   1      30.833  24.107  23.844  1.00  0.00     0.116 A 
ATOM     23  C   UNL A   1      29.962  25.620  25.933  1.00  0.00     0.020 A 
ATOM     24  N   UNL A   1      30.428  25.372  23.583  1.00  0.00    -0.264 NA
ATOM     25  C   UNL A   1      29.996  26.097  24.636  1.00  0.00     0.111 A 
ENDBRANCH  19  20
ENDBRANCH  17  19
ENDBRANCH  14  15
ENDBRANCH   4   7
ENDBRANCH   2   3
ENDBRANCH   1   2
BRANCH   1  26
ATOM     26  C   UNL A   1      33.730  28.134  27.252  1.00  0.00     0.118 C 
BRANCH  26  27
ATOM     27  N   UNL A   1      33.590  29.585  27.340  1.00  0.00    -0.352 N 
ATOM     28  C   UNL A   1      34.434  30.513  27.890  1.00  0.00     0.251 C 
ATOM     29  H   UNL A   1      32.766  29.950  26.945  1.00  0.00     0.163 HD
ATOM     30  O   UNL A   1      34.033  31.658  28.090  1.00  0.00    -0.269 OA
BRANCH  28  31
ATOM     31  C   UNL A   1      35.811  30.123  28.239  1.00  0.00     0.039 A 
ATOM     32  C   UNL A   1      36.085  29.640  29.519  1.00  0.00     0.014 A 
ATOM     33  C   UNL A   1      36.833  30.241  27.293  1.00  0.00     0.014 A 
ATOM     34  C   UNL A   1      37.385  29.246  29.833  1.00  0.00     0.010 A 
ATOM     35  C   UNL A   1      38.085  29.719  27.562  1.00  0.00     0.010 A 
ATOM     36  C   UNL A   1      38.388  29.265  28.850  1.00  0.00    -0.014 A 
BRANCH  36  37
ATOM     37  C   UNL A   1      39.787  28.899  29.159  1.00  0.00     0.031 A 
ATOM     38  C   UNL A   1      40.681  29.910  29.832  1.00  0.00     0.074 A 
ATOM     39  C   UNL A   1      40.262  27.694  28.792  1.00  0.00     0.049 A 
ATOM     40  N   UNL A   1      41.948  29.815  30.136  1.00  0.00    -0.248 NA
ATOM     41  C   UNL A   1      40.082  31.215  30.172  1.00  0.00     0.031 C 
ATOM     42  C   UNL A   1      39.500  26.657  28.091  1.00  0.00     0.029 A 
ATOM     43  N   UNL A   1      41.503  27.139  28.957  1.00  0.00    -0.354 N 
ATOM     44  C   UNL A   1      42.298  31.049  30.674  1.00  0.00     0.074 A 
ATOM     45  C   UNL A   1      41.135  31.899  30.587  1.00  0.00     0.031 C 
ATOM     46  C   UNL A   1      40.279  25.577  27.925  1.00  0.00     0.029 A 
ATOM     47  C   UNL A   1      41.605  25.859  28.464  1.00  0.00     0.049 A 
ATOM     48  H   UNL A   1      42.252  27.611  29.388  1.00  0.00     0.167 HD
ATOM     49  C   UNL A   1      43.474  31.431  31.223  1.00  0.00     0.031 A 
ATOM     50  C   UNL A   1      42.652  25.013  28.450  1.00  0.00     0.031 A 
ATOM     51  C   UNL A   1      44.616  30.566  31.330  1.00  0.00     0.049 A 
ATOM     52  C   UNL A   1      43.947  25.456  29.075  1.00  0.00     0.074 A 
ATOM     53  C   UNL A   1      45.838  30.826  31.920  1.00  0.00     0.029 A 
ATOM     54  N   UNL A   1      44.671  29.270  30.838  1.00  0.00    -0.354 N 
ATOM     55  N   UNL A   1      44.241  26.604  29.638  1.00  0.00    -0.248 NA
ATOM     56  C   UNL A   1      45.045  24.481  29.080  1.00  0.00     0.031 C 
ATOM     57  C   UNL A   1      46.654  29.705  31.735  1.00  0.00     0.029 A 
ATOM     58  C   UNL A   1      45.914  28.723  31.095  1.00  0.00     0.049 A 
ATOM     59  H   UNL A   1      43.935  28.809  30.375  1.00  0.00     0.167 HD
ATOM     60  C   UNL A   1      45.547  26.477  30.100  1.00  0.00     0.074 A 
ATOM     61  C   UNL A   1      45.978  25.135  29.759  1.00  0.00     0.031 C 
ATOM     62  C   UNL A   1      46.318  27.382  30.752  1.00  0.00     0.031 A 
BRANCH  49  63
ATOM     63  C   UNL A   1      43.575  32.840  31.746  1.00  0.00    -0.014 A 
ATOM     64  C   UNL A   1      43.237  33.153  33.076  1.00  0.00     0.010 A 
ATOM     65  C   UNL A   1      44.042  33.865  30.902  1.00  0.00     0.010 A 
ATOM     66  C   UNL A   1      43.320  34.468  33.539  1.00  0.00     0.020 A 
ATOM     67  C   UNL A   1      44.159  35.177  31.371  1.00  0.00     0.020 A 
ATOM     68  C   UNL A   1      43.781  35.473  32.683  1.00  0.00     0.054 A 
BRANCH  68  69
ATOM     69  S   UNL A   1      43.907  37.165  33.321  1.00  0.00     0.124 S 
ATOM     70  O   UNL A   1      42.728  37.251  34.180  1.00  0.00    -0.237 OA
ATOM     71  O   UNL A   1      45.191  37.150  34.017  1.00  0.00    -0.237 OA
ATOM     72  O   UNL A   1      43.863  37.994  32.119  1.00  0.00    -0.744 OA
ENDBRANCH  68  69
ENDBRANCH  49  63
BRANCH  50  73
ATOM     73  C   UNL A   1      42.505  23.658  27.854  1.00  0.00    -0.014 A 
ATOM     74  C   UNL A   1      42.869  23.420  26.517  1.00  0.00     0.010 A 
ATOM     75  C   UNL A   1      42.015  22.590  28.627  1.00  0.00     0.010 A 
ATOM     76  C   UNL A   1      42.721  22.147  25.956  1.00  0.00     0.020 A 
ATOM     77  C   UNL A   1      41.896  21.309  28.081  1.00  0.00     0.020 A 
ATOM     78  C   UNL A   1      42.237  21.099  26.743  1.00  0.00     0.054 A 
BRANCH  78  79
ATOM     79  S   UNL A   1      42.094  19.448  26.007  1.00  0.00     0.124 S 
ATOM     80  O   UNL A   1      40.657  19.344  25.768  1.00  0.00    -0.237 OA
ATOM     81  O   UNL A   1      42.928  19.562  24.813  1.00  0.00    -0.237 OA
ATOM     82  O   UNL A   1      42.622  18.564  27.044  1.00  0.00    -0.744 OA
ENDBRANCH  78  79
ENDBRANCH  50  73
BRANCH  62  83
ATOM     83  C   UNL A   1      47.687  26.937  31.192  1.00  0.00    -0.014 A 
ATOM     84  C   UNL A   1      48.833  27.212  30.426  1.00  0.00     0.010 A 
ATOM     85  C   UNL A   1      47.828  26.278  32.427  1.00  0.00     0.010 A 
ATOM     86  C   UNL A   1      50.091  26.799  30.870  1.00  0.00     0.020 A 
ATOM     87  C   UNL A   1      49.088  25.896  32.891  1.00  0.00     0.020 A 
ATOM     88  C   UNL A   1      50.211  26.143  32.100  1.00  0.00     0.054 A 
BRANCH  88  89
ATOM     89  S   UNL A   1      51.859  25.649  32.669  1.00  0.00     0.124 S 
ATOM     90  O   UNL A   1      52.555  25.405  31.409  1.00  0.00    -0.237 OA
ATOM     91  O   UNL A   1      52.304  26.822  33.416  1.00  0.00    -0.237 OA
ATOM     92  O   UNL A   1      51.604  24.461  33.481  1.00  0.00    -0.744 OA
ENDBRANCH  88  89
ENDBRANCH  62  83
ENDBRANCH  36  37
ENDBRANCH  28  31
ENDBRANCH  26  27
ENDBRANCH   1  26
TORSDOF 16
ENDMDL
MODEL 3
REMARK VINA RESULT:     -11.7      3.145      9.892
REMARK SMILES CC1=C(C)C[C@@H](C(=O)NCc2cccnc2)[C@H](C(=O)NCCCNC(=O)c2ccc(-c3c4nc(c(-c5ccc(S(=O)(=O)[O-])cc5)c5ccc([nH]5)c(-c5ccc(S(=O)(=O)[O-])cc5)c5nc(c(-c6ccc(S(=O)(=O)[O-])cc6)c6ccc3[nH]6)C=C5)C=C4)cc2)C1
REMARK SMILES IDX 22 1 21 2 20 3 18 4 19 5 17 7 1 8 2 9 3 10 87 11 4 12 5 13
REMARK SMILES IDX 6 14 7 15 8 16 9 17 10 19 11 20 12 21 16 22 13 23 15 24
REMARK SMILES IDX 14 25 23 26 24 27 25 28 26 30 27 31 28 32 86 33 29 34 85 35
REMARK SMILES IDX 30 36 31 37 32 38 79 39 33 40 84 41 78 42 80 43 34 44 83 45
REMARK SMILES IDX 77 46 76 47 35 49 65 50 46 51 64 52 47 53 50 54 63 55 81 56
REMARK SMILES IDX 48 57 49 58 62 60 82 61 51 62 36 63 37 64 45 65 38 66 44 67
REMARK SMILES IDX 39 68 40 69 41 70 42 71 43 72 66 73 67 74 75 75 68 76 74 77
REMARK SMILES IDX 69 78 70 79 71 80 72 81 73 82 52 83 53 84 61 85 54 86 60 87
REMARK SMILES IDX 55 88 56 89 57 90 58 91 59 92
REMARK H PARENT 20 6 9 18 24 29 80 48 50 59
REMARK Flexibility Score: inf
ROOT
ATOM      1  C   UNL A   1      35.235  23.780  25.942  1.00  0.00     0.042 C 
ENDROOT
BRANCH   1   2
ATOM      2  C   UNL A   1      34.162  24.573  25.231  1.00  0.00     0.117 C 
BRANCH   2   3
ATOM      3  N   UNL A   1      33.098  24.989  26.111  1.00  0.00    -0.356 N 
ATOM      4  C   UNL A   1      32.519  26.207  26.261  1.00  0.00     0.224 C 
ATOM      5  O   UNL A   1      31.562  26.288  27.036  1.00  0.00    -0.275 OA
ATOM      6  H   UNL A   1      32.735  24.281  26.693  1.00  0.00     0.163 HD
BRANCH   4   7
ATOM      7  C   UNL A   1      33.025  27.452  25.529  1.00  0.00     0.095 C 
ATOM      8  C   UNL A   1      34.216  30.485  27.736  1.00  0.00     0.039 C 
ATOM      9  C   UNL A   1      33.373  29.746  26.728  1.00  0.00    -0.074 C 
ATOM     10  C   UNL A   1      32.232  30.240  26.198  1.00  0.00    -0.074 C 
ATOM     11  C   UNL A   1      33.892  28.357  26.411  1.00  0.00     0.045 C 
ATOM     12  C   UNL A   1      31.645  31.590  26.537  1.00  0.00     0.039 C 
ATOM     13  C   UNL A   1      31.391  29.475  25.200  1.00  0.00     0.045 C 
ATOM     14  C   UNL A   1      31.908  28.118  24.717  1.00  0.00     0.095 C 
BRANCH  14  15
ATOM     15  C   UNL A   1      32.232  28.109  23.220  1.00  0.00     0.224 C 
ATOM     16  O   UNL A   1      33.408  28.134  22.845  1.00  0.00    -0.275 OA
ATOM     17  N   UNL A   1      31.286  28.106  22.248  1.00  0.00    -0.352 N 
ATOM     18  H   UNL A   1      31.643  28.236  21.340  1.00  0.00     0.163 HD
BRANCH  17  19
ATOM     19  C   UNL A   1      29.850  27.948  22.298  1.00  0.00     0.153 C 
BRANCH  19  20
ATOM     20  C   UNL A   1      29.088  29.236  22.434  1.00  0.00    -0.010 A 
ATOM     21  C   UNL A   1      29.578  30.476  22.016  1.00  0.00     0.009 A 
ATOM     22  C   UNL A   1      27.874  29.241  23.117  1.00  0.00     0.116 A 
ATOM     23  C   UNL A   1      28.869  31.640  22.301  1.00  0.00     0.020 A 
ATOM     24  N   UNL A   1      27.151  30.351  23.390  1.00  0.00    -0.264 NA
ATOM     25  C   UNL A   1      27.670  31.527  22.980  1.00  0.00     0.111 A 
ENDBRANCH  19  20
ENDBRANCH  17  19
ENDBRANCH  14  15
ENDBRANCH   4   7
ENDBRANCH   2   3
ENDBRANCH   1   2
BRANCH   1  26
ATOM     26  C   UNL A   1      36.609  24.065  25.379  1.00  0.00     0.118 C 
BRANCH  26  27
ATOM     27  N   UNL A   1      37.537  22.966  25.629  1.00  0.00    -0.352 N 
ATOM     28  C   UNL A   1      38.800  22.992  26.158  1.00  0.00     0.251 C 
ATOM     29  H   UNL A   1      37.205  22.073  25.382  1.00  0.00     0.163 HD
ATOM     30  O   UNL A   1      39.521  22.000  26.063  1.00  0.00    -0.269 OA
BRANCH  28  31
ATOM     31  C   UNL A   1      39.280  24.212  26.830  1.00  0.00     0.039 A 
ATOM     32  C   UNL A   1      40.034  25.140  26.112  1.00  0.00     0.014 A 
ATOM     33  C   UNL A   1      38.982  24.432  28.177  1.00  0.00     0.014 A 
ATOM     34  C   UNL A   1      40.460  26.307  26.746  1.00  0.00     0.010 A 
ATOM     35  C   UNL A   1      39.284  25.649  28.760  1.00  0.00     0.010 A 
ATOM     36  C   UNL A   1      40.071  26.576  28.068  1.00  0.00    -0.014 A 
BRANCH  36  37
ATOM     37  C   UNL A   1      40.542  27.780  28.787  1.00  0.00     0.031 A 
ATOM     38  C   UNL A   1      41.934  27.793  29.365  1.00  0.00     0.074 A 
ATOM     39  C   UNL A   1      39.711  28.823  28.965  1.00  0.00     0.049 A 
ATOM     40  N   UNL A   1      42.520  28.717  30.079  1.00  0.00    -0.248 NA
ATOM     41  C   UNL A   1      42.764  26.593  29.146  1.00  0.00     0.031 C 
ATOM     42  C   UNL A   1      38.326  28.898  28.492  1.00  0.00     0.029 A 
ATOM     43  N   UNL A   1      39.912  30.024  29.594  1.00  0.00    -0.354 N 
ATOM     44  C   UNL A   1      43.768  28.199  30.412  1.00  0.00     0.074 A 
ATOM     45  C   UNL A   1      43.827  26.855  29.889  1.00  0.00     0.031 C 
ATOM     46  C   UNL A   1      37.817  30.098  28.812  1.00  0.00     0.029 A 
ATOM     47  C   UNL A   1      38.820  30.858  29.550  1.00  0.00     0.049 A 
ATOM     48  H   UNL A   1      40.757  30.266  30.036  1.00  0.00     0.167 HD
ATOM     49  C   UNL A   1      44.788  28.801  31.067  1.00  0.00     0.031 A 
ATOM     50  C   UNL A   1      38.651  32.097  30.050  1.00  0.00     0.031 A 
ATOM     51  C   UNL A   1      44.727  30.150  31.558  1.00  0.00     0.049 A 
ATOM     52  C   UNL A   1      39.803  32.750  30.765  1.00  0.00     0.074 A 
ATOM     53  C   UNL A   1      45.719  30.882  32.182  1.00  0.00     0.029 A 
ATOM     54  N   UNL A   1      43.611  30.969  31.473  1.00  0.00    -0.354 N 
ATOM     55  N   UNL A   1      40.998  32.270  31.015  1.00  0.00    -0.248 NA
ATOM     56  C   UNL A   1      39.588  34.120  31.250  1.00  0.00     0.031 C 
ATOM     57  C   UNL A   1      45.185  32.127  32.526  1.00  0.00     0.029 A 
ATOM     58  C   UNL A   1      43.884  32.195  32.051  1.00  0.00     0.049 A 
ATOM     59  H   UNL A   1      42.753  30.716  31.063  1.00  0.00     0.167 HD
ATOM     60  C   UNL A   1      41.692  33.293  31.651  1.00  0.00     0.074 A 
ATOM     61  C   UNL A   1      40.784  34.420  31.737  1.00  0.00     0.031 C 
ATOM     62  C   UNL A   1      42.965  33.304  32.118  1.00  0.00     0.031 A 
BRANCH  49  63
ATOM     63  C   UNL A   1      46.046  28.001  31.284  1.00  0.00    -0.014 A 
ATOM     64  C   UNL A   1      47.139  28.104  30.402  1.00  0.00     0.010 A 
ATOM     65  C   UNL A   1      46.150  27.154  32.402  1.00  0.00     0.010 A 
ATOM     66  C   UNL A   1      48.291  27.342  30.609  1.00  0.00     0.020 A 
ATOM     67  C   UNL A   1      47.314  26.416  32.632  1.00  0.00     0.020 A 
ATOM     68  C   UNL A   1      48.371  26.502  31.723  1.00  0.00     0.054 A 
BRANCH  68  69
ATOM     69  S   UNL A   1      49.891  25.549  31.982  1.00  0.00     0.124 S 
ATOM     70  O   UNL A   1      50.143  25.015  30.645  1.00  0.00    -0.237 OA
ATOM     71  O   UNL A   1      50.834  26.566  32.439  1.00  0.00    -0.237 OA
ATOM     72  O   UNL A   1      49.514  24.557  32.986  1.00  0.00    -0.744 OA
ENDBRANCH  68  69
ENDBRANCH  49  63
BRANCH  50  73
ATOM     73  C   UNL A   1      37.356  32.806  29.861  1.00  0.00    -0.014 A 
ATOM     74  C   UNL A   1      37.087  33.500  28.669  1.00  0.00     0.010 A 
ATOM     75  C   UNL A   1      36.376  32.776  30.869  1.00  0.00     0.010 A 
ATOM     76  C   UNL A   1      35.874  34.174  28.499  1.00  0.00     0.020 A 
ATOM     77  C   UNL A   1      35.149  33.421  30.690  1.00  0.00     0.020 A 
ATOM     78  C   UNL A   1      34.911  34.128  29.510  1.00  0.00     0.054 A 
BRANCH  78  79
ATOM     79  S   UNL A   1      33.328  34.973  29.250  1.00  0.00     0.124 S 
ATOM     80  O   UNL A   1      32.752  34.962  30.591  1.00  0.00    -0.237 OA
ATOM     81  O   UNL A   1      33.748  36.282  28.752  1.00  0.00    -0.237 OA
ATOM     82  O   UNL A   1      32.648  34.132  28.268  1.00  0.00    -0.744 OA
ENDBRANCH  78  79
ENDBRANCH  50  73
BRANCH  62  83
ATOM     83  C   UNL A   1      43.475  34.590  32.711  1.00  0.00    -0.014 A 
ATOM     84  C   UNL A   1      43.384  34.854  34.089  1.00  0.00     0.010 A 
ATOM     85  C   UNL A   1      44.107  35.528  31.873  1.00  0.00     0.010 A 
ATOM     86  C   UNL A   1      43.881  36.051  34.610  1.00  0.00     0.020 A 
ATOM     87  C   UNL A   1      44.636  36.708  32.396  1.00  0.00     0.020 A 
ATOM     88  C   UNL A   1      44.503  36.971  33.760  1.00  0.00     0.054 A 
BRANCH  88  89
ATOM     89  S   UNL A   1      45.171  38.500  34.468  1.00  0.00     0.124 S 
ATOM     90  O   UNL A   1      45.758  39.145  33.298  1.00  0.00    -0.237 OA
ATOM     91  O   UNL A   1      43.980  39.146  35.013  1.00  0.00    -0.237 OA
ATOM     92  O   UNL A   1      46.129  38.030  35.468  1.00  0.00    -0.744 OA
ENDBRANCH  88  89
ENDBRANCH  62  83
ENDBRANCH  36  37
ENDBRANCH  28  31
ENDBRANCH  26  27
ENDBRANCH   1  26
TORSDOF 16
ENDMDL
