MODEL 1
REMARK VINA RESULT:     -11.5      0.000      0.000
REMARK SMILES O=C(NCCCNC(=O)c1cccnc1-c1ccccn1)c1ccc(-c2c3nc(c(-c4ccc(S(=O)(=O)[O-])cc4)c4ccc([nH]4)c(-c4ccc(S(=O)(=O)[O-])cc4)c4nc(c(-c5ccc(S(=O)(=O)[O-])cc5)c5ccc2[nH]5)C=C4)C=C3)cc1
REMARK SMILES IDX 4 1 3 2 1 3 2 4 22 6 23 7 81 8 24 9 80 10 25 11 26 12 27 13
REMARK SMILES IDX 74 14 28 15 79 16 73 17 75 18 29 19 78 20 72 21 71 22 30 24
REMARK SMILES IDX 60 25 41 26 59 27 42 28 45 29 58 30 76 31 43 32 44 33 57 35
REMARK SMILES IDX 77 36 46 37 31 38 32 39 40 40 33 41 39 42 34 43 35 44 36 45
REMARK SMILES IDX 37 46 38 47 61 48 62 49 70 50 63 51 69 52 64 53 65 54 66 55
REMARK SMILES IDX 67 56 68 57 47 58 48 59 56 60 49 61 55 62 50 63 51 64 52 65
REMARK SMILES IDX 53 66 54 67 5 68 6 69 7 70 8 71 9 73 10 74 11 75 15 76 12 77
REMARK SMILES IDX 14 78 13 79 16 80 17 81 21 82 18 83 20 84 19 85
REMARK H PARENT 3 5 75 23 45 34 7 72
REMARK Flexibility Score: inf
ROOT
ATOM      1  C   UNL A   1      38.949  20.608  25.751  1.00  0.00     0.118 C 
ENDROOT
BRANCH   1   2
ATOM      2  N   UNL A   1      40.003  19.613  25.915  1.00  0.00    -0.352 N 
ATOM      3  O   UNL A   1      42.085  18.786  26.126  1.00  0.00    -0.269 OA
ATOM      4  C   UNL A   1      41.341  19.760  26.202  1.00  0.00     0.251 C 
ATOM      5  H   UNL A   1      39.709  18.680  25.799  1.00  0.00     0.163 HD
BRANCH   4   6
ATOM      6  C   UNL A   1      41.888  21.083  26.578  1.00  0.00     0.039 A 
ATOM      7  C   UNL A   1      42.079  22.070  25.614  1.00  0.00     0.014 A 
ATOM      8  C   UNL A   1      42.201  21.351  27.916  1.00  0.00     0.014 A 
ATOM      9  C   UNL A   1      42.765  23.230  25.941  1.00  0.00     0.010 A 
ATOM     10  C   UNL A   1      42.775  22.581  28.268  1.00  0.00     0.010 A 
ATOM     11  C   UNL A   1      43.097  23.517  27.277  1.00  0.00    -0.014 A 
BRANCH  11  12
ATOM     12  C   UNL A   1      43.702  24.842  27.579  1.00  0.00     0.031 A 
ATOM     13  C   UNL A   1      45.144  25.143  27.276  1.00  0.00     0.074 A 
ATOM     14  C   UNL A   1      42.894  25.810  28.059  1.00  0.00     0.049 A 
ATOM     15  N   UNL A   1      45.781  26.283  27.386  1.00  0.00    -0.248 NA
ATOM     16  C   UNL A   1      45.984  24.035  26.797  1.00  0.00     0.031 C 
ATOM     17  C   UNL A   1      41.482  25.629  28.413  1.00  0.00     0.029 A 
ATOM     18  N   UNL A   1      43.120  27.143  28.286  1.00  0.00    -0.354 N 
ATOM     19  C   UNL A   1      47.092  26.030  27.001  1.00  0.00     0.074 A 
ATOM     20  C   UNL A   1      47.170  24.619  26.682  1.00  0.00     0.031 C 
ATOM     21  C   UNL A   1      40.949  26.816  28.731  1.00  0.00     0.029 A 
ATOM     22  C   UNL A   1      41.996  27.828  28.683  1.00  0.00     0.049 A 
ATOM     23  H   UNL A   1      44.001  27.568  28.176  1.00  0.00     0.167 HD
ATOM     24  C   UNL A   1      48.133  26.895  26.913  1.00  0.00     0.031 A 
ATOM     25  C   UNL A   1      41.819  29.126  28.989  1.00  0.00     0.031 A 
ATOM     26  C   UNL A   1      48.050  28.297  27.236  1.00  0.00     0.049 A 
ATOM     27  C   UNL A   1      42.991  30.057  28.891  1.00  0.00     0.074 A 
ATOM     28  C   UNL A   1      49.047  29.256  27.175  1.00  0.00     0.029 A 
ATOM     29  N   UNL A   1      46.904  28.944  27.677  1.00  0.00    -0.354 N 
ATOM     30  N   UNL A   1      44.217  29.796  28.508  1.00  0.00    -0.248 NA
ATOM     31  C   UNL A   1      42.756  31.457  29.266  1.00  0.00     0.031 C 
ATOM     32  C   UNL A   1      48.518  30.472  27.623  1.00  0.00     0.029 A 
ATOM     33  C   UNL A   1      47.176  30.285  27.907  1.00  0.00     0.049 A 
ATOM     34  H   UNL A   1      46.028  28.516  27.807  1.00  0.00     0.167 HD
ATOM     35  C   UNL A   1      44.903  31.001  28.595  1.00  0.00     0.074 A 
ATOM     36  C   UNL A   1      43.942  31.997  29.026  1.00  0.00     0.031 C 
ATOM     37  C   UNL A   1      46.211  31.258  28.354  1.00  0.00     0.031 A 
BRANCH  24  38
ATOM     38  C   UNL A   1      49.464  26.353  26.457  1.00  0.00    -0.014 A 
ATOM     39  C   UNL A   1      49.889  26.501  25.125  1.00  0.00     0.010 A 
ATOM     40  C   UNL A   1      50.332  25.753  27.389  1.00  0.00     0.010 A 
ATOM     41  C   UNL A   1      51.148  26.040  24.726  1.00  0.00     0.020 A 
ATOM     42  C   UNL A   1      51.602  25.313  27.000  1.00  0.00     0.020 A 
ATOM     43  C   UNL A   1      51.996  25.449  25.667  1.00  0.00     0.054 A 
BRANCH  43  44
ATOM     44  S   UNL A   1      53.640  24.899  25.130  1.00  0.00     0.124 S 
ATOM     45  O   UNL A   1      53.762  25.545  23.825  1.00  0.00    -0.237 OA
ATOM     46  O   UNL A   1      54.512  25.427  26.175  1.00  0.00    -0.237 OA
ATOM     47  O   UNL A   1      53.525  23.443  25.094  1.00  0.00    -0.744 OA
ENDBRANCH  43  44
ENDBRANCH  24  38
BRANCH  25  48
ATOM     48  C   UNL A   1      40.489  29.603  29.456  1.00  0.00    -0.014 A 
ATOM     49  C   UNL A   1      39.473  29.931  28.543  1.00  0.00     0.010 A 
ATOM     50  C   UNL A   1      40.233  29.719  30.835  1.00  0.00     0.010 A 
ATOM     51  C   UNL A   1      38.233  30.390  29.001  1.00  0.00     0.020 A 
ATOM     52  C   UNL A   1      38.986  30.142  31.297  1.00  0.00     0.020 A 
ATOM     53  C   UNL A   1      37.999  30.492  30.375  1.00  0.00     0.054 A 
BRANCH  53  54
ATOM     54  S   UNL A   1      36.374  31.054  30.953  1.00  0.00     0.124 S 
ATOM     55  O   UNL A   1      35.608  31.087  29.712  1.00  0.00    -0.237 OA
ATOM     56  O   UNL A   1      35.997  30.012  31.904  1.00  0.00    -0.237 OA
ATOM     57  O   UNL A   1      36.658  32.358  31.551  1.00  0.00    -0.744 OA
ENDBRANCH  53  54
ENDBRANCH  25  48
BRANCH  37  58
ATOM     58  C   UNL A   1      46.667  32.680  28.544  1.00  0.00    -0.014 A 
ATOM     59  C   UNL A   1      47.155  33.124  29.786  1.00  0.00     0.010 A 
ATOM     60  C   UNL A   1      46.606  33.581  27.467  1.00  0.00     0.010 A 
ATOM     61  C   UNL A   1      47.523  34.459  29.961  1.00  0.00     0.020 A 
ATOM     62  C   UNL A   1      47.002  34.910  27.630  1.00  0.00     0.020 A 
ATOM     63  C   UNL A   1      47.437  35.346  28.885  1.00  0.00     0.054 A 
BRANCH  63  64
ATOM     64  S   UNL A   1      47.924  37.074  29.135  1.00  0.00     0.124 S 
ATOM     65  O   UNL A   1      49.381  36.988  29.094  1.00  0.00    -0.237 OA
ATOM     66  O   UNL A   1      47.302  37.752  27.999  1.00  0.00    -0.237 OA
ATOM     67  O   UNL A   1      47.355  37.409  30.439  1.00  0.00    -0.744 OA
ENDBRANCH  63  64
ENDBRANCH  37  58
ENDBRANCH  11  12
ENDBRANCH   4   6
ENDBRANCH   1   2
BRANCH   1  68
ATOM     68  C   UNL A   1      37.738  20.077  24.999  1.00  0.00     0.042 C 
BRANCH  68  69
ATOM     69  C   UNL A   1      36.599  21.077  24.887  1.00  0.00     0.118 C 
BRANCH  69  70
ATOM     70  N   UNL A   1      35.679  21.007  26.014  1.00  0.00    -0.352 N 
ATOM     71  C   UNL A   1      34.310  21.114  26.055  1.00  0.00     0.253 C 
ATOM     72  H   UNL A   1      36.107  20.860  26.889  1.00  0.00     0.163 HD
ATOM     73  O   UNL A   1      33.735  21.106  27.140  1.00  0.00    -0.269 OA
BRANCH  71  74
ATOM     74  C   UNL A   1      33.545  21.219  24.801  1.00  0.00     0.067 A 
ATOM     75  C   UNL A   1      33.346  22.486  24.235  1.00  0.00     0.018 A 
ATOM     76  C   UNL A   1      33.055  20.095  24.133  1.00  0.00     0.101 A 
ATOM     77  C   UNL A   1      32.582  22.615  23.084  1.00  0.00     0.021 A 
ATOM     78  N   UNL A   1      32.295  20.224  23.001  1.00  0.00    -0.254 NA
ATOM     79  C   UNL A   1      32.073  21.463  22.514  1.00  0.00     0.112 A 
BRANCH  76  80
ATOM     80  C   UNL A   1      33.298  18.704  24.561  1.00  0.00     0.089 A 
ATOM     81  C   UNL A   1      34.453  18.003  24.213  1.00  0.00     0.031 A 
ATOM     82  N   UNL A   1      32.327  18.147  25.337  1.00  0.00    -0.255 NA
ATOM     83  C   UNL A   1      34.609  16.690  24.654  1.00  0.00     0.004 A 
ATOM     84  C   UNL A   1      32.507  16.874  25.750  1.00  0.00     0.112 A 
ATOM     85  C   UNL A   1      33.617  16.111  25.435  1.00  0.00     0.020 A 
ENDBRANCH  76  80
ENDBRANCH  71  74
ENDBRANCH  69  70
ENDBRANCH  68  69
ENDBRANCH   1  68
TORSDOF 14
ENDMDL
MODEL 2
REMARK VINA RESULT:     -10.9      3.336      7.784
REMARK SMILES O=C(NCCCNC(=O)c1cccnc1-c1ccccn1)c1ccc(-c2c3nc(c(-c4ccc(S(=O)(=O)[O-])cc4)c4ccc([nH]4)c(-c4ccc(S(=O)(=O)[O-])cc4)c4nc(c(-c5ccc(S(=O)(=O)[O-])cc5)c5ccc2[nH]5)C=C4)C=C3)cc1
REMARK SMILES IDX 4 1 3 2 1 3 2 4 22 6 23 7 81 8 24 9 80 10 25 11 26 12 27 13
REMARK SMILES IDX 74 14 28 15 79 16 73 17 75 18 29 19 78 20 72 21 71 22 30 24
REMARK SMILES IDX 60 25 41 26 59 27 42 28 45 29 58 30 76 31 43 32 44 33 57 35
REMARK SMILES IDX 77 36 46 37 31 38 32 39 40 40 33 41 39 42 34 43 35 44 36 45
REMARK SMILES IDX 37 46 38 47 61 48 62 49 70 50 63 51 69 52 64 53 65 54 66 55
REMARK SMILES IDX 67 56 68 57 47 58 48 59 56 60 49 61 55 62 50 63 51 64 52 65
REMARK SMILES IDX 53 66 54 67 5 68 6 69 7 70 8 71 9 73 10 74 11 75 15 76 12 77
REMARK SMILES IDX 14 78 13 79 16 80 17 81 21 82 18 83 20 84 19 85
REMARK H PARENT 3 5 75 23 45 34 7 72
REMARK Flexibility Score: inf
ROOT
ATOM      1  C   UNL A   1      34.135  27.931  26.449  1.00  0.00     0.118 C 
ENDROOT
BRANCH   1   2
ATOM      2  N   UNL A   1      33.799  29.280  26.894  1.00  0.00    -0.352 N 
ATOM      3  O   UNL A   1      33.946  31.192  28.071  1.00  0.00    -0.269 OA
ATOM      4  C   UNL A   1      34.499  30.166  27.682  1.00  0.00     0.251 C 
ATOM      5  H   UNL A   1      32.927  29.611  26.580  1.00  0.00     0.163 HD
BRANCH   4   6
ATOM      6  C   UNL A   1      35.896  29.880  28.076  1.00  0.00     0.039 A 
ATOM      7  C   UNL A   1      36.944  30.117  27.190  1.00  0.00     0.014 A 
ATOM      8  C   UNL A   1      36.169  29.382  29.356  1.00  0.00     0.014 A 
ATOM      9  C   UNL A   1      38.220  29.670  27.497  1.00  0.00     0.010 A 
ATOM     10  C   UNL A   1      37.484  29.053  29.713  1.00  0.00     0.010 A 
ATOM     11  C   UNL A   1      38.517  29.159  28.772  1.00  0.00    -0.014 A 
BRANCH  11  12
ATOM     12  C   UNL A   1      39.934  28.832  29.085  1.00  0.00     0.031 A 
ATOM     13  C   UNL A   1      40.546  27.511  28.705  1.00  0.00     0.074 A 
ATOM     14  C   UNL A   1      40.695  29.795  29.648  1.00  0.00     0.049 A 
ATOM     15  N   UNL A   1      41.793  27.127  28.817  1.00  0.00    -0.248 NA
ATOM     16  C   UNL A   1      39.655  26.488  28.137  1.00  0.00     0.031 C 
ATOM     17  C   UNL A   1      40.205  31.109  30.080  1.00  0.00     0.029 A 
ATOM     18  N   UNL A   1      42.039  29.844  29.909  1.00  0.00    -0.354 N 
ATOM     19  C   UNL A   1      41.838  25.821  28.344  1.00  0.00     0.074 A 
ATOM     20  C   UNL A   1      40.484  25.465  27.972  1.00  0.00     0.031 C 
ATOM     21  C   UNL A   1      41.242  31.860  30.473  1.00  0.00     0.029 A 
ATOM     22  C   UNL A   1      42.457  31.059  30.397  1.00  0.00     0.049 A 
ATOM     23  H   UNL A   1      42.647  29.084  29.760  1.00  0.00     0.167 HD
ATOM     24  C   UNL A   1      42.908  24.998  28.224  1.00  0.00     0.031 A 
ATOM     25  C   UNL A   1      43.680  31.488  30.760  1.00  0.00     0.031 A 
ATOM     26  C   UNL A   1      44.252  25.357  28.602  1.00  0.00     0.049 A 
ATOM     27  C   UNL A   1      44.843  30.552  30.624  1.00  0.00     0.074 A 
ATOM     28  C   UNL A   1      45.405  24.594  28.515  1.00  0.00     0.029 A 
ATOM     29  N   UNL A   1      44.627  26.582  29.135  1.00  0.00    -0.354 N 
ATOM     30  N   UNL A   1      44.861  29.327  30.158  1.00  0.00    -0.248 NA
ATOM     31  C   UNL A   1      46.150  31.055  31.063  1.00  0.00     0.031 C 
ATOM     32  C   UNL A   1      46.468  25.339  29.038  1.00  0.00     0.029 A 
ATOM     33  C   UNL A   1      45.989  26.588  29.396  1.00  0.00     0.049 A 
ATOM     34  H   UNL A   1      44.017  27.335  29.303  1.00  0.00     0.167 HD
ATOM     35  C   UNL A   1      46.183  28.910  30.247  1.00  0.00     0.074 A 
ATOM     36  C   UNL A   1      46.939  30.031  30.771  1.00  0.00     0.031 C 
ATOM     37  C   UNL A   1      46.721  27.706  29.935  1.00  0.00     0.031 A 
BRANCH  24  38
ATOM     38  C   UNL A   1      42.676  23.616  27.669  1.00  0.00    -0.014 A 
ATOM     39  C   UNL A   1      42.821  23.353  26.296  1.00  0.00     0.010 A 
ATOM     40  C   UNL A   1      42.382  22.550  28.541  1.00  0.00     0.010 A 
ATOM     41  C   UNL A   1      42.654  22.055  25.800  1.00  0.00     0.020 A 
ATOM     42  C   UNL A   1      42.238  21.247  28.053  1.00  0.00     0.020 A 
ATOM     43  C   UNL A   1      42.363  21.011  26.683  1.00  0.00     0.054 A 
BRANCH  43  44
ATOM     44  S   UNL A   1      42.194  19.332  26.016  1.00  0.00     0.124 S 
ATOM     45  O   UNL A   1      42.690  18.517  27.122  1.00  0.00    -0.237 OA
ATOM     46  O   UNL A   1      40.760  19.233  25.758  1.00  0.00    -0.237 OA
ATOM     47  O   UNL A   1      43.040  19.343  24.825  1.00  0.00    -0.744 OA
ENDBRANCH  43  44
ENDBRANCH  24  38
BRANCH  25  48
ATOM     48  C   UNL A   1      43.848  32.855  31.323  1.00  0.00    -0.014 A 
ATOM     49  C   UNL A   1      44.078  33.962  30.489  1.00  0.00     0.010 A 
ATOM     50  C   UNL A   1      43.764  33.052  32.715  1.00  0.00     0.010 A 
ATOM     51  C   UNL A   1      44.247  35.237  31.040  1.00  0.00     0.020 A 
ATOM     52  C   UNL A   1      43.896  34.329  33.265  1.00  0.00     0.020 A 
ATOM     53  C   UNL A   1      44.155  35.411  32.424  1.00  0.00     0.054 A 
BRANCH  53  54
ATOM     54  S   UNL A   1      44.339  37.076  33.117  1.00  0.00     0.124 S 
ATOM     55  O   UNL A   1      44.113  37.918  31.946  1.00  0.00    -0.237 OA
ATOM     56  O   UNL A   1      43.294  37.114  34.137  1.00  0.00    -0.237 OA
ATOM     57  O   UNL A   1      45.705  37.079  33.638  1.00  0.00    -0.744 OA
ENDBRANCH  53  54
ENDBRANCH  25  48
BRANCH  37  58
ATOM     58  C   UNL A   1      48.204  27.554  30.148  1.00  0.00    -0.014 A 
ATOM     59  C   UNL A   1      48.717  27.122  31.385  1.00  0.00     0.010 A 
ATOM     60  C   UNL A   1      49.092  27.845  29.099  1.00  0.00     0.010 A 
ATOM     61  C   UNL A   1      50.096  27.036  31.584  1.00  0.00     0.020 A 
ATOM     62  C   UNL A   1      50.472  27.732  29.285  1.00  0.00     0.020 A 
ATOM     63  C   UNL A   1      50.965  27.350  30.535  1.00  0.00     0.054 A 
BRANCH  63  64
ATOM     64  S   UNL A   1      52.753  27.229  30.815  1.00  0.00     0.124 S 
ATOM     65  O   UNL A   1      52.940  28.110  31.964  1.00  0.00    -0.237 OA
ATOM     66  O   UNL A   1      52.942  25.804  31.078  1.00  0.00    -0.237 OA
ATOM     67  O   UNL A   1      53.332  27.706  29.561  1.00  0.00    -0.744 OA
ENDBRANCH  63  64
ENDBRANCH  37  58
ENDBRANCH  11  12
ENDBRANCH   4   6
ENDBRANCH   1   2
BRANCH   1  68
ATOM     68  C   UNL A   1      32.911  27.082  26.143  1.00  0.00     0.042 C 
BRANCH  68  69
ATOM     69  C   UNL A   1      33.228  25.615  25.902  1.00  0.00     0.118 C 
BRANCH  69  70
ATOM     70  N   UNL A   1      33.858  25.383  24.609  1.00  0.00    -0.352 N 
ATOM     71  C   UNL A   1      34.138  24.209  23.953  1.00  0.00     0.253 C 
ATOM     72  H   UNL A   1      34.126  26.199  24.127  1.00  0.00     0.163 HD
ATOM     73  O   UNL A   1      34.756  24.243  22.892  1.00  0.00    -0.269 OA
BRANCH  71  74
ATOM     74  C   UNL A   1      33.681  22.927  24.515  1.00  0.00     0.067 A 
ATOM     75  C   UNL A   1      32.376  22.497  24.241  1.00  0.00     0.018 A 
ATOM     76  C   UNL A   1      34.520  22.105  25.269  1.00  0.00     0.101 A 
ATOM     77  C   UNL A   1      31.906  21.319  24.803  1.00  0.00     0.021 A 
ATOM     78  N   UNL A   1      34.053  20.947  25.830  1.00  0.00    -0.254 NA
ATOM     79  C   UNL A   1      32.772  20.590  25.595  1.00  0.00     0.112 A 
BRANCH  76  80
ATOM     80  C   UNL A   1      35.945  22.388  25.528  1.00  0.00     0.089 A 
ATOM     81  C   UNL A   1      36.955  21.468  25.246  1.00  0.00     0.031 A 
ATOM     82  N   UNL A   1      36.218  23.617  26.047  1.00  0.00    -0.255 NA
ATOM     83  C   UNL A   1      38.280  21.808  25.522  1.00  0.00     0.004 A 
ATOM     84  C   UNL A   1      37.510  23.918  26.302  1.00  0.00     0.112 A 
ATOM     85  C   UNL A   1      38.564  23.055  26.063  1.00  0.00     0.020 A 
ENDBRANCH  76  80
ENDBRANCH  71  74
ENDBRANCH  69  70
ENDBRANCH  68  69
ENDBRANCH   1  68
TORSDOF 14
ENDMDL
MODEL 3
REMARK VINA RESULT:     -10.9      3.809      9.729
REMARK SMILES O=C(NCCCNC(=O)c1cccnc1-c1ccccn1)c1ccc(-c2c3nc(c(-c4ccc(S(=O)(=O)[O-])cc4)c4ccc([nH]4)c(-c4ccc(S(=O)(=O)[O-])cc4)c4nc(c(-c5ccc(S(=O)(=O)[O-])cc5)c5ccc2[nH]5)C=C4)C=C3)cc1
REMARK SMILES IDX 4 1 3 2 1 3 2 4 22 6 23 7 81 8 24 9 80 10 25 11 26 12 27 13
REMARK SMILES IDX 74 14 28 15 79 16 73 17 75 18 29 19 78 20 72 21 71 22 30 24
REMARK SMILES IDX 60 25 41 26 59 27 42 28 45 29 58 30 76 31 43 32 44 33 57 35
REMARK SMILES IDX 77 36 46 37 31 38 32 39 40 40 33 41 39 42 34 43 35 44 36 45
REMARK SMILES IDX 37 46 38 47 61 48 62 49 70 50 63 51 69 52 64 53 65 54 66 55
REMARK SMILES IDX 67 56 68 57 47 58 48 59 56 60 49 61 55 62 50 63 51 64 52 65
REMARK SMILES IDX 53 66 54 67 5 68 6 69 7 70 8 71 9 73 10 74 11 75 15 76 12 77
REMARK SMILES IDX 14 78 13 79 16 80 17 81 21 82 18 83 20 84 19 85
REMARK H PARENT 3 5 75 23 45 34 7 72
REMARK Flexibility Score: inf
ROOT
ATOM      1  C   UNL A   1      35.151  29.324  27.426  1.00  0.00     0.118 C 
ENDROOT
BRANCH   1   2
ATOM      2  N   UNL A   1      35.250  29.786  28.808  1.00  0.00    -0.352 N 
ATOM      3  O   UNL A   1      36.129  30.081  30.857  1.00  0.00    -0.269 OA
ATOM      4  C   UNL A   1      36.317  29.801  29.676  1.00  0.00     0.251 C 
ATOM      5  H   UNL A   1      34.412  30.146  29.181  1.00  0.00     0.163 HD
BRANCH   4   6
ATOM      6  C   UNL A   1      37.677  29.461  29.202  1.00  0.00     0.039 A 
ATOM      7  C   UNL A   1      38.606  28.889  30.067  1.00  0.00     0.014 A 
ATOM      8  C   UNL A   1      38.029  29.701  27.868  1.00  0.00     0.014 A 
ATOM      9  C   UNL A   1      39.927  28.751  29.668  1.00  0.00     0.010 A 
ATOM     10  C   UNL A   1      39.333  29.436  27.429  1.00  0.00     0.010 A 
ATOM     11  C   UNL A   1      40.306  28.994  28.337  1.00  0.00    -0.014 A 
BRANCH  11  12
ATOM     12  C   UNL A   1      41.706  28.690  27.939  1.00  0.00     0.031 A 
ATOM     13  C   UNL A   1      42.788  29.734  27.985  1.00  0.00     0.074 A 
ATOM     14  C   UNL A   1      42.007  27.415  27.615  1.00  0.00     0.049 A 
ATOM     15  N   UNL A   1      44.072  29.588  27.770  1.00  0.00    -0.248 NA
ATOM     16  C   UNL A   1      42.389  31.113  28.301  1.00  0.00     0.031 C 
ATOM     17  C   UNL A   1      41.036  26.320  27.515  1.00  0.00     0.029 A 
ATOM     18  N   UNL A   1      43.210  26.810  27.358  1.00  0.00    -0.354 N 
ATOM     19  C   UNL A   1      44.633  30.852  27.916  1.00  0.00     0.074 A 
ATOM     20  C   UNL A   1      43.544  31.761  28.207  1.00  0.00     0.031 C 
ATOM     21  C   UNL A   1      41.686  25.169  27.303  1.00  0.00     0.029 A 
ATOM     22  C   UNL A   1      43.110  25.451  27.170  1.00  0.00     0.049 A 
ATOM     23  H   UNL A   1      44.063  27.300  27.314  1.00  0.00     0.167 HD
ATOM     24  C   UNL A   1      45.934  31.219  27.823  1.00  0.00     0.031 A 
ATOM     25  C   UNL A   1      44.052  24.528  26.907  1.00  0.00     0.031 A 
ATOM     26  C   UNL A   1      47.013  30.309  27.527  1.00  0.00     0.049 A 
ATOM     27  C   UNL A   1      45.482  24.965  26.802  1.00  0.00     0.074 A 
ATOM     28  C   UNL A   1      48.366  30.584  27.415  1.00  0.00     0.029 A 
ATOM     29  N   UNL A   1      46.865  28.949  27.299  1.00  0.00    -0.354 N 
ATOM     30  N   UNL A   1      45.988  26.164  26.961  1.00  0.00    -0.248 NA
ATOM     31  C   UNL A   1      46.469  23.926  26.482  1.00  0.00     0.031 C 
ATOM     32  C   UNL A   1      49.030  29.400  27.075  1.00  0.00     0.029 A 
ATOM     33  C   UNL A   1      48.099  28.376  27.032  1.00  0.00     0.049 A 
ATOM     34  H   UNL A   1      46.011  28.462  27.323  1.00  0.00     0.167 HD
ATOM     35  C   UNL A   1      47.356  26.025  26.760  1.00  0.00     0.074 A 
ATOM     36  C   UNL A   1      47.599  24.618  26.511  1.00  0.00     0.031 C 
ATOM     37  C   UNL A   1      48.320  26.976  26.768  1.00  0.00     0.031 A 
BRANCH  24  38
ATOM     38  C   UNL A   1      46.274  32.672  28.033  1.00  0.00    -0.014 A 
ATOM     39  C   UNL A   1      46.313  33.571  26.952  1.00  0.00     0.010 A 
ATOM     40  C   UNL A   1      46.483  33.163  29.336  1.00  0.00     0.010 A 
ATOM     41  C   UNL A   1      46.578  34.927  27.166  1.00  0.00     0.020 A 
ATOM     42  C   UNL A   1      46.723  34.523  29.557  1.00  0.00     0.020 A 
ATOM     43  C   UNL A   1      46.782  35.394  28.468  1.00  0.00     0.054 A 
BRANCH  43  44
ATOM     44  S   UNL A   1      47.081  37.167  28.718  1.00  0.00     0.124 S 
ATOM     45  O   UNL A   1      47.712  37.182  30.035  1.00  0.00    -0.237 OA
ATOM     46  O   UNL A   1      47.956  37.505  27.599  1.00  0.00    -0.237 OA
ATOM     47  O   UNL A   1      45.745  37.756  28.661  1.00  0.00    -0.744 OA
ENDBRANCH  43  44
ENDBRANCH  24  38
BRANCH  25  48
ATOM     48  C   UNL A   1      43.658  23.110  26.686  1.00  0.00    -0.014 A 
ATOM     49  C   UNL A   1      43.908  22.468  25.461  1.00  0.00     0.010 A 
ATOM     50  C   UNL A   1      43.034  22.389  27.722  1.00  0.00     0.010 A 
ATOM     51  C   UNL A   1      43.517  21.139  25.269  1.00  0.00     0.020 A 
ATOM     52  C   UNL A   1      42.676  21.051  27.546  1.00  0.00     0.020 A 
ATOM     53  C   UNL A   1      42.904  20.440  26.313  1.00  0.00     0.054 A 
BRANCH  53  54
ATOM     54  S   UNL A   1      42.437  18.706  26.059  1.00  0.00     0.124 S 
ATOM     55  O   UNL A   1      41.039  18.826  25.657  1.00  0.00    -0.237 OA
ATOM     56  O   UNL A   1      43.363  18.278  25.013  1.00  0.00    -0.237 OA
ATOM     57  O   UNL A   1      42.665  18.097  27.368  1.00  0.00    -0.744 OA
ENDBRANCH  53  54
ENDBRANCH  25  48
BRANCH  37  58
ATOM     58  C   UNL A   1      49.729  26.512  26.508  1.00  0.00    -0.014 A 
ATOM     59  C   UNL A   1      50.267  26.524  25.208  1.00  0.00     0.010 A 
ATOM     60  C   UNL A   1      50.522  26.061  27.576  1.00  0.00     0.010 A 
ATOM     61  C   UNL A   1      51.555  26.040  24.975  1.00  0.00     0.020 A 
ATOM     62  C   UNL A   1      51.823  25.604  27.351  1.00  0.00     0.020 A 
ATOM     63  C   UNL A   1      52.323  25.576  26.047  1.00  0.00     0.054 A 
BRANCH  63  64
ATOM     64  S   UNL A   1      53.995  24.956  25.721  1.00  0.00     0.124 S 
ATOM     65  O   UNL A   1      53.745  23.544  25.440  1.00  0.00    -0.237 OA
ATOM     66  O   UNL A   1      54.420  25.759  24.577  1.00  0.00    -0.237 OA
ATOM     67  O   UNL A   1      54.713  25.226  26.966  1.00  0.00    -0.744 OA
ENDBRANCH  63  64
ENDBRANCH  37  58
ENDBRANCH  11  12
ENDBRANCH   4   6
ENDBRANCH   1   2
BRANCH   1  68
ATOM     68  C   UNL A   1      33.779  28.766  27.080  1.00  0.00     0.042 C 
BRANCH  68  69
ATOM     69  C   UNL A   1      32.918  29.720  26.267  1.00  0.00     0.118 C 
BRANCH  69  70
ATOM     70  N   UNL A   1      33.314  29.776  24.866  1.00  0.00    -0.352 N 
ATOM     71  C   UNL A   1      33.001  28.945  23.818  1.00  0.00     0.253 C 
ATOM     72  H   UNL A   1      33.901  30.531  24.632  1.00  0.00     0.163 HD
ATOM     73  O   UNL A   1      33.518  29.136  22.720  1.00  0.00    -0.269 OA
BRANCH  71  74
ATOM     74  C   UNL A   1      32.039  27.847  24.014  1.00  0.00     0.067 A 
ATOM     75  C   UNL A   1      32.496  26.638  24.555  1.00  0.00     0.018 A 
ATOM     76  C   UNL A   1      30.681  27.989  23.724  1.00  0.00     0.101 A 
ATOM     77  C   UNL A   1      31.619  25.571  24.698  1.00  0.00     0.021 A 
ATOM     78  N   UNL A   1      29.818  26.934  23.859  1.00  0.00    -0.254 NA
ATOM     79  C   UNL A   1      30.302  25.764  24.327  1.00  0.00     0.112 A 
BRANCH  76  80
ATOM     80  C   UNL A   1      30.058  29.244  23.263  1.00  0.00     0.089 A 
ATOM     81  C   UNL A   1      29.758  30.295  24.130  1.00  0.00     0.031 A 
ATOM     82  N   UNL A   1      29.806  29.322  21.927  1.00  0.00    -0.255 NA
ATOM     83  C   UNL A   1      29.166  31.450  23.618  1.00  0.00     0.004 A 
ATOM     84  C   UNL A   1      29.233  30.453  21.461  1.00  0.00     0.112 A 
ATOM     85  C   UNL A   1      28.895  31.531  22.259  1.00  0.00     0.020 A 
ENDBRANCH  76  80
ENDBRANCH  71  74
ENDBRANCH  69  70
ENDBRANCH  68  69
ENDBRANCH   1  68
TORSDOF 14
ENDMDL
