MODEL 1
REMARK VINA RESULT:     -11.1      0.000      0.000
REMARK SMILES C[N@H+]1CCO[C@@H](C[N@H+]2CCCC[C@@H]2CCC(=O)NCCCNC(=O)c2ccc(-c3c4nc(c(-c5ccc(S(=O)(=O)[O-])cc5)c5ccc([nH]5)c(-c5ccc(S(=O)(=O)[O-])cc5)c5nc(c(-c6ccc(S(=O)(=O)[O-])cc6)c6ccc3[nH]6)C=C5)C=C4)cc2)C1
REMARK SMILES IDX 19 1 18 2 16 3 17 4 15 6 14 7 13 8 8 9 9 10 10 12 12 13
REMARK SMILES IDX 11 14 7 15 6 16 1 17 2 18 3 19 85 20 4 22 5 23 20 24 21 25
REMARK SMILES IDX 22 26 23 27 24 29 25 30 26 31 84 32 27 33 83 34 28 35 29 36
REMARK SMILES IDX 30 37 77 38 31 39 82 40 76 41 78 42 32 43 81 44 75 45 74 46
REMARK SMILES IDX 33 48 63 49 44 50 62 51 45 52 48 53 61 54 79 55 46 56 47 57
REMARK SMILES IDX 60 59 80 60 49 61 34 62 35 63 43 64 36 65 42 66 37 67 38 68
REMARK SMILES IDX 39 69 40 70 41 71 64 72 65 73 73 74 66 75 72 76 67 77 68 78
REMARK SMILES IDX 69 79 70 80 71 81 50 82 51 83 59 84 52 85 58 86 53 87 54 88
REMARK SMILES IDX 55 89 56 90 57 91
REMARK H PARENT 18 5 8 11 2 21 22 28 78 47 48 58
REMARK Flexibility Score: inf
ROOT
ATOM      1  C   UNL A   1      31.592  27.270  25.711  1.00  0.00     0.117 C 
ENDROOT
BRANCH   1   2
ATOM      2  N   UNL A   1      31.268  26.144  26.570  1.00  0.00    -0.356 N 
ATOM      3  C   UNL A   1      31.642  24.838  26.477  1.00  0.00     0.220 C 
ATOM      4  O   UNL A   1      31.155  24.035  27.277  1.00  0.00    -0.275 OA
ATOM      5  H   UNL A   1      30.689  26.359  27.337  1.00  0.00     0.163 HD
BRANCH   3   6
ATOM      6  C   UNL A   1      32.647  24.384  25.433  1.00  0.00     0.106 C 
BRANCH   6   7
ATOM      7  C   UNL A   1      33.397  23.109  25.834  1.00  0.00     0.075 C 
BRANCH   7   8
ATOM      8  C   UNL A   1      33.689  22.142  24.658  1.00  0.00     0.184 C 
ATOM      9  N   UNL A   1      34.570  21.073  25.114  1.00  0.00    -0.330 N 
ATOM     10  C   UNL A   1      35.960  21.444  25.319  1.00  0.00     0.262 C 
ATOM     11  H   UNL A   1      34.271  20.961  26.082  1.00  0.00     0.348 HD
ATOM     12  C   UNL A   1      36.599  22.223  24.171  1.00  0.00     0.062 C 
ATOM     13  C   UNL A   1      34.249  22.841  23.412  1.00  0.00     0.065 C 
ATOM     14  C   UNL A   1      35.696  23.291  23.562  1.00  0.00     0.012 C 
BRANCH   9  15
ATOM     15  C   UNL A   1      34.260  19.698  24.701  1.00  0.00     0.300 C 
BRANCH  15  16
ATOM     16  C   UNL A   1      32.791  19.200  24.633  1.00  0.00     0.228 C 
ATOM     17  C   UNL A   1      34.233  16.685  23.179  1.00  0.00     0.332 C 
ATOM     18  N   UNL A   1      32.823  16.911  23.471  1.00  0.00    -0.333 N 
ATOM     19  C   UNL A   1      32.432  16.335  24.767  1.00  0.00     0.290 C 
ATOM     20  C   UNL A   1      32.402  18.317  23.433  1.00  0.00     0.300 C 
ATOM     21  H   UNL A   1      32.340  16.433  22.708  1.00  0.00     0.348 HD
ATOM     22  C   UNL A   1      32.835  17.203  25.972  1.00  0.00     0.222 C 
ATOM     23  O   UNL A   1      32.393  18.562  25.867  1.00  0.00    -0.361 OA
ENDBRANCH  15  16
ENDBRANCH   9  15
ENDBRANCH   7   8
ENDBRANCH   6   7
ENDBRANCH   3   6
ENDBRANCH   1   2
BRANCH   1  24
ATOM     24  C   UNL A   1      33.065  27.647  25.836  1.00  0.00     0.042 C 
BRANCH  24  25
ATOM     25  C   UNL A   1      33.477  28.121  27.218  1.00  0.00     0.118 C 
BRANCH  25  26
ATOM     26  N   UNL A   1      33.370  29.565  27.352  1.00  0.00    -0.352 N 
ATOM     27  C   UNL A   1      34.230  30.485  27.903  1.00  0.00     0.251 C 
ATOM     28  H   UNL A   1      32.540  29.948  26.985  1.00  0.00     0.163 HD
ATOM     29  O   UNL A   1      33.810  31.624  28.101  1.00  0.00    -0.269 OA
BRANCH  27  30
ATOM     30  C   UNL A   1      35.634  30.150  28.261  1.00  0.00     0.039 A 
ATOM     31  C   UNL A   1      36.613  30.221  27.261  1.00  0.00     0.014 A 
ATOM     32  C   UNL A   1      35.996  29.679  29.524  1.00  0.00     0.014 A 
ATOM     33  C   UNL A   1      37.937  29.853  27.535  1.00  0.00     0.010 A 
ATOM     34  C   UNL A   1      37.333  29.409  29.825  1.00  0.00     0.010 A 
ATOM     35  C   UNL A   1      38.316  29.463  28.828  1.00  0.00    -0.014 A 
BRANCH  35  36
ATOM     36  C   UNL A   1      39.715  29.060  29.147  1.00  0.00     0.031 A 
ATOM     37  C   UNL A   1      40.652  30.038  29.810  1.00  0.00     0.074 A 
ATOM     38  C   UNL A   1      40.170  27.840  28.800  1.00  0.00     0.049 A 
ATOM     39  N   UNL A   1      41.921  29.896  30.103  1.00  0.00    -0.248 NA
ATOM     40  C   UNL A   1      40.098  31.354  30.168  1.00  0.00     0.031 C 
ATOM     41  C   UNL A   1      39.379  26.806  28.137  1.00  0.00     0.029 A 
ATOM     42  N   UNL A   1      41.405  27.261  28.951  1.00  0.00    -0.354 N 
ATOM     43  C   UNL A   1      42.320  31.109  30.653  1.00  0.00     0.074 A 
ATOM     44  C   UNL A   1      41.173  31.990  30.607  1.00  0.00     0.031 C 
ATOM     45  C   UNL A   1      40.134  25.711  27.958  1.00  0.00     0.029 A 
ATOM     46  C   UNL A   1      41.478  25.977  28.460  1.00  0.00     0.049 A 
ATOM     47  H   UNL A   1      42.168  27.721  29.371  1.00  0.00     0.167 HD
ATOM     48  C   UNL A   1      43.523  31.455  31.172  1.00  0.00     0.031 A 
ATOM     49  C   UNL A   1      42.508  25.110  28.413  1.00  0.00     0.031 A 
ATOM     50  C   UNL A   1      44.658  30.574  31.237  1.00  0.00     0.049 A 
ATOM     51  C   UNL A   1      43.837  25.516  28.984  1.00  0.00     0.074 A 
ATOM     52  C   UNL A   1      45.904  30.814  31.790  1.00  0.00     0.029 A 
ATOM     53  N   UNL A   1      44.688  29.283  30.731  1.00  0.00    -0.354 N 
ATOM     54  N   UNL A   1      44.179  26.651  29.543  1.00  0.00    -0.248 NA
ATOM     55  C   UNL A   1      44.916  24.521  28.926  1.00  0.00     0.031 C 
ATOM     56  C   UNL A   1      46.702  29.684  31.577  1.00  0.00     0.029 A 
ATOM     57  C   UNL A   1      45.936  28.721  30.941  1.00  0.00     0.049 A 
ATOM     58  H   UNL A   1      43.933  28.832  30.288  1.00  0.00     0.167 HD
ATOM     59  C   UNL A   1      45.505  26.498  29.932  1.00  0.00     0.074 A 
ATOM     60  C   UNL A   1      45.899  25.157  29.550  1.00  0.00     0.031 C 
ATOM     61  C   UNL A   1      46.318  27.387  30.553  1.00  0.00     0.031 A 
BRANCH  48  62
ATOM     62  C   UNL A   1      43.667  32.859  31.702  1.00  0.00    -0.014 A 
ATOM     63  C   UNL A   1      44.078  33.914  30.866  1.00  0.00     0.010 A 
ATOM     64  C   UNL A   1      43.382  33.129  33.053  1.00  0.00     0.010 A 
ATOM     65  C   UNL A   1      44.260  35.198  31.384  1.00  0.00     0.020 A 
ATOM     66  C   UNL A   1      43.532  34.419  33.568  1.00  0.00     0.020 A 
ATOM     67  C   UNL A   1      43.995  35.441  32.735  1.00  0.00     0.054 A 
BRANCH  67  68
ATOM     68  S   UNL A   1      44.246  37.115  33.388  1.00  0.00     0.124 S 
ATOM     69  O   UNL A   1      45.438  36.936  34.215  1.00  0.00    -0.237 OA
ATOM     70  O   UNL A   1      44.443  37.907  32.173  1.00  0.00    -0.237 OA
ATOM     71  O   UNL A   1      43.016  37.393  34.117  1.00  0.00    -0.744 OA
ENDBRANCH  67  68
ENDBRANCH  48  62
BRANCH  49  72
ATOM     72  C   UNL A   1      42.305  23.756  27.829  1.00  0.00    -0.014 A 
ATOM     73  C   UNL A   1      42.570  23.524  26.468  1.00  0.00     0.010 A 
ATOM     74  C   UNL A   1      41.881  22.686  28.637  1.00  0.00     0.010 A 
ATOM     75  C   UNL A   1      42.409  22.246  25.923  1.00  0.00     0.020 A 
ATOM     76  C   UNL A   1      41.743  21.402  28.102  1.00  0.00     0.020 A 
ATOM     77  C   UNL A   1      42.001  21.193  26.746  1.00  0.00     0.054 A 
BRANCH  77  78
ATOM     78  S   UNL A   1      41.868  19.529  26.032  1.00  0.00     0.124 S 
ATOM     79  O   UNL A   1      42.756  19.622  24.877  1.00  0.00    -0.237 OA
ATOM     80  O   UNL A   1      42.334  18.679  27.124  1.00  0.00    -0.237 OA
ATOM     81  O   UNL A   1      40.445  19.406  25.721  1.00  0.00    -0.744 OA
ENDBRANCH  77  78
ENDBRANCH  49  72
BRANCH  61  82
ATOM     82  C   UNL A   1      47.712  26.930  30.890  1.00  0.00    -0.014 A 
ATOM     83  C   UNL A   1      48.787  27.159  30.014  1.00  0.00     0.010 A 
ATOM     84  C   UNL A   1      47.956  26.314  32.131  1.00  0.00     0.010 A 
ATOM     85  C   UNL A   1      50.078  26.754  30.362  1.00  0.00     0.020 A 
ATOM     86  C   UNL A   1      49.251  25.932  32.494  1.00  0.00     0.020 A 
ATOM     87  C   UNL A   1      50.302  26.143  31.599  1.00  0.00     0.054 A 
BRANCH  87  88
ATOM     88  S   UNL A   1      51.995  25.672  32.049  1.00  0.00     0.124 S 
ATOM     89  O   UNL A   1      52.750  26.092  30.871  1.00  0.00    -0.237 OA
ATOM     90  O   UNL A   1      52.235  26.452  33.260  1.00  0.00    -0.237 OA
ATOM     91  O   UNL A   1      51.910  24.228  32.253  1.00  0.00    -0.744 OA
ENDBRANCH  87  88
ENDBRANCH  61  82
ENDBRANCH  35  36
ENDBRANCH  27  30
ENDBRANCH  25  26
ENDBRANCH  24  25
ENDBRANCH   1  24
TORSDOF 17
ENDMDL
MODEL 2
REMARK VINA RESULT:     -10.7      1.636      2.701
REMARK SMILES C[N@H+]1CCO[C@@H](C[N@H+]2CCCC[C@@H]2CCC(=O)NCCCNC(=O)c2ccc(-c3c4nc(c(-c5ccc(S(=O)(=O)[O-])cc5)c5ccc([nH]5)c(-c5ccc(S(=O)(=O)[O-])cc5)c5nc(c(-c6ccc(S(=O)(=O)[O-])cc6)c6ccc3[nH]6)C=C5)C=C4)cc2)C1
REMARK SMILES IDX 19 1 18 2 16 3 17 4 15 6 14 7 13 8 8 9 9 10 10 12 12 13
REMARK SMILES IDX 11 14 7 15 6 16 1 17 2 18 3 19 85 20 4 22 5 23 20 24 21 25
REMARK SMILES IDX 22 26 23 27 24 29 25 30 26 31 84 32 27 33 83 34 28 35 29 36
REMARK SMILES IDX 30 37 77 38 31 39 82 40 76 41 78 42 32 43 81 44 75 45 74 46
REMARK SMILES IDX 33 48 63 49 44 50 62 51 45 52 48 53 61 54 79 55 46 56 47 57
REMARK SMILES IDX 60 59 80 60 49 61 34 62 35 63 43 64 36 65 42 66 37 67 38 68
REMARK SMILES IDX 39 69 40 70 41 71 64 72 65 73 73 74 66 75 72 76 67 77 68 78
REMARK SMILES IDX 69 79 70 80 71 81 50 82 51 83 59 84 52 85 58 86 53 87 54 88
REMARK SMILES IDX 55 89 56 90 57 91
REMARK H PARENT 18 5 8 11 2 21 22 28 78 47 48 58
REMARK Flexibility Score: inf
ROOT
ATOM      1  C   UNL A   1      31.694  28.762  25.073  1.00  0.00     0.117 C 
ENDROOT
BRANCH   1   2
ATOM      2  N   UNL A   1      31.135  28.767  23.732  1.00  0.00    -0.356 N 
ATOM      3  C   UNL A   1      30.400  27.818  23.089  1.00  0.00     0.220 C 
ATOM      4  O   UNL A   1      30.118  28.006  21.903  1.00  0.00    -0.275 OA
ATOM      5  H   UNL A   1      31.316  29.581  23.209  1.00  0.00     0.163 HD
BRANCH   3   6
ATOM      6  C   UNL A   1      29.920  26.574  23.815  1.00  0.00     0.106 C 
BRANCH   6   7
ATOM      7  C   UNL A   1      30.731  25.321  23.462  1.00  0.00     0.075 C 
BRANCH   7   8
ATOM      8  C   UNL A   1      31.918  25.038  24.418  1.00  0.00     0.184 C 
ATOM      9  N   UNL A   1      32.486  23.729  24.113  1.00  0.00    -0.330 N 
ATOM     10  C   UNL A   1      31.703  22.584  24.545  1.00  0.00     0.262 C 
ATOM     11  H   UNL A   1      32.342  23.674  23.105  1.00  0.00     0.348 HD
ATOM     12  C   UNL A   1      31.213  22.641  25.990  1.00  0.00     0.062 C 
ATOM     13  C   UNL A   1      31.555  25.163  25.904  1.00  0.00     0.065 C 
ATOM     14  C   UNL A   1      30.703  24.012  26.424  1.00  0.00     0.012 C 
BRANCH   9  15
ATOM     15  C   UNL A   1      33.949  23.606  24.064  1.00  0.00     0.300 C 
BRANCH  15  16
ATOM     16  C   UNL A   1      34.800  23.699  25.358  1.00  0.00     0.228 C 
ATOM     17  C   UNL A   1      34.873  20.483  24.947  1.00  0.00     0.332 C 
ATOM     18  N   UNL A   1      35.478  21.304  25.989  1.00  0.00    -0.333 N 
ATOM     19  C   UNL A   1      36.857  21.689  25.652  1.00  0.00     0.290 C 
ATOM     20  C   UNL A   1      34.722  22.513  26.338  1.00  0.00     0.300 C 
ATOM     21  H   UNL A   1      35.468  20.697  26.810  1.00  0.00     0.348 HD
ATOM     22  C   UNL A   1      36.943  22.861  24.658  1.00  0.00     0.222 C 
ATOM     23  O   UNL A   1      36.181  24.005  25.061  1.00  0.00    -0.361 OA
ENDBRANCH  15  16
ENDBRANCH   9  15
ENDBRANCH   7   8
ENDBRANCH   6   7
ENDBRANCH   3   6
ENDBRANCH   1   2
BRANCH   1  24
ATOM     24  C   UNL A   1      33.217  28.686  25.031  1.00  0.00     0.042 C 
BRANCH  24  25
ATOM     25  C   UNL A   1      33.885  28.676  26.394  1.00  0.00     0.118 C 
BRANCH  25  26
ATOM     26  N   UNL A   1      33.762  29.958  27.068  1.00  0.00    -0.352 N 
ATOM     27  C   UNL A   1      34.586  30.583  27.974  1.00  0.00     0.251 C 
ATOM     28  H   UNL A   1      32.949  30.466  26.836  1.00  0.00     0.163 HD
ATOM     29  O   UNL A   1      34.149  31.564  28.574  1.00  0.00    -0.269 OA
BRANCH  27  30
ATOM     30  C   UNL A   1      35.972  30.116  28.245  1.00  0.00     0.039 A 
ATOM     31  C   UNL A   1      36.267  29.601  29.515  1.00  0.00     0.014 A 
ATOM     32  C   UNL A   1      37.007  30.257  27.319  1.00  0.00     0.014 A 
ATOM     33  C   UNL A   1      37.573  29.209  29.837  1.00  0.00     0.010 A 
ATOM     34  C   UNL A   1      38.286  29.772  27.605  1.00  0.00     0.010 A 
ATOM     35  C   UNL A   1      38.594  29.270  28.877  1.00  0.00    -0.014 A 
BRANCH  35  36
ATOM     36  C   UNL A   1      39.993  28.866  29.193  1.00  0.00     0.031 A 
ATOM     37  C   UNL A   1      40.927  29.837  29.869  1.00  0.00     0.074 A 
ATOM     38  C   UNL A   1      40.450  27.651  28.831  1.00  0.00     0.049 A 
ATOM     39  N   UNL A   1      42.196  29.693  30.161  1.00  0.00    -0.248 NA
ATOM     40  C   UNL A   1      40.371  31.147  30.243  1.00  0.00     0.031 C 
ATOM     41  C   UNL A   1      39.661  26.624  28.154  1.00  0.00     0.029 A 
ATOM     42  N   UNL A   1      41.686  27.072  28.976  1.00  0.00    -0.354 N 
ATOM     43  C   UNL A   1      42.593  30.900  30.728  1.00  0.00     0.074 A 
ATOM     44  C   UNL A   1      41.445  31.779  30.691  1.00  0.00     0.031 C 
ATOM     45  C   UNL A   1      40.418  25.533  27.963  1.00  0.00     0.029 A 
ATOM     46  C   UNL A   1      41.761  25.794  28.469  1.00  0.00     0.049 A 
ATOM     47  H   UNL A   1      42.447  27.527  29.403  1.00  0.00     0.167 HD
ATOM     48  C   UNL A   1      43.794  31.241  31.252  1.00  0.00     0.031 A 
ATOM     49  C   UNL A   1      42.792  24.929  28.413  1.00  0.00     0.031 A 
ATOM     50  C   UNL A   1      44.931  30.361  31.307  1.00  0.00     0.049 A 
ATOM     51  C   UNL A   1      44.120  25.329  28.991  1.00  0.00     0.074 A 
ATOM     52  C   UNL A   1      46.176  30.596  31.865  1.00  0.00     0.029 A 
ATOM     53  N   UNL A   1      44.963  29.076  30.786  1.00  0.00    -0.354 N 
ATOM     54  N   UNL A   1      44.459  26.459  29.565  1.00  0.00    -0.248 NA
ATOM     55  C   UNL A   1      45.200  24.337  28.922  1.00  0.00     0.031 C 
ATOM     56  C   UNL A   1      46.976  29.470  31.639  1.00  0.00     0.029 A 
ATOM     57  C   UNL A   1      46.212  28.514  30.990  1.00  0.00     0.049 A 
ATOM     58  H   UNL A   1      44.210  28.630  30.336  1.00  0.00     0.167 HD
ATOM     59  C   UNL A   1      45.785  26.302  29.953  1.00  0.00     0.074 A 
ATOM     60  C   UNL A   1      46.182  24.967  29.555  1.00  0.00     0.031 C 
ATOM     61  C   UNL A   1      46.596  27.185  30.586  1.00  0.00     0.031 A 
BRANCH  48  62
ATOM     62  C   UNL A   1      43.936  32.638  31.799  1.00  0.00    -0.014 A 
ATOM     63  C   UNL A   1      43.650  32.926  33.146  1.00  0.00     0.010 A 
ATOM     64  C   UNL A   1      44.368  33.678  30.955  1.00  0.00     0.010 A 
ATOM     65  C   UNL A   1      43.734  34.236  33.624  1.00  0.00     0.020 A 
ATOM     66  C   UNL A   1      44.484  34.985  31.437  1.00  0.00     0.020 A 
ATOM     67  C   UNL A   1      44.142  35.259  32.764  1.00  0.00     0.054 A 
BRANCH  67  68
ATOM     68  S   UNL A   1      44.236  36.954  33.404  1.00  0.00     0.124 S 
ATOM     69  O   UNL A   1      43.353  36.882  34.568  1.00  0.00    -0.237 OA
ATOM     70  O   UNL A   1      45.659  37.104  33.708  1.00  0.00    -0.237 OA
ATOM     71  O   UNL A   1      43.748  37.771  32.301  1.00  0.00    -0.744 OA
ENDBRANCH  67  68
ENDBRANCH  48  62
BRANCH  49  72
ATOM     72  C   UNL A   1      42.592  23.583  27.812  1.00  0.00    -0.014 A 
ATOM     73  C   UNL A   1      42.997  23.328  26.491  1.00  0.00     0.010 A 
ATOM     74  C   UNL A   1      42.029  22.539  28.569  1.00  0.00     0.010 A 
ATOM     75  C   UNL A   1      42.838  22.056  25.933  1.00  0.00     0.020 A 
ATOM     76  C   UNL A   1      41.891  21.259  28.023  1.00  0.00     0.020 A 
ATOM     77  C   UNL A   1      42.290  21.028  26.706  1.00  0.00     0.054 A 
BRANCH  77  78
ATOM     78  S   UNL A   1      42.159  19.368  25.984  1.00  0.00     0.124 S 
ATOM     79  O   UNL A   1      42.704  18.530  27.047  1.00  0.00    -0.237 OA
ATOM     80  O   UNL A   1      40.723  19.240  25.747  1.00  0.00    -0.237 OA
ATOM     81  O   UNL A   1      42.976  19.458  24.774  1.00  0.00    -0.744 OA
ENDBRANCH  77  78
ENDBRANCH  49  72
BRANCH  61  82
ATOM     82  C   UNL A   1      47.990  26.726  30.919  1.00  0.00    -0.014 A 
ATOM     83  C   UNL A   1      49.082  27.049  30.095  1.00  0.00     0.010 A 
ATOM     84  C   UNL A   1      48.217  26.009  32.109  1.00  0.00     0.010 A 
ATOM     85  C   UNL A   1      50.373  26.639  30.440  1.00  0.00     0.020 A 
ATOM     86  C   UNL A   1      49.509  25.621  32.471  1.00  0.00     0.020 A 
ATOM     87  C   UNL A   1      50.578  25.928  31.626  1.00  0.00     0.054 A 
BRANCH  87  88
ATOM     88  S   UNL A   1      52.269  25.450  32.078  1.00  0.00     0.124 S 
ATOM     89  O   UNL A   1      52.123  24.017  32.323  1.00  0.00    -0.237 OA
ATOM     90  O   UNL A   1      53.034  25.809  30.886  1.00  0.00    -0.237 OA
ATOM     91  O   UNL A   1      52.553  26.259  33.261  1.00  0.00    -0.744 OA
ENDBRANCH  87  88
ENDBRANCH  61  82
ENDBRANCH  35  36
ENDBRANCH  27  30
ENDBRANCH  25  26
ENDBRANCH  24  25
ENDBRANCH   1  24
TORSDOF 17
ENDMDL
MODEL 3
REMARK VINA RESULT:     -10.5      4.329     10.022
REMARK SMILES C[N@H+]1CCO[C@@H](C[N@H+]2CCCC[C@@H]2CCC(=O)NCCCNC(=O)c2ccc(-c3c4nc(c(-c5ccc(S(=O)(=O)[O-])cc5)c5ccc([nH]5)c(-c5ccc(S(=O)(=O)[O-])cc5)c5nc(c(-c6ccc(S(=O)(=O)[O-])cc6)c6ccc3[nH]6)C=C5)C=C4)cc2)C1
REMARK SMILES IDX 19 1 18 2 16 3 17 4 15 6 14 7 13 8 8 9 9 10 10 12 12 13
REMARK SMILES IDX 11 14 7 15 6 16 1 17 2 18 3 19 85 20 4 22 5 23 20 24 21 25
REMARK SMILES IDX 22 26 23 27 24 29 25 30 26 31 84 32 27 33 83 34 28 35 29 36
REMARK SMILES IDX 30 37 77 38 31 39 82 40 76 41 78 42 32 43 81 44 75 45 74 46
REMARK SMILES IDX 33 48 63 49 44 50 62 51 45 52 48 53 61 54 79 55 46 56 47 57
REMARK SMILES IDX 60 59 80 60 49 61 34 62 35 63 43 64 36 65 42 66 37 67 38 68
REMARK SMILES IDX 39 69 40 70 41 71 64 72 65 73 73 74 66 75 72 76 67 77 68 78
REMARK SMILES IDX 69 79 70 80 71 81 50 82 51 83 59 84 52 85 58 86 53 87 54 88
REMARK SMILES IDX 55 89 56 90 57 91
REMARK H PARENT 18 5 8 11 2 21 22 28 78 47 48 58
REMARK Flexibility Score: inf
ROOT
ATOM      1  C   UNL A   1      39.572  22.361  26.420  1.00  0.00     0.117 C 
ENDROOT
BRANCH   1   2
ATOM      2  N   UNL A   1      38.833  21.272  25.804  1.00  0.00    -0.356 N 
ATOM      3  C   UNL A   1      37.776  21.308  24.946  1.00  0.00     0.220 C 
ATOM      4  O   UNL A   1      37.245  20.241  24.631  1.00  0.00    -0.275 OA
ATOM      5  H   UNL A   1      39.145  20.370  26.043  1.00  0.00     0.163 HD
BRANCH   3   6
ATOM      6  C   UNL A   1      37.278  22.624  24.374  1.00  0.00     0.106 C 
BRANCH   6   7
ATOM      7  C   UNL A   1      35.788  22.869  24.640  1.00  0.00     0.075 C 
BRANCH   7   8
ATOM      8  C   UNL A   1      35.120  21.814  25.559  1.00  0.00     0.184 C 
ATOM      9  N   UNL A   1      34.065  21.126  24.824  1.00  0.00    -0.330 N 
ATOM     10  C   UNL A   1      32.848  21.888  24.604  1.00  0.00     0.262 C 
ATOM     11  H   UNL A   1      34.446  21.121  23.878  1.00  0.00     0.348 HD
ATOM     12  C   UNL A   1      32.284  22.582  25.842  1.00  0.00     0.062 C 
ATOM     13  C   UNL A   1      34.600  22.394  26.882  1.00  0.00     0.065 C 
ATOM     14  C   UNL A   1      33.340  23.235  26.728  1.00  0.00     0.012 C 
BRANCH   9  15
ATOM     15  C   UNL A   1      33.971  19.666  24.956  1.00  0.00     0.300 C 
BRANCH  15  16
ATOM     16  C   UNL A   1      32.609  18.939  24.798  1.00  0.00     0.228 C 
ATOM     17  C   UNL A   1      34.471  16.870  23.133  1.00  0.00     0.332 C 
ATOM     18  N   UNL A   1      33.040  16.823  23.408  1.00  0.00    -0.333 N 
ATOM     19  C   UNL A   1      32.741  16.056  24.627  1.00  0.00     0.290 C 
ATOM     20  C   UNL A   1      32.386  18.135  23.503  1.00  0.00     0.300 C 
ATOM     21  H   UNL A   1      32.652  16.355  22.588  1.00  0.00     0.348 HD
ATOM     22  C   UNL A   1      32.979  16.847  25.926  1.00  0.00     0.222 C 
ATOM     23  O   UNL A   1      32.314  18.116  25.949  1.00  0.00    -0.361 OA
ENDBRANCH  15  16
ENDBRANCH   9  15
ENDBRANCH   7   8
ENDBRANCH   6   7
ENDBRANCH   3   6
ENDBRANCH   1   2
BRANCH   1  24
ATOM     24  C   UNL A   1      40.657  21.827  27.351  1.00  0.00     0.042 C 
BRANCH  24  25
ATOM     25  C   UNL A   1      41.844  22.756  27.531  1.00  0.00     0.118 C 
BRANCH  25  26
ATOM     26  N   UNL A   1      42.081  23.570  26.350  1.00  0.00    -0.352 N 
ATOM     27  C   UNL A   1      41.894  24.914  26.129  1.00  0.00     0.251 C 
ATOM     28  H   UNL A   1      42.436  23.073  25.576  1.00  0.00     0.163 HD
ATOM     29  O   UNL A   1      41.954  25.325  24.971  1.00  0.00    -0.269 OA
BRANCH  27  30
ATOM     30  C   UNL A   1      41.627  25.873  27.234  1.00  0.00     0.039 A 
ATOM     31  C   UNL A   1      42.507  26.950  27.411  1.00  0.00     0.014 A 
ATOM     32  C   UNL A   1      40.593  25.692  28.154  1.00  0.00     0.014 A 
ATOM     33  C   UNL A   1      42.332  27.842  28.477  1.00  0.00     0.010 A 
ATOM     34  C   UNL A   1      40.359  26.637  29.155  1.00  0.00     0.010 A 
ATOM     35  C   UNL A   1      41.242  27.708  29.349  1.00  0.00    -0.014 A 
BRANCH  35  36
ATOM     36  C   UNL A   1      41.035  28.639  30.495  1.00  0.00     0.031 A 
ATOM     37  C   UNL A   1      41.905  28.534  31.722  1.00  0.00     0.074 A 
ATOM     38  C   UNL A   1      40.038  29.545  30.465  1.00  0.00     0.049 A 
ATOM     39  N   UNL A   1      41.832  29.206  32.844  1.00  0.00    -0.248 NA
ATOM     40  C   UNL A   1      42.978  27.528  31.695  1.00  0.00     0.031 C 
ATOM     41  C   UNL A   1      39.112  29.740  29.352  1.00  0.00     0.029 A 
ATOM     42  N   UNL A   1      39.632  30.470  31.395  1.00  0.00    -0.354 N 
ATOM     43  C   UNL A   1      42.830  28.687  33.661  1.00  0.00     0.074 A 
ATOM     44  C   UNL A   1      43.460  27.612  32.926  1.00  0.00     0.031 C 
ATOM     45  C   UNL A   1      38.262  30.735  29.647  1.00  0.00     0.029 A 
ATOM     46  C   UNL A   1      38.556  31.226  30.989  1.00  0.00     0.049 A 
ATOM     47  H   UNL A   1      40.069  30.582  32.270  1.00  0.00     0.167 HD
ATOM     48  C   UNL A   1      43.208  29.081  34.901  1.00  0.00     0.031 A 
ATOM     49  C   UNL A   1      37.878  32.203  31.622  1.00  0.00     0.031 A 
ATOM     50  C   UNL A   1      42.595  30.162  35.627  1.00  0.00     0.049 A 
ATOM     51  C   UNL A   1      38.305  32.619  33.001  1.00  0.00     0.074 A 
ATOM     52  C   UNL A   1      42.940  30.671  36.867  1.00  0.00     0.029 A 
ATOM     53  N   UNL A   1      41.512  30.903  35.178  1.00  0.00    -0.354 N 
ATOM     54  N   UNL A   1      39.282  32.146  33.736  1.00  0.00    -0.248 NA
ATOM     55  C   UNL A   1      37.543  33.705  33.632  1.00  0.00     0.031 C 
ATOM     56  C   UNL A   1      42.035  31.688  37.189  1.00  0.00     0.029 A 
ATOM     57  C   UNL A   1      41.161  31.850  36.125  1.00  0.00     0.049 A 
ATOM     58  H   UNL A   1      41.058  30.774  34.313  1.00  0.00     0.167 HD
ATOM     59  C   UNL A   1      39.273  32.898  34.906  1.00  0.00     0.074 A 
ATOM     60  C   UNL A   1      38.198  33.860  34.776  1.00  0.00     0.031 C 
ATOM     61  C   UNL A   1      40.086  32.800  35.986  1.00  0.00     0.031 A 
BRANCH  48  62
ATOM     62  C   UNL A   1      44.333  28.321  35.553  1.00  0.00    -0.014 A 
ATOM     63  C   UNL A   1      45.674  28.709  35.376  1.00  0.00     0.010 A 
ATOM     64  C   UNL A   1      44.048  27.205  36.362  1.00  0.00     0.010 A 
ATOM     65  C   UNL A   1      46.710  27.962  35.942  1.00  0.00     0.020 A 
ATOM     66  C   UNL A   1      45.079  26.473  36.956  1.00  0.00     0.020 A 
ATOM     67  C   UNL A   1      46.406  26.843  36.722  1.00  0.00     0.054 A 
BRANCH  67  68
ATOM     68  S   UNL A   1      47.767  25.883  37.440  1.00  0.00     0.124 S 
ATOM     69  O   UNL A   1      48.875  26.834  37.364  1.00  0.00    -0.237 OA
ATOM     70  O   UNL A   1      47.281  25.599  38.791  1.00  0.00    -0.237 OA
ATOM     71  O   UNL A   1      47.877  24.724  36.565  1.00  0.00    -0.744 OA
ENDBRANCH  67  68
ENDBRANCH  48  62
BRANCH  49  72
ATOM     72  C   UNL A   1      36.742  32.876  30.934  1.00  0.00    -0.014 A 
ATOM     73  C   UNL A   1      35.422  32.648  31.358  1.00  0.00     0.010 A 
ATOM     74  C   UNL A   1      36.978  33.775  29.878  1.00  0.00     0.010 A 
ATOM     75  C   UNL A   1      34.355  33.302  30.734  1.00  0.00     0.020 A 
ATOM     76  C   UNL A   1      35.916  34.450  29.268  1.00  0.00     0.020 A 
ATOM     77  C   UNL A   1      34.610  34.203  29.696  1.00  0.00     0.054 A 
BRANCH  77  78
ATOM     78  S   UNL A   1      33.216  35.092  28.950  1.00  0.00     0.124 S 
ATOM     79  O   UNL A   1      33.880  36.241  28.339  1.00  0.00    -0.237 OA
ATOM     80  O   UNL A   1      32.673  34.105  28.020  1.00  0.00    -0.237 OA
ATOM     81  O   UNL A   1      32.357  35.398  30.092  1.00  0.00    -0.744 OA
ENDBRANCH  77  78
ENDBRANCH  49  72
BRANCH  61  82
ATOM     82  C   UNL A   1      39.868  33.781  37.106  1.00  0.00    -0.014 A 
ATOM     83  C   UNL A   1      40.422  35.073  37.063  1.00  0.00     0.010 A 
ATOM     84  C   UNL A   1      39.049  33.420  38.192  1.00  0.00     0.010 A 
ATOM     85  C   UNL A   1      40.180  35.978  38.100  1.00  0.00     0.020 A 
ATOM     86  C   UNL A   1      38.784  34.332  39.217  1.00  0.00     0.020 A 
ATOM     87  C   UNL A   1      39.363  35.602  39.170  1.00  0.00     0.054 A 
BRANCH  87  88
ATOM     88  S   UNL A   1      39.025  36.811  40.480  1.00  0.00     0.124 S 
ATOM     89  O   UNL A   1      40.353  37.020  41.050  1.00  0.00    -0.237 OA
ATOM     90  O   UNL A   1      38.475  37.943  39.737  1.00  0.00    -0.237 OA
ATOM     91  O   UNL A   1      38.073  36.123  41.349  1.00  0.00    -0.744 OA
ENDBRANCH  87  88
ENDBRANCH  61  82
ENDBRANCH  35  36
ENDBRANCH  27  30
ENDBRANCH  25  26
ENDBRANCH  24  25
ENDBRANCH   1  24
TORSDOF 17
ENDMDL
