MODEL 1
REMARK VINA RESULT:     -11.2      0.000      0.000
REMARK SMILES C[C@@H]1CN(C(=O)NC[C@@H]2CC[C@H](C(=O)NCCCNC(=O)c3ccc(-c4c5nc(c(-c6ccc(S(=O)(=O)[O-])cc6)c6ccc([nH]6)c(-c6ccc(S(=O)(=O)[O-])cc6)c6nc(c(-c7ccc(S(=O)(=O)[O-])cc7)c7ccc4[nH]7)C=C6)C=C5)cc3)O2)CC(C)(C)O1
REMARK SMILES IDX 17 1 16 2 15 3 13 4 14 5 12 7 9 8 10 9 82 10 11 11 8 12 7 13
REMARK SMILES IDX 5 14 6 15 4 17 1 18 2 19 3 20 87 21 84 22 83 23 85 24 86 25
REMARK SMILES IDX 18 26 19 27 20 28 21 30 22 31 23 32 81 33 24 34 80 35 25 36
REMARK SMILES IDX 26 37 27 38 74 39 28 40 79 41 73 42 75 43 29 44 78 45 72 46
REMARK SMILES IDX 71 47 30 49 60 50 41 51 59 52 42 53 45 54 58 55 76 56 43 57
REMARK SMILES IDX 44 58 57 60 77 61 46 62 31 63 32 64 40 65 33 66 39 67 34 68
REMARK SMILES IDX 35 69 36 70 37 71 38 72 61 73 62 74 70 75 63 76 69 77 64 78
REMARK SMILES IDX 65 79 66 80 67 81 68 82 47 83 48 84 56 85 49 86 55 87 50 88
REMARK SMILES IDX 51 89 52 90 53 91 54 92
REMARK H PARENT 15 6 7 16 19 29 75 48 45 59
REMARK Flexibility Score: inf
ROOT
ATOM      1  C   UNL A   1      33.601  28.407  25.872  1.00  0.00     0.042 C 
ENDROOT
BRANCH   1   2
ATOM      2  C   UNL A   1      32.952  29.533  25.096  1.00  0.00     0.117 C 
BRANCH   2   3
ATOM      3  N   UNL A   1      32.616  29.198  23.733  1.00  0.00    -0.354 N 
ATOM      4  C   UNL A   1      31.480  28.604  23.257  1.00  0.00     0.249 C 
ATOM      5  O   UNL A   1      31.349  28.516  22.033  1.00  0.00    -0.272 OA
ATOM      6  H   UNL A   1      33.295  29.426  23.057  1.00  0.00     0.163 HD
BRANCH   4   7
ATOM      7  C   UNL A   1      30.409  28.014  24.210  1.00  0.00     0.207 C 
ATOM      8  C   UNL A   1      29.971  25.882  25.114  1.00  0.00     0.138 C 
ATOM      9  C   UNL A   1      29.105  26.010  23.867  1.00  0.00     0.037 C 
ATOM     10  O   UNL A   1      30.890  26.996  25.081  1.00  0.00    -0.363 OA
ATOM     11  C   UNL A   1      29.182  27.475  23.493  1.00  0.00     0.045 C 
BRANCH   8  12
ATOM     12  C   UNL A   1      30.769  24.554  25.201  1.00  0.00     0.149 C 
BRANCH  12  13
ATOM     13  N   UNL A   1      31.897  24.567  24.271  1.00  0.00    -0.335 N 
ATOM     14  C   UNL A   1      33.171  24.226  24.140  1.00  0.00     0.317 C 
ATOM     15  O   UNL A   1      33.610  24.348  22.990  1.00  0.00    -0.249 OA
ATOM     16  H   UNL A   1      31.600  24.985  23.429  1.00  0.00     0.165 HD
BRANCH  14  17
ATOM     17  N   UNL A   1      33.946  23.788  25.151  1.00  0.00    -0.319 N 
ATOM     18  C   UNL A   1      34.480  20.744  24.794  1.00  0.00     0.040 C 
ATOM     19  C   UNL A   1      34.725  21.639  26.006  1.00  0.00     0.135 C 
ATOM     20  C   UNL A   1      33.691  22.762  26.145  1.00  0.00     0.153 C 
ATOM     21  O   UNL A   1      36.074  22.144  26.055  1.00  0.00    -0.369 OA
ATOM     22  C   UNL A   1      36.376  23.305  25.246  1.00  0.00     0.081 C 
ATOM     23  C   UNL A   1      35.270  24.384  25.313  1.00  0.00     0.156 C 
ATOM     24  C   UNL A   1      36.682  22.901  23.798  1.00  0.00     0.044 C 
ATOM     25  C   UNL A   1      37.656  23.898  25.856  1.00  0.00     0.044 C 
ENDBRANCH  14  17
ENDBRANCH  12  13
ENDBRANCH   8  12
ENDBRANCH   4   7
ENDBRANCH   2   3
ENDBRANCH   1   2
BRANCH   1  26
ATOM     26  C   UNL A   1      33.496  28.594  27.372  1.00  0.00     0.118 C 
BRANCH  26  27
ATOM     27  N   UNL A   1      33.509  30.000  27.772  1.00  0.00    -0.352 N 
ATOM     28  C   UNL A   1      34.514  30.753  28.333  1.00  0.00     0.251 C 
ATOM     29  H   UNL A   1      32.667  30.484  27.614  1.00  0.00     0.163 HD
ATOM     30  O   UNL A   1      34.276  31.894  28.723  1.00  0.00    -0.269 OA
BRANCH  28  31
ATOM     31  C   UNL A   1      35.864  30.179  28.506  1.00  0.00     0.039 A 
ATOM     32  C   UNL A   1      36.754  30.192  27.429  1.00  0.00     0.014 A 
ATOM     33  C   UNL A   1      36.265  29.657  29.736  1.00  0.00     0.014 A 
ATOM     34  C   UNL A   1      38.070  29.765  27.616  1.00  0.00     0.010 A 
ATOM     35  C   UNL A   1      37.601  29.351  29.952  1.00  0.00     0.010 A 
ATOM     36  C   UNL A   1      38.517  29.390  28.893  1.00  0.00    -0.014 A 
BRANCH  36  37
ATOM     37  C   UNL A   1      39.930  29.015  29.151  1.00  0.00     0.031 A 
ATOM     38  C   UNL A   1      40.885  30.045  29.697  1.00  0.00     0.074 A 
ATOM     39  C   UNL A   1      40.371  27.787  28.810  1.00  0.00     0.049 A 
ATOM     40  N   UNL A   1      42.177  29.955  29.880  1.00  0.00    -0.248 NA
ATOM     41  C   UNL A   1      40.323  31.363  30.043  1.00  0.00     0.031 C 
ATOM     42  C   UNL A   1      39.555  26.723  28.216  1.00  0.00     0.029 A 
ATOM     43  N   UNL A   1      41.621  27.229  28.902  1.00  0.00    -0.354 N 
ATOM     44  C   UNL A   1      42.582  31.208  30.325  1.00  0.00     0.074 A 
ATOM     45  C   UNL A   1      41.413  32.056  30.337  1.00  0.00     0.031 C 
ATOM     46  C   UNL A   1      40.319  25.636  28.024  1.00  0.00     0.029 A 
ATOM     47  C   UNL A   1      41.685  25.935  28.436  1.00  0.00     0.049 A 
ATOM     48  H   UNL A   1      42.399  27.708  29.267  1.00  0.00     0.167 HD
ATOM     49  C   UNL A   1      43.814  31.610  30.714  1.00  0.00     0.031 A 
ATOM     50  C   UNL A   1      42.730  25.090  28.344  1.00  0.00     0.031 A 
ATOM     51  C   UNL A   1      44.964  30.747  30.746  1.00  0.00     0.049 A 
ATOM     52  C   UNL A   1      44.082  25.551  28.818  1.00  0.00     0.074 A 
ATOM     53  C   UNL A   1      46.238  31.031  31.203  1.00  0.00     0.029 A 
ATOM     54  N   UNL A   1      44.974  29.430  30.314  1.00  0.00    -0.354 N 
ATOM     55  N   UNL A   1      44.428  26.717  29.307  1.00  0.00    -0.248 NA
ATOM     56  C   UNL A   1      45.181  24.578  28.741  1.00  0.00     0.031 C 
ATOM     57  C   UNL A   1      47.033  29.897  31.005  1.00  0.00     0.029 A 
ATOM     58  C   UNL A   1      46.239  28.892  30.477  1.00  0.00     0.049 A 
ATOM     59  H   UNL A   1      44.198  28.948  29.947  1.00  0.00     0.167 HD
ATOM     60  C   UNL A   1      45.778  26.609  29.623  1.00  0.00     0.074 A 
ATOM     61  C   UNL A   1      46.180  25.259  29.284  1.00  0.00     0.031 C 
ATOM     62  C   UNL A   1      46.612  27.542  30.143  1.00  0.00     0.031 A 
BRANCH  49  63
ATOM     63  C   UNL A   1      43.984  33.041  31.149  1.00  0.00    -0.014 A 
ATOM     64  C   UNL A   1      44.448  34.022  30.254  1.00  0.00     0.010 A 
ATOM     65  C   UNL A   1      43.619  33.421  32.453  1.00  0.00     0.010 A 
ATOM     66  C   UNL A   1      44.568  35.352  30.662  1.00  0.00     0.020 A 
ATOM     67  C   UNL A   1      43.711  34.757  32.857  1.00  0.00     0.020 A 
ATOM     68  C   UNL A   1      44.196  35.711  31.962  1.00  0.00     0.054 A 
BRANCH  68  69
ATOM     69  S   UNL A   1      44.311  37.455  32.446  1.00  0.00     0.124 S 
ATOM     70  O   UNL A   1      43.440  37.500  33.618  1.00  0.00    -0.237 OA
ATOM     71  O   UNL A   1      45.736  37.619  32.718  1.00  0.00    -0.237 OA
ATOM     72  O   UNL A   1      43.816  38.174  31.275  1.00  0.00    -0.744 OA
ENDBRANCH  68  69
ENDBRANCH  49  63
BRANCH  50  73
ATOM     73  C   UNL A   1      42.543  23.722  27.788  1.00  0.00    -0.014 A 
ATOM     74  C   UNL A   1      42.261  22.636  28.636  1.00  0.00     0.010 A 
ATOM     75  C   UNL A   1      42.655  23.494  26.403  1.00  0.00     0.010 A 
ATOM     76  C   UNL A   1      42.129  21.344  28.116  1.00  0.00     0.020 A 
ATOM     77  C   UNL A   1      42.494  22.210  25.876  1.00  0.00     0.020 A 
ATOM     78  C   UNL A   1      42.248  21.139  26.739  1.00  0.00     0.054 A 
BRANCH  78  79
ATOM     79  S   UNL A   1      42.045  19.460  26.080  1.00  0.00     0.124 S 
ATOM     80  O   UNL A   1      42.906  19.492  24.902  1.00  0.00    -0.237 OA
ATOM     81  O   UNL A   1      42.513  18.628  27.186  1.00  0.00    -0.237 OA
ATOM     82  O   UNL A   1      40.613  19.372  25.809  1.00  0.00    -0.744 OA
ENDBRANCH  78  79
ENDBRANCH  50  73
BRANCH  62  83
ATOM     83  C   UNL A   1      48.031  27.127  30.418  1.00  0.00    -0.014 A 
ATOM     84  C   UNL A   1      49.075  27.481  29.548  1.00  0.00     0.010 A 
ATOM     85  C   UNL A   1      48.328  26.425  31.601  1.00  0.00     0.010 A 
ATOM     86  C   UNL A   1      50.391  27.114  29.840  1.00  0.00     0.020 A 
ATOM     87  C   UNL A   1      49.646  26.081  31.912  1.00  0.00     0.020 A 
ATOM     88  C   UNL A   1      50.667  26.417  31.021  1.00  0.00     0.054 A 
BRANCH  88  89
ATOM     89  S   UNL A   1      52.389  25.994  31.403  1.00  0.00     0.124 S 
ATOM     90  O   UNL A   1      52.762  27.055  32.334  1.00  0.00    -0.237 OA
ATOM     91  O   UNL A   1      52.268  24.660  31.986  1.00  0.00    -0.237 OA
ATOM     92  O   UNL A   1      53.054  26.042  30.103  1.00  0.00    -0.744 OA
ENDBRANCH  88  89
ENDBRANCH  62  83
ENDBRANCH  36  37
ENDBRANCH  28  31
ENDBRANCH  26  27
ENDBRANCH   1  26
TORSDOF 16
ENDMDL
MODEL 2
REMARK VINA RESULT:     -11.1      2.403      3.097
REMARK SMILES C[C@@H]1CN(C(=O)NC[C@@H]2CC[C@H](C(=O)NCCCNC(=O)c3ccc(-c4c5nc(c(-c6ccc(S(=O)(=O)[O-])cc6)c6ccc([nH]6)c(-c6ccc(S(=O)(=O)[O-])cc6)c6nc(c(-c7ccc(S(=O)(=O)[O-])cc7)c7ccc4[nH]7)C=C6)C=C5)cc3)O2)CC(C)(C)O1
REMARK SMILES IDX 17 1 16 2 15 3 13 4 14 5 12 7 9 8 10 9 82 10 11 11 8 12 7 13
REMARK SMILES IDX 5 14 6 15 4 17 1 18 2 19 3 20 87 21 84 22 83 23 85 24 86 25
REMARK SMILES IDX 18 26 19 27 20 28 21 30 22 31 23 32 81 33 24 34 80 35 25 36
REMARK SMILES IDX 26 37 27 38 74 39 28 40 79 41 73 42 75 43 29 44 78 45 72 46
REMARK SMILES IDX 71 47 30 49 60 50 41 51 59 52 42 53 45 54 58 55 76 56 43 57
REMARK SMILES IDX 44 58 57 60 77 61 46 62 31 63 32 64 40 65 33 66 39 67 34 68
REMARK SMILES IDX 35 69 36 70 37 71 38 72 61 73 62 74 70 75 63 76 69 77 64 78
REMARK SMILES IDX 65 79 66 80 67 81 68 82 47 83 48 84 56 85 49 86 55 87 50 88
REMARK SMILES IDX 51 89 52 90 53 91 54 92
REMARK H PARENT 15 6 7 16 19 29 75 48 45 59
REMARK Flexibility Score: inf
ROOT
ATOM      1  C   UNL A   1      33.997  31.238  27.540  1.00  0.00     0.042 C 
ENDROOT
BRANCH   1   2
ATOM      2  C   UNL A   1      33.096  30.210  26.890  1.00  0.00     0.117 C 
BRANCH   2   3
ATOM      3  N   UNL A   1      33.550  29.753  25.599  1.00  0.00    -0.354 N 
ATOM      4  C   UNL A   1      32.819  29.195  24.587  1.00  0.00     0.249 C 
ATOM      5  O   UNL A   1      33.394  28.984  23.515  1.00  0.00    -0.272 OA
ATOM      6  H   UNL A   1      34.514  29.856  25.424  1.00  0.00     0.163 HD
BRANCH   4   7
ATOM      7  C   UNL A   1      31.335  28.793  24.780  1.00  0.00     0.207 C 
ATOM      8  C   UNL A   1      30.087  26.818  24.472  1.00  0.00     0.138 C 
ATOM      9  C   UNL A   1      29.925  27.636  23.196  1.00  0.00     0.037 C 
ATOM     10  O   UNL A   1      31.139  27.457  25.228  1.00  0.00    -0.363 OA
ATOM     11  C   UNL A   1      30.478  29.003  23.543  1.00  0.00     0.045 C 
BRANCH   8  12
ATOM     12  C   UNL A   1      30.451  25.329  24.230  1.00  0.00     0.149 C 
BRANCH  12  13
ATOM     13  N   UNL A   1      30.287  24.552  25.457  1.00  0.00    -0.335 N 
ATOM     14  C   UNL A   1      30.885  23.670  26.245  1.00  0.00     0.317 C 
ATOM     15  O   UNL A   1      30.294  23.464  27.311  1.00  0.00    -0.249 OA
ATOM     16  H   UNL A   1      29.404  24.761  25.840  1.00  0.00     0.165 HD
BRANCH  14  17
ATOM     17  N   UNL A   1      32.032  23.032  25.936  1.00  0.00    -0.319 N 
ATOM     18  C   UNL A   1      32.205  22.665  22.852  1.00  0.00     0.040 C 
ATOM     19  C   UNL A   1      33.037  22.019  23.957  1.00  0.00     0.135 C 
ATOM     20  C   UNL A   1      32.242  21.774  25.245  1.00  0.00     0.153 C 
ATOM     21  O   UNL A   1      34.263  22.731  24.211  1.00  0.00    -0.369 OA
ATOM     22  C   UNL A   1      34.188  23.894  25.068  1.00  0.00     0.081 C 
ATOM     23  C   UNL A   1      33.295  23.665  26.310  1.00  0.00     0.156 C 
ATOM     24  C   UNL A   1      33.746  25.132  24.277  1.00  0.00     0.044 C 
ATOM     25  C   UNL A   1      35.626  24.129  25.556  1.00  0.00     0.044 C 
ENDBRANCH  14  17
ENDBRANCH  12  13
ENDBRANCH   8  12
ENDBRANCH   4   7
ENDBRANCH   2   3
ENDBRANCH   1   2
BRANCH   1  26
ATOM     26  C   UNL A   1      35.163  30.612  28.277  1.00  0.00     0.118 C 
BRANCH  26  27
ATOM     27  N   UNL A   1      35.275  31.072  29.660  1.00  0.00    -0.352 N 
ATOM     28  C   UNL A   1      36.303  30.929  30.562  1.00  0.00     0.251 C 
ATOM     29  H   UNL A   1      34.492  31.564  29.998  1.00  0.00     0.163 HD
ATOM     30  O   UNL A   1      36.142  31.275  31.730  1.00  0.00    -0.269 OA
BRANCH  28  31
ATOM     31  C   UNL A   1      37.582  30.322  30.140  1.00  0.00     0.039 A 
ATOM     32  C   UNL A   1      37.972  30.412  28.802  1.00  0.00     0.014 A 
ATOM     33  C   UNL A   1      38.412  29.691  31.067  1.00  0.00     0.014 A 
ATOM     34  C   UNL A   1      39.232  29.950  28.417  1.00  0.00     0.010 A 
ATOM     35  C   UNL A   1      39.708  29.346  30.710  1.00  0.00     0.010 A 
ATOM     36  C   UNL A   1      40.130  29.461  29.379  1.00  0.00    -0.014 A 
BRANCH  36  37
ATOM     37  C   UNL A   1      41.510  29.044  29.025  1.00  0.00     0.031 A 
ATOM     38  C   UNL A   1      42.617  30.066  29.015  1.00  0.00     0.074 A 
ATOM     39  C   UNL A   1      41.745  27.778  28.624  1.00  0.00     0.049 A 
ATOM     40  N   UNL A   1      43.857  29.933  28.624  1.00  0.00    -0.248 NA
ATOM     41  C   UNL A   1      42.276  31.427  29.466  1.00  0.00     0.031 C 
ATOM     42  C   UNL A   1      40.741  26.713  28.532  1.00  0.00     0.029 A 
ATOM     43  N   UNL A   1      42.904  27.173  28.206  1.00  0.00    -0.354 N 
ATOM     44  C   UNL A   1      44.428  31.194  28.747  1.00  0.00     0.074 A 
ATOM     45  C   UNL A   1      43.390  32.090  29.200  1.00  0.00     0.031 C 
ATOM     46  C   UNL A   1      41.333  25.583  28.112  1.00  0.00     0.029 A 
ATOM     47  C   UNL A   1      42.745  25.850  27.862  1.00  0.00     0.049 A 
ATOM     48  H   UNL A   1      43.768  27.642  28.156  1.00  0.00     0.167 HD
ATOM     49  C   UNL A   1      45.710  31.567  28.526  1.00  0.00     0.031 A 
ATOM     50  C   UNL A   1      43.636  24.956  27.392  1.00  0.00     0.031 A 
ATOM     51  C   UNL A   1      46.750  30.659  28.123  1.00  0.00     0.049 A 
ATOM     52  C   UNL A   1      45.063  25.389  27.191  1.00  0.00     0.074 A 
ATOM     53  C   UNL A   1      48.098  30.919  27.954  1.00  0.00     0.029 A 
ATOM     54  N   UNL A   1      46.557  29.317  27.836  1.00  0.00    -0.354 N 
ATOM     55  N   UNL A   1      45.600  26.569  27.386  1.00  0.00    -0.248 NA
ATOM     56  C   UNL A   1      46.008  24.366  26.720  1.00  0.00     0.031 C 
ATOM     57  C   UNL A   1      48.715  29.741  27.521  1.00  0.00     0.029 A 
ATOM     58  C   UNL A   1      47.760  28.738  27.473  1.00  0.00     0.049 A 
ATOM     59  H   UNL A   1      45.694  28.846  27.883  1.00  0.00     0.167 HD
ATOM     60  C   UNL A   1      46.951  26.425  27.089  1.00  0.00     0.074 A 
ATOM     61  C   UNL A   1      47.150  25.039  26.717  1.00  0.00     0.031 C 
ATOM     62  C   UNL A   1      47.937  27.353  27.118  1.00  0.00     0.031 A 
BRANCH  49  63
ATOM     63  C   UNL A   1      46.067  33.016  28.729  1.00  0.00    -0.014 A 
ATOM     64  C   UNL A   1      45.959  33.944  27.678  1.00  0.00     0.010 A 
ATOM     65  C   UNL A   1      46.458  33.466  30.003  1.00  0.00     0.010 A 
ATOM     66  C   UNL A   1      46.262  35.291  27.890  1.00  0.00     0.020 A 
ATOM     67  C   UNL A   1      46.734  34.818  30.226  1.00  0.00     0.020 A 
ATOM     68  C   UNL A   1      46.645  35.720  29.165  1.00  0.00     0.054 A 
BRANCH  68  69
ATOM     69  S   UNL A   1      46.978  37.484  29.423  1.00  0.00     0.124 S 
ATOM     70  O   UNL A   1      45.659  38.074  29.202  1.00  0.00    -0.237 OA
ATOM     71  O   UNL A   1      47.458  37.522  30.801  1.00  0.00    -0.237 OA
ATOM     72  O   UNL A   1      47.979  37.801  28.408  1.00  0.00    -0.744 OA
ENDBRANCH  68  69
ENDBRANCH  49  63
BRANCH  50  73
ATOM     73  C   UNL A   1      43.211  23.563  27.083  1.00  0.00    -0.014 A 
ATOM     74  C   UNL A   1      42.990  22.636  28.117  1.00  0.00     0.010 A 
ATOM     75  C   UNL A   1      43.034  23.151  25.749  1.00  0.00     0.010 A 
ATOM     76  C   UNL A   1      42.633  21.316  27.823  1.00  0.00     0.020 A 
ATOM     77  C   UNL A   1      42.648  21.841  25.452  1.00  0.00     0.020 A 
ATOM     78  C   UNL A   1      42.467  20.926  26.491  1.00  0.00     0.054 A 
BRANCH  78  79
ATOM     79  S   UNL A   1      41.976  19.216  26.131  1.00  0.00     0.124 S 
ATOM     80  O   UNL A   1      40.538  19.352  25.926  1.00  0.00    -0.237 OA
ATOM     81  O   UNL A   1      42.760  18.907  24.937  1.00  0.00    -0.237 OA
ATOM     82  O   UNL A   1      42.375  18.488  27.332  1.00  0.00    -0.744 OA
ENDBRANCH  78  79
ENDBRANCH  50  73
BRANCH  62  83
ATOM     83  C   UNL A   1      49.329  26.896  26.779  1.00  0.00    -0.014 A 
ATOM     84  C   UNL A   1      50.181  26.366  27.762  1.00  0.00     0.010 A 
ATOM     85  C   UNL A   1      49.764  26.942  25.442  1.00  0.00     0.010 A 
ATOM     86  C   UNL A   1      51.458  25.916  27.419  1.00  0.00     0.020 A 
ATOM     87  C   UNL A   1      51.029  26.466  25.089  1.00  0.00     0.020 A 
ATOM     88  C   UNL A   1      51.873  25.968  26.085  1.00  0.00     0.054 A 
BRANCH  88  89
ATOM     89  S   UNL A   1      53.517  25.334  25.656  1.00  0.00     0.124 S 
ATOM     90  O   UNL A   1      53.240  23.922  25.402  1.00  0.00    -0.237 OA
ATOM     91  O   UNL A   1      53.869  26.126  24.480  1.00  0.00    -0.237 OA
ATOM     92  O   UNL A   1      54.317  25.609  26.847  1.00  0.00    -0.744 OA
ENDBRANCH  88  89
ENDBRANCH  62  83
ENDBRANCH  36  37
ENDBRANCH  28  31
ENDBRANCH  26  27
ENDBRANCH   1  26
TORSDOF 16
ENDMDL
MODEL 3
REMARK VINA RESULT:     -11.0      3.320      6.445
REMARK SMILES C[C@@H]1CN(C(=O)NC[C@@H]2CC[C@H](C(=O)NCCCNC(=O)c3ccc(-c4c5nc(c(-c6ccc(S(=O)(=O)[O-])cc6)c6ccc([nH]6)c(-c6ccc(S(=O)(=O)[O-])cc6)c6nc(c(-c7ccc(S(=O)(=O)[O-])cc7)c7ccc4[nH]7)C=C6)C=C5)cc3)O2)CC(C)(C)O1
REMARK SMILES IDX 17 1 16 2 15 3 13 4 14 5 12 7 9 8 10 9 82 10 11 11 8 12 7 13
REMARK SMILES IDX 5 14 6 15 4 17 1 18 2 19 3 20 87 21 84 22 83 23 85 24 86 25
REMARK SMILES IDX 18 26 19 27 20 28 21 30 22 31 23 32 81 33 24 34 80 35 25 36
REMARK SMILES IDX 26 37 27 38 74 39 28 40 79 41 73 42 75 43 29 44 78 45 72 46
REMARK SMILES IDX 71 47 30 49 60 50 41 51 59 52 42 53 45 54 58 55 76 56 43 57
REMARK SMILES IDX 44 58 57 60 77 61 46 62 31 63 32 64 40 65 33 66 39 67 34 68
REMARK SMILES IDX 35 69 36 70 37 71 38 72 61 73 62 74 70 75 63 76 69 77 64 78
REMARK SMILES IDX 65 79 66 80 67 81 68 82 47 83 48 84 56 85 49 86 55 87 50 88
REMARK SMILES IDX 51 89 52 90 53 91 54 92
REMARK H PARENT 15 6 7 16 19 29 75 48 45 59
REMARK Flexibility Score: inf
ROOT
ATOM      1  C   UNL A   1      35.253  33.206  27.850  1.00  0.00     0.042 C 
ENDROOT
BRANCH   1   2
ATOM      2  C   UNL A   1      35.155  34.683  28.164  1.00  0.00     0.117 C 
BRANCH   2   3
ATOM      3  N   UNL A   1      33.807  35.199  28.179  1.00  0.00    -0.354 N 
ATOM      4  C   UNL A   1      33.186  35.933  29.151  1.00  0.00     0.249 C 
ATOM      5  O   UNL A   1      32.060  36.374  28.904  1.00  0.00    -0.272 OA
ATOM      6  H   UNL A   1      33.263  34.995  27.383  1.00  0.00     0.163 HD
BRANCH   4   7
ATOM      7  C   UNL A   1      33.842  36.170  30.535  1.00  0.00     0.207 C 
ATOM      8  C   UNL A   1      33.962  34.962  32.555  1.00  0.00     0.138 C 
ATOM      9  C   UNL A   1      32.794  35.931  32.699  1.00  0.00     0.037 C 
ATOM     10  O   UNL A   1      34.342  34.995  31.162  1.00  0.00    -0.363 OA
ATOM     11  C   UNL A   1      32.936  36.880  31.528  1.00  0.00     0.045 C 
BRANCH   8  12
ATOM     12  C   UNL A   1      33.633  33.503  32.969  1.00  0.00     0.149 C 
BRANCH  12  13
ATOM     13  N   UNL A   1      34.780  32.629  32.736  1.00  0.00    -0.335 N 
ATOM     14  C   UNL A   1      36.060  32.452  33.033  1.00  0.00     0.317 C 
ATOM     15  O   UNL A   1      36.523  31.373  32.646  1.00  0.00    -0.249 OA
ATOM     16  H   UNL A   1      34.498  31.901  32.136  1.00  0.00     0.165 HD
BRANCH  14  17
ATOM     17  N   UNL A   1      36.817  33.353  33.691  1.00  0.00    -0.319 N 
ATOM     18  C   UNL A   1      37.920  32.061  36.297  1.00  0.00     0.040 C 
ATOM     19  C   UNL A   1      37.900  33.527  35.871  1.00  0.00     0.135 C 
ATOM     20  C   UNL A   1      36.672  33.893  35.030  1.00  0.00     0.153 C 
ATOM     21  O   UNL A   1      39.126  33.932  35.233  1.00  0.00    -0.369 OA
ATOM     22  C   UNL A   1      39.278  33.616  33.829  1.00  0.00     0.081 C 
ATOM     23  C   UNL A   1      37.994  33.891  33.013  1.00  0.00     0.156 C 
ATOM     24  C   UNL A   1      39.769  32.175  33.640  1.00  0.00     0.044 C 
ATOM     25  C   UNL A   1      40.376  34.564  33.320  1.00  0.00     0.044 C 
ENDBRANCH  14  17
ENDBRANCH  12  13
ENDBRANCH   8  12
ENDBRANCH   4   7
ENDBRANCH   2   3
ENDBRANCH   1   2
BRANCH   1  26
ATOM     26  C   UNL A   1      34.469  32.348  28.822  1.00  0.00     0.118 C 
BRANCH  26  27
ATOM     27  N   UNL A   1      33.982  31.108  28.221  1.00  0.00    -0.352 N 
ATOM     28  C   UNL A   1      34.654  29.949  27.909  1.00  0.00     0.251 C 
ATOM     29  H   UNL A   1      33.021  31.100  28.007  1.00  0.00     0.163 HD
ATOM     30  O   UNL A   1      34.083  29.063  27.278  1.00  0.00    -0.269 OA
BRANCH  28  31
ATOM     31  C   UNL A   1      36.071  29.786  28.294  1.00  0.00     0.039 A 
ATOM     32  C   UNL A   1      36.382  29.307  29.568  1.00  0.00     0.014 A 
ATOM     33  C   UNL A   1      37.093  30.076  27.389  1.00  0.00     0.014 A 
ATOM     34  C   UNL A   1      37.711  29.035  29.898  1.00  0.00     0.010 A 
ATOM     35  C   UNL A   1      38.395  29.689  27.673  1.00  0.00     0.010 A 
ATOM     36  C   UNL A   1      38.722  29.174  28.935  1.00  0.00    -0.014 A 
BRANCH  36  37
ATOM     37  C   UNL A   1      40.133  28.810  29.218  1.00  0.00     0.031 A 
ATOM     38  C   UNL A   1      41.056  29.832  29.832  1.00  0.00     0.074 A 
ATOM     39  C   UNL A   1      40.603  27.605  28.840  1.00  0.00     0.049 A 
ATOM     40  N   UNL A   1      42.343  29.754  30.048  1.00  0.00    -0.248 NA
ATOM     41  C   UNL A   1      40.462  31.125  30.216  1.00  0.00     0.031 C 
ATOM     42  C   UNL A   1      39.822  26.554  28.180  1.00  0.00     0.029 A 
ATOM     43  N   UNL A   1      41.860  27.062  28.944  1.00  0.00    -0.354 N 
ATOM     44  C   UNL A   1      42.714  30.993  30.555  1.00  0.00     0.074 A 
ATOM     45  C   UNL A   1      41.531  31.822  30.569  1.00  0.00     0.031 C 
ATOM     46  C   UNL A   1      40.609  25.487  27.964  1.00  0.00     0.029 A 
ATOM     47  C   UNL A   1      41.959  25.791  28.427  1.00  0.00     0.049 A 
ATOM     48  H   UNL A   1      42.619  27.539  29.351  1.00  0.00     0.167 HD
ATOM     49  C   UNL A   1      43.929  31.398  30.995  1.00  0.00     0.031 A 
ATOM     50  C   UNL A   1      43.019  24.966  28.330  1.00  0.00     0.031 A 
ATOM     51  C   UNL A   1      45.091  30.552  31.025  1.00  0.00     0.049 A 
ATOM     52  C   UNL A   1      44.350  25.428  28.861  1.00  0.00     0.074 A 
ATOM     53  C   UNL A   1      46.347  30.837  31.529  1.00  0.00     0.029 A 
ATOM     54  N   UNL A   1      45.135  29.255  30.540  1.00  0.00    -0.354 N 
ATOM     55  N   UNL A   1      44.663  26.578  29.408  1.00  0.00    -0.248 NA
ATOM     56  C   UNL A   1      45.466  24.476  28.776  1.00  0.00     0.031 C 
ATOM     57  C   UNL A   1      47.166  29.725  31.308  1.00  0.00     0.029 A 
ATOM     58  C   UNL A   1      46.403  28.731  30.717  1.00  0.00     0.049 A 
ATOM     59  H   UNL A   1      44.377  28.777  30.131  1.00  0.00     0.167 HD
ATOM     60  C   UNL A   1      46.005  26.478  29.757  1.00  0.00     0.074 A 
ATOM     61  C   UNL A   1      46.438  25.150  29.374  1.00  0.00     0.031 C 
ATOM     62  C   UNL A   1      46.808  27.401  30.338  1.00  0.00     0.031 A 
BRANCH  49  63
ATOM     63  C   UNL A   1      44.063  32.812  31.493  1.00  0.00    -0.014 A 
ATOM     64  C   UNL A   1      44.263  33.881  30.601  1.00  0.00     0.010 A 
ATOM     65  C   UNL A   1      43.926  33.084  32.867  1.00  0.00     0.010 A 
ATOM     66  C   UNL A   1      44.351  35.191  31.075  1.00  0.00     0.020 A 
ATOM     67  C   UNL A   1      43.986  34.397  33.342  1.00  0.00     0.020 A 
ATOM     68  C   UNL A   1      44.210  35.442  32.444  1.00  0.00     0.054 A 
BRANCH  68  69
ATOM     69  S   UNL A   1      44.274  37.159  33.023  1.00  0.00     0.124 S 
ATOM     70  O   UNL A   1      45.240  37.072  34.115  1.00  0.00    -0.237 OA
ATOM     71  O   UNL A   1      44.730  37.880  31.838  1.00  0.00    -0.237 OA
ATOM     72  O   UNL A   1      42.900  37.440  33.430  1.00  0.00    -0.744 OA
ENDBRANCH  68  69
ENDBRANCH  49  63
BRANCH  50  73
ATOM     73  C   UNL A   1      42.870  23.619  27.714  1.00  0.00    -0.014 A 
ATOM     74  C   UNL A   1      42.437  22.524  28.481  1.00  0.00     0.010 A 
ATOM     75  C   UNL A   1      43.171  23.422  26.353  1.00  0.00     0.010 A 
ATOM     76  C   UNL A   1      42.340  21.251  27.910  1.00  0.00     0.020 A 
ATOM     77  C   UNL A   1      43.046  22.157  25.771  1.00  0.00     0.020 A 
ATOM     78  C   UNL A   1      42.648  21.075  26.558  1.00  0.00     0.054 A 
BRANCH  78  79
ATOM     79  S   UNL A   1      42.488  19.421  25.828  1.00  0.00     0.124 S 
ATOM     80  O   UNL A   1      41.077  19.390  25.456  1.00  0.00    -0.237 OA
ATOM     81  O   UNL A   1      43.437  19.473  24.718  1.00  0.00    -0.237 OA
ATOM     82  O   UNL A   1      42.869  18.530  26.920  1.00  0.00    -0.744 OA
ENDBRANCH  78  79
ENDBRANCH  50  73
BRANCH  62  83
ATOM     83  C   UNL A   1      48.226  26.997  30.636  1.00  0.00    -0.014 A 
ATOM     84  C   UNL A   1      49.258  27.224  29.711  1.00  0.00     0.010 A 
ATOM     85  C   UNL A   1      48.535  26.439  31.890  1.00  0.00     0.010 A 
ATOM     86  C   UNL A   1      50.573  26.872  30.022  1.00  0.00     0.020 A 
ATOM     87  C   UNL A   1      49.853  26.112  32.217  1.00  0.00     0.020 A 
ATOM     88  C   UNL A   1      50.862  26.319  31.274  1.00  0.00     0.054 A 
BRANCH  88  89
ATOM     89  S   UNL A   1      52.584  25.914  31.673  1.00  0.00     0.124 S 
ATOM     90  O   UNL A   1      52.898  26.905  32.700  1.00  0.00    -0.237 OA
ATOM     91  O   UNL A   1      52.488  24.534  32.142  1.00  0.00    -0.237 OA
ATOM     92  O   UNL A   1      53.285  26.087  30.404  1.00  0.00    -0.744 OA
ENDBRANCH  88  89
ENDBRANCH  62  83
ENDBRANCH  36  37
ENDBRANCH  28  31
ENDBRANCH  26  27
ENDBRANCH   1  26
TORSDOF 16
ENDMDL
