MODEL 1
REMARK VINA RESULT:     -12.4      0.000      0.000
REMARK SMILES O=C(Cc1c(C(=O)c2cc3c(cn2)CCCC3)[nH]c2cc(Cl)ccc12)NCCCNC(=O)c1ccc(-c2c3nc(c(-c4ccc(S(=O)(=O)[O-])cc4)c4ccc([nH]4)c(-c4ccc(S(=O)(=O)[O-])cc4)c4nc(c(-c5ccc(S(=O)(=O)[O-])cc5)c5ccc2[nH]5)C=C4)C=C3)cc1
REMARK SMILES IDX 28 1 27 2 26 3 1 4 2 5 3 7 4 8 5 9 25 10 18 11 19 12 24 13
REMARK SMILES IDX 20 15 23 16 21 17 22 18 6 19 7 20 8 21 9 22 13 23 10 24
REMARK SMILES IDX 12 25 11 26 17 27 14 28 16 29 15 30 29 31 30 32 31 33 32 35
REMARK SMILES IDX 33 36 34 37 92 38 35 39 91 40 36 41 37 42 38 43 85 44 39 45
REMARK SMILES IDX 90 46 84 47 86 48 40 49 89 50 83 51 82 52 41 54 71 55 52 56
REMARK SMILES IDX 70 57 53 58 56 59 69 60 87 61 54 62 55 63 68 65 88 66 57 67
REMARK SMILES IDX 42 68 43 69 51 70 44 71 50 72 45 73 46 74 47 75 48 76 49 77
REMARK SMILES IDX 72 78 73 79 81 80 74 81 80 82 75 83 76 84 77 85 78 86 79 87
REMARK SMILES IDX 58 88 59 89 67 90 60 91 66 92 61 93 62 94 63 95 64 96 65 97
REMARK H PARENT 26 6 18 14 30 34 86 53 56 64
REMARK Flexibility Score: inf
ROOT
ATOM      1  C   UNL A   1      31.824  28.490  26.783  1.00  0.00     0.042 C 
ENDROOT
BRANCH   1   2
ATOM      2  C   UNL A   1      31.374  27.181  27.407  1.00  0.00     0.117 C 
BRANCH   2   3
ATOM      3  N   UNL A   1      31.638  26.019  26.584  1.00  0.00    -0.356 N 
ATOM      4  O   UNL A   1      29.479  25.257  26.556  1.00  0.00    -0.275 OA
ATOM      5  C   UNL A   1      30.609  25.260  26.068  1.00  0.00     0.224 C 
ATOM      6  H   UNL A   1      32.570  25.766  26.390  1.00  0.00     0.163 HD
BRANCH   5   7
ATOM      7  C   UNL A   1      30.965  24.350  24.902  1.00  0.00     0.138 C 
BRANCH   7   8
ATOM      8  C   UNL A   1      32.365  24.448  24.337  1.00  0.00    -0.002 A 
ATOM      9  C   UNL A   1      32.842  25.191  23.253  1.00  0.00     0.093 A 
ATOM     10  C   UNL A   1      33.460  23.621  24.772  1.00  0.00     0.004 A 
ATOM     11  N   UNL A   1      34.215  25.048  23.252  1.00  0.00    -0.351 N 
ATOM     12  C   UNL A   1      34.590  24.000  24.053  1.00  0.00     0.048 A 
ATOM     13  C   UNL A   1      33.578  22.550  25.684  1.00  0.00     0.012 A 
ATOM     14  H   UNL A   1      34.837  25.620  22.746  1.00  0.00     0.167 HD
ATOM     15  C   UNL A   1      35.830  23.363  24.181  1.00  0.00     0.047 A 
ATOM     16  C   UNL A   1      34.801  21.878  25.807  1.00  0.00     0.021 A 
ATOM     17  C   UNL A   1      35.904  22.281  25.060  1.00  0.00     0.043 A 
ATOM     18  Cl  UNL A   1      37.388  21.415  25.202  1.00  0.00    -0.084 Cl
BRANCH   9  19
ATOM     19  C   UNL A   1      32.108  25.941  22.246  1.00  0.00     0.227 C 
ATOM     20  O   UNL A   1      32.076  25.640  21.056  1.00  0.00    -0.285 OA
BRANCH  19  21
ATOM     21  C   UNL A   1      31.481  27.222  22.640  1.00  0.00     0.113 A 
ATOM     22  C   UNL A   1      30.103  27.334  22.524  1.00  0.00     0.036 A 
ATOM     23  N   UNL A   1      32.302  28.213  23.065  1.00  0.00    -0.252 NA
ATOM     24  C   UNL A   1      29.504  28.533  22.906  1.00  0.00    -0.041 A 
ATOM     25  C   UNL A   1      31.691  29.348  23.473  1.00  0.00     0.115 A 
ATOM     26  C   UNL A   1      30.313  29.564  23.408  1.00  0.00    -0.026 A 
ATOM     27  C   UNL A   1      28.021  28.711  22.715  1.00  0.00     0.036 C 
ATOM     28  C   UNL A   1      29.718  30.836  23.954  1.00  0.00     0.037 C 
ATOM     29  C   UNL A   1      27.443  29.833  23.571  1.00  0.00     0.005 C 
ATOM     30  C   UNL A   1      28.295  31.093  23.455  1.00  0.00     0.005 C 
ENDBRANCH  19  21
ENDBRANCH   9  19
ENDBRANCH   7   8
ENDBRANCH   5   7
ENDBRANCH   2   3
ENDBRANCH   1   2
BRANCH   1  31
ATOM     31  C   UNL A   1      33.219  28.941  27.194  1.00  0.00     0.118 C 
BRANCH  31  32
ATOM     32  N   UNL A   1      33.304  30.342  27.591  1.00  0.00    -0.352 N 
ATOM     33  C   UNL A   1      34.358  31.045  28.134  1.00  0.00     0.251 C 
ATOM     34  H   UNL A   1      32.482  30.866  27.450  1.00  0.00     0.163 HD
ATOM     35  O   UNL A   1      34.202  32.215  28.464  1.00  0.00    -0.269 OA
BRANCH  33  36
ATOM     36  C   UNL A   1      35.661  30.374  28.366  1.00  0.00     0.039 A 
ATOM     37  C   UNL A   1      35.937  29.725  29.569  1.00  0.00     0.014 A 
ATOM     38  C   UNL A   1      36.636  30.425  27.365  1.00  0.00     0.014 A 
ATOM     39  C   UNL A   1      37.236  29.306  29.846  1.00  0.00     0.010 A 
ATOM     40  C   UNL A   1      37.918  29.921  27.611  1.00  0.00     0.010 A 
ATOM     41  C   UNL A   1      38.247  29.411  28.876  1.00  0.00    -0.014 A 
BRANCH  41  42
ATOM     42  C   UNL A   1      39.636  28.999  29.220  1.00  0.00     0.031 A 
ATOM     43  C   UNL A   1      40.497  29.856  30.113  1.00  0.00     0.074 A 
ATOM     44  C   UNL A   1      40.096  27.806  28.791  1.00  0.00     0.049 A 
ATOM     45  N   UNL A   1      41.703  29.615  30.563  1.00  0.00    -0.248 NA
ATOM     46  C   UNL A   1      39.941  31.143  30.559  1.00  0.00     0.031 C 
ATOM     47  C   UNL A   1      39.352  26.877  27.940  1.00  0.00     0.029 A 
ATOM     48  N   UNL A   1      41.276  27.153  29.044  1.00  0.00    -0.354 N 
ATOM     49  C   UNL A   1      42.052  30.720  31.332  1.00  0.00     0.074 A 
ATOM     50  C   UNL A   1      40.945  31.648  31.263  1.00  0.00     0.031 C 
ATOM     51  C   UNL A   1      40.059  25.745  27.803  1.00  0.00     0.029 A 
ATOM     52  C   UNL A   1      41.333  25.891  28.502  1.00  0.00     0.049 A 
ATOM     53  H   UNL A   1      42.012  27.550  29.566  1.00  0.00     0.167 HD
ATOM     54  C   UNL A   1      43.185  30.935  32.043  1.00  0.00     0.031 A 
ATOM     55  C   UNL A   1      42.295  24.949  28.555  1.00  0.00     0.031 A 
ATOM     56  C   UNL A   1      44.278  30.003  32.128  1.00  0.00     0.049 A 
ATOM     57  C   UNL A   1      43.558  25.226  29.315  1.00  0.00     0.074 A 
ATOM     58  C   UNL A   1      45.460  30.134  32.839  1.00  0.00     0.029 A 
ATOM     59  N   UNL A   1      44.327  28.771  31.496  1.00  0.00    -0.354 N 
ATOM     60  N   UNL A   1      43.870  26.282  30.026  1.00  0.00    -0.248 NA
ATOM     61  C   UNL A   1      44.603  24.193  29.276  1.00  0.00     0.031 C 
ATOM     62  C   UNL A   1      46.244  29.004  32.595  1.00  0.00     0.029 A 
ATOM     63  C   UNL A   1      45.528  28.143  31.780  1.00  0.00     0.049 A 
ATOM     64  H   UNL A   1      43.613  28.398  30.930  1.00  0.00     0.167 HD
ATOM     65  C   UNL A   1      45.146  26.042  30.520  1.00  0.00     0.074 A 
ATOM     66  C   UNL A   1      45.541  24.731  30.047  1.00  0.00     0.031 C 
ATOM     67  C   UNL A   1      45.920  26.844  31.291  1.00  0.00     0.031 A 
BRANCH  54  68
ATOM     68  C   UNL A   1      43.317  32.232  32.798  1.00  0.00    -0.014 A 
ATOM     69  C   UNL A   1      42.822  32.328  34.112  1.00  0.00     0.010 A 
ATOM     70  C   UNL A   1      43.827  33.383  32.173  1.00  0.00     0.010 A 
ATOM     71  C   UNL A   1      42.813  33.554  34.780  1.00  0.00     0.020 A 
ATOM     72  C   UNL A   1      43.841  34.609  32.847  1.00  0.00     0.020 A 
ATOM     73  C   UNL A   1      43.314  34.690  34.139  1.00  0.00     0.054 A 
BRANCH  73  74
ATOM     74  S   UNL A   1      43.287  36.279  35.016  1.00  0.00     0.124 S 
ATOM     75  O   UNL A   1      42.892  37.207  33.961  1.00  0.00    -0.237 OA
ATOM     76  O   UNL A   1      42.292  36.052  36.062  1.00  0.00    -0.237 OA
ATOM     77  O   UNL A   1      44.659  36.425  35.499  1.00  0.00    -0.744 OA
ENDBRANCH  73  74
ENDBRANCH  54  68
BRANCH  55  78
ATOM     78  C   UNL A   1      42.067  23.647  27.870  1.00  0.00    -0.014 A 
ATOM     79  C   UNL A   1      41.395  22.604  28.532  1.00  0.00     0.010 A 
ATOM     80  C   UNL A   1      42.608  23.414  26.594  1.00  0.00     0.010 A 
ATOM     81  C   UNL A   1      41.323  21.332  27.961  1.00  0.00     0.020 A 
ATOM     82  C   UNL A   1      42.514  22.147  26.006  1.00  0.00     0.020 A 
ATOM     83  C   UNL A   1      41.900  21.108  26.708  1.00  0.00     0.054 A 
BRANCH  83  84
ATOM     84  S   UNL A   1      41.852  19.434  26.010  1.00  0.00     0.124 S 
ATOM     85  O   UNL A   1      42.355  18.633  27.123  1.00  0.00    -0.237 OA
ATOM     86  O   UNL A   1      40.437  19.255  25.696  1.00  0.00    -0.237 OA
ATOM     87  O   UNL A   1      42.739  19.523  24.853  1.00  0.00    -0.744 OA
ENDBRANCH  83  84
ENDBRANCH  55  78
BRANCH  67  88
ATOM     88  C   UNL A   1      47.290  26.352  31.673  1.00  0.00    -0.014 A 
ATOM     89  C   UNL A   1      48.344  26.425  30.743  1.00  0.00     0.010 A 
ATOM     90  C   UNL A   1      47.501  25.703  32.901  1.00  0.00     0.010 A 
ATOM     91  C   UNL A   1      49.577  25.828  31.021  1.00  0.00     0.020 A 
ATOM     92  C   UNL A   1      48.740  25.125  33.192  1.00  0.00     0.020 A 
ATOM     93  C   UNL A   1      49.762  25.171  32.241  1.00  0.00     0.054 A 
BRANCH  93  94
ATOM     94  S   UNL A   1      51.356  24.373  32.575  1.00  0.00     0.124 S 
ATOM     95  O   UNL A   1      51.120  23.007  32.117  1.00  0.00    -0.237 OA
ATOM     96  O   UNL A   1      52.287  25.157  31.766  1.00  0.00    -0.237 OA
ATOM     97  O   UNL A   1      51.519  24.529  34.019  1.00  0.00    -0.744 OA
ENDBRANCH  93  94
ENDBRANCH  67  88
ENDBRANCH  41  42
ENDBRANCH  33  36
ENDBRANCH  31  32
ENDBRANCH   1  31
TORSDOF 16
ENDMDL
MODEL 2
REMARK VINA RESULT:     -12.2      3.391      4.690
REMARK SMILES O=C(Cc1c(C(=O)c2cc3c(cn2)CCCC3)[nH]c2cc(Cl)ccc12)NCCCNC(=O)c1ccc(-c2c3nc(c(-c4ccc(S(=O)(=O)[O-])cc4)c4ccc([nH]4)c(-c4ccc(S(=O)(=O)[O-])cc4)c4nc(c(-c5ccc(S(=O)(=O)[O-])cc5)c5ccc2[nH]5)C=C4)C=C3)cc1
REMARK SMILES IDX 28 1 27 2 26 3 1 4 2 5 3 7 4 8 5 9 25 10 18 11 19 12 24 13
REMARK SMILES IDX 20 15 23 16 21 17 22 18 6 19 7 20 8 21 9 22 13 23 10 24
REMARK SMILES IDX 12 25 11 26 17 27 14 28 16 29 15 30 29 31 30 32 31 33 32 35
REMARK SMILES IDX 33 36 34 37 92 38 35 39 91 40 36 41 37 42 38 43 85 44 39 45
REMARK SMILES IDX 90 46 84 47 86 48 40 49 89 50 83 51 82 52 41 54 71 55 52 56
REMARK SMILES IDX 70 57 53 58 56 59 69 60 87 61 54 62 55 63 68 65 88 66 57 67
REMARK SMILES IDX 42 68 43 69 51 70 44 71 50 72 45 73 46 74 47 75 48 76 49 77
REMARK SMILES IDX 72 78 73 79 81 80 74 81 80 82 75 83 76 84 77 85 78 86 79 87
REMARK SMILES IDX 58 88 59 89 67 90 60 91 66 92 61 93 62 94 63 95 64 96 65 97
REMARK H PARENT 26 6 18 14 30 34 86 53 56 64
REMARK Flexibility Score: inf
ROOT
ATOM      1  C   UNL A   1      31.929  30.910  26.930  1.00  0.00     0.042 C 
ENDROOT
BRANCH   1   2
ATOM      2  C   UNL A   1      32.123  30.029  25.709  1.00  0.00     0.117 C 
BRANCH   2   3
ATOM      3  N   UNL A   1      33.244  29.118  25.815  1.00  0.00    -0.356 N 
ATOM      4  O   UNL A   1      32.030  27.347  26.611  1.00  0.00    -0.275 OA
ATOM      5  C   UNL A   1      33.052  27.778  26.079  1.00  0.00     0.224 C 
ATOM      6  H   UNL A   1      34.159  29.463  25.698  1.00  0.00     0.163 HD
BRANCH   5   7
ATOM      7  C   UNL A   1      34.218  26.856  25.752  1.00  0.00     0.138 C 
BRANCH   7   8
ATOM      8  C   UNL A   1      34.003  25.804  24.686  1.00  0.00    -0.002 A 
ATOM      9  C   UNL A   1      33.614  25.948  23.352  1.00  0.00     0.093 A 
ATOM     10  C   UNL A   1      34.028  24.388  24.947  1.00  0.00     0.004 A 
ATOM     11  N   UNL A   1      33.713  24.699  22.774  1.00  0.00    -0.351 N 
ATOM     12  C   UNL A   1      33.813  23.730  23.740  1.00  0.00     0.048 A 
ATOM     13  C   UNL A   1      34.170  23.609  26.116  1.00  0.00     0.012 A 
ATOM     14  H   UNL A   1      33.713  24.529  21.805  1.00  0.00     0.167 HD
ATOM     15  C   UNL A   1      33.717  22.338  23.632  1.00  0.00     0.047 A 
ATOM     16  C   UNL A   1      34.047  22.215  26.037  1.00  0.00     0.021 A 
ATOM     17  C   UNL A   1      33.820  21.597  24.811  1.00  0.00     0.043 A 
ATOM     18  Cl  UNL A   1      33.638  19.884  24.744  1.00  0.00    -0.084 Cl
BRANCH   9  19
ATOM     19  C   UNL A   1      33.129  27.126  22.648  1.00  0.00     0.227 C 
ATOM     20  O   UNL A   1      33.852  27.895  22.020  1.00  0.00    -0.285 OA
BRANCH  19  21
ATOM     21  C   UNL A   1      31.709  27.511  22.815  1.00  0.00     0.113 A 
ATOM     22  C   UNL A   1      31.323  28.770  22.379  1.00  0.00     0.036 A 
ATOM     23  N   UNL A   1      30.886  26.614  23.408  1.00  0.00    -0.252 NA
ATOM     24  C   UNL A   1      29.985  29.135  22.520  1.00  0.00    -0.041 A 
ATOM     25  C   UNL A   1      29.585  26.975  23.491  1.00  0.00     0.115 A 
ATOM     26  C   UNL A   1      29.086  28.211  23.076  1.00  0.00    -0.026 A 
ATOM     27  C   UNL A   1      29.553  30.524  22.130  1.00  0.00     0.036 C 
ATOM     28  C   UNL A   1      27.608  28.493  23.141  1.00  0.00     0.037 C 
ATOM     29  C   UNL A   1      28.050  30.635  21.898  1.00  0.00     0.005 C 
ATOM     30  C   UNL A   1      27.279  29.984  23.041  1.00  0.00     0.005 C 
ENDBRANCH  19  21
ENDBRANCH   9  19
ENDBRANCH   7   8
ENDBRANCH   5   7
ENDBRANCH   2   3
ENDBRANCH   1   2
BRANCH   1  31
ATOM     31  C   UNL A   1      33.076  31.873  27.206  1.00  0.00     0.118 C 
BRANCH  31  32
ATOM     32  N   UNL A   1      32.659  33.254  27.426  1.00  0.00    -0.352 N 
ATOM     33  C   UNL A   1      33.163  34.202  28.290  1.00  0.00     0.251 C 
ATOM     34  H   UNL A   1      31.901  33.554  26.874  1.00  0.00     0.163 HD
ATOM     35  O   UNL A   1      32.621  35.298  28.373  1.00  0.00    -0.269 OA
BRANCH  33  36
ATOM     36  C   UNL A   1      34.327  33.882  29.154  1.00  0.00     0.039 A 
ATOM     37  C   UNL A   1      35.628  34.196  28.763  1.00  0.00     0.014 A 
ATOM     38  C   UNL A   1      34.106  33.224  30.368  1.00  0.00     0.014 A 
ATOM     39  C   UNL A   1      36.707  33.684  29.478  1.00  0.00     0.010 A 
ATOM     40  C   UNL A   1      35.193  32.789  31.135  1.00  0.00     0.010 A 
ATOM     41  C   UNL A   1      36.503  32.962  30.666  1.00  0.00    -0.014 A 
BRANCH  41  42
ATOM     42  C   UNL A   1      37.676  32.387  31.381  1.00  0.00     0.031 A 
ATOM     43  C   UNL A   1      38.088  32.908  32.734  1.00  0.00     0.074 A 
ATOM     44  C   UNL A   1      38.324  31.333  30.845  1.00  0.00     0.049 A 
ATOM     45  N   UNL A   1      39.044  32.479  33.521  1.00  0.00    -0.248 NA
ATOM     46  C   UNL A   1      37.340  34.053  33.276  1.00  0.00     0.031 C 
ATOM     47  C   UNL A   1      38.008  30.722  29.553  1.00  0.00     0.029 A 
ATOM     48  N   UNL A   1      39.351  30.564  31.333  1.00  0.00    -0.354 N 
ATOM     49  C   UNL A   1      39.017  33.304  34.640  1.00  0.00     0.074 A 
ATOM     50  C   UNL A   1      37.975  34.282  34.419  1.00  0.00     0.031 C 
ATOM     51  C   UNL A   1      38.770  29.631  29.385  1.00  0.00     0.029 A 
ATOM     52  C   UNL A   1      39.673  29.499  30.524  1.00  0.00     0.049 A 
ATOM     53  H   UNL A   1      39.812  30.755  32.182  1.00  0.00     0.167 HD
ATOM     54  C   UNL A   1      39.782  33.245  35.756  1.00  0.00     0.031 A 
ATOM     55  C   UNL A   1      40.589  28.522  30.673  1.00  0.00     0.031 A 
ATOM     56  C   UNL A   1      40.807  32.260  35.986  1.00  0.00     0.049 A 
ATOM     57  C   UNL A   1      41.452  28.500  31.900  1.00  0.00     0.074 A 
ATOM     58  C   UNL A   1      41.621  32.117  37.097  1.00  0.00     0.029 A 
ATOM     59  N   UNL A   1      41.154  31.250  35.103  1.00  0.00    -0.354 N 
ATOM     60  N   UNL A   1      41.417  29.297  32.940  1.00  0.00    -0.248 NA
ATOM     61  C   UNL A   1      42.484  27.456  31.973  1.00  0.00     0.031 C 
ATOM     62  C   UNL A   1      42.495  31.052  36.864  1.00  0.00     0.029 A 
ATOM     63  C   UNL A   1      42.187  30.495  35.633  1.00  0.00     0.049 A 
ATOM     64  H   UNL A   1      40.729  31.093  34.229  1.00  0.00     0.167 HD
ATOM     65  C   UNL A   1      42.419  28.852  33.792  1.00  0.00     0.074 A 
ATOM     66  C   UNL A   1      43.030  27.702  33.158  1.00  0.00     0.031 C 
ATOM     67  C   UNL A   1      42.800  29.360  34.989  1.00  0.00     0.031 A 
BRANCH  54  68
ATOM     68  C   UNL A   1      39.552  34.271  36.834  1.00  0.00    -0.014 A 
ATOM     69  C   UNL A   1      40.116  35.555  36.708  1.00  0.00     0.010 A 
ATOM     70  C   UNL A   1      38.874  33.935  38.019  1.00  0.00     0.010 A 
ATOM     71  C   UNL A   1      40.028  36.475  37.755  1.00  0.00     0.020 A 
ATOM     72  C   UNL A   1      38.764  34.863  39.061  1.00  0.00     0.020 A 
ATOM     73  C   UNL A   1      39.361  36.120  38.929  1.00  0.00     0.054 A 
BRANCH  73  74
ATOM     74  S   UNL A   1      39.263  37.324  40.284  1.00  0.00     0.124 S 
ATOM     75  O   UNL A   1      38.528  36.582  41.304  1.00  0.00    -0.237 OA
ATOM     76  O   UNL A   1      40.669  37.585  40.584  1.00  0.00    -0.237 OA
ATOM     77  O   UNL A   1      38.545  38.450  39.688  1.00  0.00    -0.744 OA
ENDBRANCH  73  74
ENDBRANCH  54  68
BRANCH  55  78
ATOM     78  C   UNL A   1      40.704  27.477  29.619  1.00  0.00    -0.014 A 
ATOM     79  C   UNL A   1      39.635  26.597  29.371  1.00  0.00     0.010 A 
ATOM     80  C   UNL A   1      41.917  27.294  28.933  1.00  0.00     0.010 A 
ATOM     81  C   UNL A   1      39.795  25.515  28.503  1.00  0.00     0.020 A 
ATOM     82  C   UNL A   1      42.071  26.227  28.042  1.00  0.00     0.020 A 
ATOM     83  C   UNL A   1      41.020  25.326  27.859  1.00  0.00     0.054 A 
BRANCH  83  84
ATOM     84  S   UNL A   1      41.229  23.879  26.785  1.00  0.00     0.124 S 
ATOM     85  O   UNL A   1      39.845  23.555  26.449  1.00  0.00    -0.237 OA
ATOM     86  O   UNL A   1      42.036  24.405  25.687  1.00  0.00    -0.237 OA
ATOM     87  O   UNL A   1      41.907  22.913  27.646  1.00  0.00    -0.744 OA
ENDBRANCH  83  84
ENDBRANCH  55  78
BRANCH  67  88
ATOM     88  C   UNL A   1      43.945  28.699  35.707  1.00  0.00    -0.014 A 
ATOM     89  C   UNL A   1      45.269  29.073  35.409  1.00  0.00     0.010 A 
ATOM     90  C   UNL A   1      43.716  27.622  36.580  1.00  0.00     0.010 A 
ATOM     91  C   UNL A   1      46.344  28.360  35.945  1.00  0.00     0.020 A 
ATOM     92  C   UNL A   1      44.789  26.922  37.137  1.00  0.00     0.020 A 
ATOM     93  C   UNL A   1      46.097  27.280  36.797  1.00  0.00     0.054 A 
BRANCH  93  94
ATOM     94  S   UNL A   1      47.501  26.345  37.460  1.00  0.00     0.124 S 
ATOM     95  O   UNL A   1      47.954  27.201  38.553  1.00  0.00    -0.237 OA
ATOM     96  O   UNL A   1      46.888  25.081  37.863  1.00  0.00    -0.237 OA
ATOM     97  O   UNL A   1      48.415  26.248  36.323  1.00  0.00    -0.744 OA
ENDBRANCH  93  94
ENDBRANCH  67  88
ENDBRANCH  41  42
ENDBRANCH  33  36
ENDBRANCH  31  32
ENDBRANCH   1  31
TORSDOF 16
ENDMDL
MODEL 3
REMARK VINA RESULT:     -12.0      3.777      5.745
REMARK SMILES O=C(Cc1c(C(=O)c2cc3c(cn2)CCCC3)[nH]c2cc(Cl)ccc12)NCCCNC(=O)c1ccc(-c2c3nc(c(-c4ccc(S(=O)(=O)[O-])cc4)c4ccc([nH]4)c(-c4ccc(S(=O)(=O)[O-])cc4)c4nc(c(-c5ccc(S(=O)(=O)[O-])cc5)c5ccc2[nH]5)C=C4)C=C3)cc1
REMARK SMILES IDX 28 1 27 2 26 3 1 4 2 5 3 7 4 8 5 9 25 10 18 11 19 12 24 13
REMARK SMILES IDX 20 15 23 16 21 17 22 18 6 19 7 20 8 21 9 22 13 23 10 24
REMARK SMILES IDX 12 25 11 26 17 27 14 28 16 29 15 30 29 31 30 32 31 33 32 35
REMARK SMILES IDX 33 36 34 37 92 38 35 39 91 40 36 41 37 42 38 43 85 44 39 45
REMARK SMILES IDX 90 46 84 47 86 48 40 49 89 50 83 51 82 52 41 54 71 55 52 56
REMARK SMILES IDX 70 57 53 58 56 59 69 60 87 61 54 62 55 63 68 65 88 66 57 67
REMARK SMILES IDX 42 68 43 69 51 70 44 71 50 72 45 73 46 74 47 75 48 76 49 77
REMARK SMILES IDX 72 78 73 79 81 80 74 81 80 82 75 83 76 84 77 85 78 86 79 87
REMARK SMILES IDX 58 88 59 89 67 90 60 91 66 92 61 93 62 94 63 95 64 96 65 97
REMARK H PARENT 26 6 18 14 30 34 86 53 56 64
REMARK Flexibility Score: inf
ROOT
ATOM      1  C   UNL A   1      34.333  31.455  27.630  1.00  0.00     0.042 C 
ENDROOT
BRANCH   1   2
ATOM      2  C   UNL A   1      33.445  30.309  27.178  1.00  0.00     0.117 C 
BRANCH   2   3
ATOM      3  N   UNL A   1      33.860  29.705  25.929  1.00  0.00    -0.356 N 
ATOM      4  O   UNL A   1      33.593  27.538  26.620  1.00  0.00    -0.275 OA
ATOM      5  C   UNL A   1      33.705  28.353  25.705  1.00  0.00     0.224 C 
ATOM      6  H   UNL A   1      34.260  30.269  25.228  1.00  0.00     0.163 HD
BRANCH   5   7
ATOM      7  C   UNL A   1      33.766  27.902  24.253  1.00  0.00     0.138 C 
BRANCH   7   8
ATOM      8  C   UNL A   1      32.461  27.557  23.569  1.00  0.00    -0.002 A 
ATOM      9  C   UNL A   1      32.156  26.504  22.704  1.00  0.00     0.093 A 
ATOM     10  C   UNL A   1      31.298  28.406  23.597  1.00  0.00     0.004 A 
ATOM     11  N   UNL A   1      30.795  26.554  22.485  1.00  0.00    -0.351 N 
ATOM     12  C   UNL A   1      30.288  27.765  22.885  1.00  0.00     0.048 A 
ATOM     13  C   UNL A   1      31.031  29.687  24.127  1.00  0.00     0.012 A 
ATOM     14  H   UNL A   1      30.262  25.823  22.097  1.00  0.00     0.167 HD
ATOM     15  C   UNL A   1      29.029  28.334  22.659  1.00  0.00     0.047 A 
ATOM     16  C   UNL A   1      29.789  30.289  23.888  1.00  0.00     0.021 A 
ATOM     17  C   UNL A   1      28.810  29.619  23.161  1.00  0.00     0.043 A 
ATOM     18  Cl  UNL A   1      27.302  30.394  22.849  1.00  0.00    -0.084 Cl
BRANCH   9  19
ATOM     19  C   UNL A   1      33.040  25.540  22.066  1.00  0.00     0.227 C 
ATOM     20  O   UNL A   1      33.458  25.649  20.917  1.00  0.00    -0.285 OA
BRANCH  19  21
ATOM     21  C   UNL A   1      33.341  24.280  22.782  1.00  0.00     0.113 A 
ATOM     22  C   UNL A   1      34.668  23.996  23.066  1.00  0.00     0.036 A 
ATOM     23  N   UNL A   1      32.297  23.473  23.089  1.00  0.00    -0.252 NA
ATOM     24  C   UNL A   1      34.959  22.818  23.751  1.00  0.00    -0.041 A 
ATOM     25  C   UNL A   1      32.602  22.360  23.794  1.00  0.00     0.115 A 
ATOM     26  C   UNL A   1      33.900  21.982  24.141  1.00  0.00    -0.026 A 
ATOM     27  C   UNL A   1      36.396  22.445  24.003  1.00  0.00     0.036 C 
ATOM     28  C   UNL A   1      34.134  20.761  24.991  1.00  0.00     0.037 C 
ATOM     29  C   UNL A   1      36.557  21.423  25.124  1.00  0.00     0.005 C 
ATOM     30  C   UNL A   1      35.581  20.266  24.942  1.00  0.00     0.005 C 
ENDBRANCH  19  21
ENDBRANCH   9  19
ENDBRANCH   7   8
ENDBRANCH   5   7
ENDBRANCH   2   3
ENDBRANCH   1   2
BRANCH   1  31
ATOM     31  C   UNL A   1      35.671  31.027  28.217  1.00  0.00     0.118 C 
BRANCH  31  32
ATOM     32  N   UNL A   1      35.582  30.443  29.551  1.00  0.00    -0.352 N 
ATOM     33  C   UNL A   1      36.554  29.839  30.319  1.00  0.00     0.251 C 
ATOM     34  H   UNL A   1      34.690  30.485  29.966  1.00  0.00     0.163 HD
ATOM     35  O   UNL A   1      36.256  29.346  31.400  1.00  0.00    -0.269 OA
BRANCH  33  36
ATOM     36  C   UNL A   1      37.947  29.741  29.816  1.00  0.00     0.039 A 
ATOM     37  C   UNL A   1      38.223  29.698  28.450  1.00  0.00     0.014 A 
ATOM     38  C   UNL A   1      38.995  29.661  30.739  1.00  0.00     0.014 A 
ATOM     39  C   UNL A   1      39.506  29.378  28.014  1.00  0.00     0.010 A 
ATOM     40  C   UNL A   1      40.302  29.430  30.294  1.00  0.00     0.010 A 
ATOM     41  C   UNL A   1      40.560  29.226  28.931  1.00  0.00    -0.014 A 
BRANCH  41  42
ATOM     42  C   UNL A   1      41.909  28.837  28.436  1.00  0.00     0.031 A 
ATOM     43  C   UNL A   1      43.070  29.794  28.521  1.00  0.00     0.074 A 
ATOM     44  C   UNL A   1      42.108  27.582  27.981  1.00  0.00     0.049 A 
ATOM     45  N   UNL A   1      44.323  29.594  28.196  1.00  0.00    -0.248 NA
ATOM     46  C   UNL A   1      42.797  31.146  29.034  1.00  0.00     0.031 C 
ATOM     47  C   UNL A   1      41.071  26.555  27.870  1.00  0.00     0.029 A 
ATOM     48  N   UNL A   1      43.252  26.945  27.571  1.00  0.00    -0.354 N 
ATOM     49  C   UNL A   1      44.981  30.791  28.453  1.00  0.00     0.074 A 
ATOM     50  C   UNL A   1      43.986  31.726  28.930  1.00  0.00     0.031 C 
ATOM     51  C   UNL A   1      41.638  25.399  27.494  1.00  0.00     0.029 A 
ATOM     52  C   UNL A   1      43.065  25.616  27.274  1.00  0.00     0.049 A 
ATOM     53  H   UNL A   1      44.125  27.397  27.496  1.00  0.00     0.167 HD
ATOM     54  C   UNL A   1      46.297  31.082  28.317  1.00  0.00     0.031 A 
ATOM     55  C   UNL A   1      43.935  24.669  26.872  1.00  0.00     0.031 A 
ATOM     56  C   UNL A   1      47.292  30.147  27.861  1.00  0.00     0.049 A 
ATOM     57  C   UNL A   1      45.381  25.025  26.690  1.00  0.00     0.074 A 
ATOM     58  C   UNL A   1      48.652  30.352  27.708  1.00  0.00     0.029 A 
ATOM     59  N   UNL A   1      47.042  28.833  27.495  1.00  0.00    -0.354 N 
ATOM     60  N   UNL A   1      45.979  26.166  26.929  1.00  0.00    -0.248 NA
ATOM     61  C   UNL A   1      46.270  23.973  26.177  1.00  0.00     0.031 C 
ATOM     62  C   UNL A   1      49.218  29.180  27.199  1.00  0.00     0.029 A 
ATOM     63  C   UNL A   1      48.219  28.225  27.091  1.00  0.00     0.049 A 
ATOM     64  H   UNL A   1      46.160  28.398  27.517  1.00  0.00     0.167 HD
ATOM     65  C   UNL A   1      47.314  25.972  26.597  1.00  0.00     0.074 A 
ATOM     66  C   UNL A   1      47.442  24.596  26.162  1.00  0.00     0.031 C 
ATOM     67  C   UNL A   1      48.336  26.859  26.645  1.00  0.00     0.031 A 
BRANCH  54  68
ATOM     68  C   UNL A   1      46.760  32.472  28.666  1.00  0.00    -0.014 A 
ATOM     69  C   UNL A   1      47.161  32.765  29.983  1.00  0.00     0.010 A 
ATOM     70  C   UNL A   1      46.694  33.513  27.723  1.00  0.00     0.010 A 
ATOM     71  C   UNL A   1      47.464  34.075  30.359  1.00  0.00     0.020 A 
ATOM     72  C   UNL A   1      47.019  34.824  28.090  1.00  0.00     0.020 A 
ATOM     73  C   UNL A   1      47.382  35.099  29.412  1.00  0.00     0.054 A 
BRANCH  73  74
ATOM     74  S   UNL A   1      47.770  36.798  29.917  1.00  0.00     0.124 S 
ATOM     75  O   UNL A   1      46.591  37.531  29.467  1.00  0.00    -0.237 OA
ATOM     76  O   UNL A   1      47.923  36.676  31.365  1.00  0.00    -0.237 OA
ATOM     77  O   UNL A   1      49.006  37.095  29.194  1.00  0.00    -0.744 OA
ENDBRANCH  73  74
ENDBRANCH  54  68
BRANCH  55  78
ATOM     78  C   UNL A   1      43.437  23.286  26.636  1.00  0.00    -0.014 A 
ATOM     79  C   UNL A   1      42.658  22.636  27.611  1.00  0.00     0.010 A 
ATOM     80  C   UNL A   1      43.822  22.581  25.484  1.00  0.00     0.010 A 
ATOM     81  C   UNL A   1      42.327  21.287  27.469  1.00  0.00     0.020 A 
ATOM     82  C   UNL A   1      43.469  21.236  25.325  1.00  0.00     0.020 A 
ATOM     83  C   UNL A   1      42.752  20.591  26.335  1.00  0.00     0.054 A 
BRANCH  83  84
ATOM     84  S   UNL A   1      42.367  18.823  26.198  1.00  0.00     0.124 S 
ATOM     85  O   UNL A   1      43.310  18.392  25.170  1.00  0.00    -0.237 OA
ATOM     86  O   UNL A   1      42.638  18.329  27.546  1.00  0.00    -0.237 OA
ATOM     87  O   UNL A   1      40.961  18.811  25.804  1.00  0.00    -0.744 OA
ENDBRANCH  83  84
ENDBRANCH  55  78
BRANCH  67  88
ATOM     88  C   UNL A   1      49.698  26.396  26.201  1.00  0.00    -0.014 A 
ATOM     89  C   UNL A   1      50.566  25.787  27.126  1.00  0.00     0.010 A 
ATOM     90  C   UNL A   1      50.162  26.679  24.905  1.00  0.00     0.010 A 
ATOM     91  C   UNL A   1      51.887  25.500  26.773  1.00  0.00     0.020 A 
ATOM     92  C   UNL A   1      51.475  26.371  24.541  1.00  0.00     0.020 A 
ATOM     93  C   UNL A   1      52.337  25.805  25.485  1.00  0.00     0.054 A 
BRANCH  93  94
ATOM     94  S   UNL A   1      54.063  25.455  25.052  1.00  0.00     0.124 S 
ATOM     95  O   UNL A   1      54.261  26.297  23.875  1.00  0.00    -0.237 OA
ATOM     96  O   UNL A   1      54.789  25.868  26.251  1.00  0.00    -0.237 OA
ATOM     97  O   UNL A   1      54.066  24.016  24.798  1.00  0.00    -0.744 OA
ENDBRANCH  93  94
ENDBRANCH  67  88
ENDBRANCH  41  42
ENDBRANCH  33  36
ENDBRANCH  31  32
ENDBRANCH   1  31
TORSDOF 16
ENDMDL
