MODEL 1
REMARK VINA RESULT:     -11.9      0.000      0.000
REMARK SMILES Nc1c(Cl)ccc2c1C=C(C(=O)NCCCNC(=O)c1ccc(-c3c4nc(c(-c5ccc(S(=O)(=O)[O-])cc5)c5ccc([nH]5)c(-c5ccc(S(=O)(=O)[O-])cc5)c5nc(c(-c6ccc(S(=O)(=O)[O-])cc6)c6ccc3[nH]6)C=C5)C=C4)cc1)[C@@H](C(F)(F)F)O2
REMARK SMILES IDX 16 1 15 2 14 3 13 4 11 5 12 6 10 8 2 9 3 10 8 11 4 12 5 13
REMARK SMILES IDX 7 14 9 15 6 16 85 17 80 18 1 19 81 22 82 23 83 24 84 25
REMARK SMILES IDX 17 26 18 27 19 29 20 30 21 31 79 32 22 33 78 34 23 35 24 36
REMARK SMILES IDX 25 37 72 38 26 39 77 40 71 41 73 42 27 43 76 44 70 45 69 46
REMARK SMILES IDX 28 48 58 49 39 50 57 51 40 52 43 53 56 54 74 55 41 56 42 57
REMARK SMILES IDX 55 59 75 60 44 61 29 62 30 63 38 64 31 65 37 66 32 67 33 68
REMARK SMILES IDX 34 69 35 70 36 71 59 72 60 73 68 74 61 75 67 76 62 77 63 78
REMARK SMILES IDX 64 79 65 80 66 81 45 82 46 83 54 84 47 85 53 86 48 87 49 88
REMARK SMILES IDX 50 89 51 90 52 91
REMARK H PARENT 13 7 1 20 1 21 17 28 73 47 43 58
REMARK Flexibility Score: inf
ROOT
ATOM      1  C   UNL A   1      33.934  28.207  26.962  1.00  0.00     0.118 C 
ENDROOT
BRANCH   1   2
ATOM      2  C   UNL A   1      33.711  27.649  25.560  1.00  0.00     0.042 C 
BRANCH   2   3
ATOM      3  C   UNL A   1      33.702  26.127  25.541  1.00  0.00     0.118 C 
BRANCH   3   4
ATOM      4  N   UNL A   1      33.539  25.605  24.192  1.00  0.00    -0.352 N 
ATOM      5  C   UNL A   1      32.582  25.591  23.237  1.00  0.00     0.251 C 
ATOM      6  O   UNL A   1      32.889  24.994  22.201  1.00  0.00    -0.270 OA
ATOM      7  H   UNL A   1      34.349  25.130  23.893  1.00  0.00     0.163 HD
BRANCH   5   8
ATOM      8  C   UNL A   1      31.241  26.235  23.350  1.00  0.00     0.067 C 
ATOM      9  C   UNL A   1      29.672  29.457  22.302  1.00  0.00     0.061 A 
ATOM     10  C   UNL A   1      28.406  30.070  22.457  1.00  0.00     0.064 A 
ATOM     11  C   UNL A   1      29.831  28.135  22.774  1.00  0.00     0.042 A 
ATOM     12  Cl  UNL A   1      28.151  31.710  21.954  1.00  0.00    -0.082 Cl
ATOM     13  C   UNL A   1      27.318  29.380  22.996  1.00  0.00     0.026 A 
ATOM     14  C   UNL A   1      28.731  27.461  23.325  1.00  0.00     0.130 A 
ATOM     15  C   UNL A   1      31.096  27.398  22.688  1.00  0.00     0.027 C 
ATOM     16  C   UNL A   1      27.480  28.068  23.420  1.00  0.00     0.049 A 
ATOM     17  O   UNL A   1      28.793  26.170  23.771  1.00  0.00    -0.475 OA
ATOM     18  C   UNL A   1      30.105  25.689  24.163  1.00  0.00     0.314 C 
BRANCH   9  19
ATOM     19  N   UNL A   1      30.751  30.206  21.818  1.00  0.00    -0.397 N 
ATOM     20  H   UNL A   1      30.838  31.158  22.056  1.00  0.00     0.156 HD
ATOM     21  H   UNL A   1      31.425  29.781  21.239  1.00  0.00     0.156 HD
ENDBRANCH   9  19
BRANCH  18  22
ATOM     22  C   UNL A   1      30.300  25.904  25.676  1.00  0.00     0.429 C 
ATOM     23  F   UNL A   1      29.134  25.705  26.339  1.00  0.00    -0.167 F 
ATOM     24  F   UNL A   1      31.198  25.044  26.214  1.00  0.00    -0.167 F 
ATOM     25  F   UNL A   1      30.727  27.151  25.976  1.00  0.00    -0.167 F 
ENDBRANCH  18  22
ENDBRANCH   5   8
ENDBRANCH   3   4
ENDBRANCH   2   3
ENDBRANCH   1   2
BRANCH   1  26
ATOM     26  N   UNL A   1      33.899  29.667  26.968  1.00  0.00    -0.352 N 
ATOM     27  C   UNL A   1      34.745  30.554  27.583  1.00  0.00     0.251 C 
ATOM     28  H   UNL A   1      33.162  30.072  26.456  1.00  0.00     0.163 HD
ATOM     29  O   UNL A   1      34.399  31.722  27.743  1.00  0.00    -0.269 OA
BRANCH  27  30
ATOM     30  C   UNL A   1      36.068  30.098  28.047  1.00  0.00     0.039 A 
ATOM     31  C   UNL A   1      36.216  29.610  29.348  1.00  0.00     0.014 A 
ATOM     32  C   UNL A   1      37.171  30.184  27.193  1.00  0.00     0.014 A 
ATOM     33  C   UNL A   1      37.465  29.155  29.773  1.00  0.00     0.010 A 
ATOM     34  C   UNL A   1      38.396  29.666  27.592  1.00  0.00     0.010 A 
ATOM     35  C   UNL A   1      38.557  29.161  28.890  1.00  0.00    -0.014 A 
BRANCH  35  36
ATOM     36  C   UNL A   1      39.899  28.700  29.313  1.00  0.00     0.031 A 
ATOM     37  C   UNL A   1      40.756  29.610  30.150  1.00  0.00     0.074 A 
ATOM     38  C   UNL A   1      40.361  27.504  28.902  1.00  0.00     0.049 A 
ATOM     39  N   UNL A   1      41.988  29.435  30.550  1.00  0.00    -0.248 NA
ATOM     40  C   UNL A   1      40.161  30.889  30.576  1.00  0.00     0.031 C 
ATOM     41  C   UNL A   1      39.622  26.543  28.078  1.00  0.00     0.029 A 
ATOM     42  N   UNL A   1      41.568  26.891  29.123  1.00  0.00    -0.354 N 
ATOM     43  C   UNL A   1      42.318  30.584  31.258  1.00  0.00     0.074 A 
ATOM     44  C   UNL A   1      41.176  31.466  31.204  1.00  0.00     0.031 C 
ATOM     45  C   UNL A   1      40.379  25.448  27.896  1.00  0.00     0.029 A 
ATOM     46  C   UNL A   1      41.667  25.643  28.553  1.00  0.00     0.049 A 
ATOM     47  H   UNL A   1      42.295  27.305  29.642  1.00  0.00     0.167 HD
ATOM     48  C   UNL A   1      43.463  30.866  31.917  1.00  0.00     0.031 A 
ATOM     49  C   UNL A   1      42.683  24.759  28.564  1.00  0.00     0.031 A 
ATOM     50  C   UNL A   1      44.581  29.969  32.005  1.00  0.00     0.049 A 
ATOM     51  C   UNL A   1      43.956  25.110  29.283  1.00  0.00     0.074 A 
ATOM     52  C   UNL A   1      45.767  30.146  32.697  1.00  0.00     0.029 A 
ATOM     53  N   UNL A   1      44.647  28.727  31.397  1.00  0.00    -0.354 N 
ATOM     54  N   UNL A   1      44.239  26.194  29.966  1.00  0.00    -0.248 NA
ATOM     55  C   UNL A   1      45.045  24.125  29.233  1.00  0.00     0.031 C 
ATOM     56  C   UNL A   1      46.567  29.023  32.476  1.00  0.00     0.029 A 
ATOM     57  C   UNL A   1      45.861  28.130  31.684  1.00  0.00     0.049 A 
ATOM     58  H   UNL A   1      43.937  28.328  30.844  1.00  0.00     0.167 HD
ATOM     59  C   UNL A   1      45.528  26.005  30.453  1.00  0.00     0.074 A 
ATOM     60  C   UNL A   1      45.969  24.707  29.987  1.00  0.00     0.031 C 
ATOM     61  C   UNL A   1      46.275  26.833  31.221  1.00  0.00     0.031 A 
BRANCH  48  62
ATOM     62  C   UNL A   1      43.572  32.187  32.621  1.00  0.00    -0.014 A 
ATOM     63  C   UNL A   1      43.942  33.343  31.914  1.00  0.00     0.010 A 
ATOM     64  C   UNL A   1      43.182  32.295  33.968  1.00  0.00     0.010 A 
ATOM     65  C   UNL A   1      43.910  34.590  32.541  1.00  0.00     0.020 A 
ATOM     66  C   UNL A   1      43.133  33.543  34.593  1.00  0.00     0.020 A 
ATOM     67  C   UNL A   1      43.492  34.684  33.872  1.00  0.00     0.054 A 
BRANCH  67  68
ATOM     68  S   UNL A   1      43.381  36.329  34.626  1.00  0.00     0.124 S 
ATOM     69  O   UNL A   1      42.100  36.813  34.118  1.00  0.00    -0.237 OA
ATOM     70  O   UNL A   1      43.416  36.022  36.053  1.00  0.00    -0.237 OA
ATOM     71  O   UNL A   1      44.555  37.030  34.110  1.00  0.00    -0.744 OA
ENDBRANCH  67  68
ENDBRANCH  48  62
BRANCH  49  72
ATOM     72  C   UNL A   1      42.530  23.437  27.899  1.00  0.00    -0.014 A 
ATOM     73  C   UNL A   1      42.015  22.344  28.621  1.00  0.00     0.010 A 
ATOM     74  C   UNL A   1      42.891  23.260  26.553  1.00  0.00     0.010 A 
ATOM     75  C   UNL A   1      41.879  21.095  28.011  1.00  0.00     0.020 A 
ATOM     76  C   UNL A   1      42.737  22.015  25.934  1.00  0.00     0.020 A 
ATOM     77  C   UNL A   1      42.236  20.940  26.670  1.00  0.00     0.054 A 
BRANCH  77  78
ATOM     78  S   UNL A   1      42.024  19.311  25.899  1.00  0.00     0.124 S 
ATOM     79  O   UNL A   1      42.864  19.420  24.710  1.00  0.00    -0.237 OA
ATOM     80  O   UNL A   1      42.515  18.411  26.941  1.00  0.00    -0.237 OA
ATOM     81  O   UNL A   1      40.587  19.235  25.644  1.00  0.00    -0.744 OA
ENDBRANCH  77  78
ENDBRANCH  49  72
BRANCH  61  82
ATOM     82  C   UNL A   1      47.638  26.364  31.642  1.00  0.00    -0.014 A 
ATOM     83  C   UNL A   1      47.806  25.603  32.811  1.00  0.00     0.010 A 
ATOM     84  C   UNL A   1      48.737  26.581  30.791  1.00  0.00     0.010 A 
ATOM     85  C   UNL A   1      49.057  25.066  33.123  1.00  0.00     0.020 A 
ATOM     86  C   UNL A   1      49.984  26.028  31.090  1.00  0.00     0.020 A 
ATOM     87  C   UNL A   1      50.135  25.273  32.255  1.00  0.00     0.054 A 
BRANCH  87  88
ATOM     88  S   UNL A   1      51.726  24.503  32.655  1.00  0.00     0.124 S 
ATOM     89  O   UNL A   1      51.468  23.095  32.369  1.00  0.00    -0.237 OA
ATOM     90  O   UNL A   1      52.640  25.175  31.734  1.00  0.00    -0.237 OA
ATOM     91  O   UNL A   1      51.924  24.823  34.067  1.00  0.00    -0.744 OA
ENDBRANCH  87  88
ENDBRANCH  61  82
ENDBRANCH  35  36
ENDBRANCH  27  30
ENDBRANCH   1  26
TORSDOF 15
ENDMDL
MODEL 2
REMARK VINA RESULT:     -11.9      2.515      3.816
REMARK SMILES Nc1c(Cl)ccc2c1C=C(C(=O)NCCCNC(=O)c1ccc(-c3c4nc(c(-c5ccc(S(=O)(=O)[O-])cc5)c5ccc([nH]5)c(-c5ccc(S(=O)(=O)[O-])cc5)c5nc(c(-c6ccc(S(=O)(=O)[O-])cc6)c6ccc3[nH]6)C=C5)C=C4)cc1)[C@@H](C(F)(F)F)O2
REMARK SMILES IDX 16 1 15 2 14 3 13 4 11 5 12 6 10 8 2 9 3 10 8 11 4 12 5 13
REMARK SMILES IDX 7 14 9 15 6 16 85 17 80 18 1 19 81 22 82 23 83 24 84 25
REMARK SMILES IDX 17 26 18 27 19 29 20 30 21 31 79 32 22 33 78 34 23 35 24 36
REMARK SMILES IDX 25 37 72 38 26 39 77 40 71 41 73 42 27 43 76 44 70 45 69 46
REMARK SMILES IDX 28 48 58 49 39 50 57 51 40 52 43 53 56 54 74 55 41 56 42 57
REMARK SMILES IDX 55 59 75 60 44 61 29 62 30 63 38 64 31 65 37 66 32 67 33 68
REMARK SMILES IDX 34 69 35 70 36 71 59 72 60 73 68 74 61 75 67 76 62 77 63 78
REMARK SMILES IDX 64 79 65 80 66 81 45 82 46 83 54 84 47 85 53 86 48 87 49 88
REMARK SMILES IDX 50 89 51 90 52 91
REMARK H PARENT 13 7 1 20 1 21 17 28 73 47 43 58
REMARK Flexibility Score: inf
ROOT
ATOM      1  C   UNL A   1      33.750  28.011  26.679  1.00  0.00     0.118 C 
ENDROOT
BRANCH   1   2
ATOM      2  C   UNL A   1      33.996  27.655  25.216  1.00  0.00     0.042 C 
BRANCH   2   3
ATOM      3  C   UNL A   1      32.771  27.033  24.562  1.00  0.00     0.118 C 
BRANCH   3   4
ATOM      4  N   UNL A   1      31.892  26.410  25.542  1.00  0.00    -0.352 N 
ATOM      5  C   UNL A   1      31.692  25.177  26.059  1.00  0.00     0.251 C 
ATOM      6  O   UNL A   1      30.789  25.105  26.898  1.00  0.00    -0.270 OA
ATOM      7  H   UNL A   1      31.274  27.067  25.937  1.00  0.00     0.163 HD
BRANCH   5   8
ATOM      8  C   UNL A   1      32.468  23.954  25.701  1.00  0.00     0.067 C 
ATOM      9  C   UNL A   1      36.035  22.857  25.836  1.00  0.00     0.061 A 
ATOM     10  C   UNL A   1      36.760  21.706  25.450  1.00  0.00     0.064 A 
ATOM     11  C   UNL A   1      34.628  22.831  25.706  1.00  0.00     0.042 A 
ATOM     12  Cl  UNL A   1      38.493  21.686  25.529  1.00  0.00    -0.082 Cl
ATOM     13  C   UNL A   1      36.118  20.546  25.015  1.00  0.00     0.026 A 
ATOM     14  C   UNL A   1      34.000  21.660  25.254  1.00  0.00     0.130 A 
ATOM     15  C   UNL A   1      33.766  23.965  26.054  1.00  0.00     0.027 C 
ATOM     16  C   UNL A   1      34.732  20.521  24.929  1.00  0.00     0.049 A 
ATOM     17  O   UNL A   1      32.643  21.541  25.133  1.00  0.00    -0.475 OA
ATOM     18  C   UNL A   1      31.902  22.778  24.962  1.00  0.00     0.314 C 
BRANCH   9  19
ATOM     19  N   UNL A   1      36.722  24.020  26.204  1.00  0.00    -0.397 N 
ATOM     20  H   UNL A   1      36.292  24.682  26.794  1.00  0.00     0.156 HD
ATOM     21  H   UNL A   1      37.637  24.177  25.874  1.00  0.00     0.156 HD
ENDBRANCH   9  19
BRANCH  18  22
ATOM     22  C   UNL A   1      31.709  23.056  23.460  1.00  0.00     0.429 C 
ATOM     23  F   UNL A   1      31.815  21.908  22.745  1.00  0.00    -0.167 F 
ATOM     24  F   UNL A   1      30.488  23.572  23.177  1.00  0.00    -0.167 F 
ATOM     25  F   UNL A   1      32.622  23.924  22.967  1.00  0.00    -0.167 F 
ENDBRANCH  18  22
ENDBRANCH   5   8
ENDBRANCH   3   4
ENDBRANCH   2   3
ENDBRANCH   1   2
BRANCH   1  26
ATOM     26  N   UNL A   1      33.572  29.449  26.855  1.00  0.00    -0.352 N 
ATOM     27  C   UNL A   1      34.328  30.335  27.581  1.00  0.00     0.251 C 
ATOM     28  H   UNL A   1      32.801  29.839  26.385  1.00  0.00     0.163 HD
ATOM     29  O   UNL A   1      33.869  31.438  27.872  1.00  0.00    -0.269 OA
BRANCH  27  30
ATOM     30  C   UNL A   1      35.688  29.958  28.005  1.00  0.00     0.039 A 
ATOM     31  C   UNL A   1      35.901  29.475  29.299  1.00  0.00     0.014 A 
ATOM     32  C   UNL A   1      36.759  30.112  27.121  1.00  0.00     0.014 A 
ATOM     33  C   UNL A   1      37.187  29.093  29.687  1.00  0.00     0.010 A 
ATOM     34  C   UNL A   1      38.023  29.667  27.483  1.00  0.00     0.010 A 
ATOM     35  C   UNL A   1      38.251  29.168  28.774  1.00  0.00    -0.014 A 
BRANCH  35  36
ATOM     36  C   UNL A   1      39.630  28.787  29.156  1.00  0.00     0.031 A 
ATOM     37  C   UNL A   1      40.475  29.766  29.923  1.00  0.00     0.074 A 
ATOM     38  C   UNL A   1      40.132  27.599  28.770  1.00  0.00     0.049 A 
ATOM     39  N   UNL A   1      41.729  29.665  30.278  1.00  0.00    -0.248 NA
ATOM     40  C   UNL A   1      39.837  31.032  30.328  1.00  0.00     0.031 C 
ATOM     41  C   UNL A   1      39.408  26.574  28.013  1.00  0.00     0.029 A 
ATOM     42  N   UNL A   1      41.375  27.052  28.963  1.00  0.00    -0.354 N 
ATOM     43  C   UNL A   1      42.030  30.854  30.930  1.00  0.00     0.074 A 
ATOM     44  C   UNL A   1      40.846  31.679  30.892  1.00  0.00     0.031 C 
ATOM     45  C   UNL A   1      40.209  25.509  27.838  1.00  0.00     0.029 A 
ATOM     46  C   UNL A   1      41.512  25.789  28.434  1.00  0.00     0.049 A 
ATOM     47  H   UNL A   1      42.102  27.519  29.435  1.00  0.00     0.167 HD
ATOM     48  C   UNL A   1      43.187  31.213  31.530  1.00  0.00     0.031 A 
ATOM     49  C   UNL A   1      42.568  24.954  28.433  1.00  0.00     0.031 A 
ATOM     50  C   UNL A   1      44.349  30.374  31.603  1.00  0.00     0.049 A 
ATOM     51  C   UNL A   1      43.851  25.392  29.086  1.00  0.00     0.074 A 
ATOM     52  C   UNL A   1      45.551  30.632  32.238  1.00  0.00     0.029 A 
ATOM     53  N   UNL A   1      44.451  29.114  31.038  1.00  0.00    -0.354 N 
ATOM     54  N   UNL A   1      44.108  26.512  29.718  1.00  0.00    -0.248 NA
ATOM     55  C   UNL A   1      44.984  24.458  29.026  1.00  0.00     0.031 C 
ATOM     56  C   UNL A   1      46.395  29.540  32.025  1.00  0.00     0.029 A 
ATOM     57  C   UNL A   1      45.703  28.587  31.296  1.00  0.00     0.049 A 
ATOM     58  H   UNL A   1      43.739  28.662  30.530  1.00  0.00     0.167 HD
ATOM     59  C   UNL A   1      45.423  26.403  30.156  1.00  0.00     0.074 A 
ATOM     60  C   UNL A   1      45.908  25.111  29.719  1.00  0.00     0.031 C 
ATOM     61  C   UNL A   1      46.160  27.294  30.862  1.00  0.00     0.031 A 
BRANCH  48  62
ATOM     62  C   UNL A   1      43.260  32.564  32.181  1.00  0.00    -0.014 A 
ATOM     63  C   UNL A   1      42.963  32.715  33.546  1.00  0.00     0.010 A 
ATOM     64  C   UNL A   1      43.749  33.664  31.454  1.00  0.00     0.010 A 
ATOM     65  C   UNL A   1      43.164  33.944  34.177  1.00  0.00     0.020 A 
ATOM     66  C   UNL A   1      43.966  34.891  32.086  1.00  0.00     0.020 A 
ATOM     67  C   UNL A   1      43.678  35.020  33.447  1.00  0.00     0.054 A 
BRANCH  67  68
ATOM     68  S   UNL A   1      44.005  36.575  34.319  1.00  0.00     0.124 S 
ATOM     69  O   UNL A   1      43.033  37.479  33.708  1.00  0.00    -0.237 OA
ATOM     70  O   UNL A   1      43.742  36.216  35.709  1.00  0.00    -0.237 OA
ATOM     71  O   UNL A   1      45.402  36.865  34.003  1.00  0.00    -0.744 OA
ENDBRANCH  67  68
ENDBRANCH  48  62
BRANCH  49  72
ATOM     72  C   UNL A   1      42.453  23.602  27.824  1.00  0.00    -0.014 A 
ATOM     73  C   UNL A   1      42.016  22.516  28.604  1.00  0.00     0.010 A 
ATOM     74  C   UNL A   1      42.773  23.391  26.472  1.00  0.00     0.010 A 
ATOM     75  C   UNL A   1      41.916  21.240  28.046  1.00  0.00     0.020 A 
ATOM     76  C   UNL A   1      42.655  22.118  25.905  1.00  0.00     0.020 A 
ATOM     77  C   UNL A   1      42.231  21.050  26.698  1.00  0.00     0.054 A 
BRANCH  77  78
ATOM     78  S   UNL A   1      42.066  19.385  25.996  1.00  0.00     0.124 S 
ATOM     79  O   UNL A   1      42.905  19.469  24.804  1.00  0.00    -0.237 OA
ATOM     80  O   UNL A   1      42.582  18.544  27.075  1.00  0.00    -0.237 OA
ATOM     81  O   UNL A   1      40.633  19.257  25.744  1.00  0.00    -0.744 OA
ENDBRANCH  77  78
ENDBRANCH  49  72
BRANCH  61  82
ATOM     82  C   UNL A   1      47.559  26.905  31.243  1.00  0.00    -0.014 A 
ATOM     83  C   UNL A   1      47.823  26.288  32.477  1.00  0.00     0.010 A 
ATOM     84  C   UNL A   1      48.595  27.045  30.302  1.00  0.00     0.010 A 
ATOM     85  C   UNL A   1      49.106  25.817  32.764  1.00  0.00     0.020 A 
ATOM     86  C   UNL A   1      49.874  26.557  30.578  1.00  0.00     0.020 A 
ATOM     87  C   UNL A   1      50.120  25.944  31.809  1.00  0.00     0.054 A 
BRANCH  87  88
ATOM     88  S   UNL A   1      51.755  25.260  32.187  1.00  0.00     0.124 S 
ATOM     89  O   UNL A   1      52.000  25.772  33.533  1.00  0.00    -0.237 OA
ATOM     90  O   UNL A   1      51.522  23.821  32.095  1.00  0.00    -0.237 OA
ATOM     91  O   UNL A   1      52.616  25.815  31.146  1.00  0.00    -0.744 OA
ENDBRANCH  87  88
ENDBRANCH  61  82
ENDBRANCH  35  36
ENDBRANCH  27  30
ENDBRANCH   1  26
TORSDOF 15
ENDMDL
MODEL 3
REMARK VINA RESULT:     -11.8      2.849      9.181
REMARK SMILES Nc1c(Cl)ccc2c1C=C(C(=O)NCCCNC(=O)c1ccc(-c3c4nc(c(-c5ccc(S(=O)(=O)[O-])cc5)c5ccc([nH]5)c(-c5ccc(S(=O)(=O)[O-])cc5)c5nc(c(-c6ccc(S(=O)(=O)[O-])cc6)c6ccc3[nH]6)C=C5)C=C4)cc1)[C@@H](C(F)(F)F)O2
REMARK SMILES IDX 16 1 15 2 14 3 13 4 11 5 12 6 10 8 2 9 3 10 8 11 4 12 5 13
REMARK SMILES IDX 7 14 9 15 6 16 85 17 80 18 1 19 81 22 82 23 83 24 84 25
REMARK SMILES IDX 17 26 18 27 19 29 20 30 21 31 79 32 22 33 78 34 23 35 24 36
REMARK SMILES IDX 25 37 72 38 26 39 77 40 71 41 73 42 27 43 76 44 70 45 69 46
REMARK SMILES IDX 28 48 58 49 39 50 57 51 40 52 43 53 56 54 74 55 41 56 42 57
REMARK SMILES IDX 55 59 75 60 44 61 29 62 30 63 38 64 31 65 37 66 32 67 33 68
REMARK SMILES IDX 34 69 35 70 36 71 59 72 60 73 68 74 61 75 67 76 62 77 63 78
REMARK SMILES IDX 64 79 65 80 66 81 45 82 46 83 54 84 47 85 53 86 48 87 49 88
REMARK SMILES IDX 50 89 51 90 52 91
REMARK H PARENT 13 7 1 20 1 21 17 28 73 47 43 58
REMARK Flexibility Score: inf
ROOT
ATOM      1  C   UNL A   1      36.560  23.957  25.399  1.00  0.00     0.118 C 
ENDROOT
BRANCH   1   2
ATOM      2  C   UNL A   1      35.526  23.504  24.373  1.00  0.00     0.042 C 
BRANCH   2   3
ATOM      3  C   UNL A   1      34.297  24.402  24.360  1.00  0.00     0.118 C 
BRANCH   3   4
ATOM      4  N   UNL A   1      34.023  24.924  23.029  1.00  0.00    -0.352 N 
ATOM      5  C   UNL A   1      33.410  26.000  22.487  1.00  0.00     0.251 C 
ATOM      6  O   UNL A   1      33.407  26.031  21.252  1.00  0.00    -0.270 OA
ATOM      7  H   UNL A   1      34.385  24.330  22.331  1.00  0.00     0.163 HD
BRANCH   5   8
ATOM      8  C   UNL A   1      32.772  27.109  23.255  1.00  0.00     0.067 C 
ATOM      9  C   UNL A   1      33.736  29.387  26.053  1.00  0.00     0.061 A 
ATOM     10  C   UNL A   1      33.100  30.406  26.800  1.00  0.00     0.064 A 
ATOM     11  C   UNL A   1      33.031  28.822  24.966  1.00  0.00     0.042 A 
ATOM     12  Cl  UNL A   1      33.880  31.106  28.181  1.00  0.00    -0.082 Cl
ATOM     13  C   UNL A   1      31.842  30.898  26.446  1.00  0.00     0.026 A 
ATOM     14  C   UNL A   1      31.762  29.320  24.633  1.00  0.00     0.130 A 
ATOM     15  C   UNL A   1      33.573  27.749  24.126  1.00  0.00     0.027 C 
ATOM     16  C   UNL A   1      31.178  30.360  25.352  1.00  0.00     0.049 A 
ATOM     17  O   UNL A   1      31.031  28.853  23.576  1.00  0.00    -0.475 OA
ATOM     18  C   UNL A   1      31.330  27.502  23.136  1.00  0.00     0.314 C 
BRANCH   9  19
ATOM     19  N   UNL A   1      34.968  28.878  26.481  1.00  0.00    -0.397 N 
ATOM     20  H   UNL A   1      35.617  28.538  25.822  1.00  0.00     0.156 HD
ATOM     21  H   UNL A   1      35.187  28.861  27.441  1.00  0.00     0.156 HD
ENDBRANCH   9  19
BRANCH  18  22
ATOM     22  C   UNL A   1      30.383  26.512  23.840  1.00  0.00     0.429 C 
ATOM     23  F   UNL A   1      30.806  26.265  25.104  1.00  0.00    -0.167 F 
ATOM     24  F   UNL A   1      29.118  26.985  23.945  1.00  0.00    -0.167 F 
ATOM     25  F   UNL A   1      30.302  25.322  23.202  1.00  0.00    -0.167 F 
ENDBRANCH  18  22
ENDBRANCH   5   8
ENDBRANCH   3   4
ENDBRANCH   2   3
ENDBRANCH   1   2
BRANCH   1  26
ATOM     26  N   UNL A   1      37.454  22.865  25.773  1.00  0.00    -0.352 N 
ATOM     27  C   UNL A   1      38.721  22.921  26.298  1.00  0.00     0.251 C 
ATOM     28  H   UNL A   1      37.096  21.959  25.629  1.00  0.00     0.163 HD
ATOM     29  O   UNL A   1      39.443  21.926  26.264  1.00  0.00    -0.269 OA
BRANCH  27  30
ATOM     30  C   UNL A   1      39.206  24.175  26.901  1.00  0.00     0.039 A 
ATOM     31  C   UNL A   1      39.945  25.074  26.129  1.00  0.00     0.014 A 
ATOM     32  C   UNL A   1      38.949  24.443  28.248  1.00  0.00     0.014 A 
ATOM     33  C   UNL A   1      40.380  26.273  26.697  1.00  0.00     0.010 A 
ATOM     34  C   UNL A   1      39.319  25.665  28.793  1.00  0.00     0.010 A 
ATOM     35  C   UNL A   1      40.051  26.584  28.026  1.00  0.00    -0.014 A 
BRANCH  35  36
ATOM     36  C   UNL A   1      40.508  27.838  28.665  1.00  0.00     0.031 A 
ATOM     37  C   UNL A   1      41.922  27.931  29.170  1.00  0.00     0.074 A 
ATOM     38  C   UNL A   1      39.647  28.859  28.840  1.00  0.00     0.049 A 
ATOM     39  N   UNL A   1      42.493  28.901  29.834  1.00  0.00    -0.248 NA
ATOM     40  C   UNL A   1      42.803  26.777  28.915  1.00  0.00     0.031 C 
ATOM     41  C   UNL A   1      38.249  28.877  28.401  1.00  0.00     0.029 A 
ATOM     42  N   UNL A   1      39.823  30.083  29.434  1.00  0.00    -0.354 N 
ATOM     43  C   UNL A   1      43.789  28.469  30.087  1.00  0.00     0.074 A 
ATOM     44  C   UNL A   1      43.914  27.138  29.541  1.00  0.00     0.031 C 
ATOM     45  C   UNL A   1      37.707  30.068  28.709  1.00  0.00     0.029 A 
ATOM     46  C   UNL A   1      38.703  30.881  29.400  1.00  0.00     0.049 A 
ATOM     47  H   UNL A   1      40.672  30.364  29.846  1.00  0.00     0.167 HD
ATOM     48  C   UNL A   1      44.793  29.136  30.698  1.00  0.00     0.031 A 
ATOM     49  C   UNL A   1      38.506  32.126  29.872  1.00  0.00     0.031 A 
ATOM     50  C   UNL A   1      44.679  30.475  31.201  1.00  0.00     0.049 A 
ATOM     51  C   UNL A   1      39.635  32.834  30.571  1.00  0.00     0.074 A 
ATOM     52  C   UNL A   1      45.660  31.255  31.789  1.00  0.00     0.029 A 
ATOM     53  N   UNL A   1      43.524  31.237  31.165  1.00  0.00    -0.354 N 
ATOM     54  N   UNL A   1      40.860  32.416  30.779  1.00  0.00    -0.248 NA
ATOM     55  C   UNL A   1      39.356  34.177  31.098  1.00  0.00     0.031 C 
ATOM     56  C   UNL A   1      45.086  32.478  32.142  1.00  0.00     0.029 A 
ATOM     57  C   UNL A   1      43.762  32.475  31.735  1.00  0.00     0.049 A 
ATOM     58  H   UNL A   1      42.662  30.943  30.790  1.00  0.00     0.167 HD
ATOM     59  C   UNL A   1      41.506  33.458  31.435  1.00  0.00     0.074 A 
ATOM     60  C   UNL A   1      40.538  34.524  31.589  1.00  0.00     0.031 C 
ATOM     61  C   UNL A   1      42.788  33.525  31.866  1.00  0.00     0.031 A 
BRANCH  48  62
ATOM     62  C   UNL A   1      46.119  28.448  30.843  1.00  0.00    -0.014 A 
ATOM     63  C   UNL A   1      46.378  27.626  31.952  1.00  0.00     0.010 A 
ATOM     64  C   UNL A   1      47.062  28.523  29.802  1.00  0.00     0.010 A 
ATOM     65  C   UNL A   1      47.558  26.881  32.015  1.00  0.00     0.020 A 
ATOM     66  C   UNL A   1      48.236  27.767  29.854  1.00  0.00     0.020 A 
ATOM     67  C   UNL A   1      48.472  26.945  30.959  1.00  0.00     0.054 A 
BRANCH  67  68
ATOM     68  S   UNL A   1      49.952  25.900  31.035  1.00  0.00     0.124 S 
ATOM     69  O   UNL A   1      51.014  26.887  31.214  1.00  0.00    -0.237 OA
ATOM     70  O   UNL A   1      49.678  25.054  32.193  1.00  0.00    -0.237 OA
ATOM     71  O   UNL A   1      49.959  25.211  29.747  1.00  0.00    -0.744 OA
ENDBRANCH  67  68
ENDBRANCH  48  62
BRANCH  49  72
ATOM     72  C   UNL A   1      37.197  32.803  29.672  1.00  0.00    -0.014 A 
ATOM     73  C   UNL A   1      36.946  33.504  28.478  1.00  0.00     0.010 A 
ATOM     74  C   UNL A   1      36.200  32.753  30.660  1.00  0.00     0.010 A 
ATOM     75  C   UNL A   1      35.725  34.155  28.284  1.00  0.00     0.020 A 
ATOM     76  C   UNL A   1      34.969  33.386  30.462  1.00  0.00     0.020 A 
ATOM     77  C   UNL A   1      34.742  34.087  29.276  1.00  0.00     0.054 A 
BRANCH  77  78
ATOM     78  S   UNL A   1      33.157  34.921  28.983  1.00  0.00     0.124 S 
ATOM     79  O   UNL A   1      33.584  36.242  28.529  1.00  0.00    -0.237 OA
ATOM     80  O   UNL A   1      32.544  34.069  27.966  1.00  0.00    -0.237 OA
ATOM     81  O   UNL A   1      32.506  34.891  30.290  1.00  0.00    -0.744 OA
ENDBRANCH  77  78
ENDBRANCH  49  72
BRANCH  61  82
ATOM     82  C   UNL A   1      43.245  34.798  32.519  1.00  0.00    -0.014 A 
ATOM     83  C   UNL A   1      43.717  35.872  31.747  1.00  0.00     0.010 A 
ATOM     84  C   UNL A   1      43.081  34.960  33.906  1.00  0.00     0.010 A 
ATOM     85  C   UNL A   1      44.019  37.093  32.355  1.00  0.00     0.020 A 
ATOM     86  C   UNL A   1      43.362  36.185  34.515  1.00  0.00     0.020 A 
ATOM     87  C   UNL A   1      43.829  37.245  33.733  1.00  0.00     0.054 A 
BRANCH  87  88
ATOM     88  S   UNL A   1      44.164  38.863  34.478  1.00  0.00     0.124 S 
ATOM     89  O   UNL A   1      43.087  39.683  33.930  1.00  0.00    -0.237 OA
ATOM     90  O   UNL A   1      44.069  38.575  35.907  1.00  0.00    -0.237 OA
ATOM     91  O   UNL A   1      45.503  39.197  34.000  1.00  0.00    -0.744 OA
ENDBRANCH  87  88
ENDBRANCH  61  82
ENDBRANCH  35  36
ENDBRANCH  27  30
ENDBRANCH   1  26
TORSDOF 15
ENDMDL
