MODEL 1
REMARK VINA RESULT:     -13.4      0.000      0.000
REMARK SMILES Cc1cccc(N2C(=O)/C(=C/c3ccc(C(=O)NCCCNC(=O)c4ccc(-c5c6nc(c(-c7ccc(S(=O)(=O)[O-])cc7)c7ccc([nH]7)c(-c7ccc(S(=O)(=O)[O-])cc7)c7nc(c(-c8ccc(S(=O)(=O)[O-])cc8)c8ccc5[nH]8)C=C7)C=C6)cc4)cc3)c3ccccc3C2=O)c1
REMARK SMILES IDX 20 1 19 2 18 3 16 4 17 5 15 7 12 8 13 9 86 10 14 11 85 12
REMARK SMILES IDX 11 13 7 14 8 15 93 16 9 17 10 18 92 19 94 20 87 21 91 22
REMARK SMILES IDX 88 23 90 24 89 25 6 26 1 27 2 28 3 29 95 30 4 31 5 32 21 33
REMARK SMILES IDX 22 34 23 35 24 37 25 38 26 39 84 40 27 41 83 42 28 43 29 44
REMARK SMILES IDX 30 45 77 46 31 47 82 48 76 49 78 50 32 51 81 52 75 53 74 54
REMARK SMILES IDX 33 56 63 57 44 58 62 59 45 60 48 61 61 62 79 63 46 64 47 65
REMARK SMILES IDX 60 67 80 68 49 69 34 70 35 71 43 72 36 73 42 74 37 75 38 76
REMARK SMILES IDX 39 77 40 78 41 79 64 80 65 81 73 82 66 83 72 84 67 85 68 86
REMARK SMILES IDX 69 87 70 88 71 89 50 90 51 91 59 92 52 93 58 94 53 95 54 96
REMARK SMILES IDX 55 97 56 98 57 99
REMARK H PARENT 18 6 22 36 78 55 48 66
REMARK Flexibility Score: inf
ROOT
ATOM      1  C   UNL A   1      37.294  30.197  29.157  1.00  0.00     0.042 C 
ENDROOT
BRANCH   1   2
ATOM      2  C   UNL A   1      35.702  29.999  28.859  1.00  0.00     0.118 C 
BRANCH   2   3
ATOM      3  N   UNL A   1      34.798  31.100  28.437  1.00  0.00    -0.352 N 
ATOM      4  C   UNL A   1      33.602  31.141  27.721  1.00  0.00     0.251 C 
ATOM      5  O   UNL A   1      32.938  32.167  27.582  1.00  0.00    -0.269 OA
ATOM      6  H   UNL A   1      35.110  31.990  28.725  1.00  0.00     0.163 HD
BRANCH   4   7
ATOM      7  C   UNL A   1      33.140  29.941  26.981  1.00  0.00     0.039 A 
ATOM      8  C   UNL A   1      32.776  27.289  26.284  1.00  0.00    -0.025 A 
ATOM      9  C   UNL A   1      33.795  28.018  25.665  1.00  0.00     0.009 A 
ATOM     10  C   UNL A   1      31.797  27.960  27.026  1.00  0.00     0.009 A 
ATOM     11  C   UNL A   1      33.983  29.356  26.021  1.00  0.00     0.014 A 
ATOM     12  C   UNL A   1      31.964  29.301  27.346  1.00  0.00     0.014 A 
BRANCH   8  13
ATOM     13  C   UNL A   1      32.765  25.827  26.215  1.00  0.00     0.022 C 
ATOM     14  N   UNL A   1      33.400  22.948  24.222  1.00  0.00    -0.242 N 
ATOM     15  C   UNL A   1      32.783  23.611  25.306  1.00  0.00     0.265 C 
ATOM     16  C   UNL A   1      33.629  23.615  22.997  1.00  0.00     0.265 C 
ATOM     17  O   UNL A   1      32.488  23.138  26.404  1.00  0.00    -0.268 OA
ATOM     18  C   UNL A   1      32.550  25.080  25.106  1.00  0.00     0.049 C 
ATOM     19  C   UNL A   1      32.799  24.808  22.701  1.00  0.00     0.048 A 
ATOM     20  O   UNL A   1      34.430  23.310  22.115  1.00  0.00    -0.268 OA
ATOM     21  C   UNL A   1      32.232  25.530  23.747  1.00  0.00    -0.000 A 
ATOM     22  C   UNL A   1      32.581  25.180  21.364  1.00  0.00     0.014 A 
ATOM     23  C   UNL A   1      31.364  26.586  23.433  1.00  0.00     0.010 A 
ATOM     24  C   UNL A   1      31.747  26.254  21.065  1.00  0.00     0.001 A 
ATOM     25  C   UNL A   1      31.124  26.943  22.100  1.00  0.00     0.001 A 
BRANCH  14  26
ATOM     26  C   UNL A   1      33.876  21.571  24.402  1.00  0.00     0.053 A 
ATOM     27  C   UNL A   1      32.497  17.998  24.138  1.00  0.00     0.044 C 
ATOM     28  C   UNL A   1      33.453  19.131  24.370  1.00  0.00    -0.049 A 
ATOM     29  C   UNL A   1      34.760  18.879  24.775  1.00  0.00     0.003 A 
ATOM     30  C   UNL A   1      33.041  20.460  24.163  1.00  0.00     0.030 A 
ATOM     31  C   UNL A   1      35.624  19.943  24.988  1.00  0.00     0.002 A 
ATOM     32  C   UNL A   1      35.184  21.263  24.812  1.00  0.00     0.027 A 
ENDBRANCH  14  26
ENDBRANCH   8  13
ENDBRANCH   4   7
ENDBRANCH   2   3
ENDBRANCH   1   2
BRANCH   1  33
ATOM     33  C   UNL A   1      38.320  29.643  28.072  1.00  0.00     0.118 C 
BRANCH  33  34
ATOM     34  N   UNL A   1      39.756  28.949  28.279  1.00  0.00    -0.352 N 
ATOM     35  C   UNL A   1      40.600  28.165  29.194  1.00  0.00     0.251 C 
ATOM     36  H   UNL A   1      40.283  29.117  27.465  1.00  0.00     0.163 HD
ATOM     37  O   UNL A   1      41.221  27.269  28.586  1.00  0.00    -0.269 OA
BRANCH  35  38
ATOM     38  C   UNL A   1      40.885  28.111  30.767  1.00  0.00     0.039 A 
ATOM     39  C   UNL A   1      39.836  28.154  31.739  1.00  0.00     0.014 A 
ATOM     40  C   UNL A   1      42.122  28.040  31.373  1.00  0.00     0.014 A 
ATOM     41  C   UNL A   1      40.030  28.865  32.976  1.00  0.00     0.010 A 
ATOM     42  C   UNL A   1      42.332  28.682  32.626  1.00  0.00     0.010 A 
ATOM     43  C   UNL A   1      41.298  29.349  33.294  1.00  0.00    -0.014 A 
BRANCH  43  44
ATOM     44  C   UNL A   1      41.587  30.554  34.163  1.00  0.00     0.031 A 
ATOM     45  C   UNL A   1      42.337  30.402  35.403  1.00  0.00     0.074 A 
ATOM     46  C   UNL A   1      41.323  31.871  33.908  1.00  0.00     0.049 A 
ATOM     47  N   UNL A   1      41.903  30.742  36.572  1.00  0.00    -0.248 NA
ATOM     48  C   UNL A   1      43.706  29.911  35.374  1.00  0.00     0.031 C 
ATOM     49  C   UNL A   1      41.640  33.119  34.630  1.00  0.00     0.029 A 
ATOM     50  N   UNL A   1      40.656  32.403  32.825  1.00  0.00    -0.354 N 
ATOM     51  C   UNL A   1      43.030  30.812  37.360  1.00  0.00     0.074 A 
ATOM     52  C   UNL A   1      44.062  30.081  36.649  1.00  0.00     0.031 C 
ATOM     53  C   UNL A   1      40.843  34.118  34.181  1.00  0.00     0.029 A 
ATOM     54  C   UNL A   1      39.966  33.560  33.172  1.00  0.00     0.049 A 
ATOM     55  H   UNL A   1      40.669  32.015  31.921  1.00  0.00     0.167 HD
ATOM     56  C   UNL A   1      43.156  31.735  38.357  1.00  0.00     0.031 A 
ATOM     57  C   UNL A   1      38.598  33.557  33.101  1.00  0.00     0.031 A 
ATOM     58  C   UNL A   1      42.111  32.760  38.295  1.00  0.00     0.049 A 
ATOM     59  C   UNL A   1      38.010  33.570  34.479  1.00  0.00     0.074 A 
ATOM     60  C   UNL A   1      42.152  34.092  37.906  1.00  0.00     0.029 A 
ATOM     61  N   UNL A   1      40.766  32.412  38.339  1.00  0.00    -0.354 N 
ATOM     62  N   UNL A   1      38.731  33.400  35.544  1.00  0.00    -0.248 NA
ATOM     63  C   UNL A   1      36.600  33.760  34.790  1.00  0.00     0.031 C 
ATOM     64  C   UNL A   1      40.825  34.526  37.666  1.00  0.00     0.029 A 
ATOM     65  C   UNL A   1      39.974  33.469  37.933  1.00  0.00     0.049 A 
ATOM     66  H   UNL A   1      40.425  31.533  38.621  1.00  0.00     0.167 HD
ATOM     67  C   UNL A   1      37.956  33.473  36.656  1.00  0.00     0.074 A 
ATOM     68  C   UNL A   1      36.621  33.704  36.136  1.00  0.00     0.031 C 
ATOM     69  C   UNL A   1      38.520  33.344  37.890  1.00  0.00     0.031 A 
BRANCH  56  70
ATOM     70  C   UNL A   1      44.438  31.898  39.144  1.00  0.00    -0.014 A 
ATOM     71  C   UNL A   1      44.670  31.133  40.303  1.00  0.00     0.010 A 
ATOM     72  C   UNL A   1      45.477  32.766  38.748  1.00  0.00     0.010 A 
ATOM     73  C   UNL A   1      45.835  31.279  41.067  1.00  0.00     0.020 A 
ATOM     74  C   UNL A   1      46.630  32.953  39.525  1.00  0.00     0.020 A 
ATOM     75  C   UNL A   1      46.804  32.199  40.681  1.00  0.00     0.054 A 
BRANCH  75  76
ATOM     76  S   UNL A   1      48.311  32.350  41.673  1.00  0.00     0.124 S 
ATOM     77  O   UNL A   1      48.425  31.027  42.281  1.00  0.00    -0.237 OA
ATOM     78  O   UNL A   1      49.317  32.667  40.663  1.00  0.00    -0.237 OA
ATOM     79  O   UNL A   1      48.008  33.433  42.607  1.00  0.00    -0.744 OA
ENDBRANCH  75  76
ENDBRANCH  56  70
BRANCH  57  80
ATOM     80  C   UNL A   1      38.025  32.799  31.913  1.00  0.00    -0.014 A 
ATOM     81  C   UNL A   1      36.953  31.948  32.244  1.00  0.00     0.010 A 
ATOM     82  C   UNL A   1      37.825  33.538  30.759  1.00  0.00     0.010 A 
ATOM     83  C   UNL A   1      35.645  32.402  32.042  1.00  0.00     0.020 A 
ATOM     84  C   UNL A   1      36.495  33.884  30.469  1.00  0.00     0.020 A 
ATOM     85  C   UNL A   1      35.450  33.568  31.322  1.00  0.00     0.054 A 
BRANCH  85  86
ATOM     86  S   UNL A   1      33.894  34.737  31.922  1.00  0.00     0.124 S 
ATOM     87  O   UNL A   1      33.359  33.903  32.984  1.00  0.00    -0.237 OA
ATOM     88  O   UNL A   1      34.465  35.968  32.464  1.00  0.00    -0.237 OA
ATOM     89  O   UNL A   1      32.981  34.917  30.821  1.00  0.00    -0.744 OA
ENDBRANCH  85  86
ENDBRANCH  57  80
BRANCH  69  90
ATOM     90  C   UNL A   1      37.780  33.209  39.188  1.00  0.00    -0.014 A 
ATOM     91  C   UNL A   1      37.959  34.055  40.289  1.00  0.00     0.010 A 
ATOM     92  C   UNL A   1      36.765  32.226  39.285  1.00  0.00     0.010 A 
ATOM     93  C   UNL A   1      37.222  33.873  41.464  1.00  0.00     0.020 A 
ATOM     94  C   UNL A   1      35.984  32.075  40.427  1.00  0.00     0.020 A 
ATOM     95  C   UNL A   1      36.243  32.881  41.525  1.00  0.00     0.054 A 
BRANCH  95  96
ATOM     96  S   UNL A   1      35.289  32.681  43.044  1.00  0.00     0.124 S 
ATOM     97  O   UNL A   1      36.235  31.966  43.897  1.00  0.00    -0.237 OA
ATOM     98  O   UNL A   1      35.016  34.062  43.435  1.00  0.00    -0.237 OA
ATOM     99  O   UNL A   1      34.120  31.915  42.624  1.00  0.00    -0.744 OA
ENDBRANCH  95  96
ENDBRANCH  69  90
ENDBRANCH  43  44
ENDBRANCH  35  38
ENDBRANCH  33  34
ENDBRANCH   1  33
TORSDOF 15
ENDMDL
MODEL 2
REMARK VINA RESULT:     -12.8      5.787     11.632
REMARK SMILES Cc1cccc(N2C(=O)/C(=C/c3ccc(C(=O)NCCCNC(=O)c4ccc(-c5c6nc(c(-c7ccc(S(=O)(=O)[O-])cc7)c7ccc([nH]7)c(-c7ccc(S(=O)(=O)[O-])cc7)c7nc(c(-c8ccc(S(=O)(=O)[O-])cc8)c8ccc5[nH]8)C=C7)C=C6)cc4)cc3)c3ccccc3C2=O)c1
REMARK SMILES IDX 20 1 19 2 18 3 16 4 17 5 15 7 12 8 13 9 86 10 14 11 85 12
REMARK SMILES IDX 11 13 7 14 8 15 93 16 9 17 10 18 92 19 94 20 87 21 91 22
REMARK SMILES IDX 88 23 90 24 89 25 6 26 1 27 2 28 3 29 95 30 4 31 5 32 21 33
REMARK SMILES IDX 22 34 23 35 24 37 25 38 26 39 84 40 27 41 83 42 28 43 29 44
REMARK SMILES IDX 30 45 77 46 31 47 82 48 76 49 78 50 32 51 81 52 75 53 74 54
REMARK SMILES IDX 33 56 63 57 44 58 62 59 45 60 48 61 61 62 79 63 46 64 47 65
REMARK SMILES IDX 60 67 80 68 49 69 34 70 35 71 43 72 36 73 42 74 37 75 38 76
REMARK SMILES IDX 39 77 40 78 41 79 64 80 65 81 73 82 66 83 72 84 67 85 68 86
REMARK SMILES IDX 69 87 70 88 71 89 50 90 51 91 59 92 52 93 58 94 53 95 54 96
REMARK SMILES IDX 55 97 56 98 57 99
REMARK H PARENT 18 6 22 36 78 55 48 66
REMARK Flexibility Score: inf
ROOT
ATOM      1  C   UNL A   1      44.971  30.309  29.240  1.00  0.00     0.042 C 
ENDROOT
BRANCH   1   2
ATOM      2  C   UNL A   1      43.702  29.405  28.757  1.00  0.00     0.118 C 
BRANCH   2   3
ATOM      3  N   UNL A   1      43.809  27.976  28.364  1.00  0.00    -0.352 N 
ATOM      4  C   UNL A   1      42.909  27.058  27.820  1.00  0.00     0.251 C 
ATOM      5  O   UNL A   1      43.241  25.933  27.449  1.00  0.00    -0.269 OA
ATOM      6  H   UNL A   1      44.705  27.597  28.519  1.00  0.00     0.163 HD
BRANCH   4   7
ATOM      7  C   UNL A   1      41.461  27.374  27.782  1.00  0.00     0.039 A 
ATOM      8  C   UNL A   1      39.041  28.587  28.356  1.00  0.00    -0.025 A 
ATOM      9  C   UNL A   1      39.380  27.404  29.019  1.00  0.00     0.009 A 
ATOM     10  C   UNL A   1      39.781  28.990  27.238  1.00  0.00     0.009 A 
ATOM     11  C   UNL A   1      40.604  26.793  28.733  1.00  0.00     0.014 A 
ATOM     12  C   UNL A   1      40.978  28.357  26.930  1.00  0.00     0.014 A 
BRANCH   8  13
ATOM     13  C   UNL A   1      37.964  29.438  28.864  1.00  0.00     0.022 C 
ATOM     14  N   UNL A   1      36.939  32.742  29.697  1.00  0.00    -0.242 N 
ATOM     15  C   UNL A   1      36.836  31.336  29.791  1.00  0.00     0.265 C 
ATOM     16  C   UNL A   1      38.197  33.371  29.553  1.00  0.00     0.265 C 
ATOM     17  O   UNL A   1      35.814  30.670  29.961  1.00  0.00    -0.268 OA
ATOM     18  C   UNL A   1      38.116  30.587  29.565  1.00  0.00     0.049 C 
ATOM     19  C   UNL A   1      39.395  32.613  29.987  1.00  0.00     0.048 A 
ATOM     20  O   UNL A   1      38.426  34.501  29.126  1.00  0.00    -0.268 OA
ATOM     21  C   UNL A   1      39.356  31.222  30.024  1.00  0.00    -0.000 A 
ATOM     22  C   UNL A   1      40.549  33.314  30.375  1.00  0.00     0.014 A 
ATOM     23  C   UNL A   1      40.465  30.538  30.542  1.00  0.00     0.010 A 
ATOM     24  C   UNL A   1      41.659  32.622  30.853  1.00  0.00     0.001 A 
ATOM     25  C   UNL A   1      41.607  31.236  30.954  1.00  0.00     0.001 A 
BRANCH  14  26
ATOM     26  C   UNL A   1      35.714  33.550  29.675  1.00  0.00     0.053 A 
ATOM     27  C   UNL A   1      33.491  35.467  32.149  1.00  0.00     0.044 C 
ATOM     28  C   UNL A   1      34.004  34.893  30.862  1.00  0.00    -0.049 A 
ATOM     29  C   UNL A   1      33.313  35.101  29.672  1.00  0.00     0.003 A 
ATOM     30  C   UNL A   1      35.199  34.151  30.842  1.00  0.00     0.030 A 
ATOM     31  C   UNL A   1      33.803  34.555  28.494  1.00  0.00     0.002 A 
ATOM     32  C   UNL A   1      34.978  33.787  28.501  1.00  0.00     0.027 A 
ENDBRANCH  14  26
ENDBRANCH   8  13
ENDBRANCH   4   7
ENDBRANCH   2   3
ENDBRANCH   1   2
BRANCH   1  33
ATOM     33  C   UNL A   1      46.298  30.244  28.362  1.00  0.00     0.118 C 
BRANCH  33  34
ATOM     34  N   UNL A   1      47.419  29.094  28.283  1.00  0.00    -0.352 N 
ATOM     35  C   UNL A   1      47.714  27.673  28.527  1.00  0.00     0.251 C 
ATOM     36  H   UNL A   1      48.239  29.507  27.929  1.00  0.00     0.163 HD
ATOM     37  O   UNL A   1      48.379  27.179  27.592  1.00  0.00    -0.269 OA
BRANCH  35  38
ATOM     38  C   UNL A   1      47.355  26.576  29.633  1.00  0.00     0.039 A 
ATOM     39  C   UNL A   1      46.475  25.479  29.370  1.00  0.00     0.014 A 
ATOM     40  C   UNL A   1      47.806  26.549  30.937  1.00  0.00     0.014 A 
ATOM     41  C   UNL A   1      45.573  25.018  30.393  1.00  0.00     0.010 A 
ATOM     42  C   UNL A   1      46.961  26.045  31.965  1.00  0.00     0.010 A 
ATOM     43  C   UNL A   1      45.693  25.523  31.687  1.00  0.00    -0.014 A 
BRANCH  43  44
ATOM     44  C   UNL A   1      44.567  25.644  32.691  1.00  0.00     0.031 A 
ATOM     45  C   UNL A   1      43.915  26.928  32.911  1.00  0.00     0.074 A 
ATOM     46  C   UNL A   1      43.952  24.654  33.406  1.00  0.00     0.049 A 
ATOM     47  N   UNL A   1      43.841  27.531  34.052  1.00  0.00    -0.248 NA
ATOM     48  C   UNL A   1      43.211  27.588  31.822  1.00  0.00     0.031 C 
ATOM     49  C   UNL A   1      42.799  24.645  34.328  1.00  0.00     0.029 A 
ATOM     50  N   UNL A   1      44.273  23.313  33.436  1.00  0.00    -0.354 N 
ATOM     51  C   UNL A   1      42.833  28.455  33.899  1.00  0.00     0.074 A 
ATOM     52  C   UNL A   1      42.641  28.606  32.470  1.00  0.00     0.031 C 
ATOM     53  C   UNL A   1      42.819  23.511  35.068  1.00  0.00     0.029 A 
ATOM     54  C   UNL A   1      43.990  22.751  34.677  1.00  0.00     0.049 A 
ATOM     55  H   UNL A   1      44.652  22.816  32.676  1.00  0.00     0.167 HD
ATOM     56  C   UNL A   1      41.991  28.779  34.923  1.00  0.00     0.031 A 
ATOM     57  C   UNL A   1      45.026  22.280  35.439  1.00  0.00     0.031 A 
ATOM     58  C   UNL A   1      42.121  27.860  36.056  1.00  0.00     0.049 A 
ATOM     59  C   UNL A   1      45.248  23.175  36.619  1.00  0.00     0.074 A 
ATOM     60  C   UNL A   1      41.289  26.848  36.520  1.00  0.00     0.029 A 
ATOM     61  N   UNL A   1      43.344  27.671  36.686  1.00  0.00    -0.354 N 
ATOM     62  N   UNL A   1      44.656  24.323  36.742  1.00  0.00    -0.248 NA
ATOM     63  C   UNL A   1      46.133  22.887  37.740  1.00  0.00     0.031 C 
ATOM     64  C   UNL A   1      42.038  26.021  37.391  1.00  0.00     0.029 A 
ATOM     65  C   UNL A   1      43.317  26.540  37.481  1.00  0.00     0.049 A 
ATOM     66  H   UNL A   1      44.124  28.262  36.581  1.00  0.00     0.167 HD
ATOM     67  C   UNL A   1      45.018  24.920  37.905  1.00  0.00     0.074 A 
ATOM     68  C   UNL A   1      45.948  23.980  38.505  1.00  0.00     0.031 C 
ATOM     69  C   UNL A   1      44.492  26.131  38.244  1.00  0.00     0.031 A 
BRANCH  56  70
ATOM     70  C   UNL A   1      40.807  29.701  34.729  1.00  0.00    -0.014 A 
ATOM     71  C   UNL A   1      39.744  29.333  33.882  1.00  0.00     0.010 A 
ATOM     72  C   UNL A   1      40.671  30.931  35.406  1.00  0.00     0.010 A 
ATOM     73  C   UNL A   1      38.646  30.175  33.660  1.00  0.00     0.020 A 
ATOM     74  C   UNL A   1      39.598  31.802  35.164  1.00  0.00     0.020 A 
ATOM     75  C   UNL A   1      38.586  31.412  34.293  1.00  0.00     0.054 A 
BRANCH  75  76
ATOM     76  S   UNL A   1      37.143  32.469  34.009  1.00  0.00     0.124 S 
ATOM     77  O   UNL A   1      36.291  31.628  33.174  1.00  0.00    -0.237 OA
ATOM     78  O   UNL A   1      36.658  32.704  35.367  1.00  0.00    -0.237 OA
ATOM     79  O   UNL A   1      37.698  33.644  33.338  1.00  0.00    -0.744 OA
ENDBRANCH  75  76
ENDBRANCH  56  70
BRANCH  57  80
ATOM     80  C   UNL A   1      46.125  21.581  34.653  1.00  0.00    -0.014 A 
ATOM     81  C   UNL A   1      47.381  22.210  34.748  1.00  0.00     0.010 A 
ATOM     82  C   UNL A   1      46.173  20.202  34.770  1.00  0.00     0.010 A 
ATOM     83  C   UNL A   1      48.313  21.719  35.668  1.00  0.00     0.020 A 
ATOM     84  C   UNL A   1      47.195  19.685  35.584  1.00  0.00     0.020 A 
ATOM     85  C   UNL A   1      48.062  20.508  36.287  1.00  0.00     0.054 A 
BRANCH  85  86
ATOM     86  S   UNL A   1      48.692  20.343  38.217  1.00  0.00     0.124 S 
ATOM     87  O   UNL A   1      47.420  20.092  38.868  1.00  0.00    -0.237 OA
ATOM     88  O   UNL A   1      49.556  19.167  38.289  1.00  0.00    -0.237 OA
ATOM     89  O   UNL A   1      49.309  21.582  38.624  1.00  0.00    -0.744 OA
ENDBRANCH  85  86
ENDBRANCH  57  80
BRANCH  69  90
ATOM     90  C   UNL A   1      44.936  26.997  39.386  1.00  0.00    -0.014 A 
ATOM     91  C   UNL A   1      45.654  28.190  39.239  1.00  0.00     0.010 A 
ATOM     92  C   UNL A   1      44.528  26.645  40.695  1.00  0.00     0.010 A 
ATOM     93  C   UNL A   1      46.022  28.951  40.353  1.00  0.00     0.020 A 
ATOM     94  C   UNL A   1      44.837  27.426  41.806  1.00  0.00     0.020 A 
ATOM     95  C   UNL A   1      45.615  28.559  41.628  1.00  0.00     0.054 A 
BRANCH  95  96
ATOM     96  S   UNL A   1      46.084  29.570  43.048  1.00  0.00     0.124 S 
ATOM     97  O   UNL A   1      45.866  30.921  42.536  1.00  0.00    -0.237 OA
ATOM     98  O   UNL A   1      45.143  29.132  44.078  1.00  0.00    -0.237 OA
ATOM     99  O   UNL A   1      47.477  29.208  43.291  1.00  0.00    -0.744 OA
ENDBRANCH  95  96
ENDBRANCH  69  90
ENDBRANCH  43  44
ENDBRANCH  35  38
ENDBRANCH  33  34
ENDBRANCH   1  33
TORSDOF 15
ENDMDL
MODEL 3
REMARK VINA RESULT:     -12.6      5.616     14.383
REMARK SMILES Cc1cccc(N2C(=O)/C(=C/c3ccc(C(=O)NCCCNC(=O)c4ccc(-c5c6nc(c(-c7ccc(S(=O)(=O)[O-])cc7)c7ccc([nH]7)c(-c7ccc(S(=O)(=O)[O-])cc7)c7nc(c(-c8ccc(S(=O)(=O)[O-])cc8)c8ccc5[nH]8)C=C7)C=C6)cc4)cc3)c3ccccc3C2=O)c1
REMARK SMILES IDX 20 1 19 2 18 3 16 4 17 5 15 7 12 8 13 9 86 10 14 11 85 12
REMARK SMILES IDX 11 13 7 14 8 15 93 16 9 17 10 18 92 19 94 20 87 21 91 22
REMARK SMILES IDX 88 23 90 24 89 25 6 26 1 27 2 28 3 29 95 30 4 31 5 32 21 33
REMARK SMILES IDX 22 34 23 35 24 37 25 38 26 39 84 40 27 41 83 42 28 43 29 44
REMARK SMILES IDX 30 45 77 46 31 47 82 48 76 49 78 50 32 51 81 52 75 53 74 54
REMARK SMILES IDX 33 56 63 57 44 58 62 59 45 60 48 61 61 62 79 63 46 64 47 65
REMARK SMILES IDX 60 67 80 68 49 69 34 70 35 71 43 72 36 73 42 74 37 75 38 76
REMARK SMILES IDX 39 77 40 78 41 79 64 80 65 81 73 82 66 83 72 84 67 85 68 86
REMARK SMILES IDX 69 87 70 88 71 89 50 90 51 91 59 92 52 93 58 94 53 95 54 96
REMARK SMILES IDX 55 97 56 98 57 99
REMARK H PARENT 18 6 22 36 78 55 48 66
REMARK Flexibility Score: inf
ROOT
ATOM      1  C   UNL A   1      50.149  29.306  31.014  1.00  0.00     0.042 C 
ENDROOT
BRANCH   1   2
ATOM      2  C   UNL A   1      49.390  29.687  29.622  1.00  0.00     0.118 C 
BRANCH   2   3
ATOM      3  N   UNL A   1      50.056  30.356  28.475  1.00  0.00    -0.352 N 
ATOM      4  C   UNL A   1      49.643  31.316  27.549  1.00  0.00     0.251 C 
ATOM      5  O   UNL A   1      50.406  31.834  26.735  1.00  0.00    -0.269 OA
ATOM      6  H   UNL A   1      50.986  30.060  28.340  1.00  0.00     0.163 HD
BRANCH   4   7
ATOM      7  C   UNL A   1      48.206  31.663  27.432  1.00  0.00     0.039 A 
ATOM      8  C   UNL A   1      45.515  31.863  28.042  1.00  0.00    -0.025 A 
ATOM      9  C   UNL A   1      45.947  30.819  27.221  1.00  0.00     0.009 A 
ATOM     10  C   UNL A   1      46.378  32.930  28.316  1.00  0.00     0.009 A 
ATOM     11  C   UNL A   1      47.307  30.714  26.916  1.00  0.00     0.014 A 
ATOM     12  C   UNL A   1      47.722  32.843  27.978  1.00  0.00     0.014 A 
BRANCH   8  13
ATOM     13  C   UNL A   1      44.193  31.814  28.669  1.00  0.00     0.022 C 
ATOM     14  N   UNL A   1      42.284  32.404  31.612  1.00  0.00    -0.242 N 
ATOM     15  C   UNL A   1      42.498  31.786  30.360  1.00  0.00     0.265 C 
ATOM     16  C   UNL A   1      43.363  32.673  32.485  1.00  0.00     0.265 C 
ATOM     17  O   UNL A   1      41.648  31.459  29.531  1.00  0.00    -0.268 OA
ATOM     18  C   UNL A   1      43.938  31.598  29.981  1.00  0.00     0.049 C 
ATOM     19  C   UNL A   1      44.603  31.882  32.303  1.00  0.00     0.048 A 
ATOM     20  O   UNL A   1      43.394  33.480  33.412  1.00  0.00    -0.268 OA
ATOM     21  C   UNL A   1      44.886  31.316  31.063  1.00  0.00    -0.000 A 
ATOM     22  C   UNL A   1      45.468  31.697  33.396  1.00  0.00     0.014 A 
ATOM     23  C   UNL A   1      46.009  30.483  30.951  1.00  0.00     0.010 A 
ATOM     24  C   UNL A   1      46.601  30.899  33.263  1.00  0.00     0.001 A 
ATOM     25  C   UNL A   1      46.858  30.277  32.045  1.00  0.00     0.001 A 
BRANCH  14  26
ATOM     26  C   UNL A   1      40.929  32.838  31.974  1.00  0.00     0.053 A 
ATOM     27  C   UNL A   1      37.951  31.551  34.026  1.00  0.00     0.044 C 
ATOM     28  C   UNL A   1      38.787  32.438  33.152  1.00  0.00    -0.049 A 
ATOM     29  C   UNL A   1      38.275  33.638  32.670  1.00  0.00     0.003 A 
ATOM     30  C   UNL A   1      40.105  32.072  32.823  1.00  0.00     0.030 A 
ATOM     31  C   UNL A   1      39.064  34.440  31.858  1.00  0.00     0.002 A 
ATOM     32  C   UNL A   1      40.364  34.039  31.512  1.00  0.00     0.027 A 
ENDBRANCH  14  26
ENDBRANCH   8  13
ENDBRANCH   4   7
ENDBRANCH   2   3
ENDBRANCH   1   2
BRANCH   1  33
ATOM     33  C   UNL A   1      49.937  27.836  31.590  1.00  0.00     0.118 C 
BRANCH  33  34
ATOM     34  N   UNL A   1      49.363  27.368  33.017  1.00  0.00    -0.352 N 
ATOM     35  C   UNL A   1      48.280  26.652  33.710  1.00  0.00     0.251 C 
ATOM     36  H   UNL A   1      49.989  27.689  33.705  1.00  0.00     0.163 HD
ATOM     37  O   UNL A   1      48.726  25.925  34.622  1.00  0.00    -0.269 OA
BRANCH  35  38
ATOM     38  C   UNL A   1      46.694  26.505  33.565  1.00  0.00     0.039 A 
ATOM     39  C   UNL A   1      46.084  25.390  32.910  1.00  0.00     0.014 A 
ATOM     40  C   UNL A   1      45.744  27.401  34.012  1.00  0.00     0.014 A 
ATOM     41  C   UNL A   1      44.901  25.584  32.112  1.00  0.00     0.010 A 
ATOM     42  C   UNL A   1      44.538  27.574  33.278  1.00  0.00     0.010 A 
ATOM     43  C   UNL A   1      44.258  26.821  32.132  1.00  0.00    -0.014 A 
BRANCH  43  44
ATOM     44  C   UNL A   1      43.435  27.402  31.003  1.00  0.00     0.031 A 
ATOM     45  C   UNL A   1      42.048  27.788  31.229  1.00  0.00     0.074 A 
ATOM     46  C   UNL A   1      43.838  27.739  29.740  1.00  0.00     0.049 A 
ATOM     47  N   UNL A   1      41.038  27.321  30.573  1.00  0.00    -0.248 NA
ATOM     48  C   UNL A   1      41.727  28.827  32.195  1.00  0.00     0.031 C 
ATOM     49  C   UNL A   1      43.154  28.390  28.606  1.00  0.00     0.029 A 
ATOM     50  N   UNL A   1      45.080  27.550  29.174  1.00  0.00    -0.354 N 
ATOM     51  C   UNL A   1      40.020  28.217  30.807  1.00  0.00     0.074 A 
ATOM     52  C   UNL A   1      40.420  28.982  31.973  1.00  0.00     0.031 C 
ATOM     53  C   UNL A   1      43.845  28.155  27.464  1.00  0.00     0.029 A 
ATOM     54  C   UNL A   1      44.986  27.329  27.803  1.00  0.00     0.049 A 
ATOM     55  H   UNL A   1      45.928  27.572  29.675  1.00  0.00     0.167 HD
ATOM     56  C   UNL A   1      39.089  28.515  29.855  1.00  0.00     0.031 A 
ATOM     57  C   UNL A   1      45.368  26.112  27.305  1.00  0.00     0.031 A 
ATOM     58  C   UNL A   1      39.463  27.998  28.537  1.00  0.00     0.049 A 
ATOM     59  C   UNL A   1      44.168  25.337  26.857  1.00  0.00     0.074 A 
ATOM     60  C   UNL A   1      39.927  28.639  27.395  1.00  0.00     0.029 A 
ATOM     61  N   UNL A   1      39.704  26.644  28.344  1.00  0.00    -0.354 N 
ATOM     62  N   UNL A   1      42.956  25.722  27.116  1.00  0.00    -0.248 NA
ATOM     63  C   UNL A   1      44.203  24.089  26.106  1.00  0.00     0.031 C 
ATOM     64  C   UNL A   1      40.496  27.665  26.539  1.00  0.00     0.029 A 
ATOM     65  C   UNL A   1      40.357  26.429  27.144  1.00  0.00     0.049 A 
ATOM     66  H   UNL A   1      39.446  25.934  28.976  1.00  0.00     0.167 HD
ATOM     67  C   UNL A   1      42.060  24.852  26.584  1.00  0.00     0.074 A 
ATOM     68  C   UNL A   1      42.887  23.840  25.955  1.00  0.00     0.031 C 
ATOM     69  C   UNL A   1      40.723  25.081  26.721  1.00  0.00     0.031 A 
BRANCH  56  70
ATOM     70  C   UNL A   1      38.042  29.588  30.064  1.00  0.00    -0.014 A 
ATOM     71  C   UNL A   1      38.180  30.852  29.460  1.00  0.00     0.010 A 
ATOM     72  C   UNL A   1      36.866  29.379  30.814  1.00  0.00     0.010 A 
ATOM     73  C   UNL A   1      37.243  31.875  29.654  1.00  0.00     0.020 A 
ATOM     74  C   UNL A   1      35.939  30.404  31.051  1.00  0.00     0.020 A 
ATOM     75  C   UNL A   1      36.132  31.649  30.461  1.00  0.00     0.054 A 
BRANCH  75  76
ATOM     76  S   UNL A   1      34.922  32.980  30.675  1.00  0.00     0.124 S 
ATOM     77  O   UNL A   1      34.357  32.688  31.989  1.00  0.00    -0.237 OA
ATOM     78  O   UNL A   1      35.759  34.175  30.601  1.00  0.00    -0.237 OA
ATOM     79  O   UNL A   1      34.002  32.797  29.553  1.00  0.00    -0.744 OA
ENDBRANCH  75  76
ENDBRANCH  56  70
BRANCH  57  80
ATOM     80  C   UNL A   1      46.599  25.512  27.968  1.00  0.00    -0.014 A 
ATOM     81  C   UNL A   1      47.318  24.629  27.141  1.00  0.00     0.010 A 
ATOM     82  C   UNL A   1      47.394  26.391  28.685  1.00  0.00     0.010 A 
ATOM     83  C   UNL A   1      48.443  25.109  26.461  1.00  0.00     0.020 A 
ATOM     84  C   UNL A   1      48.598  26.774  28.072  1.00  0.00     0.020 A 
ATOM     85  C   UNL A   1      48.940  26.357  26.795  1.00  0.00     0.054 A 
BRANCH  85  86
ATOM     86  S   UNL A   1      49.722  27.445  25.262  1.00  0.00     0.124 S 
ATOM     87  O   UNL A   1      48.497  27.972  24.688  1.00  0.00    -0.237 OA
ATOM     88  O   UNL A   1      50.521  28.514  25.857  1.00  0.00    -0.237 OA
ATOM     89  O   UNL A   1      50.440  26.567  24.372  1.00  0.00    -0.744 OA
ENDBRANCH  85  86
ENDBRANCH  57  80
BRANCH  69  90
ATOM     90  C   UNL A   1      39.624  24.124  26.364  1.00  0.00    -0.014 A 
ATOM     91  C   UNL A   1      39.795  22.741  26.230  1.00  0.00     0.010 A 
ATOM     92  C   UNL A   1      38.306  24.627  26.243  1.00  0.00     0.010 A 
ATOM     93  C   UNL A   1      38.718  21.910  25.906  1.00  0.00     0.020 A 
ATOM     94  C   UNL A   1      37.216  23.802  25.980  1.00  0.00     0.020 A 
ATOM     95  C   UNL A   1      37.437  22.448  25.778  1.00  0.00     0.054 A 
BRANCH  95  96
ATOM     96  S   UNL A   1      36.060  21.353  25.382  1.00  0.00     0.124 S 
ATOM     97  O   UNL A   1      35.489  22.006  24.206  1.00  0.00    -0.237 OA
ATOM     98  O   UNL A   1      36.727  20.078  25.126  1.00  0.00    -0.237 OA
ATOM     99  O   UNL A   1      35.230  21.385  26.582  1.00  0.00    -0.744 OA
ENDBRANCH  95  96
ENDBRANCH  69  90
ENDBRANCH  43  44
ENDBRANCH  35  38
ENDBRANCH  33  34
ENDBRANCH   1  33
TORSDOF 15
ENDMDL
