MODEL 1
REMARK VINA RESULT:     -14.7      0.000      0.000
REMARK SMILES Cc1ccc(S(=O)(=O)n2cc(C(=O)C(=O)N[C@H](Cc3c[nH]c4ccccc34)C(=O)NCC(=O)NCCCNC(=O)c3ccc(-c4c5nc(c(-c6ccc(S(=O)(=O)[O-])cc6)c6ccc([nH]6)c(-c6ccc(S(=O)(=O)[O-])cc6)c6nc(c(-c7ccc(S(=O)(=O)[O-])cc7)c7ccc4[nH]7)C=C6)C=C5)cc3)c3ccccc32)cc1
REMARK SMILES IDX 32 1 33 2 34 3 31 5 30 6 28 7 29 8 17 10 16 11 14 12 15 13
REMARK SMILES IDX 12 15 13 16 11 17 9 18 10 19 106 20 101 21 105 22 102 23
REMARK SMILES IDX 104 24 103 25 6 26 7 27 8 28 5 29 1 30 2 31 3 32 108 33 4 34
REMARK SMILES IDX 107 35 18 36 19 37 20 38 27 39 21 40 22 41 26 42 23 44 25 45
REMARK SMILES IDX 24 46 35 47 36 48 37 49 38 50 39 51 40 53 41 54 42 55 100 56
REMARK SMILES IDX 43 57 99 58 44 59 45 60 46 61 93 62 47 63 98 64 92 65 94 66
REMARK SMILES IDX 48 67 97 68 91 69 90 70 49 72 79 73 60 74 78 75 61 76 64 77
REMARK SMILES IDX 77 78 95 79 62 80 63 81 76 83 96 84 65 85 50 86 51 87 59 88
REMARK SMILES IDX 52 89 58 90 53 91 54 92 55 93 56 94 57 95 80 96 81 97 89 98
REMARK SMILES IDX 82 99 88 100 83 101 84 102 85 103 86 104 87 105 66 106
REMARK SMILES IDX 67 107 75 108 68 109 74 110 69 111 70 112 71 113 72 114
REMARK SMILES IDX 73 115
REMARK H PARENT 34 4 30 9 16 14 21 43 38 52 94 71 64 82
REMARK Flexibility Score: inf
ROOT
ATOM      1  C   UNL A   1      32.782  28.538  27.335  1.00  0.00     0.239 C 
ATOM      2  O   UNL A   1      31.821  28.030  27.921  1.00  0.00    -0.273 OA
ATOM      3  N   UNL A   1      33.176  29.787  27.711  1.00  0.00    -0.355 N 
ATOM      4  H   UNL A   1      32.566  30.257  28.323  1.00  0.00     0.163 HD
ENDROOT
BRANCH   1   5
ATOM      5  C   UNL A   1      33.598  27.703  26.336  1.00  0.00     0.216 C 
BRANCH   5   6
ATOM      6  N   UNL A   1      33.864  28.326  25.062  1.00  0.00    -0.345 N 
ATOM      7  C   UNL A   1      33.408  28.148  23.803  1.00  0.00     0.243 C 
ATOM      8  O   UNL A   1      33.830  29.002  23.010  1.00  0.00    -0.273 OA
ATOM      9  H   UNL A   1      34.532  29.047  25.125  1.00  0.00     0.164 HD
BRANCH   7  10
ATOM     10  C   UNL A   1      32.447  27.024  23.289  1.00  0.00     0.176 C 
BRANCH  10  11
ATOM     11  N   UNL A   1      32.345  26.713  21.812  1.00  0.00    -0.337 N 
ATOM     12  C   UNL A   1      32.697  25.636  20.998  1.00  0.00     0.293 C 
ATOM     13  O   UNL A   1      32.544  25.713  19.783  1.00  0.00    -0.265 OA
ATOM     14  H   UNL A   1      31.930  27.447  21.303  1.00  0.00     0.164 HD
BRANCH  12  15
ATOM     15  C   UNL A   1      33.224  24.347  21.611  1.00  0.00     0.252 C 
ATOM     16  O   UNL A   1      33.239  23.405  20.822  1.00  0.00    -0.283 OA
BRANCH  15  17
ATOM     17  C   UNL A   1      33.678  24.096  22.989  1.00  0.00     0.054 A 
ATOM     18  N   UNL A   1      34.509  24.057  25.096  1.00  0.00    -0.240 N 
ATOM     19  C   UNL A   1      34.863  24.204  23.728  1.00  0.00     0.117 A 
ATOM     20  C   UNL A   1      33.109  24.207  25.127  1.00  0.00     0.065 A 
ATOM     21  C   UNL A   1      32.753  23.588  23.940  1.00  0.00     0.012 A 
ATOM     22  C   UNL A   1      32.212  24.311  26.198  1.00  0.00     0.028 A 
ATOM     23  C   UNL A   1      31.618  22.769  23.910  1.00  0.00     0.011 A 
ATOM     24  C   UNL A   1      31.124  23.431  26.165  1.00  0.00     0.002 A 
ATOM     25  C   UNL A   1      30.852  22.632  25.058  1.00  0.00     0.001 A 
BRANCH  18  26
ATOM     26  S   UNL A   1      34.964  22.653  26.100  1.00  0.00     0.268 S 
ATOM     27  O   UNL A   1      34.453  22.957  27.423  1.00  0.00    -0.201 OA
ATOM     28  O   UNL A   1      36.393  22.528  25.839  1.00  0.00    -0.201 OA
BRANCH  26  29
ATOM     29  C   UNL A   1      34.427  21.027  25.720  1.00  0.00     0.088 A 
ATOM     30  C   UNL A   1      33.791  17.057  24.180  1.00  0.00     0.044 C 
ATOM     31  C   UNL A   1      34.008  18.410  24.789  1.00  0.00    -0.051 A 
ATOM     32  C   UNL A   1      35.201  19.053  24.493  1.00  0.00     0.005 A 
ATOM     33  C   UNL A   1      33.046  19.074  25.583  1.00  0.00     0.005 A 
ATOM     34  C   UNL A   1      35.408  20.331  24.970  1.00  0.00     0.022 A 
ATOM     35  C   UNL A   1      33.244  20.394  26.052  1.00  0.00     0.022 A 
ENDBRANCH  26  29
ENDBRANCH  18  26
ENDBRANCH  15  17
ENDBRANCH  12  15
ENDBRANCH  10  11
BRANCH  10  36
ATOM     36  C   UNL A   1      31.173  26.691  24.134  1.00  0.00     0.072 C 
BRANCH  36  37
ATOM     37  C   UNL A   1      29.813  27.191  23.712  1.00  0.00    -0.020 A 
ATOM     38  C   UNL A   1      28.631  26.499  23.910  1.00  0.00     0.087 A 
ATOM     39  C   UNL A   1      29.425  28.472  23.176  1.00  0.00     0.003 A 
ATOM     40  N   UNL A   1      27.573  27.277  23.506  1.00  0.00    -0.361 N 
ATOM     41  C   UNL A   1      28.045  28.441  22.945  1.00  0.00     0.046 A 
ATOM     42  C   UNL A   1      30.114  29.660  22.851  1.00  0.00     0.010 A 
ATOM     43  H   UNL A   1      26.624  27.038  23.603  1.00  0.00     0.166 HD
ATOM     44  C   UNL A   1      27.355  29.474  22.294  1.00  0.00     0.026 A 
ATOM     45  C   UNL A   1      29.434  30.718  22.231  1.00  0.00     0.001 A 
ATOM     46  C   UNL A   1      28.079  30.613  21.930  1.00  0.00     0.002 A 
ENDBRANCH  36  37
ENDBRANCH  10  36
ENDBRANCH   7  10
ENDBRANCH   5   6
ENDBRANCH   1   5
BRANCH   3  47
ATOM     47  C   UNL A   1      34.373  30.519  27.335  1.00  0.00     0.117 C 
BRANCH  47  48
ATOM     48  C   UNL A   1      35.042  31.141  28.543  1.00  0.00     0.042 C 
BRANCH  48  49
ATOM     49  C   UNL A   1      36.021  32.230  28.144  1.00  0.00     0.118 C 
BRANCH  49  50
ATOM     50  N   UNL A   1      37.334  32.029  28.734  1.00  0.00    -0.352 N 
ATOM     51  C   UNL A   1      38.130  30.917  28.956  1.00  0.00     0.251 C 
ATOM     52  H   UNL A   1      37.749  32.867  29.042  1.00  0.00     0.163 HD
ATOM     53  O   UNL A   1      39.101  31.052  29.646  1.00  0.00    -0.269 OA
BRANCH  51  54
ATOM     54  C   UNL A   1      37.935  29.598  28.248  1.00  0.00     0.039 A 
ATOM     55  C   UNL A   1      37.801  28.611  29.240  1.00  0.00     0.014 A 
ATOM     56  C   UNL A   1      38.803  29.348  27.205  1.00  0.00     0.014 A 
ATOM     57  C   UNL A   1      38.941  27.909  29.587  1.00  0.00     0.010 A 
ATOM     58  C   UNL A   1      39.986  28.759  27.563  1.00  0.00     0.010 A 
ATOM     59  C   UNL A   1      40.070  28.134  28.812  1.00  0.00    -0.014 A 
BRANCH  59  60
ATOM     60  C   UNL A   1      41.377  27.627  29.141  1.00  0.00     0.031 A 
ATOM     61  C   UNL A   1      41.578  26.211  28.808  1.00  0.00     0.074 A 
ATOM     62  C   UNL A   1      42.317  28.473  29.615  1.00  0.00     0.049 A 
ATOM     63  N   UNL A   1      42.515  25.467  29.267  1.00  0.00    -0.248 NA
ATOM     64  C   UNL A   1      40.635  25.484  27.950  1.00  0.00     0.031 C 
ATOM     65  C   UNL A   1      43.740  28.207  29.799  1.00  0.00     0.029 A 
ATOM     66  N   UNL A   1      42.118  29.694  30.275  1.00  0.00    -0.354 N 
ATOM     67  C   UNL A   1      42.498  24.306  28.525  1.00  0.00     0.074 A 
ATOM     68  C   UNL A   1      41.242  24.307  27.828  1.00  0.00     0.031 C 
ATOM     69  C   UNL A   1      44.195  29.012  30.777  1.00  0.00     0.029 A 
ATOM     70  C   UNL A   1      43.031  29.687  31.340  1.00  0.00     0.049 A 
ATOM     71  H   UNL A   1      41.475  30.402  30.041  1.00  0.00     0.167 HD
ATOM     72  C   UNL A   1      43.642  23.577  28.453  1.00  0.00     0.031 A 
ATOM     73  C   UNL A   1      42.621  29.568  32.639  1.00  0.00     0.031 A 
ATOM     74  C   UNL A   1      44.586  24.047  29.469  1.00  0.00     0.049 A 
ATOM     75  C   UNL A   1      43.155  28.278  33.262  1.00  0.00     0.074 A 
ATOM     76  C   UNL A   1      45.674  24.903  29.425  1.00  0.00     0.029 A 
ATOM     77  N   UNL A   1      44.188  23.991  30.806  1.00  0.00    -0.354 N 
ATOM     78  N   UNL A   1      43.468  27.202  32.582  1.00  0.00    -0.248 NA
ATOM     79  C   UNL A   1      43.448  28.131  34.686  1.00  0.00     0.031 C 
ATOM     80  C   UNL A   1      45.823  25.477  30.723  1.00  0.00     0.029 A 
ATOM     81  C   UNL A   1      44.857  24.939  31.560  1.00  0.00     0.049 A 
ATOM     82  H   UNL A   1      43.521  23.361  31.164  1.00  0.00     0.167 HD
ATOM     83  C   UNL A   1      44.050  26.274  33.414  1.00  0.00     0.074 A 
ATOM     84  C   UNL A   1      43.993  26.901  34.725  1.00  0.00     0.031 C 
ATOM     85  C   UNL A   1      44.564  25.077  32.985  1.00  0.00     0.031 A 
BRANCH  72  86
ATOM     86  C   UNL A   1      43.979  22.694  27.270  1.00  0.00    -0.014 A 
ATOM     87  C   UNL A   1      43.087  21.672  26.895  1.00  0.00     0.010 A 
ATOM     88  C   UNL A   1      45.192  22.739  26.549  1.00  0.00     0.010 A 
ATOM     89  C   UNL A   1      43.406  20.731  25.898  1.00  0.00     0.020 A 
ATOM     90  C   UNL A   1      45.533  21.801  25.565  1.00  0.00     0.020 A 
ATOM     91  C   UNL A   1      44.635  20.796  25.244  1.00  0.00     0.054 A 
BRANCH  91  92
ATOM     92  S   UNL A   1      45.044  19.577  23.970  1.00  0.00     0.124 S 
ATOM     93  O   UNL A   1      46.495  19.469  24.090  1.00  0.00    -0.237 OA
ATOM     94  O   UNL A   1      44.284  18.409  24.401  1.00  0.00    -0.237 OA
ATOM     95  O   UNL A   1      44.574  20.197  22.732  1.00  0.00    -0.744 OA
ENDBRANCH  91  92
ENDBRANCH  72  86
BRANCH  73  96
ATOM     96  C   UNL A   1      41.339  30.279  32.967  1.00  0.00    -0.014 A 
ATOM     97  C   UNL A   1      41.381  31.689  33.063  1.00  0.00     0.010 A 
ATOM     98  C   UNL A   1      40.071  29.685  32.876  1.00  0.00     0.010 A 
ATOM     99  C   UNL A   1      40.235  32.488  32.965  1.00  0.00     0.020 A 
ATOM    100  C   UNL A   1      38.903  30.482  32.790  1.00  0.00     0.020 A 
ATOM    101  C   UNL A   1      38.995  31.881  32.810  1.00  0.00     0.054 A 
BRANCH 101 102
ATOM    102  S   UNL A   1      37.534  32.958  32.613  1.00  0.00     0.124 S 
ATOM    103  O   UNL A   1      37.769  33.542  31.293  1.00  0.00    -0.237 OA
ATOM    104  O   UNL A   1      36.414  32.020  32.664  1.00  0.00    -0.237 OA
ATOM    105  O   UNL A   1      37.643  33.896  33.729  1.00  0.00    -0.744 OA
ENDBRANCH 101 102
ENDBRANCH  73  96
BRANCH  85 106
ATOM    106  C   UNL A   1      44.921  23.899  33.876  1.00  0.00    -0.014 A 
ATOM    107  C   UNL A   1      44.045  22.849  34.184  1.00  0.00     0.010 A 
ATOM    108  C   UNL A   1      46.266  23.746  34.306  1.00  0.00     0.010 A 
ATOM    109  C   UNL A   1      44.468  21.737  34.930  1.00  0.00     0.020 A 
ATOM    110  C   UNL A   1      46.714  22.616  34.993  1.00  0.00     0.020 A 
ATOM    111  C   UNL A   1      45.801  21.627  35.328  1.00  0.00     0.054 A 
BRANCH 111 112
ATOM    112  S   UNL A   1      46.347  20.157  36.229  1.00  0.00     0.124 S 
ATOM    113  O   UNL A   1      47.797  20.227  36.064  1.00  0.00    -0.237 OA
ATOM    114  O   UNL A   1      45.857  20.404  37.584  1.00  0.00    -0.237 OA
ATOM    115  O   UNL A   1      45.689  19.058  35.528  1.00  0.00    -0.744 OA
ENDBRANCH 111 112
ENDBRANCH  85 106
ENDBRANCH  59  60
ENDBRANCH  51  54
ENDBRANCH  49  50
ENDBRANCH  48  49
ENDBRANCH  47  48
ENDBRANCH   3  47
TORSDOF 22
ENDMDL
MODEL 2
REMARK VINA RESULT:     -13.5      1.491      2.000
REMARK SMILES Cc1ccc(S(=O)(=O)n2cc(C(=O)C(=O)N[C@H](Cc3c[nH]c4ccccc34)C(=O)NCC(=O)NCCCNC(=O)c3ccc(-c4c5nc(c(-c6ccc(S(=O)(=O)[O-])cc6)c6ccc([nH]6)c(-c6ccc(S(=O)(=O)[O-])cc6)c6nc(c(-c7ccc(S(=O)(=O)[O-])cc7)c7ccc4[nH]7)C=C6)C=C5)cc3)c3ccccc32)cc1
REMARK SMILES IDX 32 1 33 2 34 3 31 5 30 6 28 7 29 8 17 10 16 11 14 12 15 13
REMARK SMILES IDX 12 15 13 16 11 17 9 18 10 19 106 20 101 21 105 22 102 23
REMARK SMILES IDX 104 24 103 25 6 26 7 27 8 28 5 29 1 30 2 31 3 32 108 33 4 34
REMARK SMILES IDX 107 35 18 36 19 37 20 38 27 39 21 40 22 41 26 42 23 44 25 45
REMARK SMILES IDX 24 46 35 47 36 48 37 49 38 50 39 51 40 53 41 54 42 55 100 56
REMARK SMILES IDX 43 57 99 58 44 59 45 60 46 61 93 62 47 63 98 64 92 65 94 66
REMARK SMILES IDX 48 67 97 68 91 69 90 70 49 72 79 73 60 74 78 75 61 76 64 77
REMARK SMILES IDX 77 78 95 79 62 80 63 81 76 83 96 84 65 85 50 86 51 87 59 88
REMARK SMILES IDX 52 89 58 90 53 91 54 92 55 93 56 94 57 95 80 96 81 97 89 98
REMARK SMILES IDX 82 99 88 100 83 101 84 102 85 103 86 104 87 105 66 106
REMARK SMILES IDX 67 107 75 108 68 109 74 110 69 111 70 112 71 113 72 114
REMARK SMILES IDX 73 115
REMARK H PARENT 34 4 30 9 16 14 21 43 38 52 94 71 64 82
REMARK Flexibility Score: inf
ROOT
ATOM      1  C   UNL A   1      32.730  29.413  27.200  1.00  0.00     0.239 C 
ATOM      2  O   UNL A   1      31.699  28.870  27.609  1.00  0.00    -0.273 OA
ATOM      3  N   UNL A   1      33.006  30.675  27.632  1.00  0.00    -0.355 N 
ATOM      4  H   UNL A   1      32.280  31.124  28.122  1.00  0.00     0.163 HD
ENDROOT
BRANCH   1   5
ATOM      5  C   UNL A   1      33.741  28.607  26.369  1.00  0.00     0.216 C 
BRANCH   5   6
ATOM      6  N   UNL A   1      33.968  29.078  25.024  1.00  0.00    -0.345 N 
ATOM      7  C   UNL A   1      33.665  28.617  23.792  1.00  0.00     0.243 C 
ATOM      8  O   UNL A   1      33.955  29.416  22.890  1.00  0.00    -0.273 OA
ATOM      9  H   UNL A   1      34.457  29.932  24.999  1.00  0.00     0.164 HD
BRANCH   7  10
ATOM     10  C   UNL A   1      33.014  27.242  23.424  1.00  0.00     0.176 C 
BRANCH  10  11
ATOM     11  N   UNL A   1      33.005  26.751  21.993  1.00  0.00    -0.337 N 
ATOM     12  C   UNL A   1      32.941  25.502  21.372  1.00  0.00     0.293 C 
ATOM     13  O   UNL A   1      33.026  25.422  20.150  1.00  0.00    -0.265 OA
ATOM     14  H   UNL A   1      33.058  27.489  21.343  1.00  0.00     0.164 HD
BRANCH  12  15
ATOM     15  C   UNL A   1      32.715  24.244  22.196  1.00  0.00     0.252 C 
ATOM     16  O   UNL A   1      31.768  23.567  21.799  1.00  0.00    -0.283 OA
BRANCH  15  17
ATOM     17  C   UNL A   1      33.449  23.768  23.379  1.00  0.00     0.054 A 
ATOM     18  N   UNL A   1      34.771  23.353  25.172  1.00  0.00    -0.240 N 
ATOM     19  C   UNL A   1      34.781  23.583  23.771  1.00  0.00     0.117 A 
ATOM     20  C   UNL A   1      33.486  23.746  25.595  1.00  0.00     0.065 A 
ATOM     21  C   UNL A   1      32.719  23.333  24.518  1.00  0.00     0.012 A 
ATOM     22  C   UNL A   1      32.935  23.892  26.875  1.00  0.00     0.028 A 
ATOM     23  C   UNL A   1      31.474  22.737  24.754  1.00  0.00     0.011 A 
ATOM     24  C   UNL A   1      31.722  23.228  27.092  1.00  0.00     0.002 A 
ATOM     25  C   UNL A   1      31.019  22.615  26.059  1.00  0.00     0.001 A 
BRANCH  18  26
ATOM     26  S   UNL A   1      35.179  21.791  25.933  1.00  0.00     0.268 S 
ATOM     27  O   UNL A   1      34.744  21.920  27.310  1.00  0.00    -0.201 OA
ATOM     28  O   UNL A   1      36.584  21.626  25.582  1.00  0.00    -0.201 OA
BRANCH  26  29
ATOM     29  C   UNL A   1      34.524  20.273  25.344  1.00  0.00     0.088 A 
ATOM     30  C   UNL A   1      33.747  16.445  23.533  1.00  0.00     0.044 C 
ATOM     31  C   UNL A   1      33.986  17.751  24.230  1.00  0.00    -0.051 A 
ATOM     32  C   UNL A   1      35.301  18.178  24.341  1.00  0.00     0.005 A 
ATOM     33  C   UNL A   1      32.949  18.581  24.713  1.00  0.00     0.005 A 
ATOM     34  C   UNL A   1      35.559  19.410  24.907  1.00  0.00     0.022 A 
ATOM     35  C   UNL A   1      33.208  19.855  25.271  1.00  0.00     0.022 A 
ENDBRANCH  26  29
ENDBRANCH  18  26
ENDBRANCH  15  17
ENDBRANCH  12  15
ENDBRANCH  10  11
BRANCH  10  36
ATOM     36  C   UNL A   1      31.853  26.703  24.324  1.00  0.00     0.072 C 
BRANCH  36  37
ATOM     37  C   UNL A   1      30.410  26.948  23.952  1.00  0.00    -0.020 A 
ATOM     38  C   UNL A   1      29.434  25.967  23.928  1.00  0.00     0.087 A 
ATOM     39  C   UNL A   1      29.719  28.186  23.694  1.00  0.00     0.003 A 
ATOM     40  N   UNL A   1      28.217  26.540  23.651  1.00  0.00    -0.361 N 
ATOM     41  C   UNL A   1      28.388  27.880  23.388  1.00  0.00     0.046 A 
ATOM     42  C   UNL A   1      30.096  29.546  23.678  1.00  0.00     0.010 A 
ATOM     43  H   UNL A   1      27.355  26.065  23.642  1.00  0.00     0.166 HD
ATOM     44  C   UNL A   1      27.464  28.839  22.948  1.00  0.00     0.026 A 
ATOM     45  C   UNL A   1      29.175  30.524  23.274  1.00  0.00     0.001 A 
ATOM     46  C   UNL A   1      27.886  30.170  22.885  1.00  0.00     0.002 A 
ENDBRANCH  36  37
ENDBRANCH  10  36
ENDBRANCH   7  10
ENDBRANCH   5   6
ENDBRANCH   1   5
BRANCH   3  47
ATOM     47  C   UNL A   1      34.224  31.450  27.470  1.00  0.00     0.117 C 
BRANCH  47  48
ATOM     48  C   UNL A   1      34.296  32.581  28.476  1.00  0.00     0.042 C 
BRANCH  48  49
ATOM     49  C   UNL A   1      35.559  33.405  28.304  1.00  0.00     0.118 C 
BRANCH  49  50
ATOM     50  N   UNL A   1      36.508  33.186  29.382  1.00  0.00    -0.352 N 
ATOM     51  C   UNL A   1      37.007  32.057  30.010  1.00  0.00     0.251 C 
ATOM     52  H   UNL A   1      36.876  34.023  29.746  1.00  0.00     0.163 HD
ATOM     53  O   UNL A   1      37.648  32.209  31.012  1.00  0.00    -0.269 OA
BRANCH  51  54
ATOM     54  C   UNL A   1      36.932  30.671  29.416  1.00  0.00     0.039 A 
ATOM     55  C   UNL A   1      36.982  29.758  30.484  1.00  0.00     0.014 A 
ATOM     56  C   UNL A   1      37.757  30.440  28.334  1.00  0.00     0.014 A 
ATOM     57  C   UNL A   1      38.218  29.225  30.798  1.00  0.00     0.010 A 
ATOM     58  C   UNL A   1      39.024  30.025  28.649  1.00  0.00     0.010 A 
ATOM     59  C   UNL A   1      39.261  29.518  29.930  1.00  0.00    -0.014 A 
BRANCH  59  60
ATOM     60  C   UNL A   1      40.638  29.196  30.201  1.00  0.00     0.031 A 
ATOM     61  C   UNL A   1      41.053  27.868  29.730  1.00  0.00     0.074 A 
ATOM     62  C   UNL A   1      41.443  30.131  30.751  1.00  0.00     0.049 A 
ATOM     63  N   UNL A   1      42.104  27.242  30.109  1.00  0.00    -0.248 NA
ATOM     64  C   UNL A   1      40.219  27.086  28.811  1.00  0.00     0.031 C 
ATOM     65  C   UNL A   1      42.893  30.078  30.901  1.00  0.00     0.029 A 
ATOM     66  N   UNL A   1      41.067  31.235  31.528  1.00  0.00    -0.354 N 
ATOM     67  C   UNL A   1      42.256  26.170  29.257  1.00  0.00     0.074 A 
ATOM     68  C   UNL A   1      41.001  26.037  28.570  1.00  0.00     0.031 C 
ATOM     69  C   UNL A   1      43.236  30.848  31.950  1.00  0.00     0.029 A 
ATOM     70  C   UNL A   1      41.992  31.272  32.582  1.00  0.00     0.049 A 
ATOM     71  H   UNL A   1      40.316  31.852  31.368  1.00  0.00     0.167 HD
ATOM     72  C   UNL A   1      43.499  25.642  29.109  1.00  0.00     0.031 A 
ATOM     73  C   UNL A   1      41.633  30.965  33.866  1.00  0.00     0.031 A 
ATOM     74  C   UNL A   1      44.377  26.156  30.160  1.00  0.00     0.049 A 
ATOM     75  C   UNL A   1      42.377  29.723  34.357  1.00  0.00     0.074 A 
ATOM     76  C   UNL A   1      45.316  27.174  30.194  1.00  0.00     0.029 A 
ATOM     77  N   UNL A   1      44.022  25.910  31.487  1.00  0.00    -0.354 N 
ATOM     78  N   UNL A   1      42.842  28.780  33.573  1.00  0.00    -0.248 NA
ATOM     79  C   UNL A   1      42.719  29.489  35.758  1.00  0.00     0.031 C 
ATOM     80  C   UNL A   1      45.400  27.639  31.542  1.00  0.00     0.029 A 
ATOM     81  C   UNL A   1      44.548  26.876  32.327  1.00  0.00     0.049 A 
ATOM     82  H   UNL A   1      43.470  25.151  31.785  1.00  0.00     0.167 HD
ATOM     83  C   UNL A   1      43.579  27.881  34.307  1.00  0.00     0.074 A 
ATOM     84  C   UNL A   1      43.452  28.364  35.674  1.00  0.00     0.031 C 
ATOM     85  C   UNL A   1      44.267  26.828  33.760  1.00  0.00     0.031 A 
BRANCH  72  86
ATOM     86  C   UNL A   1      43.946  24.942  27.842  1.00  0.00    -0.014 A 
ATOM     87  C   UNL A   1      44.088  23.541  27.842  1.00  0.00     0.010 A 
ATOM     88  C   UNL A   1      44.344  25.595  26.656  1.00  0.00     0.010 A 
ATOM     89  C   UNL A   1      44.633  22.846  26.745  1.00  0.00     0.020 A 
ATOM     90  C   UNL A   1      44.905  24.921  25.562  1.00  0.00     0.020 A 
ATOM     91  C   UNL A   1      45.048  23.545  25.613  1.00  0.00     0.054 A 
BRANCH  91  92
ATOM     92  S   UNL A   1      45.758  22.647  24.210  1.00  0.00     0.124 S 
ATOM     93  O   UNL A   1      44.583  22.365  23.389  1.00  0.00    -0.237 OA
ATOM     94  O   UNL A   1      46.697  23.619  23.661  1.00  0.00    -0.237 OA
ATOM     95  O   UNL A   1      46.374  21.472  24.825  1.00  0.00    -0.744 OA
ENDBRANCH  91  92
ENDBRANCH  72  86
BRANCH  73  96
ATOM     96  C   UNL A   1      40.262  31.429  34.269  1.00  0.00    -0.014 A 
ATOM     97  C   UNL A   1      40.112  32.789  34.628  1.00  0.00     0.010 A 
ATOM     98  C   UNL A   1      39.087  30.704  34.017  1.00  0.00     0.010 A 
ATOM     99  C   UNL A   1      38.871  33.436  34.635  1.00  0.00     0.020 A 
ATOM    100  C   UNL A   1      37.824  31.345  34.035  1.00  0.00     0.020 A 
ATOM    101  C   UNL A   1      37.726  32.714  34.318  1.00  0.00     0.054 A 
BRANCH 101 102
ATOM    102  S   UNL A   1      36.136  33.611  34.268  1.00  0.00     0.124 S 
ATOM    103  O   UNL A   1      35.301  32.693  33.495  1.00  0.00    -0.237 OA
ATOM    104  O   UNL A   1      35.765  33.720  35.677  1.00  0.00    -0.237 OA
ATOM    105  O   UNL A   1      36.466  34.862  33.588  1.00  0.00    -0.744 OA
ENDBRANCH 101 102
ENDBRANCH  73  96
BRANCH  85 106
ATOM    106  C   UNL A   1      44.823  25.642  34.530  1.00  0.00    -0.014 A 
ATOM    107  C   UNL A   1      46.188  25.416  34.754  1.00  0.00     0.010 A 
ATOM    108  C   UNL A   1      43.920  24.783  35.212  1.00  0.00     0.010 A 
ATOM    109  C   UNL A   1      46.632  24.357  35.561  1.00  0.00     0.020 A 
ATOM    110  C   UNL A   1      44.348  23.766  36.068  1.00  0.00     0.020 A 
ATOM    111  C   UNL A   1      45.709  23.539  36.215  1.00  0.00     0.054 A 
BRANCH 111 112
ATOM    112  S   UNL A   1      46.295  22.221  37.306  1.00  0.00     0.124 S 
ATOM    113  O   UNL A   1      45.687  22.596  38.580  1.00  0.00    -0.237 OA
ATOM    114  O   UNL A   1      45.752  21.016  36.683  1.00  0.00    -0.237 OA
ATOM    115  O   UNL A   1      47.749  22.344  37.244  1.00  0.00    -0.744 OA
ENDBRANCH 111 112
ENDBRANCH  85 106
ENDBRANCH  59  60
ENDBRANCH  51  54
ENDBRANCH  49  50
ENDBRANCH  48  49
ENDBRANCH  47  48
ENDBRANCH   3  47
TORSDOF 22
ENDMDL
MODEL 3
REMARK VINA RESULT:     -12.3      2.163      3.173
REMARK SMILES Cc1ccc(S(=O)(=O)n2cc(C(=O)C(=O)N[C@H](Cc3c[nH]c4ccccc34)C(=O)NCC(=O)NCCCNC(=O)c3ccc(-c4c5nc(c(-c6ccc(S(=O)(=O)[O-])cc6)c6ccc([nH]6)c(-c6ccc(S(=O)(=O)[O-])cc6)c6nc(c(-c7ccc(S(=O)(=O)[O-])cc7)c7ccc4[nH]7)C=C6)C=C5)cc3)c3ccccc32)cc1
REMARK SMILES IDX 32 1 33 2 34 3 31 5 30 6 28 7 29 8 17 10 16 11 14 12 15 13
REMARK SMILES IDX 12 15 13 16 11 17 9 18 10 19 106 20 101 21 105 22 102 23
REMARK SMILES IDX 104 24 103 25 6 26 7 27 8 28 5 29 1 30 2 31 3 32 108 33 4 34
REMARK SMILES IDX 107 35 18 36 19 37 20 38 27 39 21 40 22 41 26 42 23 44 25 45
REMARK SMILES IDX 24 46 35 47 36 48 37 49 38 50 39 51 40 53 41 54 42 55 100 56
REMARK SMILES IDX 43 57 99 58 44 59 45 60 46 61 93 62 47 63 98 64 92 65 94 66
REMARK SMILES IDX 48 67 97 68 91 69 90 70 49 72 79 73 60 74 78 75 61 76 64 77
REMARK SMILES IDX 77 78 95 79 62 80 63 81 76 83 96 84 65 85 50 86 51 87 59 88
REMARK SMILES IDX 52 89 58 90 53 91 54 92 55 93 56 94 57 95 80 96 81 97 89 98
REMARK SMILES IDX 82 99 88 100 83 101 84 102 85 103 86 104 87 105 66 106
REMARK SMILES IDX 67 107 75 108 68 109 74 110 69 111 70 112 71 113 72 114
REMARK SMILES IDX 73 115
REMARK H PARENT 34 4 30 9 16 14 21 43 38 52 94 71 64 82
REMARK Flexibility Score: inf
ROOT
ATOM      1  C   UNL A   1      32.290  31.169  26.747  1.00  0.00     0.239 C 
ATOM      2  O   UNL A   1      31.323  31.929  26.638  1.00  0.00    -0.273 OA
ATOM      3  N   UNL A   1      33.263  31.492  27.645  1.00  0.00    -0.355 N 
ATOM      4  H   UNL A   1      33.197  32.393  28.035  1.00  0.00     0.163 HD
ENDROOT
BRANCH   1   5
ATOM      5  C   UNL A   1      32.291  29.822  26.009  1.00  0.00     0.216 C 
BRANCH   5   6
ATOM      6  N   UNL A   1      33.019  29.786  24.763  1.00  0.00    -0.345 N 
ATOM      7  C   UNL A   1      32.941  29.043  23.638  1.00  0.00     0.243 C 
ATOM      8  O   UNL A   1      33.705  29.435  22.745  1.00  0.00    -0.273 OA
ATOM      9  H   UNL A   1      33.737  30.458  24.724  1.00  0.00     0.164 HD
BRANCH   7  10
ATOM     10  C   UNL A   1      32.022  27.803  23.378  1.00  0.00     0.176 C 
BRANCH  10  11
ATOM     11  N   UNL A   1      32.060  27.079  22.050  1.00  0.00    -0.337 N 
ATOM     12  C   UNL A   1      32.087  25.743  21.648  1.00  0.00     0.293 C 
ATOM     13  O   UNL A   1      32.189  25.465  20.457  1.00  0.00    -0.265 OA
ATOM     14  H   UNL A   1      32.068  27.700  21.286  1.00  0.00     0.164 HD
BRANCH  12  15
ATOM     15  C   UNL A   1      31.940  24.628  22.672  1.00  0.00     0.252 C 
ATOM     16  O   UNL A   1      30.771  24.304  22.872  1.00  0.00    -0.283 OA
BRANCH  15  17
ATOM     17  C   UNL A   1      32.985  23.932  23.440  1.00  0.00     0.054 A 
ATOM     18  N   UNL A   1      34.525  23.113  24.887  1.00  0.00    -0.240 N 
ATOM     19  C   UNL A   1      34.157  24.260  24.134  1.00  0.00     0.117 A 
ATOM     20  C   UNL A   1      33.384  22.287  24.870  1.00  0.00     0.065 A 
ATOM     21  C   UNL A   1      32.911  22.521  23.589  1.00  0.00     0.012 A 
ATOM     22  C   UNL A   1      33.087  21.102  25.556  1.00  0.00     0.028 A 
ATOM     23  C   UNL A   1      32.414  21.450  22.838  1.00  0.00     0.011 A 
ATOM     24  C   UNL A   1      32.654  20.033  24.762  1.00  0.00     0.002 A 
ATOM     25  C   UNL A   1      32.366  20.187  23.409  1.00  0.00     0.001 A 
BRANCH  18  26
ATOM     26  S   UNL A   1      35.967  22.117  24.551  1.00  0.00     0.268 S 
ATOM     27  O   UNL A   1      36.253  22.333  23.145  1.00  0.00    -0.201 OA
ATOM     28  O   UNL A   1      35.575  20.810  25.063  1.00  0.00    -0.201 OA
BRANCH  26  29
ATOM     29  C   UNL A   1      37.479  22.354  25.408  1.00  0.00     0.088 A 
ATOM     30  C   UNL A   1      40.975  23.820  27.450  1.00  0.00     0.044 C 
ATOM     31  C   UNL A   1      39.748  23.258  26.796  1.00  0.00    -0.051 A 
ATOM     32  C   UNL A   1      38.680  24.122  26.605  1.00  0.00     0.005 A 
ATOM     33  C   UNL A   1      39.655  21.931  26.319  1.00  0.00     0.005 A 
ATOM     34  C   UNL A   1      37.561  23.665  25.940  1.00  0.00     0.022 A 
ATOM     35  C   UNL A   1      38.519  21.467  25.614  1.00  0.00     0.022 A 
ENDBRANCH  26  29
ENDBRANCH  18  26
ENDBRANCH  15  17
ENDBRANCH  12  15
ENDBRANCH  10  11
BRANCH  10  36
ATOM     36  C   UNL A   1      30.669  27.704  24.157  1.00  0.00     0.072 C 
BRANCH  36  37
ATOM     37  C   UNL A   1      29.413  28.339  23.609  1.00  0.00    -0.020 A 
ATOM     38  C   UNL A   1      28.247  27.649  23.330  1.00  0.00     0.087 A 
ATOM     39  C   UNL A   1      29.099  29.730  23.396  1.00  0.00     0.003 A 
ATOM     40  N   UNL A   1      27.271  28.536  22.946  1.00  0.00    -0.361 N 
ATOM     41  C   UNL A   1      27.805  29.801  22.866  1.00  0.00     0.046 A 
ATOM     42  C   UNL A   1      29.792  30.943  23.589  1.00  0.00     0.010 A 
ATOM     43  H   UNL A   1      26.334  28.302  22.758  1.00  0.00     0.166 HD
ATOM     44  C   UNL A   1      27.231  30.996  22.407  1.00  0.00     0.026 A 
ATOM     45  C   UNL A   1      29.220  32.153  23.170  1.00  0.00     0.001 A 
ATOM     46  C   UNL A   1      27.970  32.174  22.559  1.00  0.00     0.002 A 
ENDBRANCH  36  37
ENDBRANCH  10  36
ENDBRANCH   7  10
ENDBRANCH   5   6
ENDBRANCH   1   5
BRANCH   3  47
ATOM     47  C   UNL A   1      34.382  30.690  28.107  1.00  0.00     0.117 C 
BRANCH  47  48
ATOM     48  C   UNL A   1      35.705  31.284  27.669  1.00  0.00     0.042 C 
BRANCH  48  49
ATOM     49  C   UNL A   1      36.788  30.226  27.566  1.00  0.00     0.118 C 
BRANCH  49  50
ATOM     50  N   UNL A   1      36.820  29.358  28.731  1.00  0.00    -0.352 N 
ATOM     51  C   UNL A   1      37.471  29.411  29.953  1.00  0.00     0.251 C 
ATOM     52  H   UNL A   1      36.254  28.559  28.631  1.00  0.00     0.163 HD
ATOM     53  O   UNL A   1      37.442  28.432  30.646  1.00  0.00    -0.269 OA
BRANCH  51  54
ATOM     54  C   UNL A   1      38.066  30.673  30.527  1.00  0.00     0.039 A 
ATOM     55  C   UNL A   1      38.961  31.183  29.570  1.00  0.00     0.014 A 
ATOM     56  C   UNL A   1      38.502  30.587  31.833  1.00  0.00     0.014 A 
ATOM     57  C   UNL A   1      40.295  30.850  29.718  1.00  0.00     0.010 A 
ATOM     58  C   UNL A   1      39.788  30.142  31.987  1.00  0.00     0.010 A 
ATOM     59  C   UNL A   1      40.644  30.181  30.883  1.00  0.00    -0.014 A 
BRANCH  59  60
ATOM     60  C   UNL A   1      41.944  29.607  31.113  1.00  0.00     0.031 A 
ATOM     61  C   UNL A   1      42.141  28.287  30.499  1.00  0.00     0.074 A 
ATOM     62  C   UNL A   1      42.885  30.330  31.758  1.00  0.00     0.049 A 
ATOM     63  N   UNL A   1      43.068  27.458  30.805  1.00  0.00    -0.248 NA
ATOM     64  C   UNL A   1      41.202  27.758  29.503  1.00  0.00     0.031 C 
ATOM     65  C   UNL A   1      44.304  30.021  31.897  1.00  0.00     0.029 A 
ATOM     66  N   UNL A   1      42.686  31.392  32.652  1.00  0.00    -0.354 N 
ATOM     67  C   UNL A   1      43.052  26.473  29.841  1.00  0.00     0.074 A 
ATOM     68  C   UNL A   1      41.803  26.626  29.148  1.00  0.00     0.031 C 
ATOM     69  C   UNL A   1      44.754  30.606  33.023  1.00  0.00     0.029 A 
ATOM     70  C   UNL A   1      43.588  31.161  33.701  1.00  0.00     0.049 A 
ATOM     71  H   UNL A   1      42.050  32.139  32.562  1.00  0.00     0.167 HD
ATOM     72  C   UNL A   1      44.193  25.765  29.632  1.00  0.00     0.031 A 
ATOM     73  C   UNL A   1      43.164  30.782  34.944  1.00  0.00     0.031 A 
ATOM     74  C   UNL A   1      45.128  26.010  30.731  1.00  0.00     0.049 A 
ATOM     75  C   UNL A   1      43.685  29.388  35.295  1.00  0.00     0.074 A 
ATOM     76  C   UNL A   1      46.222  26.848  30.872  1.00  0.00     0.029 A 
ATOM     77  N   UNL A   1      44.717  25.685  32.024  1.00  0.00    -0.354 N 
ATOM     78  N   UNL A   1      43.998  28.471  34.412  1.00  0.00    -0.248 NA
ATOM     79  C   UNL A   1      43.962  28.951  36.662  1.00  0.00     0.031 C 
ATOM     80  C   UNL A   1      46.362  27.144  32.262  1.00  0.00     0.029 A 
ATOM     81  C   UNL A   1      45.384  26.454  32.962  1.00  0.00     0.049 A 
ATOM     82  H   UNL A   1      44.042  25.001  32.240  1.00  0.00     0.167 HD
ATOM     83  C   UNL A   1      44.566  27.388  35.042  1.00  0.00     0.074 A 
ATOM     84  C   UNL A   1      44.500  27.735  36.454  1.00  0.00     0.031 C 
ATOM     85  C   UNL A   1      45.077  26.300  34.383  1.00  0.00     0.031 A 
BRANCH  72  86
ATOM     86  C   UNL A   1      44.536  25.140  28.296  1.00  0.00    -0.014 A 
ATOM     87  C   UNL A   1      44.776  23.755  28.223  1.00  0.00     0.010 A 
ATOM     88  C   UNL A   1      44.745  25.858  27.099  1.00  0.00     0.010 A 
ATOM     89  C   UNL A   1      45.236  23.138  27.045  1.00  0.00     0.020 A 
ATOM     90  C   UNL A   1      45.219  25.263  25.922  1.00  0.00     0.020 A 
ATOM     91  C   UNL A   1      45.465  23.900  25.901  1.00  0.00     0.054 A 
BRANCH  91  92
ATOM     92  S   UNL A   1      46.066  23.102  24.391  1.00  0.00     0.124 S 
ATOM     93  O   UNL A   1      47.055  24.059  23.901  1.00  0.00    -0.237 OA
ATOM     94  O   UNL A   1      46.600  21.842  24.896  1.00  0.00    -0.237 OA
ATOM     95  O   UNL A   1      44.868  22.978  23.562  1.00  0.00    -0.744 OA
ENDBRANCH  91  92
ENDBRANCH  72  86
BRANCH  73  96
ATOM     96  C   UNL A   1      41.883  31.421  35.400  1.00  0.00    -0.014 A 
ATOM     97  C   UNL A   1      40.676  30.746  35.105  1.00  0.00     0.010 A 
ATOM     98  C   UNL A   1      41.820  32.452  36.349  1.00  0.00     0.010 A 
ATOM     99  C   UNL A   1      39.482  31.000  35.789  1.00  0.00     0.020 A 
ATOM    100  C   UNL A   1      40.613  32.728  37.038  1.00  0.00     0.020 A 
ATOM    101  C   UNL A   1      39.457  31.982  36.772  1.00  0.00     0.054 A 
BRANCH 101 102
ATOM    102  S   UNL A   1      37.899  32.233  37.692  1.00  0.00     0.124 S 
ATOM    103  O   UNL A   1      37.083  32.941  36.706  1.00  0.00    -0.237 OA
ATOM    104  O   UNL A   1      37.452  30.871  37.976  1.00  0.00    -0.237 OA
ATOM    105  O   UNL A   1      38.304  33.035  38.844  1.00  0.00    -0.744 OA
ENDBRANCH 101 102
ENDBRANCH  73  96
BRANCH  85 106
ATOM    106  C   UNL A   1      45.417  24.962  35.017  1.00  0.00    -0.014 A 
ATOM    107  C   UNL A   1      44.468  24.070  35.536  1.00  0.00     0.010 A 
ATOM    108  C   UNL A   1      46.756  24.490  34.949  1.00  0.00     0.010 A 
ATOM    109  C   UNL A   1      44.838  22.804  36.016  1.00  0.00     0.020 A 
ATOM    110  C   UNL A   1      47.126  23.209  35.364  1.00  0.00     0.020 A 
ATOM    111  C   UNL A   1      46.165  22.381  35.925  1.00  0.00     0.054 A 
BRANCH 111 112
ATOM    112  S   UNL A   1      46.615  20.721  36.485  1.00  0.00     0.124 S 
ATOM    113  O   UNL A   1      46.103  19.890  35.398  1.00  0.00    -0.237 OA
ATOM    114  O   UNL A   1      48.072  20.794  36.584  1.00  0.00    -0.237 OA
ATOM    115  O   UNL A   1      45.917  20.586  37.760  1.00  0.00    -0.744 OA
ENDBRANCH 111 112
ENDBRANCH  85 106
ENDBRANCH  59  60
ENDBRANCH  51  54
ENDBRANCH  49  50
ENDBRANCH  48  49
ENDBRANCH  47  48
ENDBRANCH   3  47
TORSDOF 22
ENDMDL
