MODEL 1
REMARK VINA RESULT:     -12.9      0.000      0.000
REMARK SMILES C[C@]12CC[C@H]3[C@@H](CCC4=CC(=O)C=C[C@@]43C)[C@@H]1CC[C@H]2O[C@@H]1O[C@H](C(=O)NCCCNC(=O)c2ccc(-c3c4nc(c(-c5ccc(S(=O)(=O)[O-])cc5)c5ccc([nH]5)c(-c5ccc(S(=O)(=O)[O-])cc5)c5nc(c(-c6ccc(S(=O)(=O)[O-])cc6)c6ccc3[nH]6)C=C5)C=C4)cc2)[C@@H](O)[C@H](O)[C@H]1O
REMARK SMILES IDX 29 1 28 2 27 3 25 4 26 5 24 7 22 8 23 9 98 10 96 11 94 12
REMARK SMILES IDX 21 13 20 14 1 15 2 16 3 17 17 18 4 19 6 20 18 21 19 22 5 23
REMARK SMILES IDX 7 24 15 25 8 26 9 27 14 28 16 29 10 30 13 31 11 32 12 33
REMARK SMILES IDX 99 34 97 36 95 38 30 40 31 41 32 42 33 44 34 45 35 46 93 47
REMARK SMILES IDX 36 48 92 49 37 50 38 51 39 52 86 53 40 54 91 55 85 56 87 57
REMARK SMILES IDX 41 58 90 59 84 60 83 61 42 63 72 64 53 65 71 66 54 67 57 68
REMARK SMILES IDX 70 69 88 70 55 71 56 72 69 74 89 75 58 76 43 77 44 78 52 79
REMARK SMILES IDX 45 80 51 81 46 82 47 83 48 84 49 85 50 86 73 87 74 88 82 89
REMARK SMILES IDX 75 90 81 91 76 92 77 93 78 94 79 95 80 96 59 97 60 98 68 99
REMARK SMILES IDX 61 100 67 101 62 102 63 103 64 104 65 105 66 106
REMARK H PARENT 27 6 99 35 97 37 95 39 31 43 87 62 57 73
REMARK Flexibility Score: inf
ROOT
ATOM      1  C   UNL A   1      35.782  31.624  28.405  1.00  0.00     0.042 C 
ENDROOT
BRANCH   1   2
ATOM      2  C   UNL A   1      35.299  33.639  28.029  1.00  0.00     0.117 C 
BRANCH   2   3
ATOM      3  N   UNL A   1      34.087  34.563  28.082  1.00  0.00    -0.354 N 
ATOM      4  C   UNL A   1      33.427  35.201  29.107  1.00  0.00     0.252 C 
ATOM      5  O   UNL A   1      32.524  35.982  28.771  1.00  0.00    -0.272 OA
ATOM      6  H   UNL A   1      33.695  34.741  27.197  1.00  0.00     0.163 HD
BRANCH   4   7
ATOM      7  C   UNL A   1      33.734  35.021  30.626  1.00  0.00     0.241 C 
ATOM      8  C   UNL A   1      35.438  34.722  32.333  1.00  0.00     0.282 C 
ATOM      9  O   UNL A   1      35.118  34.937  30.954  1.00  0.00    -0.334 OA
ATOM     10  C   UNL A   1      34.598  35.543  33.357  1.00  0.00     0.202 C 
ATOM     11  C   UNL A   1      33.130  35.701  32.947  1.00  0.00     0.180 C 
ATOM     12  C   UNL A   1      33.003  36.073  31.466  1.00  0.00     0.184 C 
BRANCH   8  13
ATOM     13  O   UNL A   1      36.860  34.772  32.597  1.00  0.00    -0.346 OA
BRANCH  13  14
ATOM     14  C   UNL A   1      37.715  33.692  33.036  1.00  0.00     0.127 C 
ATOM     15  C   UNL A   1      39.559  31.977  32.543  1.00  0.00     0.014 C 
ATOM     16  C   UNL A   1      39.004  33.407  32.216  1.00  0.00    -0.003 C 
ATOM     17  C   UNL A   1      38.843  33.423  30.669  1.00  0.00     0.010 C 
ATOM     18  C   UNL A   1      39.880  34.502  32.872  1.00  0.00     0.001 C 
ATOM     19  C   UNL A   1      40.169  33.481  29.859  1.00  0.00     0.006 C 
ATOM     20  C   UNL A   1      41.221  34.629  32.232  1.00  0.00    -0.003 C 
ATOM     21  C   UNL A   1      39.729  34.280  34.371  1.00  0.00     0.007 C 
ATOM     22  C   UNL A   1      38.255  33.811  34.491  1.00  0.00     0.033 C 
ATOM     23  C   UNL A   1      40.912  34.743  30.286  1.00  0.00     0.006 C 
ATOM     24  C   UNL A   1      42.497  35.885  33.042  1.00  0.00     0.009 C 
ATOM     25  C   UNL A   1      42.311  35.466  29.124  1.00  0.00     0.010 C 
ATOM     26  C   UNL A   1      43.871  36.635  31.848  1.00  0.00     0.032 C 
ATOM     27  C   UNL A   1      43.637  36.568  29.939  1.00  0.00    -0.056 C 
ATOM     28  C   UNL A   1      41.753  36.250  27.917  1.00  0.00    -0.012 C 
ATOM     29  C   UNL A   1      43.000  34.374  28.215  1.00  0.00     0.021 C 
ATOM     30  C   UNL A   1      44.129  37.581  29.200  1.00  0.00     0.052 C 
ATOM     31  C   UNL A   1      42.404  37.260  27.314  1.00  0.00     0.048 C 
ATOM     32  C   UNL A   1      43.664  37.876  27.815  1.00  0.00     0.178 C 
ATOM     33  O   UNL A   1      44.244  38.722  27.140  1.00  0.00    -0.290 OA
ENDBRANCH  13  14
ENDBRANCH   8  13
BRANCH  10  34
ATOM     34  O   UNL A   1      34.653  34.991  34.684  1.00  0.00    -0.385 OA
ATOM     35  H   UNL A   1      35.458  34.458  34.780  1.00  0.00     0.211 HD
ENDBRANCH  10  34
BRANCH  11  36
ATOM     36  O   UNL A   1      32.480  36.720  33.732  1.00  0.00    -0.387 OA
ATOM     37  H   UNL A   1      33.012  37.531  33.713  1.00  0.00     0.211 HD
ENDBRANCH  11  36
BRANCH  12  38
ATOM     38  O   UNL A   1      31.632  36.205  31.084  1.00  0.00    -0.387 OA
ATOM     39  H   UNL A   1      31.083  35.647  31.656  1.00  0.00     0.211 HD
ENDBRANCH  12  38
ENDBRANCH   4   7
ENDBRANCH   2   3
ENDBRANCH   1   2
BRANCH   1  40
ATOM     40  C   UNL A   1      36.097  30.385  29.403  1.00  0.00     0.118 C 
BRANCH  40  41
ATOM     41  N   UNL A   1      36.038  30.276  30.831  1.00  0.00    -0.352 N 
ATOM     42  C   UNL A   1      37.008  29.572  31.539  1.00  0.00     0.251 C 
ATOM     43  H   UNL A   1      35.299  30.706  31.319  1.00  0.00     0.163 HD
ATOM     44  O   UNL A   1      36.780  29.140  32.666  1.00  0.00    -0.269 OA
BRANCH  42  45
ATOM     45  C   UNL A   1      38.323  29.325  30.879  1.00  0.00     0.039 A 
ATOM     46  C   UNL A   1      38.622  29.875  29.632  1.00  0.00     0.014 A 
ATOM     47  C   UNL A   1      39.294  28.589  31.566  1.00  0.00     0.014 A 
ATOM     48  C   UNL A   1      39.891  29.668  29.076  1.00  0.00     0.010 A 
ATOM     49  C   UNL A   1      40.591  28.503  31.075  1.00  0.00     0.010 A 
ATOM     50  C   UNL A   1      40.887  28.976  29.791  1.00  0.00    -0.014 A 
BRANCH  50  51
ATOM     51  C   UNL A   1      42.189  28.620  29.164  1.00  0.00     0.031 A 
ATOM     52  C   UNL A   1      43.302  29.644  29.147  1.00  0.00     0.074 A 
ATOM     53  C   UNL A   1      42.376  27.402  28.617  1.00  0.00     0.049 A 
ATOM     54  N   UNL A   1      44.518  29.539  28.678  1.00  0.00    -0.248 NA
ATOM     55  C   UNL A   1      42.997  30.978  29.699  1.00  0.00     0.031 C 
ATOM     56  C   UNL A   1      41.359  26.350  28.523  1.00  0.00     0.029 A 
ATOM     57  N   UNL A   1      43.490  26.836  28.048  1.00  0.00    -0.354 N 
ATOM     58  C   UNL A   1      45.104  30.789  28.862  1.00  0.00     0.074 A 
ATOM     59  C   UNL A   1      44.090  31.660  29.403  1.00  0.00     0.031 C 
ATOM     60  C   UNL A   1      41.913  25.250  27.987  1.00  0.00     0.029 A 
ATOM     61  C   UNL A   1      43.310  25.526  27.664  1.00  0.00     0.049 A 
ATOM     62  H   UNL A   1      44.337  27.321  27.927  1.00  0.00     0.167 HD
ATOM     63  C   UNL A   1      46.383  31.172  28.642  1.00  0.00     0.031 A 
ATOM     64  C   UNL A   1      44.178  24.647  27.125  1.00  0.00     0.031 A 
ATOM     65  C   UNL A   1      47.394  30.287  28.136  1.00  0.00     0.049 A 
ATOM     66  C   UNL A   1      45.600  25.087  26.899  1.00  0.00     0.074 A 
ATOM     67  C   UNL A   1      48.737  30.541  27.926  1.00  0.00     0.029 A 
ATOM     68  N   UNL A   1      47.169  28.970  27.764  1.00  0.00    -0.354 N 
ATOM     69  N   UNL A   1      46.152  26.252  27.150  1.00  0.00    -0.248 NA
ATOM     70  C   UNL A   1      46.522  24.092  26.334  1.00  0.00     0.031 C 
ATOM     71  C   UNL A   1      49.312  29.394  27.372  1.00  0.00     0.029 A 
ATOM     72  C   UNL A   1      48.342  28.404  27.302  1.00  0.00     0.049 A 
ATOM     73  H   UNL A   1      46.302  28.507  27.821  1.00  0.00     0.167 HD
ATOM     74  C   UNL A   1      47.491  26.121  26.798  1.00  0.00     0.074 A 
ATOM     75  C   UNL A   1      47.668  24.758  26.336  1.00  0.00     0.031 C 
ATOM     76  C   UNL A   1      48.485  27.043  26.849  1.00  0.00     0.031 A 
BRANCH  63  77
ATOM     77  C   UNL A   1      46.753  32.602  28.953  1.00  0.00    -0.014 A 
ATOM     78  C   UNL A   1      47.229  32.976  30.224  1.00  0.00     0.010 A 
ATOM     79  C   UNL A   1      46.643  33.586  27.952  1.00  0.00     0.010 A 
ATOM     80  C   UNL A   1      47.541  34.310  30.503  1.00  0.00     0.020 A 
ATOM     81  C   UNL A   1      46.987  34.916  28.217  1.00  0.00     0.020 A 
ATOM     82  C   UNL A   1      47.419  35.271  29.497  1.00  0.00     0.054 A 
BRANCH  82  83
ATOM     83  S   UNL A   1      47.860  36.989  29.880  1.00  0.00     0.124 S 
ATOM     84  O   UNL A   1      47.416  37.690  28.678  1.00  0.00    -0.237 OA
ATOM     85  O   UNL A   1      47.081  37.256  31.086  1.00  0.00    -0.237 OA
ATOM     86  O   UNL A   1      49.308  36.941  30.074  1.00  0.00    -0.744 OA
ENDBRANCH  82  83
ENDBRANCH  63  77
BRANCH  64  87
ATOM     87  C   UNL A   1      43.734  23.262  26.796  1.00  0.00    -0.014 A 
ATOM     88  C   UNL A   1      44.155  22.632  25.610  1.00  0.00     0.010 A 
ATOM     89  C   UNL A   1      42.901  22.553  27.682  1.00  0.00     0.010 A 
ATOM     90  C   UNL A   1      43.738  21.330  25.310  1.00  0.00     0.020 A 
ATOM     91  C   UNL A   1      42.508  21.242  27.401  1.00  0.00     0.020 A 
ATOM     92  C   UNL A   1      42.921  20.641  26.211  1.00  0.00     0.054 A 
BRANCH  92  93
ATOM     93  S   UNL A   1      42.436  18.934  25.826  1.00  0.00     0.124 S 
ATOM     94  O   UNL A   1      43.177  18.676  24.598  1.00  0.00    -0.237 OA
ATOM     95  O   UNL A   1      42.891  18.206  27.008  1.00  0.00    -0.237 OA
ATOM     96  O   UNL A   1      40.984  19.017  25.678  1.00  0.00    -0.744 OA
ENDBRANCH  92  93
ENDBRANCH  64  87
BRANCH  76  97
ATOM     97  C   UNL A   1      49.859  26.600  26.424  1.00  0.00    -0.014 A 
ATOM     98  C   UNL A   1      50.294  26.748  25.096  1.00  0.00     0.010 A 
ATOM     99  C   UNL A   1      50.747  26.090  27.388  1.00  0.00     0.010 A 
ATOM    100  C   UNL A   1      51.585  26.362  24.733  1.00  0.00     0.020 A 
ATOM    101  C   UNL A   1      52.050  25.733  27.036  1.00  0.00     0.020 A 
ATOM    102  C   UNL A   1      52.456  25.858  25.705  1.00  0.00     0.054 A 
BRANCH 102 103
ATOM    103  S   UNL A   1      54.141  25.406  25.214  1.00  0.00     0.124 S 
ATOM    104  O   UNL A   1      54.039  23.955  25.083  1.00  0.00    -0.237 OA
ATOM    105  O   UNL A   1      54.315  26.140  23.962  1.00  0.00    -0.237 OA
ATOM    106  O   UNL A   1      54.964  25.875  26.326  1.00  0.00    -0.744 OA
ENDBRANCH 102 103
ENDBRANCH  76  97
ENDBRANCH  50  51
ENDBRANCH  42  45
ENDBRANCH  40  41
ENDBRANCH   1  40
TORSDOF 18
ENDMDL
MODEL 2
REMARK VINA RESULT:     -12.9      5.621     14.417
REMARK SMILES C[C@]12CC[C@H]3[C@@H](CCC4=CC(=O)C=C[C@@]43C)[C@@H]1CC[C@H]2O[C@@H]1O[C@H](C(=O)NCCCNC(=O)c2ccc(-c3c4nc(c(-c5ccc(S(=O)(=O)[O-])cc5)c5ccc([nH]5)c(-c5ccc(S(=O)(=O)[O-])cc5)c5nc(c(-c6ccc(S(=O)(=O)[O-])cc6)c6ccc3[nH]6)C=C5)C=C4)cc2)[C@@H](O)[C@H](O)[C@H]1O
REMARK SMILES IDX 29 1 28 2 27 3 25 4 26 5 24 7 22 8 23 9 98 10 96 11 94 12
REMARK SMILES IDX 21 13 20 14 1 15 2 16 3 17 17 18 4 19 6 20 18 21 19 22 5 23
REMARK SMILES IDX 7 24 15 25 8 26 9 27 14 28 16 29 10 30 13 31 11 32 12 33
REMARK SMILES IDX 99 34 97 36 95 38 30 40 31 41 32 42 33 44 34 45 35 46 93 47
REMARK SMILES IDX 36 48 92 49 37 50 38 51 39 52 86 53 40 54 91 55 85 56 87 57
REMARK SMILES IDX 41 58 90 59 84 60 83 61 42 63 72 64 53 65 71 66 54 67 57 68
REMARK SMILES IDX 70 69 88 70 55 71 56 72 69 74 89 75 58 76 43 77 44 78 52 79
REMARK SMILES IDX 45 80 51 81 46 82 47 83 48 84 49 85 50 86 73 87 74 88 82 89
REMARK SMILES IDX 75 90 81 91 76 92 77 93 78 94 79 95 80 96 59 97 60 98 68 99
REMARK SMILES IDX 61 100 67 101 62 102 63 103 64 104 65 105 66 106
REMARK H PARENT 27 6 99 35 97 37 95 39 31 43 87 62 57 73
REMARK Flexibility Score: inf
ROOT
ATOM      1  C   UNL A   1      41.008  24.319  26.576  1.00  0.00     0.042 C 
ENDROOT
BRANCH   1   2
ATOM      2  C   UNL A   1      40.469  22.462  27.408  1.00  0.00     0.117 C 
BRANCH   2   3
ATOM      3  N   UNL A   1      40.967  21.021  27.433  1.00  0.00    -0.354 N 
ATOM      4  C   UNL A   1      42.092  20.399  26.939  1.00  0.00     0.252 C 
ATOM      5  O   UNL A   1      42.231  19.205  27.242  1.00  0.00    -0.272 OA
ATOM      6  H   UNL A   1      40.356  20.406  27.899  1.00  0.00     0.163 HD
BRANCH   4   7
ATOM      7  C   UNL A   1      43.182  21.079  26.054  1.00  0.00     0.241 C 
ATOM      8  C   UNL A   1      44.980  22.711  25.939  1.00  0.00     0.282 C 
ATOM      9  O   UNL A   1      43.999  22.030  26.730  1.00  0.00    -0.334 OA
ATOM     10  C   UNL A   1      45.757  21.827  24.918  1.00  0.00     0.202 C 
ATOM     11  C   UNL A   1      44.884  20.750  24.263  1.00  0.00     0.180 C 
ATOM     12  C   UNL A   1      44.011  20.035  25.299  1.00  0.00     0.184 C 
BRANCH   8  13
ATOM     13  O   UNL A   1      45.846  23.565  26.724  1.00  0.00    -0.346 OA
BRANCH  13  14
ATOM     14  C   UNL A   1      45.774  25.001  26.870  1.00  0.00     0.127 C 
ATOM     15  C   UNL A   1      44.822  27.069  28.052  1.00  0.00     0.014 C 
ATOM     16  C   UNL A   1      45.247  25.569  28.217  1.00  0.00    -0.003 C 
ATOM     17  C   UNL A   1      43.991  24.866  28.806  1.00  0.00     0.010 C 
ATOM     18  C   UNL A   1      46.581  25.456  28.994  1.00  0.00     0.001 C 
ATOM     19  C   UNL A   1      43.674  25.197  30.293  1.00  0.00     0.006 C 
ATOM     20  C   UNL A   1      46.442  25.810  30.436  1.00  0.00    -0.003 C 
ATOM     21  C   UNL A   1      47.614  26.132  28.101  1.00  0.00     0.007 C 
ATOM     22  C   UNL A   1      47.117  25.763  26.678  1.00  0.00     0.033 C 
ATOM     23  C   UNL A   1      44.892  24.798  31.120  1.00  0.00     0.006 C 
ATOM     24  C   UNL A   1      48.079  25.844  31.523  1.00  0.00     0.009 C 
ATOM     25  C   UNL A   1      44.688  24.526  33.047  1.00  0.00     0.010 C 
ATOM     26  C   UNL A   1      47.859  25.525  33.453  1.00  0.00     0.032 C 
ATOM     27  C   UNL A   1      46.252  24.706  34.123  1.00  0.00    -0.056 C 
ATOM     28  C   UNL A   1      44.048  23.169  33.405  1.00  0.00    -0.012 C 
ATOM     29  C   UNL A   1      43.501  25.357  33.678  1.00  0.00     0.021 C 
ATOM     30  C   UNL A   1      46.346  23.906  35.203  1.00  0.00     0.052 C 
ATOM     31  C   UNL A   1      44.284  22.508  34.552  1.00  0.00     0.048 C 
ATOM     32  C   UNL A   1      45.309  22.897  35.560  1.00  0.00     0.178 C 
ATOM     33  O   UNL A   1      45.380  22.295  36.628  1.00  0.00    -0.290 OA
ENDBRANCH  13  14
ENDBRANCH   8  13
BRANCH  10  34
ATOM     34  O   UNL A   1      46.390  22.603  23.886  1.00  0.00    -0.385 OA
ATOM     35  H   UNL A   1      46.882  23.335  24.289  1.00  0.00     0.211 HD
ENDBRANCH  10  34
BRANCH  11  36
ATOM     36  O   UNL A   1      45.694  19.766  23.591  1.00  0.00    -0.387 OA
ATOM     37  H   UNL A   1      46.518  19.632  24.086  1.00  0.00     0.211 HD
ENDBRANCH  11  36
BRANCH  12  38
ATOM     38  O   UNL A   1      43.188  19.043  24.683  1.00  0.00    -0.387 OA
ATOM     39  H   UNL A   1      43.323  19.062  23.722  1.00  0.00     0.211 HD
ENDBRANCH  12  38
ENDBRANCH   4   7
ENDBRANCH   2   3
ENDBRANCH   1   2
BRANCH   1  40
ATOM     40  C   UNL A   1      41.240  25.922  26.669  1.00  0.00     0.118 C 
BRANCH  40  41
ATOM     41  N   UNL A   1      41.826  26.852  25.750  1.00  0.00    -0.352 N 
ATOM     42  C   UNL A   1      41.795  28.222  25.996  1.00  0.00     0.251 C 
ATOM     43  H   UNL A   1      42.257  26.517  24.931  1.00  0.00     0.163 HD
ATOM     44  O   UNL A   1      41.923  29.033  25.082  1.00  0.00    -0.269 OA
BRANCH  42  45
ATOM     45  C   UNL A   1      41.566  28.682  27.397  1.00  0.00     0.039 A 
ATOM     46  C   UNL A   1      40.733  27.976  28.264  1.00  0.00     0.014 A 
ATOM     47  C   UNL A   1      42.265  29.803  27.861  1.00  0.00     0.014 A 
ATOM     48  C   UNL A   1      40.594  28.409  29.590  1.00  0.00     0.010 A 
ATOM     49  C   UNL A   1      42.231  30.145  29.207  1.00  0.00     0.010 A 
ATOM     50  C   UNL A   1      41.339  29.500  30.072  1.00  0.00    -0.014 A 
BRANCH  50  51
ATOM     51  C   UNL A   1      41.100  30.066  31.429  1.00  0.00     0.031 A 
ATOM     52  C   UNL A   1      42.124  29.826  32.516  1.00  0.00     0.074 A 
ATOM     53  C   UNL A   1      39.988  30.781  31.687  1.00  0.00     0.049 A 
ATOM     54  N   UNL A   1      42.131  30.243  33.755  1.00  0.00    -0.248 NA
ATOM     55  C   UNL A   1      43.278  28.971  32.176  1.00  0.00     0.031 C 
ATOM     56  C   UNL A   1      38.902  31.033  30.735  1.00  0.00     0.029 A 
ATOM     57  N   UNL A   1      39.590  31.441  32.823  1.00  0.00    -0.354 N 
ATOM     58  C   UNL A   1      43.269  29.688  34.335  1.00  0.00     0.074 A 
ATOM     59  C   UNL A   1      43.881  28.838  33.346  1.00  0.00     0.031 C 
ATOM     60  C   UNL A   1      37.992  31.839  31.308  1.00  0.00     0.029 A 
ATOM     61  C   UNL A   1      38.408  32.132  32.676  1.00  0.00     0.049 A 
ATOM     62  H   UNL A   1      40.101  31.422  33.663  1.00  0.00     0.167 HD
ATOM     63  C   UNL A   1      43.786  29.899  35.568  1.00  0.00     0.031 A 
ATOM     64  C   UNL A   1      37.744  32.922  33.544  1.00  0.00     0.031 A 
ATOM     65  C   UNL A   1      43.187  30.776  36.535  1.00  0.00     0.049 A 
ATOM     66  C   UNL A   1      38.342  33.155  34.907  1.00  0.00     0.074 A 
ATOM     67  C   UNL A   1      43.647  31.115  37.794  1.00  0.00     0.029 A 
ATOM     68  N   UNL A   1      41.994  31.457  36.343  1.00  0.00    -0.354 N 
ATOM     69  N   UNL A   1      39.458  32.679  35.409  1.00  0.00    -0.248 NA
ATOM     70  C   UNL A   1      37.601  34.041  35.814  1.00  0.00     0.031 C 
ATOM     71  C   UNL A   1      42.702  31.958  38.386  1.00  0.00     0.029 A 
ATOM     72  C   UNL A   1      41.688  32.197  37.469  1.00  0.00     0.049 A 
ATOM     73  H   UNL A   1      41.446  31.419  35.525  1.00  0.00     0.167 HD
ATOM     74  C   UNL A   1      39.567  33.230  36.681  1.00  0.00     0.074 A 
ATOM     75  C   UNL A   1      38.413  34.090  36.862  1.00  0.00     0.031 C 
ATOM     76  C   UNL A   1      40.531  33.044  37.617  1.00  0.00     0.031 A 
BRANCH  63  77
ATOM     77  C   UNL A   1      45.059  29.172  35.930  1.00  0.00    -0.014 A 
ATOM     78  C   UNL A   1      46.322  29.742  35.685  1.00  0.00     0.010 A 
ATOM     79  C   UNL A   1      44.991  27.908  36.546  1.00  0.00     0.010 A 
ATOM     80  C   UNL A   1      47.492  29.044  36.002  1.00  0.00     0.020 A 
ATOM     81  C   UNL A   1      46.159  27.221  36.897  1.00  0.00     0.020 A 
ATOM     82  C   UNL A   1      47.401  27.788  36.606  1.00  0.00     0.054 A 
BRANCH  82  83
ATOM     83  S   UNL A   1      48.936  26.919  37.034  1.00  0.00     0.124 S 
ATOM     84  O   UNL A   1      49.744  27.125  35.834  1.00  0.00    -0.237 OA
ATOM     85  O   UNL A   1      49.386  27.636  38.225  1.00  0.00    -0.237 OA
ATOM     86  O   UNL A   1      48.504  25.543  37.264  1.00  0.00    -0.744 OA
ENDBRANCH  82  83
ENDBRANCH  63  77
BRANCH  64  87
ATOM     87  C   UNL A   1      36.465  33.572  33.138  1.00  0.00    -0.014 A 
ATOM     88  C   UNL A   1      35.227  32.953  33.396  1.00  0.00     0.010 A 
ATOM     89  C   UNL A   1      36.476  34.830  32.508  1.00  0.00     0.010 A 
ATOM     90  C   UNL A   1      34.030  33.571  33.016  1.00  0.00     0.020 A 
ATOM     91  C   UNL A   1      35.281  35.465  32.155  1.00  0.00     0.020 A 
ATOM     92  C   UNL A   1      34.065  34.826  32.402  1.00  0.00     0.054 A 
BRANCH  92  93
ATOM     93  S   UNL A   1      32.499  35.634  31.967  1.00  0.00     0.124 S 
ATOM     94  O   UNL A   1      32.732  37.007  32.399  1.00  0.00    -0.237 OA
ATOM     95  O   UNL A   1      32.430  35.425  30.523  1.00  0.00    -0.237 OA
ATOM     96  O   UNL A   1      31.506  34.892  32.741  1.00  0.00    -0.744 OA
ENDBRANCH  92  93
ENDBRANCH  64  87
BRANCH  76  97
ATOM     97  C   UNL A   1      40.396  33.805  38.908  1.00  0.00    -0.014 A 
ATOM     98  C   UNL A   1      40.929  35.097  39.051  1.00  0.00     0.010 A 
ATOM     99  C   UNL A   1      39.665  33.239  39.968  1.00  0.00     0.010 A 
ATOM    100  C   UNL A   1      40.763  35.798  40.247  1.00  0.00     0.020 A 
ATOM    101  C   UNL A   1      39.467  33.950  41.153  1.00  0.00     0.020 A 
ATOM    102  C   UNL A   1      40.030  35.221  41.290  1.00  0.00     0.054 A 
BRANCH 102 103
ATOM    103  S   UNL A   1      39.791  36.171  42.814  1.00  0.00     0.124 S 
ATOM    104  O   UNL A   1      39.779  37.544  42.317  1.00  0.00    -0.237 OA
ATOM    105  O   UNL A   1      38.509  35.668  43.304  1.00  0.00    -0.237 OA
ATOM    106  O   UNL A   1      40.948  35.814  43.631  1.00  0.00    -0.744 OA
ENDBRANCH 102 103
ENDBRANCH  76  97
ENDBRANCH  50  51
ENDBRANCH  42  45
ENDBRANCH  40  41
ENDBRANCH   1  40
TORSDOF 18
ENDMDL
MODEL 3
REMARK VINA RESULT:     -12.8      5.367     14.149
REMARK SMILES C[C@]12CC[C@H]3[C@@H](CCC4=CC(=O)C=C[C@@]43C)[C@@H]1CC[C@H]2O[C@@H]1O[C@H](C(=O)NCCCNC(=O)c2ccc(-c3c4nc(c(-c5ccc(S(=O)(=O)[O-])cc5)c5ccc([nH]5)c(-c5ccc(S(=O)(=O)[O-])cc5)c5nc(c(-c6ccc(S(=O)(=O)[O-])cc6)c6ccc3[nH]6)C=C5)C=C4)cc2)[C@@H](O)[C@H](O)[C@H]1O
REMARK SMILES IDX 29 1 28 2 27 3 25 4 26 5 24 7 22 8 23 9 98 10 96 11 94 12
REMARK SMILES IDX 21 13 20 14 1 15 2 16 3 17 17 18 4 19 6 20 18 21 19 22 5 23
REMARK SMILES IDX 7 24 15 25 8 26 9 27 14 28 16 29 10 30 13 31 11 32 12 33
REMARK SMILES IDX 99 34 97 36 95 38 30 40 31 41 32 42 33 44 34 45 35 46 93 47
REMARK SMILES IDX 36 48 92 49 37 50 38 51 39 52 86 53 40 54 91 55 85 56 87 57
REMARK SMILES IDX 41 58 90 59 84 60 83 61 42 63 72 64 53 65 71 66 54 67 57 68
REMARK SMILES IDX 70 69 88 70 55 71 56 72 69 74 89 75 58 76 43 77 44 78 52 79
REMARK SMILES IDX 45 80 51 81 46 82 47 83 48 84 49 85 50 86 73 87 74 88 82 89
REMARK SMILES IDX 75 90 81 91 76 92 77 93 78 94 79 95 80 96 59 97 60 98 68 99
REMARK SMILES IDX 61 100 67 101 62 102 63 103 64 104 65 105 66 106
REMARK H PARENT 27 6 99 35 97 37 95 39 31 43 87 62 57 73
REMARK Flexibility Score: inf
ROOT
ATOM      1  C   UNL A   1      40.536  23.264  26.645  1.00  0.00     0.042 C 
ENDROOT
BRANCH   1   2
ATOM      2  C   UNL A   1      40.836  21.393  27.561  1.00  0.00     0.117 C 
BRANCH   2   3
ATOM      3  N   UNL A   1      41.244  19.974  27.178  1.00  0.00    -0.354 N 
ATOM      4  C   UNL A   1      42.312  19.449  26.487  1.00  0.00     0.252 C 
ATOM      5  O   UNL A   1      42.386  18.212  26.454  1.00  0.00    -0.272 OA
ATOM      6  H   UNL A   1      40.610  19.290  27.491  1.00  0.00     0.163 HD
BRANCH   4   7
ATOM      7  C   UNL A   1      43.416  20.284  25.765  1.00  0.00     0.241 C 
ATOM      8  C   UNL A   1      45.038  22.086  25.937  1.00  0.00     0.282 C 
ATOM      9  O   UNL A   1      44.053  21.267  26.576  1.00  0.00    -0.334 OA
ATOM     10  C   UNL A   1      46.008  21.344  24.969  1.00  0.00     0.202 C 
ATOM     11  C   UNL A   1      45.328  20.229  24.167  1.00  0.00     0.180 C 
ATOM     12  C   UNL A   1      44.425  19.372  25.060  1.00  0.00     0.184 C 
BRANCH   8  13
ATOM     13  O   UNL A   1      45.721  22.971  26.856  1.00  0.00    -0.346 OA
BRANCH  13  14
ATOM     14  C   UNL A   1      45.727  24.417  26.850  1.00  0.00     0.127 C 
ATOM     15  C   UNL A   1      44.909  26.646  27.820  1.00  0.00     0.014 C 
ATOM     16  C   UNL A   1      45.257  25.150  28.136  1.00  0.00    -0.003 C 
ATOM     17  C   UNL A   1      43.978  24.582  28.814  1.00  0.00     0.010 C 
ATOM     18  C   UNL A   1      46.599  25.047  28.903  1.00  0.00     0.001 C 
ATOM     19  C   UNL A   1      43.708  25.085  30.261  1.00  0.00     0.006 C 
ATOM     20  C   UNL A   1      46.507  25.557  30.301  1.00  0.00    -0.003 C 
ATOM     21  C   UNL A   1      47.648  25.568  27.930  1.00  0.00     0.007 C 
ATOM     22  C   UNL A   1      47.105  25.080  26.561  1.00  0.00     0.033 C 
ATOM     23  C   UNL A   1      44.918  24.708  31.110  1.00  0.00     0.006 C 
ATOM     24  C   UNL A   1      48.163  25.615  31.356  1.00  0.00     0.009 C 
ATOM     25  C   UNL A   1      44.738  24.652  33.057  1.00  0.00     0.010 C 
ATOM     26  C   UNL A   1      47.964  25.514  33.312  1.00  0.00     0.032 C 
ATOM     27  C   UNL A   1      46.330  24.858  34.086  1.00  0.00    -0.056 C 
ATOM     28  C   UNL A   1      44.034  23.376  33.566  1.00  0.00    -0.012 C 
ATOM     29  C   UNL A   1      43.609  25.607  33.613  1.00  0.00     0.021 C 
ATOM     30  C   UNL A   1      46.403  24.172  35.244  1.00  0.00     0.052 C 
ATOM     31  C   UNL A   1      44.258  22.827  34.773  1.00  0.00     0.048 C 
ATOM     32  C   UNL A   1      45.321  23.263  35.719  1.00  0.00     0.178 C 
ATOM     33  O   UNL A   1      45.381  22.774  36.844  1.00  0.00    -0.290 OA
ENDBRANCH  13  14
ENDBRANCH   8  13
BRANCH  10  34
ATOM     34  O   UNL A   1      46.666  22.238  24.055  1.00  0.00    -0.385 OA
ATOM     35  H   UNL A   1      46.080  22.423  23.305  1.00  0.00     0.211 HD
ENDBRANCH  10  34
BRANCH  11  36
ATOM     36  O   UNL A   1      46.303  19.371  23.544  1.00  0.00    -0.387 OA
ATOM     37  H   UNL A   1      47.190  19.609  23.856  1.00  0.00     0.211 HD
ENDBRANCH  11  36
BRANCH  12  38
ATOM     38  O   UNL A   1      43.781  18.343  24.306  1.00  0.00    -0.387 OA
ATOM     39  H   UNL A   1      42.924  18.137  24.710  1.00  0.00     0.211 HD
ENDBRANCH  12  38
ENDBRANCH   4   7
ENDBRANCH   2   3
ENDBRANCH   1   2
BRANCH   1  40
ATOM     40  C   UNL A   1      40.906  24.827  26.414  1.00  0.00     0.118 C 
BRANCH  40  41
ATOM     41  N   UNL A   1      41.710  25.477  25.422  1.00  0.00    -0.352 N 
ATOM     42  C   UNL A   1      41.978  26.841  25.493  1.00  0.00     0.251 C 
ATOM     43  H   UNL A   1      42.079  24.949  24.677  1.00  0.00     0.163 HD
ATOM     44  O   UNL A   1      42.309  27.474  24.494  1.00  0.00    -0.269 OA
BRANCH  42  45
ATOM     45  C   UNL A   1      41.817  27.523  26.810  1.00  0.00     0.039 A 
ATOM     46  C   UNL A   1      41.227  26.874  27.895  1.00  0.00     0.014 A 
ATOM     47  C   UNL A   1      42.340  28.811  26.970  1.00  0.00     0.014 A 
ATOM     48  C   UNL A   1      41.151  27.530  29.131  1.00  0.00     0.010 A 
ATOM     49  C   UNL A   1      42.386  29.401  28.228  1.00  0.00     0.010 A 
ATOM     50  C   UNL A   1      41.727  28.802  29.307  1.00  0.00    -0.014 A 
BRANCH  50  51
ATOM     51  C   UNL A   1      41.532  29.576  30.564  1.00  0.00     0.031 A 
ATOM     52  C   UNL A   1      40.325  30.479  30.691  1.00  0.00     0.074 A 
ATOM     53  C   UNL A   1      42.418  29.476  31.575  1.00  0.00     0.049 A 
ATOM     54  N   UNL A   1      39.948  31.222  31.700  1.00  0.00    -0.248 NA
ATOM     55  C   UNL A   1      39.442  30.593  29.515  1.00  0.00     0.031 C 
ATOM     56  C   UNL A   1      43.649  28.681  31.547  1.00  0.00     0.029 A 
ATOM     57  N   UNL A   1      42.414  30.035  32.829  1.00  0.00    -0.354 N 
ATOM     58  C   UNL A   1      38.808  31.894  31.270  1.00  0.00     0.074 A 
ATOM     59  C   UNL A   1      38.601  31.543  29.887  1.00  0.00     0.031 C 
ATOM     60  C   UNL A   1      44.249  28.757  32.747  1.00  0.00     0.029 A 
ATOM     61  C   UNL A   1      43.470  29.633  33.616  1.00  0.00     0.049 A 
ATOM     62  H   UNL A   1      41.722  30.664  33.135  1.00  0.00     0.167 HD
ATOM     63  C   UNL A   1      37.977  32.700  31.972  1.00  0.00     0.031 A 
ATOM     64  C   UNL A   1      43.765  29.928  34.898  1.00  0.00     0.031 A 
ATOM     65  C   UNL A   1      38.173  33.016  33.359  1.00  0.00     0.049 A 
ATOM     66  C   UNL A   1      42.822  30.817  35.667  1.00  0.00     0.074 A 
ATOM     67  C   UNL A   1      37.370  33.773  34.193  1.00  0.00     0.029 A 
ATOM     68  N   UNL A   1      39.251  32.585  34.117  1.00  0.00    -0.354 N 
ATOM     69  N   UNL A   1      41.709  31.382  35.262  1.00  0.00    -0.248 NA
ATOM     70  C   UNL A   1      43.166  31.095  37.068  1.00  0.00     0.031 C 
ATOM     71  C   UNL A   1      37.994  33.847  35.441  1.00  0.00     0.029 A 
ATOM     72  C   UNL A   1      39.149  33.079  35.404  1.00  0.00     0.049 A 
ATOM     73  H   UNL A   1      39.981  32.012  33.788  1.00  0.00     0.167 HD
ATOM     74  C   UNL A   1      41.205  32.060  36.366  1.00  0.00     0.074 A 
ATOM     75  C   UNL A   1      42.125  31.817  37.460  1.00  0.00     0.031 C 
ATOM     76  C   UNL A   1      40.084  32.818  36.470  1.00  0.00     0.031 A 
BRANCH  63  77
ATOM     77  C   UNL A   1      36.789  33.286  31.249  1.00  0.00    -0.014 A 
ATOM     78  C   UNL A   1      35.476  33.079  31.712  1.00  0.00     0.010 A 
ATOM     79  C   UNL A   1      36.987  34.074  30.100  1.00  0.00     0.010 A 
ATOM     80  C   UNL A   1      34.383  33.606  31.016  1.00  0.00     0.020 A 
ATOM     81  C   UNL A   1      35.900  34.633  29.420  1.00  0.00     0.020 A 
ATOM     82  C   UNL A   1      34.604  34.380  29.874  1.00  0.00     0.054 A 
BRANCH  82  83
ATOM     83  S   UNL A   1      33.169  35.077  29.008  1.00  0.00     0.124 S 
ATOM     84  O   UNL A   1      33.758  36.224  28.323  1.00  0.00    -0.237 OA
ATOM     85  O   UNL A   1      32.753  33.975  28.144  1.00  0.00    -0.237 OA
ATOM     86  O   UNL A   1      32.239  35.406  30.086  1.00  0.00    -0.744 OA
ENDBRANCH  82  83
ENDBRANCH  63  77
BRANCH  64  87
ATOM     87  C   UNL A   1      44.983  29.354  35.538  1.00  0.00    -0.014 A 
ATOM     88  C   UNL A   1      46.198  30.063  35.544  1.00  0.00     0.010 A 
ATOM     89  C   UNL A   1      44.928  28.096  36.168  1.00  0.00     0.010 A 
ATOM     90  C   UNL A   1      47.337  29.520  36.150  1.00  0.00     0.020 A 
ATOM     91  C   UNL A   1      46.055  27.564  36.802  1.00  0.00     0.020 A 
ATOM     92  C   UNL A   1      47.256  28.275  36.780  1.00  0.00     0.054 A 
BRANCH  92  93
ATOM     93  S   UNL A   1      48.731  27.613  37.607  1.00  0.00     0.124 S 
ATOM     94  O   UNL A   1      49.691  28.696  37.430  1.00  0.00    -0.237 OA
ATOM     95  O   UNL A   1      48.256  27.401  38.972  1.00  0.00    -0.237 OA
ATOM     96  O   UNL A   1      49.020  26.390  36.861  1.00  0.00    -0.744 OA
ENDBRANCH  92  93
ENDBRANCH  64  87
BRANCH  76  97
ATOM     97  C   UNL A   1      39.775  33.412  37.817  1.00  0.00    -0.014 A 
ATOM     98  C   UNL A   1      40.283  34.667  38.194  1.00  0.00     0.010 A 
ATOM     99  C   UNL A   1      38.907  32.730  38.689  1.00  0.00     0.010 A 
ATOM    100  C   UNL A   1      39.955  35.214  39.436  1.00  0.00     0.020 A 
ATOM    101  C   UNL A   1      38.549  33.289  39.917  1.00  0.00     0.020 A 
ATOM    102  C   UNL A   1      39.089  34.522  40.289  1.00  0.00     0.054 A 
BRANCH 102 103
ATOM    103  S   UNL A   1      38.644  35.276  41.876  1.00  0.00     0.124 S 
ATOM    104  O   UNL A   1      39.422  34.478  42.819  1.00  0.00    -0.237 OA
ATOM    105  O   UNL A   1      39.087  36.659  41.706  1.00  0.00    -0.237 OA
ATOM    106  O   UNL A   1      37.197  35.096  41.952  1.00  0.00    -0.744 OA
ENDBRANCH 102 103
ENDBRANCH  76  97
ENDBRANCH  50  51
ENDBRANCH  42  45
ENDBRANCH  40  41
ENDBRANCH   1  40
TORSDOF 18
ENDMDL
