MODEL 1
REMARK VINA RESULT:     -11.9      0.000      0.000
REMARK SMILES COc1ccc([C@H]2[NH2+][C@@H](C(=O)NCCCNC(=O)c3ccc(-c4c5nc(c(-c6ccc(S(=O)(=O)[O-])cc6)c6ccc([nH]6)c(-c6ccc(S(=O)(=O)[O-])cc6)c6nc(c(-c7ccc(S(=O)(=O)[O-])cc7)c7ccc4[nH]7)C=C6)C=C5)cc3)CC3=c4ccccc4=N[C@@H]32)cc1Cn1cc([N+](=O)[O-])cn1
REMARK SMILES IDX 13 1 12 2 10 3 11 4 9 6 7 7 8 8 88 9 80 12 87 13 79 14 81 15
REMARK SMILES IDX 86 16 82 17 85 18 83 19 84 20 6 21 3 22 4 23 90 24 5 25
REMARK SMILES IDX 89 26 2 27 1 28 91 29 92 30 93 31 99 32 94 33 98 34 95 35
REMARK SMILES IDX 96 36 97 37 14 38 15 39 16 40 17 41 18 43 19 44 20 45 78 46
REMARK SMILES IDX 21 47 77 48 22 49 23 50 24 51 71 52 25 53 76 54 70 55 72 56
REMARK SMILES IDX 26 57 75 58 69 59 68 60 27 62 57 63 38 64 56 65 39 66 42 67
REMARK SMILES IDX 55 68 73 69 40 70 41 71 54 73 74 74 43 75 28 76 29 77 37 78
REMARK SMILES IDX 30 79 36 80 31 81 32 82 33 83 34 84 35 85 58 86 59 87 67 88
REMARK SMILES IDX 60 89 66 90 61 91 62 92 63 93 64 94 65 95 44 96 45 97 53 98
REMARK SMILES IDX 46 99 52 100 47 101 48 102 49 103 50 104 51 105
REMARK H PARENT 12 5 8 10 8 11 16 42 72 61 42 72
REMARK Flexibility Score: inf
ROOT
ATOM      1  C   UNL A   1      31.448  30.822  25.818  1.00  0.00     0.118 C 
ENDROOT
BRANCH   1   2
ATOM      2  N   UNL A   1      31.224  29.456  25.406  1.00  0.00    -0.351 N 
ATOM      3  C   UNL A   1      32.167  28.477  25.360  1.00  0.00     0.278 C 
ATOM      4  O   UNL A   1      31.814  27.372  25.780  1.00  0.00    -0.268 OA
ATOM      5  H   UNL A   1      30.310  29.213  25.134  1.00  0.00     0.163 HD
BRANCH   3   6
ATOM      6  C   UNL A   1      33.572  28.781  24.766  1.00  0.00     0.277 C 
ATOM      7  C   UNL A   1      32.904  28.403  22.351  1.00  0.00     0.243 C 
ATOM      8  N   UNL A   1      33.514  29.317  23.371  1.00  0.00    -0.327 N 
ATOM      9  C   UNL A   1      33.211  26.921  22.745  1.00  0.00     0.196 C 
ATOM     10  H   UNL A   1      32.967  30.178  23.387  1.00  0.00     0.347 HD
ATOM     11  H   UNL A   1      34.484  29.449  23.082  1.00  0.00     0.347 HD
ATOM     12  C   UNL A   1      34.155  26.520  23.831  1.00  0.00    -0.024 C 
ATOM     13  N   UNL A   1      33.230  25.838  21.723  1.00  0.00    -0.270 NA
ATOM     14  C   UNL A   1      34.485  27.541  24.864  1.00  0.00     0.109 C 
ATOM     15  C   UNL A   1      34.068  25.192  23.873  1.00  0.00     0.002 A 
ATOM     16  C   UNL A   1      33.538  24.847  22.524  1.00  0.00     0.066 A 
ATOM     17  C   UNL A   1      34.090  24.239  24.933  1.00  0.00     0.010 A 
ATOM     18  C   UNL A   1      33.343  23.410  22.254  1.00  0.00     0.028 A 
ATOM     19  C   UNL A   1      33.671  22.991  24.663  1.00  0.00     0.001 A 
ATOM     20  C   UNL A   1      33.366  22.567  23.302  1.00  0.00     0.002 A 
BRANCH   7  21
ATOM     21  C   UNL A   1      31.367  28.689  22.254  1.00  0.00     0.012 A 
ATOM     22  C   UNL A   1      28.676  29.300  22.862  1.00  0.00     0.123 A 
ATOM     23  C   UNL A   1      29.505  30.248  22.248  1.00  0.00     0.047 A 
ATOM     24  C   UNL A   1      29.123  27.994  23.041  1.00  0.00     0.016 A 
ATOM     25  C   UNL A   1      30.849  29.955  21.964  1.00  0.00     0.014 A 
ATOM     26  C   UNL A   1      30.432  27.706  22.625  1.00  0.00     0.019 A 
BRANCH  22  27
ATOM     27  O   UNL A   1      27.403  29.684  23.181  1.00  0.00    -0.496 OA
ATOM     28  C   UNL A   1      27.331  31.043  23.612  1.00  0.00     0.278 C 
ENDBRANCH  22  27
BRANCH  24  29
ATOM     29  C   UNL A   1      28.362  26.931  23.802  1.00  0.00     0.183 C 
BRANCH  29  30
ATOM     30  N   UNL A   1      29.214  25.898  24.385  1.00  0.00    -0.261 N 
ATOM     31  C   UNL A   1      29.288  25.520  25.701  1.00  0.00     0.194 A 
ATOM     32  N   UNL A   1      29.972  25.123  23.576  1.00  0.00    -0.174 NA
ATOM     33  C   UNL A   1      30.309  24.594  25.762  1.00  0.00     0.307 A 
ATOM     34  C   UNL A   1      30.669  24.364  24.426  1.00  0.00     0.220 A 
BRANCH  33  35
ATOM     35  N   UNL A   1      30.864  23.999  26.934  1.00  0.00     0.066 N 
ATOM     36  O   UNL A   1      31.920  24.485  27.359  1.00  0.00    -0.258 OA
ATOM     37  O   UNL A   1      30.256  23.042  27.432  1.00  0.00    -0.258 OA
ENDBRANCH  33  35
ENDBRANCH  29  30
ENDBRANCH  24  29
ENDBRANCH   7  21
ENDBRANCH   3   6
ENDBRANCH   1   2
BRANCH   1  38
ATOM     38  C   UNL A   1      32.068  30.922  27.196  1.00  0.00     0.042 C 
BRANCH  38  39
ATOM     39  C   UNL A   1      33.287  31.836  27.259  1.00  0.00     0.118 C 
BRANCH  39  40
ATOM     40  N   UNL A   1      32.952  33.214  27.597  1.00  0.00    -0.352 N 
ATOM     41  C   UNL A   1      33.431  34.034  28.591  1.00  0.00     0.251 C 
ATOM     42  H   UNL A   1      32.270  33.625  27.017  1.00  0.00     0.163 HD
ATOM     43  O   UNL A   1      32.862  35.093  28.823  1.00  0.00    -0.269 OA
BRANCH  41  44
ATOM     44  C   UNL A   1      34.609  33.628  29.388  1.00  0.00     0.039 A 
ATOM     45  C   UNL A   1      34.448  32.687  30.409  1.00  0.00     0.014 A 
ATOM     46  C   UNL A   1      35.866  34.181  29.139  1.00  0.00     0.014 A 
ATOM     47  C   UNL A   1      35.564  32.245  31.123  1.00  0.00     0.010 A 
ATOM     48  C   UNL A   1      36.987  33.668  29.782  1.00  0.00     0.010 A 
ATOM     49  C   UNL A   1      36.849  32.700  30.786  1.00  0.00    -0.014 A 
BRANCH  49  50
ATOM     50  C   UNL A   1      38.063  32.177  31.464  1.00  0.00     0.031 A 
ATOM     51  C   UNL A   1      38.474  32.718  32.808  1.00  0.00     0.074 A 
ATOM     52  C   UNL A   1      38.839  31.270  30.839  1.00  0.00     0.049 A 
ATOM     53  N   UNL A   1      39.524  32.424  33.530  1.00  0.00    -0.248 NA
ATOM     54  C   UNL A   1      37.605  33.745  33.404  1.00  0.00     0.031 C 
ATOM     55  C   UNL A   1      38.570  30.691  29.520  1.00  0.00     0.029 A 
ATOM     56  N   UNL A   1      40.012  30.674  31.227  1.00  0.00    -0.354 N 
ATOM     57  C   UNL A   1      39.456  33.245  34.649  1.00  0.00     0.074 A 
ATOM     58  C   UNL A   1      38.291  34.088  34.483  1.00  0.00     0.031 C 
ATOM     59  C   UNL A   1      39.523  29.791  29.231  1.00  0.00     0.029 A 
ATOM     60  C   UNL A   1      40.499  29.765  30.317  1.00  0.00     0.049 A 
ATOM     61  H   UNL A   1      40.463  30.878  32.079  1.00  0.00     0.167 HD
ATOM     62  C   UNL A   1      40.277  33.285  35.728  1.00  0.00     0.031 A 
ATOM     63  C   UNL A   1      41.605  28.998  30.350  1.00  0.00     0.031 A 
ATOM     64  C   UNL A   1      41.433  32.444  35.888  1.00  0.00     0.049 A 
ATOM     65  C   UNL A   1      42.517  29.077  31.543  1.00  0.00     0.074 A 
ATOM     66  C   UNL A   1      42.292  32.359  36.969  1.00  0.00     0.029 A 
ATOM     67  N   UNL A   1      41.902  31.551  34.935  1.00  0.00    -0.354 N 
ATOM     68  N   UNL A   1      42.396  29.806  32.626  1.00  0.00    -0.248 NA
ATOM     69  C   UNL A   1      43.713  28.223  31.518  1.00  0.00     0.031 C 
ATOM     70  C   UNL A   1      43.318  31.467  36.641  1.00  0.00     0.029 A 
ATOM     71  C   UNL A   1      43.058  30.939  35.387  1.00  0.00     0.049 A 
ATOM     72  H   UNL A   1      41.474  31.379  34.064  1.00  0.00     0.167 HD
ATOM     73  C   UNL A   1      43.482  29.474  33.428  1.00  0.00     0.074 A 
ATOM     74  C   UNL A   1      44.243  28.474  32.707  1.00  0.00     0.031 C 
ATOM     75  C   UNL A   1      43.814  29.951  34.654  1.00  0.00     0.031 A 
BRANCH  62  76
ATOM     76  C   UNL A   1      39.961  34.299  36.800  1.00  0.00    -0.014 A 
ATOM     77  C   UNL A   1      40.389  35.635  36.697  1.00  0.00     0.010 A 
ATOM     78  C   UNL A   1      39.225  33.906  37.933  1.00  0.00     0.010 A 
ATOM     79  C   UNL A   1      40.150  36.539  37.736  1.00  0.00     0.020 A 
ATOM     80  C   UNL A   1      38.952  34.815  38.958  1.00  0.00     0.020 A 
ATOM     81  C   UNL A   1      39.440  36.119  38.865  1.00  0.00     0.054 A 
BRANCH  81  82
ATOM     82  S   UNL A   1      39.164  37.306  40.208  1.00  0.00     0.124 S 
ATOM     83  O   UNL A   1      38.394  38.348  39.535  1.00  0.00    -0.237 OA
ATOM     84  O   UNL A   1      38.427  36.514  41.189  1.00  0.00    -0.237 OA
ATOM     85  O   UNL A   1      40.514  37.693  40.613  1.00  0.00    -0.744 OA
ENDBRANCH  81  82
ENDBRANCH  62  76
BRANCH  63  86
ATOM     86  C   UNL A   1      41.881  28.052  29.234  1.00  0.00    -0.014 A 
ATOM     87  C   UNL A   1      42.702  28.448  28.163  1.00  0.00     0.010 A 
ATOM     88  C   UNL A   1      41.365  26.745  29.253  1.00  0.00     0.010 A 
ATOM     89  C   UNL A   1      43.001  27.554  27.131  1.00  0.00     0.020 A 
ATOM     90  C   UNL A   1      41.685  25.838  28.238  1.00  0.00     0.020 A 
ATOM     91  C   UNL A   1      42.499  26.252  27.180  1.00  0.00     0.054 A 
BRANCH  91  92
ATOM     92  S   UNL A   1      42.970  25.086  25.871  1.00  0.00     0.124 S 
ATOM     93  O   UNL A   1      42.678  25.849  24.663  1.00  0.00    -0.237 OA
ATOM     94  O   UNL A   1      44.386  24.858  26.151  1.00  0.00    -0.237 OA
ATOM     95  O   UNL A   1      42.103  23.934  26.111  1.00  0.00    -0.744 OA
ENDBRANCH  91  92
ENDBRANCH  63  86
BRANCH  75  96
ATOM     96  C   UNL A   1      45.039  29.374  35.316  1.00  0.00    -0.014 A 
ATOM     97  C   UNL A   1      46.299  29.983  35.186  1.00  0.00     0.010 A 
ATOM     98  C   UNL A   1      44.911  28.230  36.127  1.00  0.00     0.010 A 
ATOM     99  C   UNL A   1      47.416  29.441  35.830  1.00  0.00     0.020 A 
ATOM    100  C   UNL A   1      46.018  27.705  36.798  1.00  0.00     0.020 A 
ATOM    101  C   UNL A   1      47.268  28.306  36.633  1.00  0.00     0.054 A 
BRANCH 101 102
ATOM    102  S   UNL A   1      48.722  27.650  37.494  1.00  0.00     0.124 S 
ATOM    103  O   UNL A   1      48.113  26.850  38.554  1.00  0.00    -0.237 OA
ATOM    104  O   UNL A   1      49.399  26.893  36.445  1.00  0.00    -0.237 OA
ATOM    105  O   UNL A   1      49.428  28.847  37.946  1.00  0.00    -0.744 OA
ENDBRANCH 101 102
ENDBRANCH  75  96
ENDBRANCH  49  50
ENDBRANCH  41  44
ENDBRANCH  39  40
ENDBRANCH  38  39
ENDBRANCH   1  38
TORSDOF 18
ENDMDL
MODEL 2
REMARK VINA RESULT:     -11.8      7.198     12.088
REMARK SMILES COc1ccc([C@H]2[NH2+][C@@H](C(=O)NCCCNC(=O)c3ccc(-c4c5nc(c(-c6ccc(S(=O)(=O)[O-])cc6)c6ccc([nH]6)c(-c6ccc(S(=O)(=O)[O-])cc6)c6nc(c(-c7ccc(S(=O)(=O)[O-])cc7)c7ccc4[nH]7)C=C6)C=C5)cc3)CC3=c4ccccc4=N[C@@H]32)cc1Cn1cc([N+](=O)[O-])cn1
REMARK SMILES IDX 13 1 12 2 10 3 11 4 9 6 7 7 8 8 88 9 80 12 87 13 79 14 81 15
REMARK SMILES IDX 86 16 82 17 85 18 83 19 84 20 6 21 3 22 4 23 90 24 5 25
REMARK SMILES IDX 89 26 2 27 1 28 91 29 92 30 93 31 99 32 94 33 98 34 95 35
REMARK SMILES IDX 96 36 97 37 14 38 15 39 16 40 17 41 18 43 19 44 20 45 78 46
REMARK SMILES IDX 21 47 77 48 22 49 23 50 24 51 71 52 25 53 76 54 70 55 72 56
REMARK SMILES IDX 26 57 75 58 69 59 68 60 27 62 57 63 38 64 56 65 39 66 42 67
REMARK SMILES IDX 55 68 73 69 40 70 41 71 54 73 74 74 43 75 28 76 29 77 37 78
REMARK SMILES IDX 30 79 36 80 31 81 32 82 33 83 34 84 35 85 58 86 59 87 67 88
REMARK SMILES IDX 60 89 66 90 61 91 62 92 63 93 64 94 65 95 44 96 45 97 53 98
REMARK SMILES IDX 46 99 52 100 47 101 48 102 49 103 50 104 51 105
REMARK H PARENT 12 5 8 10 8 11 16 42 72 61 42 72
REMARK Flexibility Score: inf
ROOT
ATOM      1  C   UNL A   1      44.789  23.768  24.792  1.00  0.00     0.118 C 
ENDROOT
BRANCH   1   2
ATOM      2  N   UNL A   1      43.386  24.074  24.936  1.00  0.00    -0.351 N 
ATOM      3  C   UNL A   1      42.862  25.033  25.746  1.00  0.00     0.278 C 
ATOM      4  O   UNL A   1      41.952  25.708  25.261  1.00  0.00    -0.268 OA
ATOM      5  H   UNL A   1      42.752  23.543  24.402  1.00  0.00     0.163 HD
BRANCH   3   6
ATOM      6  C   UNL A   1      43.391  25.193  27.200  1.00  0.00     0.277 C 
ATOM      7  C   UNL A   1      41.437  24.016  28.304  1.00  0.00     0.243 C 
ATOM      8  N   UNL A   1      42.921  24.108  28.117  1.00  0.00    -0.327 N 
ATOM      9  C   UNL A   1      40.820  25.449  28.197  1.00  0.00     0.196 C 
ATOM     10  H   UNL A   1      43.246  23.217  27.742  1.00  0.00     0.347 HD
ATOM     11  H   UNL A   1      43.305  24.333  29.035  1.00  0.00     0.347 HD
ATOM     12  C   UNL A   1      41.623  26.707  28.151  1.00  0.00    -0.024 C 
ATOM     13  N   UNL A   1      39.519  25.780  28.843  1.00  0.00    -0.270 NA
ATOM     14  C   UNL A   1      43.053  26.593  27.753  1.00  0.00     0.109 C 
ATOM     15  C   UNL A   1      40.719  27.673  27.995  1.00  0.00     0.002 A 
ATOM     16  C   UNL A   1      39.463  27.040  28.488  1.00  0.00     0.066 A 
ATOM     17  C   UNL A   1      40.700  28.892  27.256  1.00  0.00     0.010 A 
ATOM     18  C   UNL A   1      38.257  27.888  28.456  1.00  0.00     0.028 A 
ATOM     19  C   UNL A   1      39.513  29.493  27.067  1.00  0.00     0.001 A 
ATOM     20  C   UNL A   1      38.305  29.020  27.731  1.00  0.00     0.002 A 
BRANCH   7  21
ATOM     21  C   UNL A   1      40.843  23.029  27.242  1.00  0.00     0.012 A 
ATOM     22  C   UNL A   1      39.574  20.843  25.979  1.00  0.00     0.123 A 
ATOM     23  C   UNL A   1      38.937  22.089  26.065  1.00  0.00     0.047 A 
ATOM     24  C   UNL A   1      40.899  20.707  26.379  1.00  0.00     0.016 A 
ATOM     25  C   UNL A   1      39.557  23.171  26.711  1.00  0.00     0.014 A 
ATOM     26  C   UNL A   1      41.528  21.848  26.902  1.00  0.00     0.019 A 
BRANCH  22  27
ATOM     27  O   UNL A   1      38.877  19.815  25.408  1.00  0.00    -0.496 OA
ATOM     28  C   UNL A   1      37.612  20.229  24.890  1.00  0.00     0.278 C 
ENDBRANCH  22  27
BRANCH  24  29
ATOM     29  C   UNL A   1      41.637  19.389  26.447  1.00  0.00     0.183 C 
BRANCH  29  30
ATOM     30  N   UNL A   1      42.963  19.422  25.834  1.00  0.00    -0.261 N 
ATOM     31  C   UNL A   1      43.975  18.508  25.980  1.00  0.00     0.194 A 
ATOM     32  N   UNL A   1      43.258  20.386  24.934  1.00  0.00    -0.174 NA
ATOM     33  C   UNL A   1      45.051  19.036  25.299  1.00  0.00     0.307 A 
ATOM     34  C   UNL A   1      44.545  20.171  24.648  1.00  0.00     0.220 A 
BRANCH  33  35
ATOM     35  N   UNL A   1      46.383  18.526  25.261  1.00  0.00     0.066 N 
ATOM     36  O   UNL A   1      47.277  19.325  24.953  1.00  0.00    -0.258 OA
ATOM     37  O   UNL A   1      46.544  17.329  25.532  1.00  0.00    -0.258 OA
ENDBRANCH  33  35
ENDBRANCH  29  30
ENDBRANCH  24  29
ENDBRANCH   7  21
ENDBRANCH   3   6
ENDBRANCH   1   2
BRANCH   1  38
ATOM     38  C   UNL A   1      45.401  23.219  26.064  1.00  0.00     0.042 C 
BRANCH  38  39
ATOM     39  C   UNL A   1      46.508  24.093  26.643  1.00  0.00     0.118 C 
BRANCH  39  40
ATOM     40  N   UNL A   1      47.502  24.488  25.652  1.00  0.00    -0.352 N 
ATOM     41  C   UNL A   1      47.880  25.735  25.211  1.00  0.00     0.251 C 
ATOM     42  H   UNL A   1      47.982  23.739  25.229  1.00  0.00     0.163 HD
ATOM     43  O   UNL A   1      48.594  25.831  24.221  1.00  0.00    -0.269 OA
BRANCH  41  44
ATOM     44  C   UNL A   1      47.409  26.948  25.913  1.00  0.00     0.039 A 
ATOM     45  C   UNL A   1      47.893  27.223  27.195  1.00  0.00     0.014 A 
ATOM     46  C   UNL A   1      46.483  27.806  25.317  1.00  0.00     0.014 A 
ATOM     47  C   UNL A   1      47.509  28.399  27.842  1.00  0.00     0.010 A 
ATOM     48  C   UNL A   1      46.180  29.022  25.919  1.00  0.00     0.010 A 
ATOM     49  C   UNL A   1      46.683  29.331  27.191  1.00  0.00    -0.014 A 
BRANCH  49  50
ATOM     50  C   UNL A   1      46.334  30.632  27.815  1.00  0.00     0.031 A 
ATOM     51  C   UNL A   1      45.054  30.782  28.593  1.00  0.00     0.074 A 
ATOM     52  C   UNL A   1      47.130  31.702  27.618  1.00  0.00     0.049 A 
ATOM     53  N   UNL A   1      44.556  31.847  29.167  1.00  0.00    -0.248 NA
ATOM     54  C   UNL A   1      44.210  29.583  28.720  1.00  0.00     0.031 C 
ATOM     55  C   UNL A   1      48.381  31.698  26.855  1.00  0.00     0.029 A 
ATOM     56  N   UNL A   1      47.008  33.000  28.044  1.00  0.00    -0.354 N 
ATOM     57  C   UNL A   1      43.333  31.454  29.697  1.00  0.00     0.074 A 
ATOM     58  C   UNL A   1      43.140  30.068  29.330  1.00  0.00     0.031 C 
ATOM     59  C   UNL A   1      48.932  32.921  26.906  1.00  0.00     0.029 A 
ATOM     60  C   UNL A   1      48.052  33.809  27.660  1.00  0.00     0.049 A 
ATOM     61  H   UNL A   1      46.243  33.323  28.575  1.00  0.00     0.167 HD
ATOM     62  C   UNL A   1      42.455  32.175  30.438  1.00  0.00     0.031 A 
ATOM     63  C   UNL A   1      48.277  35.117  27.887  1.00  0.00     0.031 A 
ATOM     64  C   UNL A   1      42.652  33.553  30.801  1.00  0.00     0.049 A 
ATOM     65  C   UNL A   1      47.278  35.905  28.688  1.00  0.00     0.074 A 
ATOM     66  C   UNL A   1      41.858  34.355  31.601  1.00  0.00     0.029 A 
ATOM     67  N   UNL A   1      43.714  34.340  30.376  1.00  0.00    -0.354 N 
ATOM     68  N   UNL A   1      46.163  35.498  29.245  1.00  0.00    -0.248 NA
ATOM     69  C   UNL A   1      47.573  37.330  28.895  1.00  0.00     0.031 C 
ATOM     70  C   UNL A   1      42.402  35.643  31.603  1.00  0.00     0.029 A 
ATOM     71  C   UNL A   1      43.575  35.628  30.866  1.00  0.00     0.049 A 
ATOM     72  H   UNL A   1      44.456  34.028  29.808  1.00  0.00     0.167 HD
ATOM     73  C   UNL A   1      45.639  36.608  29.897  1.00  0.00     0.074 A 
ATOM     74  C   UNL A   1      46.564  37.700  29.672  1.00  0.00     0.031 C 
ATOM     75  C   UNL A   1      44.498  36.710  30.624  1.00  0.00     0.031 A 
BRANCH  62  76
ATOM     76  C   UNL A   1      41.187  31.483  30.874  1.00  0.00    -0.014 A 
ATOM     77  C   UNL A   1      40.027  31.503  30.078  1.00  0.00     0.010 A 
ATOM     78  C   UNL A   1      41.155  30.802  32.105  1.00  0.00     0.010 A 
ATOM     79  C   UNL A   1      38.842  30.921  30.535  1.00  0.00     0.020 A 
ATOM     80  C   UNL A   1      39.982  30.186  32.550  1.00  0.00     0.020 A 
ATOM     81  C   UNL A   1      38.826  30.273  31.773  1.00  0.00     0.054 A 
BRANCH  81  82
ATOM     82  S   UNL A   1      37.269  29.545  32.352  1.00  0.00     0.124 S 
ATOM     83  O   UNL A   1      37.732  28.319  32.997  1.00  0.00    -0.237 OA
ATOM     84  O   UNL A   1      36.750  30.571  33.253  1.00  0.00    -0.237 OA
ATOM     85  O   UNL A   1      36.499  29.350  31.125  1.00  0.00    -0.744 OA
ENDBRANCH  81  82
ENDBRANCH  62  76
BRANCH  63  86
ATOM     86  C   UNL A   1      49.529  35.748  27.385  1.00  0.00    -0.014 A 
ATOM     87  C   UNL A   1      50.699  35.707  28.164  1.00  0.00     0.010 A 
ATOM     88  C   UNL A   1      49.573  36.351  26.116  1.00  0.00     0.010 A 
ATOM     89  C   UNL A   1      51.890  36.260  27.684  1.00  0.00     0.020 A 
ATOM     90  C   UNL A   1      50.769  36.880  25.620  1.00  0.00     0.020 A 
ATOM     91  C   UNL A   1      51.919  36.834  26.411  1.00  0.00     0.054 A 
BRANCH  91  92
ATOM     92  S   UNL A   1      53.498  37.468  25.778  1.00  0.00     0.124 S 
ATOM     93  O   UNL A   1      53.148  38.834  25.401  1.00  0.00    -0.237 OA
ATOM     94  O   UNL A   1      54.375  37.336  26.938  1.00  0.00    -0.237 OA
ATOM     95  O   UNL A   1      53.806  36.570  24.667  1.00  0.00    -0.744 OA
ENDBRANCH  91  92
ENDBRANCH  63  86
BRANCH  75  96
ATOM     96  C   UNL A   1      44.197  38.043  31.261  1.00  0.00    -0.014 A 
ATOM     97  C   UNL A   1      43.591  39.083  30.534  1.00  0.00     0.010 A 
ATOM     98  C   UNL A   1      44.477  38.235  32.627  1.00  0.00     0.010 A 
ATOM     99  C   UNL A   1      43.301  40.302  31.154  1.00  0.00     0.020 A 
ATOM    100  C   UNL A   1      44.158  39.439  33.258  1.00  0.00     0.020 A 
ATOM    101  C   UNL A   1      43.584  40.472  32.513  1.00  0.00     0.054 A 
BRANCH 101 102
ATOM    102  S   UNL A   1      43.155  42.045  33.305  1.00  0.00     0.124 S 
ATOM    103  O   UNL A   1      41.857  41.740  33.904  1.00  0.00    -0.237 OA
ATOM    104  O   UNL A   1      44.253  42.237  34.248  1.00  0.00    -0.237 OA
ATOM    105  O   UNL A   1      43.121  42.995  32.196  1.00  0.00    -0.744 OA
ENDBRANCH 101 102
ENDBRANCH  75  96
ENDBRANCH  49  50
ENDBRANCH  41  44
ENDBRANCH  39  40
ENDBRANCH  38  39
ENDBRANCH   1  38
TORSDOF 18
ENDMDL
MODEL 3
REMARK VINA RESULT:     -11.7      7.257     12.518
REMARK SMILES COc1ccc([C@H]2[NH2+][C@@H](C(=O)NCCCNC(=O)c3ccc(-c4c5nc(c(-c6ccc(S(=O)(=O)[O-])cc6)c6ccc([nH]6)c(-c6ccc(S(=O)(=O)[O-])cc6)c6nc(c(-c7ccc(S(=O)(=O)[O-])cc7)c7ccc4[nH]7)C=C6)C=C5)cc3)CC3=c4ccccc4=N[C@@H]32)cc1Cn1cc([N+](=O)[O-])cn1
REMARK SMILES IDX 13 1 12 2 10 3 11 4 9 6 7 7 8 8 88 9 80 12 87 13 79 14 81 15
REMARK SMILES IDX 86 16 82 17 85 18 83 19 84 20 6 21 3 22 4 23 90 24 5 25
REMARK SMILES IDX 89 26 2 27 1 28 91 29 92 30 93 31 99 32 94 33 98 34 95 35
REMARK SMILES IDX 96 36 97 37 14 38 15 39 16 40 17 41 18 43 19 44 20 45 78 46
REMARK SMILES IDX 21 47 77 48 22 49 23 50 24 51 71 52 25 53 76 54 70 55 72 56
REMARK SMILES IDX 26 57 75 58 69 59 68 60 27 62 57 63 38 64 56 65 39 66 42 67
REMARK SMILES IDX 55 68 73 69 40 70 41 71 54 73 74 74 43 75 28 76 29 77 37 78
REMARK SMILES IDX 30 79 36 80 31 81 32 82 33 83 34 84 35 85 58 86 59 87 67 88
REMARK SMILES IDX 60 89 66 90 61 91 62 92 63 93 64 94 65 95 44 96 45 97 53 98
REMARK SMILES IDX 46 99 52 100 47 101 48 102 49 103 50 104 51 105
REMARK H PARENT 12 5 8 10 8 11 16 42 72 61 42 72
REMARK Flexibility Score: inf
ROOT
ATOM      1  C   UNL A   1      44.611  24.178  24.671  1.00  0.00     0.118 C 
ENDROOT
BRANCH   1   2
ATOM      2  N   UNL A   1      43.203  24.411  24.884  1.00  0.00    -0.351 N 
ATOM      3  C   UNL A   1      42.671  25.290  25.775  1.00  0.00     0.278 C 
ATOM      4  O   UNL A   1      41.714  25.954  25.368  1.00  0.00    -0.268 OA
ATOM      5  H   UNL A   1      42.573  23.888  24.338  1.00  0.00     0.163 HD
BRANCH   3   6
ATOM      6  C   UNL A   1      43.248  25.378  27.217  1.00  0.00     0.277 C 
ATOM      7  C   UNL A   1      41.337  24.133  28.322  1.00  0.00     0.243 C 
ATOM      8  N   UNL A   1      42.814  24.244  28.091  1.00  0.00    -0.327 N 
ATOM      9  C   UNL A   1      40.710  25.565  28.310  1.00  0.00     0.196 C 
ATOM     10  H   UNL A   1      43.130  23.376  27.659  1.00  0.00     0.347 HD
ATOM     11  H   UNL A   1      43.227  24.424  29.006  1.00  0.00     0.347 HD
ATOM     12  C   UNL A   1      41.504  26.829  28.304  1.00  0.00    -0.024 C 
ATOM     13  N   UNL A   1      39.430  25.854  29.016  1.00  0.00    -0.270 NA
ATOM     14  C   UNL A   1      42.921  26.745  27.852  1.00  0.00     0.109 C 
ATOM     15  C   UNL A   1      40.591  27.795  28.228  1.00  0.00     0.002 A 
ATOM     16  C   UNL A   1      39.356  27.130  28.730  1.00  0.00     0.066 A 
ATOM     17  C   UNL A   1      40.542  29.052  27.555  1.00  0.00     0.010 A 
ATOM     18  C   UNL A   1      38.145  27.971  28.782  1.00  0.00     0.028 A 
ATOM     19  C   UNL A   1      39.347  29.653  27.437  1.00  0.00     0.001 A 
ATOM     20  C   UNL A   1      38.164  29.139  28.116  1.00  0.00     0.002 A 
BRANCH   7  21
ATOM     21  C   UNL A   1      40.712  23.198  27.231  1.00  0.00     0.012 A 
ATOM     22  C   UNL A   1      39.382  21.089  25.902  1.00  0.00     0.123 A 
ATOM     23  C   UNL A   1      38.777  22.346  26.035  1.00  0.00     0.047 A 
ATOM     24  C   UNL A   1      40.707  20.907  26.287  1.00  0.00     0.016 A 
ATOM     25  C   UNL A   1      39.428  23.390  26.714  1.00  0.00     0.014 A 
ATOM     26  C   UNL A   1      41.366  22.013  26.845  1.00  0.00     0.019 A 
BRANCH  22  27
ATOM     27  O   UNL A   1      38.657  20.099  25.300  1.00  0.00    -0.496 OA
ATOM     28  C   UNL A   1      37.364  20.540  24.884  1.00  0.00     0.278 C 
ENDBRANCH  22  27
BRANCH  24  29
ATOM     29  C   UNL A   1      41.413  19.570  26.304  1.00  0.00     0.183 C 
BRANCH  29  30
ATOM     30  N   UNL A   1      42.780  19.617  25.793  1.00  0.00    -0.261 N 
ATOM     31  C   UNL A   1      43.724  18.624  25.837  1.00  0.00     0.194 A 
ATOM     32  N   UNL A   1      43.196  20.701  25.102  1.00  0.00    -0.174 NA
ATOM     33  C   UNL A   1      44.877  19.187  25.332  1.00  0.00     0.307 A 
ATOM     34  C   UNL A   1      44.487  20.451  24.864  1.00  0.00     0.220 A 
BRANCH  33  35
ATOM     35  N   UNL A   1      46.177  18.600  25.288  1.00  0.00     0.066 N 
ATOM     36  O   UNL A   1      46.249  17.387  25.524  1.00  0.00    -0.258 OA
ATOM     37  O   UNL A   1      47.131  19.344  25.023  1.00  0.00    -0.258 OA
ENDBRANCH  33  35
ENDBRANCH  29  30
ENDBRANCH  24  29
ENDBRANCH   7  21
ENDBRANCH   3   6
ENDBRANCH   1   2
BRANCH   1  38
ATOM     38  C   UNL A   1      45.248  23.378  25.787  1.00  0.00     0.042 C 
BRANCH  38  39
ATOM     39  C   UNL A   1      46.377  24.109  26.506  1.00  0.00     0.118 C 
BRANCH  39  40
ATOM     40  N   UNL A   1      47.464  24.497  25.615  1.00  0.00    -0.352 N 
ATOM     41  C   UNL A   1      47.912  25.741  25.238  1.00  0.00     0.251 C 
ATOM     42  H   UNL A   1      47.959  23.743  25.218  1.00  0.00     0.163 HD
ATOM     43  O   UNL A   1      48.713  25.837  24.316  1.00  0.00    -0.269 OA
BRANCH  41  44
ATOM     44  C   UNL A   1      47.413  26.951  25.924  1.00  0.00     0.039 A 
ATOM     45  C   UNL A   1      48.011  27.347  27.125  1.00  0.00     0.014 A 
ATOM     46  C   UNL A   1      46.353  27.689  25.396  1.00  0.00     0.014 A 
ATOM     47  C   UNL A   1      47.595  28.526  27.748  1.00  0.00     0.010 A 
ATOM     48  C   UNL A   1      46.009  28.911  25.963  1.00  0.00     0.010 A 
ATOM     49  C   UNL A   1      46.620  29.341  27.149  1.00  0.00    -0.014 A 
BRANCH  49  50
ATOM     50  C   UNL A   1      46.226  30.645  27.739  1.00  0.00     0.031 A 
ATOM     51  C   UNL A   1      47.066  31.872  27.502  1.00  0.00     0.074 A 
ATOM     52  C   UNL A   1      45.152  30.712  28.551  1.00  0.00     0.049 A 
ATOM     53  N   UNL A   1      46.911  33.083  27.971  1.00  0.00    -0.248 NA
ATOM     54  C   UNL A   1      48.252  31.708  26.647  1.00  0.00     0.031 C 
ATOM     55  C   UNL A   1      44.274  29.590  28.890  1.00  0.00     0.029 A 
ATOM     56  N   UNL A   1      44.615  31.770  29.241  1.00  0.00    -0.354 N 
ATOM     57  C   UNL A   1      47.990  33.816  27.492  1.00  0.00     0.074 A 
ATOM     58  C   UNL A   1      48.821  32.900  26.741  1.00  0.00     0.031 C 
ATOM     59  C   UNL A   1      43.284  30.028  29.683  1.00  0.00     0.029 A 
ATOM     60  C   UNL A   1      43.483  31.449  29.954  1.00  0.00     0.049 A 
ATOM     61  H   UNL A   1      45.005  32.675  29.227  1.00  0.00     0.167 HD
ATOM     62  C   UNL A   1      48.259  35.135  27.647  1.00  0.00     0.031 A 
ATOM     63  C   UNL A   1      42.695  32.210  30.736  1.00  0.00     0.031 A 
ATOM     64  C   UNL A   1      47.429  36.042  28.395  1.00  0.00     0.049 A 
ATOM     65  C   UNL A   1      43.026  33.665  30.917  1.00  0.00     0.074 A 
ATOM     66  C   UNL A   1      47.576  37.408  28.559  1.00  0.00     0.029 A 
ATOM     67  N   UNL A   1      46.302  35.672  29.116  1.00  0.00    -0.354 N 
ATOM     68  N   UNL A   1      44.009  34.358  30.395  1.00  0.00    -0.248 NA
ATOM     69  C   UNL A   1      42.135  34.442  31.790  1.00  0.00     0.031 C 
ATOM     70  C   UNL A   1      46.579  37.851  29.435  1.00  0.00     0.029 A 
ATOM     71  C   UNL A   1      45.766  36.776  29.757  1.00  0.00     0.049 A 
ATOM     72  H   UNL A   1      45.937  34.758  29.165  1.00  0.00     0.167 HD
ATOM     73  C   UNL A   1      43.836  35.661  30.849  1.00  0.00     0.074 A 
ATOM     74  C   UNL A   1      42.650  35.659  31.680  1.00  0.00     0.031 C 
ATOM     75  C   UNL A   1      44.589  36.760  30.592  1.00  0.00     0.031 A 
BRANCH  62  76
ATOM     76  C   UNL A   1      49.524  35.662  27.016  1.00  0.00    -0.014 A 
ATOM     77  C   UNL A   1      50.750  35.651  27.707  1.00  0.00     0.010 A 
ATOM     78  C   UNL A   1      49.485  36.180  25.708  1.00  0.00     0.010 A 
ATOM     79  C   UNL A   1      51.894  36.212  27.132  1.00  0.00     0.020 A 
ATOM     80  C   UNL A   1      50.635  36.709  25.115  1.00  0.00     0.020 A 
ATOM     81  C   UNL A   1      51.826  36.746  25.842  1.00  0.00     0.054 A 
BRANCH  81  82
ATOM     82  S   UNL A   1      53.319  37.487  25.129  1.00  0.00     0.124 S 
ATOM     83  O   UNL A   1      53.151  37.195  23.708  1.00  0.00    -0.237 OA
ATOM     84  O   UNL A   1      53.187  38.894  25.501  1.00  0.00    -0.237 OA
ATOM     85  O   UNL A   1      54.411  36.772  25.787  1.00  0.00    -0.744 OA
ENDBRANCH  81  82
ENDBRANCH  62  76
BRANCH  63  86
ATOM     86  C   UNL A   1      41.486  31.613  31.368  1.00  0.00    -0.014 A 
ATOM     87  C   UNL A   1      40.268  31.579  30.666  1.00  0.00     0.010 A 
ATOM     88  C   UNL A   1      41.553  31.037  32.649  1.00  0.00     0.010 A 
ATOM     89  C   UNL A   1      39.138  30.983  31.234  1.00  0.00     0.020 A 
ATOM     90  C   UNL A   1      40.433  30.414  33.209  1.00  0.00     0.020 A 
ATOM     91  C   UNL A   1      39.231  30.395  32.498  1.00  0.00     0.054 A 
BRANCH  91  92
ATOM     92  S   UNL A   1      37.773  29.555  33.177  1.00  0.00     0.124 S 
ATOM     93  O   UNL A   1      37.777  30.009  34.563  1.00  0.00    -0.237 OA
ATOM     94  O   UNL A   1      36.694  30.077  32.341  1.00  0.00    -0.237 OA
ATOM     95  O   UNL A   1      38.073  28.137  32.980  1.00  0.00    -0.744 OA
ENDBRANCH  91  92
ENDBRANCH  63  86
BRANCH  75  96
ATOM     96  C   UNL A   1      44.136  38.067  31.191  1.00  0.00    -0.014 A 
ATOM     97  C   UNL A   1      44.440  38.410  32.520  1.00  0.00     0.010 A 
ATOM     98  C   UNL A   1      43.441  38.990  30.387  1.00  0.00     0.010 A 
ATOM     99  C   UNL A   1      44.029  39.638  33.044  1.00  0.00     0.020 A 
ATOM    100  C   UNL A   1      43.057  40.233  30.898  1.00  0.00     0.020 A 
ATOM    101  C   UNL A   1      43.342  40.543  32.229  1.00  0.00     0.054 A 
BRANCH 101 102
ATOM    102  S   UNL A   1      42.861  42.149  32.919  1.00  0.00     0.124 S 
ATOM    103  O   UNL A   1      41.776  41.779  33.825  1.00  0.00    -0.237 OA
ATOM    104  O   UNL A   1      44.091  42.601  33.563  1.00  0.00    -0.237 OA
ATOM    105  O   UNL A   1      42.457  42.924  31.748  1.00  0.00    -0.744 OA
ENDBRANCH 101 102
ENDBRANCH  75  96
ENDBRANCH  49  50
ENDBRANCH  41  44
ENDBRANCH  39  40
ENDBRANCH  38  39
ENDBRANCH   1  38
TORSDOF 18
ENDMDL
