MODEL 1
REMARK VINA RESULT:     -12.9      0.000      0.000
REMARK SMILES Cc1cc(F)ccc1OC1(C(=O)NCCCNC(=O)c2ccc(-c3c4nc(c(-c5ccc(S(=O)(=O)[O-])cc5)c5ccc([nH]5)c(-c5ccc(S(=O)(=O)[O-])cc5)c5nc(c(-c6ccc(S(=O)(=O)[O-])cc6)c6ccc3[nH]6)C=C5)C=C4)cc2)CCN(C(=O)[C@H]2CCOC2)CC1
REMARK SMILES IDX 15 1 14 2 13 3 11 4 12 5 10 7 80 8 91 9 81 10 90 11 82 12
REMARK SMILES IDX 83 13 84 14 9 15 8 16 1 17 2 18 3 19 4 20 7 21 5 22 6 23
REMARK SMILES IDX 85 24 86 25 89 26 87 27 88 28 16 29 17 30 18 31 19 33 20 34
REMARK SMILES IDX 21 35 79 36 22 37 78 38 23 39 24 40 25 41 72 42 26 43 77 44
REMARK SMILES IDX 71 45 73 46 27 47 76 48 70 49 69 50 28 52 58 53 39 54 57 55
REMARK SMILES IDX 40 56 43 57 56 58 74 59 41 60 42 61 55 63 75 64 44 65 29 66
REMARK SMILES IDX 30 67 38 68 31 69 37 70 32 71 33 72 34 73 35 74 36 75 59 76
REMARK SMILES IDX 60 77 68 78 61 79 67 80 62 81 63 82 64 83 65 84 66 85 45 86
REMARK SMILES IDX 46 87 54 88 47 89 53 90 48 91 49 92 50 93 51 94 52 95
REMARK H PARENT 13 6 17 32 73 51 43 62
REMARK Flexibility Score: inf
ROOT
ATOM      1  C   UNL A   1      39.300  22.188  26.375  1.00  0.00     0.042 C 
ENDROOT
BRANCH   1   2
ATOM      2  C   UNL A   1      37.946  22.794  26.029  1.00  0.00     0.118 C 
BRANCH   2   3
ATOM      3  N   UNL A   1      37.673  22.790  24.605  1.00  0.00    -0.353 N 
ATOM      4  C   UNL A   1      36.531  22.950  23.874  1.00  0.00     0.264 C 
ATOM      5  O   UNL A   1      36.711  22.958  22.648  1.00  0.00    -0.270 OA
ATOM      6  H   UNL A   1      38.475  22.643  24.052  1.00  0.00     0.163 HD
BRANCH   4   7
ATOM      7  C   UNL A   1      35.099  23.118  24.520  1.00  0.00     0.190 C 
ATOM      8  C   UNL A   1      35.186  24.238  25.544  1.00  0.00     0.080 C 
ATOM      9  C   UNL A   1      34.089  23.209  23.378  1.00  0.00     0.080 C 
ATOM     10  C   UNL A   1      34.442  25.522  25.229  1.00  0.00     0.124 C 
ATOM     11  C   UNL A   1      33.074  24.335  23.439  1.00  0.00     0.124 C 
ATOM     12  N   UNL A   1      33.461  25.546  24.151  1.00  0.00    -0.342 N 
ATOM     13  C   UNL A   1      32.802  26.774  23.996  1.00  0.00     0.228 C 
ATOM     14  O   UNL A   1      33.216  27.786  24.563  1.00  0.00    -0.274 OA
BRANCH   7  15
ATOM     15  O   UNL A   1      34.983  21.835  25.179  1.00  0.00    -0.477 OA
BRANCH  15  16
ATOM     16  C   UNL A   1      34.307  20.688  24.938  1.00  0.00     0.124 A 
ATOM     17  C   UNL A   1      31.783  21.255  25.203  1.00  0.00     0.048 C 
ATOM     18  C   UNL A   1      32.944  20.363  24.909  1.00  0.00    -0.006 A 
ATOM     19  C   UNL A   1      32.570  19.017  24.667  1.00  0.00     0.046 A 
ATOM     20  C   UNL A   1      33.514  18.024  24.452  1.00  0.00     0.123 A 
ATOM     21  C   UNL A   1      35.240  19.649  24.714  1.00  0.00     0.050 A 
ATOM     22  F   UNL A   1      33.116  16.765  24.236  1.00  0.00    -0.207 F 
ATOM     23  C   UNL A   1      34.858  18.330  24.473  1.00  0.00     0.043 A 
ENDBRANCH  15  16
ENDBRANCH   7  15
BRANCH  13  24
ATOM     24  C   UNL A   1      31.516  26.809  23.188  1.00  0.00     0.107 C 
ATOM     25  C   UNL A   1      30.293  26.824  24.086  1.00  0.00     0.044 C 
ATOM     26  C   UNL A   1      31.350  28.111  22.427  1.00  0.00     0.173 C 
ATOM     27  C   UNL A   1      29.263  27.605  23.294  1.00  0.00     0.161 C 
ATOM     28  O   UNL A   1      29.940  28.253  22.212  1.00  0.00    -0.381 OA
ENDBRANCH  13  24
ENDBRANCH   4   7
ENDBRANCH   2   3
ENDBRANCH   1   2
BRANCH   1  29
ATOM     29  C   UNL A   1      40.271  23.143  27.055  1.00  0.00     0.118 C 
BRANCH  29  30
ATOM     30  N   UNL A   1      41.119  23.849  26.110  1.00  0.00    -0.352 N 
ATOM     31  C   UNL A   1      41.510  25.165  26.067  1.00  0.00     0.251 C 
ATOM     32  H   UNL A   1      41.473  23.292  25.380  1.00  0.00     0.163 HD
ATOM     33  O   UNL A   1      42.068  25.579  25.055  1.00  0.00    -0.269 OA
BRANCH  31  34
ATOM     34  C   UNL A   1      41.263  26.086  27.204  1.00  0.00     0.039 A 
ATOM     35  C   UNL A   1      42.057  27.233  27.319  1.00  0.00     0.014 A 
ATOM     36  C   UNL A   1      40.316  25.805  28.192  1.00  0.00     0.014 A 
ATOM     37  C   UNL A   1      41.875  28.108  28.395  1.00  0.00     0.010 A 
ATOM     38  C   UNL A   1      40.073  26.722  29.214  1.00  0.00     0.010 A 
ATOM     39  C   UNL A   1      40.866  27.871  29.342  1.00  0.00    -0.014 A 
BRANCH  39  40
ATOM     40  C   UNL A   1      40.660  28.789  30.494  1.00  0.00     0.031 A 
ATOM     41  C   UNL A   1      41.522  28.664  31.725  1.00  0.00     0.074 A 
ATOM     42  C   UNL A   1      39.677  29.708  30.453  1.00  0.00     0.049 A 
ATOM     43  N   UNL A   1      41.478  29.351  32.838  1.00  0.00    -0.248 NA
ATOM     44  C   UNL A   1      42.553  27.612  31.712  1.00  0.00     0.031 C 
ATOM     45  C   UNL A   1      38.748  29.909  29.338  1.00  0.00     0.029 A 
ATOM     46  N   UNL A   1      39.295  30.650  31.376  1.00  0.00    -0.354 N 
ATOM     47  C   UNL A   1      42.455  28.803  33.662  1.00  0.00     0.074 A 
ATOM     48  C   UNL A   1      43.039  27.693  32.942  1.00  0.00     0.031 C 
ATOM     49  C   UNL A   1      37.931  30.936  29.626  1.00  0.00     0.029 A 
ATOM     50  C   UNL A   1      38.252  31.443  30.957  1.00  0.00     0.049 A 
ATOM     51  H   UNL A   1      39.728  30.751  32.255  1.00  0.00     0.167 HD
ATOM     52  C   UNL A   1      42.850  29.198  34.897  1.00  0.00     0.031 A 
ATOM     53  C   UNL A   1      37.627  32.466  31.571  1.00  0.00     0.031 A 
ATOM     54  C   UNL A   1      42.283  30.314  35.606  1.00  0.00     0.049 A 
ATOM     55  C   UNL A   1      38.086  32.892  32.939  1.00  0.00     0.074 A 
ATOM     56  C   UNL A   1      42.646  30.827  36.839  1.00  0.00     0.029 A 
ATOM     57  N   UNL A   1      41.234  31.093  35.142  1.00  0.00    -0.354 N 
ATOM     58  N   UNL A   1      39.049  32.394  33.679  1.00  0.00    -0.248 NA
ATOM     59  C   UNL A   1      37.382  34.029  33.547  1.00  0.00     0.031 C 
ATOM     60  C   UNL A   1      41.790  31.893  37.139  1.00  0.00     0.029 A 
ATOM     61  C   UNL A   1      40.927  32.074  36.069  1.00  0.00     0.049 A 
ATOM     62  H   UNL A   1      40.776  30.968  34.280  1.00  0.00     0.167 HD
ATOM     63  C   UNL A   1      39.085  33.177  34.827  1.00  0.00     0.074 A 
ATOM     64  C   UNL A   1      38.057  34.188  34.678  1.00  0.00     0.031 C 
ATOM     65  C   UNL A   1      39.901  33.073  35.906  1.00  0.00     0.031 A 
BRANCH  52  66
ATOM     66  C   UNL A   1      43.948  28.405  35.558  1.00  0.00    -0.014 A 
ATOM     67  C   UNL A   1      45.300  28.755  35.387  1.00  0.00     0.010 A 
ATOM     68  C   UNL A   1      43.625  27.302  36.369  1.00  0.00     0.010 A 
ATOM     69  C   UNL A   1      46.311  27.983  35.966  1.00  0.00     0.020 A 
ATOM     70  C   UNL A   1      44.632  26.545  36.975  1.00  0.00     0.020 A 
ATOM     71  C   UNL A   1      45.971  26.877  36.750  1.00  0.00     0.054 A 
BRANCH  71  72
ATOM     72  S   UNL A   1      47.301  25.890  37.488  1.00  0.00     0.124 S 
ATOM     73  O   UNL A   1      48.493  26.556  36.968  1.00  0.00    -0.237 OA
ATOM     74  O   UNL A   1      47.066  26.052  38.920  1.00  0.00    -0.237 OA
ATOM     75  O   UNL A   1      47.064  24.545  36.969  1.00  0.00    -0.744 OA
ENDBRANCH  71  72
ENDBRANCH  52  66
BRANCH  53  76
ATOM     76  C   UNL A   1      36.526  33.187  30.878  1.00  0.00    -0.014 A 
ATOM     77  C   UNL A   1      35.218  33.146  31.393  1.00  0.00     0.010 A 
ATOM     78  C   UNL A   1      36.777  33.928  29.709  1.00  0.00     0.010 A 
ATOM     79  C   UNL A   1      34.179  33.818  30.745  1.00  0.00     0.020 A 
ATOM     80  C   UNL A   1      35.745  34.622  29.071  1.00  0.00     0.020 A 
ATOM     81  C   UNL A   1      34.450  34.553  29.587  1.00  0.00     0.054 A 
BRANCH  81  82
ATOM     82  S   UNL A   1      33.095  35.461  28.790  1.00  0.00     0.124 S 
ATOM     83  O   UNL A   1      32.464  34.418  27.986  1.00  0.00    -0.237 OA
ATOM     84  O   UNL A   1      32.318  35.938  29.932  1.00  0.00    -0.237 OA
ATOM     85  O   UNL A   1      33.783  36.505  28.034  1.00  0.00    -0.744 OA
ENDBRANCH  81  82
ENDBRANCH  53  76
BRANCH  65  86
ATOM     86  C   UNL A   1      39.739  34.101  36.992  1.00  0.00    -0.014 A 
ATOM     87  C   UNL A   1      39.054  33.804  38.183  1.00  0.00     0.010 A 
ATOM     88  C   UNL A   1      40.316  35.375  36.830  1.00  0.00     0.010 A 
ATOM     89  C   UNL A   1      38.914  34.777  39.177  1.00  0.00     0.020 A 
ATOM     90  C   UNL A   1      40.201  36.340  37.832  1.00  0.00     0.020 A 
ATOM     91  C   UNL A   1      39.485  36.041  38.993  1.00  0.00     0.054 A 
BRANCH  91  92
ATOM     92  S   UNL A   1      39.316  37.278  40.308  1.00  0.00     0.124 S 
ATOM     93  O   UNL A   1      38.527  36.557  41.303  1.00  0.00    -0.237 OA
ATOM     94  O   UNL A   1      40.702  37.548  40.679  1.00  0.00    -0.237 OA
ATOM     95  O   UNL A   1      38.627  38.388  39.652  1.00  0.00    -0.744 OA
ENDBRANCH  91  92
ENDBRANCH  65  86
ENDBRANCH  39  40
ENDBRANCH  31  34
ENDBRANCH  29  30
ENDBRANCH   1  29
TORSDOF 16
ENDMDL
MODEL 2
REMARK VINA RESULT:     -12.6      6.292     12.164
REMARK SMILES Cc1cc(F)ccc1OC1(C(=O)NCCCNC(=O)c2ccc(-c3c4nc(c(-c5ccc(S(=O)(=O)[O-])cc5)c5ccc([nH]5)c(-c5ccc(S(=O)(=O)[O-])cc5)c5nc(c(-c6ccc(S(=O)(=O)[O-])cc6)c6ccc3[nH]6)C=C5)C=C4)cc2)CCN(C(=O)[C@H]2CCOC2)CC1
REMARK SMILES IDX 15 1 14 2 13 3 11 4 12 5 10 7 80 8 91 9 81 10 90 11 82 12
REMARK SMILES IDX 83 13 84 14 9 15 8 16 1 17 2 18 3 19 4 20 7 21 5 22 6 23
REMARK SMILES IDX 85 24 86 25 89 26 87 27 88 28 16 29 17 30 18 31 19 33 20 34
REMARK SMILES IDX 21 35 79 36 22 37 78 38 23 39 24 40 25 41 72 42 26 43 77 44
REMARK SMILES IDX 71 45 73 46 27 47 76 48 70 49 69 50 28 52 58 53 39 54 57 55
REMARK SMILES IDX 40 56 43 57 56 58 74 59 41 60 42 61 55 63 75 64 44 65 29 66
REMARK SMILES IDX 30 67 38 68 31 69 37 70 32 71 33 72 34 73 35 74 36 75 59 76
REMARK SMILES IDX 60 77 68 78 61 79 67 80 62 81 63 82 64 83 65 84 66 85 45 86
REMARK SMILES IDX 46 87 54 88 47 89 53 90 48 91 49 92 50 93 51 94 52 95
REMARK H PARENT 13 6 17 32 73 51 43 62
REMARK Flexibility Score: inf
ROOT
ATOM      1  C   UNL A   1      34.169  30.567  27.346  1.00  0.00     0.042 C 
ENDROOT
BRANCH   1   2
ATOM      2  C   UNL A   1      33.323  29.633  26.490  1.00  0.00     0.118 C 
BRANCH   2   3
ATOM      3  N   UNL A   1      33.758  29.586  25.107  1.00  0.00    -0.353 N 
ATOM      4  C   UNL A   1      33.564  28.686  24.099  1.00  0.00     0.264 C 
ATOM      5  O   UNL A   1      34.041  29.035  23.010  1.00  0.00    -0.270 OA
ATOM      6  H   UNL A   1      34.304  30.361  24.842  1.00  0.00     0.163 HD
BRANCH   4   7
ATOM      7  C   UNL A   1      32.794  27.319  24.287  1.00  0.00     0.190 C 
ATOM      8  C   UNL A   1      32.686  26.661  22.922  1.00  0.00     0.080 C 
ATOM      9  C   UNL A   1      33.463  26.573  25.440  1.00  0.00     0.080 C 
ATOM     10  C   UNL A   1      33.486  25.391  22.700  1.00  0.00     0.124 C 
ATOM     11  C   UNL A   1      33.813  25.114  25.210  1.00  0.00     0.124 C 
ATOM     12  N   UNL A   1      34.075  24.697  23.839  1.00  0.00    -0.342 N 
ATOM     13  C   UNL A   1      34.742  23.509  23.509  1.00  0.00     0.228 C 
ATOM     14  O   UNL A   1      35.006  23.239  22.336  1.00  0.00    -0.274 OA
BRANCH   7  15
ATOM     15  O   UNL A   1      31.506  27.826  24.711  1.00  0.00    -0.477 OA
BRANCH  15  16
ATOM     16  C   UNL A   1      30.366  28.194  24.085  1.00  0.00     0.124 A 
ATOM     17  C   UNL A   1      28.959  26.026  23.793  1.00  0.00     0.048 C 
ATOM     18  C   UNL A   1      29.223  27.492  23.677  1.00  0.00    -0.006 A 
ATOM     19  C   UNL A   1      28.205  28.192  22.981  1.00  0.00     0.046 A 
ATOM     20  C   UNL A   1      28.310  29.547  22.705  1.00  0.00     0.123 A 
ATOM     21  C   UNL A   1      30.436  29.575  23.786  1.00  0.00     0.050 A 
ATOM     22  F   UNL A   1      27.329  30.165  22.037  1.00  0.00    -0.207 F 
ATOM     23  C   UNL A   1      29.425  30.252  23.104  1.00  0.00     0.043 A 
ENDBRANCH  15  16
ENDBRANCH   7  15
BRANCH  13  24
ATOM     24  C   UNL A   1      35.050  22.519  24.620  1.00  0.00     0.107 C 
ATOM     25  C   UNL A   1      34.144  21.305  24.553  1.00  0.00     0.044 C 
ATOM     26  C   UNL A   1      36.420  21.885  24.463  1.00  0.00     0.173 C 
ATOM     27  C   UNL A   1      34.994  20.178  25.106  1.00  0.00     0.161 C 
ATOM     28  O   UNL A   1      36.348  20.637  25.164  1.00  0.00    -0.381 OA
ENDBRANCH  13  24
ENDBRANCH   4   7
ENDBRANCH   2   3
ENDBRANCH   1   2
BRANCH   1  29
ATOM     29  C   UNL A   1      35.335  29.895  28.060  1.00  0.00     0.118 C 
BRANCH  29  30
ATOM     30  N   UNL A   1      35.479  30.336  29.436  1.00  0.00    -0.352 N 
ATOM     31  C   UNL A   1      36.545  30.244  30.299  1.00  0.00     0.251 C 
ATOM     32  H   UNL A   1      34.683  30.774  29.813  1.00  0.00     0.163 HD
ATOM     33  O   UNL A   1      36.364  30.507  31.485  1.00  0.00    -0.269 OA
BRANCH  31  34
ATOM     34  C   UNL A   1      37.889  29.828  29.832  1.00  0.00     0.039 A 
ATOM     35  C   UNL A   1      38.802  29.338  30.773  1.00  0.00     0.014 A 
ATOM     36  C   UNL A   1      38.289  29.978  28.501  1.00  0.00     0.014 A 
ATOM     37  C   UNL A   1      40.090  28.967  30.374  1.00  0.00     0.010 A 
ATOM     38  C   UNL A   1      39.541  29.523  28.088  1.00  0.00     0.010 A 
ATOM     39  C   UNL A   1      40.465  29.036  29.022  1.00  0.00    -0.014 A 
BRANCH  39  40
ATOM     40  C   UNL A   1      41.831  28.648  28.581  1.00  0.00     0.031 A 
ATOM     41  C   UNL A   1      42.934  29.675  28.542  1.00  0.00     0.074 A 
ATOM     42  C   UNL A   1      42.074  27.386  28.178  1.00  0.00     0.049 A 
ATOM     43  N   UNL A   1      44.179  29.536  28.163  1.00  0.00    -0.248 NA
ATOM     44  C   UNL A   1      42.586  31.043  28.962  1.00  0.00     0.031 C 
ATOM     45  C   UNL A   1      41.086  26.304  28.131  1.00  0.00     0.029 A 
ATOM     46  N   UNL A   1      43.231  26.796  27.733  1.00  0.00    -0.354 N 
ATOM     47  C   UNL A   1      44.754  30.798  28.277  1.00  0.00     0.074 A 
ATOM     48  C   UNL A   1      43.709  31.699  28.710  1.00  0.00     0.031 C 
ATOM     49  C   UNL A   1      41.688  25.176  27.721  1.00  0.00     0.029 A 
ATOM     50  C   UNL A   1      43.093  25.460  27.441  1.00  0.00     0.049 A 
ATOM     51  H   UNL A   1      44.080  27.284  27.633  1.00  0.00     0.167 HD
ATOM     52  C   UNL A   1      46.039  31.173  28.064  1.00  0.00     0.031 A 
ATOM     53  C   UNL A   1      43.995  24.561  27.002  1.00  0.00     0.031 A 
ATOM     54  C   UNL A   1      47.083  30.273  27.652  1.00  0.00     0.049 A 
ATOM     55  C   UNL A   1      45.417  24.997  26.779  1.00  0.00     0.074 A 
ATOM     56  C   UNL A   1      48.427  30.542  27.459  1.00  0.00     0.029 A 
ATOM     57  N   UNL A   1      46.902  28.926  27.375  1.00  0.00    -0.354 N 
ATOM     58  N   UNL A   1      45.952  26.184  26.944  1.00  0.00    -0.248 NA
ATOM     59  C   UNL A   1      46.361  23.967  26.323  1.00  0.00     0.031 C 
ATOM     60  C   UNL A   1      49.051  29.366  27.025  1.00  0.00     0.029 A 
ATOM     61  C   UNL A   1      48.105  28.354  26.999  1.00  0.00     0.049 A 
ATOM     62  H   UNL A   1      46.044  28.448  27.437  1.00  0.00     0.167 HD
ATOM     63  C   UNL A   1      47.302  26.035  26.643  1.00  0.00     0.074 A 
ATOM     64  C   UNL A   1      47.502  24.642  26.296  1.00  0.00     0.031 C 
ATOM     65  C   UNL A   1      48.287  26.966  26.657  1.00  0.00     0.031 A 
BRANCH  52  66
ATOM     66  C   UNL A   1      46.378  32.626  28.270  1.00  0.00    -0.014 A 
ATOM     67  C   UNL A   1      46.521  33.501  27.177  1.00  0.00     0.010 A 
ATOM     68  C   UNL A   1      46.546  33.128  29.574  1.00  0.00     0.010 A 
ATOM     69  C   UNL A   1      46.883  34.835  27.380  1.00  0.00     0.020 A 
ATOM     70  C   UNL A   1      46.878  34.470  29.782  1.00  0.00     0.020 A 
ATOM     71  C   UNL A   1      47.067  35.310  28.681  1.00  0.00     0.054 A 
BRANCH  71  72
ATOM     72  S   UNL A   1      47.539  37.045  28.918  1.00  0.00     0.124 S 
ATOM     73  O   UNL A   1      48.843  36.916  29.563  1.00  0.00    -0.237 OA
ATOM     74  O   UNL A   1      47.562  37.562  27.552  1.00  0.00    -0.237 OA
ATOM     75  O   UNL A   1      46.476  37.581  29.765  1.00  0.00    -0.744 OA
ENDBRANCH  71  72
ENDBRANCH  52  66
BRANCH  53  76
ATOM     76  C   UNL A   1      43.589  23.146  26.784  1.00  0.00    -0.014 A 
ATOM     77  C   UNL A   1      43.872  22.507  25.564  1.00  0.00     0.010 A 
ATOM     78  C   UNL A   1      42.930  22.426  27.797  1.00  0.00     0.010 A 
ATOM     79  C   UNL A   1      43.490  21.180  25.353  1.00  0.00     0.020 A 
ATOM     80  C   UNL A   1      42.568  21.090  27.599  1.00  0.00     0.020 A 
ATOM     81  C   UNL A   1      42.840  20.479  26.374  1.00  0.00     0.054 A 
BRANCH  81  82
ATOM     82  S   UNL A   1      42.399  18.740  26.097  1.00  0.00     0.124 S 
ATOM     83  O   UNL A   1      42.623  18.157  27.416  1.00  0.00    -0.237 OA
ATOM     84  O   UNL A   1      41.003  18.831  25.673  1.00  0.00    -0.237 OA
ATOM     85  O   UNL A   1      43.331  18.314  25.056  1.00  0.00    -0.744 OA
ENDBRANCH  81  82
ENDBRANCH  53  76
BRANCH  65  86
ATOM     86  C   UNL A   1      49.679  26.500  26.324  1.00  0.00    -0.014 A 
ATOM     87  C   UNL A   1      50.187  26.590  25.016  1.00  0.00     0.010 A 
ATOM     88  C   UNL A   1      50.503  25.997  27.348  1.00  0.00     0.010 A 
ATOM     89  C   UNL A   1      51.482  26.148  24.730  1.00  0.00     0.020 A 
ATOM     90  C   UNL A   1      51.806  25.579  27.071  1.00  0.00     0.020 A 
ATOM     91  C   UNL A   1      52.281  25.640  25.759  1.00  0.00     0.054 A 
BRANCH  91  92
ATOM     92  S   UNL A   1      53.968  25.099  25.370  1.00  0.00     0.124 S 
ATOM     93  O   UNL A   1      54.636  25.239  26.661  1.00  0.00    -0.237 OA
ATOM     94  O   UNL A   1      53.770  23.728  24.910  1.00  0.00    -0.237 OA
ATOM     95  O   UNL A   1      54.403  26.038  24.338  1.00  0.00    -0.744 OA
ENDBRANCH  91  92
ENDBRANCH  65  86
ENDBRANCH  39  40
ENDBRANCH  31  34
ENDBRANCH  29  30
ENDBRANCH   1  29
TORSDOF 16
ENDMDL
MODEL 3
REMARK VINA RESULT:     -12.6      6.424     11.712
REMARK SMILES Cc1cc(F)ccc1OC1(C(=O)NCCCNC(=O)c2ccc(-c3c4nc(c(-c5ccc(S(=O)(=O)[O-])cc5)c5ccc([nH]5)c(-c5ccc(S(=O)(=O)[O-])cc5)c5nc(c(-c6ccc(S(=O)(=O)[O-])cc6)c6ccc3[nH]6)C=C5)C=C4)cc2)CCN(C(=O)[C@H]2CCOC2)CC1
REMARK SMILES IDX 15 1 14 2 13 3 11 4 12 5 10 7 80 8 91 9 81 10 90 11 82 12
REMARK SMILES IDX 83 13 84 14 9 15 8 16 1 17 2 18 3 19 4 20 7 21 5 22 6 23
REMARK SMILES IDX 85 24 86 25 89 26 87 27 88 28 16 29 17 30 18 31 19 33 20 34
REMARK SMILES IDX 21 35 79 36 22 37 78 38 23 39 24 40 25 41 72 42 26 43 77 44
REMARK SMILES IDX 71 45 73 46 27 47 76 48 70 49 69 50 28 52 58 53 39 54 57 55
REMARK SMILES IDX 40 56 43 57 56 58 74 59 41 60 42 61 55 63 75 64 44 65 29 66
REMARK SMILES IDX 30 67 38 68 31 69 37 70 32 71 33 72 34 73 35 74 36 75 59 76
REMARK SMILES IDX 60 77 68 78 61 79 67 80 62 81 63 82 64 83 65 84 66 85 45 86
REMARK SMILES IDX 46 87 54 88 47 89 53 90 48 91 49 92 50 93 51 94 52 95
REMARK H PARENT 13 6 17 32 73 51 43 62
REMARK Flexibility Score: inf
ROOT
ATOM      1  C   UNL A   1      34.593  28.997  27.409  1.00  0.00     0.042 C 
ENDROOT
BRANCH   1   2
ATOM      2  C   UNL A   1      33.525  29.408  26.403  1.00  0.00     0.118 C 
BRANCH   2   3
ATOM      3  N   UNL A   1      33.983  29.331  25.030  1.00  0.00    -0.353 N 
ATOM      4  C   UNL A   1      33.634  28.541  23.973  1.00  0.00     0.264 C 
ATOM      5  O   UNL A   1      34.209  28.827  22.913  1.00  0.00    -0.270 OA
ATOM      6  H   UNL A   1      34.691  29.982  24.816  1.00  0.00     0.163 HD
BRANCH   4   7
ATOM      7  C   UNL A   1      32.584  27.364  24.075  1.00  0.00     0.190 C 
ATOM      8  C   UNL A   1      32.403  26.788  22.680  1.00  0.00     0.080 C 
ATOM      9  C   UNL A   1      33.026  26.455  25.221  1.00  0.00     0.080 C 
ATOM     10  C   UNL A   1      32.926  25.385  22.437  1.00  0.00     0.124 C 
ATOM     11  C   UNL A   1      33.070  24.964  24.944  1.00  0.00     0.124 C 
ATOM     12  N   UNL A   1      33.301  24.545  23.568  1.00  0.00    -0.342 N 
ATOM     13  C   UNL A   1      33.716  23.253  23.216  1.00  0.00     0.228 C 
ATOM     14  O   UNL A   1      33.972  22.971  22.044  1.00  0.00    -0.274 OA
BRANCH   7  15
ATOM     15  O   UNL A   1      31.415  28.119  24.469  1.00  0.00    -0.477 OA
BRANCH  15  16
ATOM     16  C   UNL A   1      30.260  28.487  23.868  1.00  0.00     0.124 A 
ATOM     17  C   UNL A   1      28.713  26.397  23.915  1.00  0.00     0.048 C 
ATOM     18  C   UNL A   1      29.056  27.818  23.610  1.00  0.00    -0.006 A 
ATOM     19  C   UNL A   1      28.039  28.498  22.892  1.00  0.00     0.046 A 
ATOM     20  C   UNL A   1      28.206  29.802  22.451  1.00  0.00     0.123 A 
ATOM     21  C   UNL A   1      30.393  29.815  23.402  1.00  0.00     0.050 A 
ATOM     22  F   UNL A   1      27.222  30.402  21.769  1.00  0.00    -0.207 F 
ATOM     23  C   UNL A   1      29.382  30.474  22.701  1.00  0.00     0.043 A 
ENDBRANCH  15  16
ENDBRANCH   7  15
BRANCH  13  24
ATOM     24  C   UNL A   1      33.757  22.185  24.296  1.00  0.00     0.107 C 
ATOM     25  C   UNL A   1      32.969  20.953  23.891  1.00  0.00     0.044 C 
ATOM     26  C   UNL A   1      35.148  21.609  24.484  1.00  0.00     0.173 C 
ATOM     27  C   UNL A   1      33.691  19.811  24.580  1.00  0.00     0.161 C 
ATOM     28  O   UNL A   1      34.950  20.306  25.048  1.00  0.00    -0.381 OA
ENDBRANCH  13  24
ENDBRANCH   4   7
ENDBRANCH   2   3
ENDBRANCH   1   2
BRANCH   1  29
ATOM     29  C   UNL A   1      35.440  30.143  27.943  1.00  0.00     0.118 C 
BRANCH  29  30
ATOM     30  N   UNL A   1      35.489  30.176  29.394  1.00  0.00    -0.352 N 
ATOM     31  C   UNL A   1      36.488  29.812  30.265  1.00  0.00     0.251 C 
ATOM     32  H   UNL A   1      34.673  30.515  29.825  1.00  0.00     0.163 HD
ATOM     33  O   UNL A   1      36.224  29.738  31.462  1.00  0.00    -0.269 OA
BRANCH  31  34
ATOM     34  C   UNL A   1      37.858  29.501  29.790  1.00  0.00     0.039 A 
ATOM     35  C   UNL A   1      38.806  29.065  30.723  1.00  0.00     0.014 A 
ATOM     36  C   UNL A   1      38.242  29.697  28.461  1.00  0.00     0.014 A 
ATOM     37  C   UNL A   1      40.116  28.793  30.317  1.00  0.00     0.010 A 
ATOM     38  C   UNL A   1      39.523  29.340  28.040  1.00  0.00     0.010 A 
ATOM     39  C   UNL A   1      40.483  28.908  28.967  1.00  0.00    -0.014 A 
BRANCH  39  40
ATOM     40  C   UNL A   1      41.871  28.625  28.518  1.00  0.00     0.031 A 
ATOM     41  C   UNL A   1      42.252  27.239  28.063  1.00  0.00     0.074 A 
ATOM     42  C   UNL A   1      42.801  29.599  28.554  1.00  0.00     0.049 A 
ATOM     43  N   UNL A   1      43.415  26.791  27.662  1.00  0.00    -0.248 NA
ATOM     44  C   UNL A   1      41.193  26.216  28.085  1.00  0.00     0.031 C 
ATOM     45  C   UNL A   1      42.574  30.973  29.008  1.00  0.00     0.029 A 
ATOM     46  N   UNL A   1      44.127  29.583  28.199  1.00  0.00    -0.354 N 
ATOM     47  C   UNL A   1      43.232  25.436  27.406  1.00  0.00     0.074 A 
ATOM     48  C   UNL A   1      41.862  25.124  27.747  1.00  0.00     0.031 C 
ATOM     49  C   UNL A   1      43.710  31.677  28.867  1.00  0.00     0.029 A 
ATOM     50  C   UNL A   1      44.754  30.798  28.348  1.00  0.00     0.049 A 
ATOM     51  H   UNL A   1      44.587  28.777  27.868  1.00  0.00     0.167 HD
ATOM     52  C   UNL A   1      44.115  24.534  26.910  1.00  0.00     0.031 A 
ATOM     53  C   UNL A   1      46.024  31.166  28.092  1.00  0.00     0.031 A 
ATOM     54  C   UNL A   1      45.472  24.849  26.552  1.00  0.00     0.049 A 
ATOM     55  C   UNL A   1      46.985  30.152  27.536  1.00  0.00     0.074 A 
ATOM     56  C   UNL A   1      46.431  24.021  25.995  1.00  0.00     0.029 A 
ATOM     57  N   UNL A   1      46.063  26.093  26.712  1.00  0.00    -0.354 N 
ATOM     58  N   UNL A   1      46.776  28.887  27.250  1.00  0.00    -0.248 NA
ATOM     59  C   UNL A   1      48.349  30.618  27.253  1.00  0.00     0.031 C 
ATOM     60  C   UNL A   1      47.615  24.754  25.854  1.00  0.00     0.029 A 
ATOM     61  C   UNL A   1      47.377  26.052  26.277  1.00  0.00     0.049 A 
ATOM     62  H   UNL A   1      45.615  26.888  27.079  1.00  0.00     0.167 HD
ATOM     63  C   UNL A   1      47.975  28.417  26.726  1.00  0.00     0.074 A 
ATOM     64  C   UNL A   1      48.899  29.534  26.723  1.00  0.00     0.031 C 
ATOM     65  C   UNL A   1      48.283  27.173  26.281  1.00  0.00     0.031 A 
BRANCH  52  66
ATOM     66  C   UNL A   1      43.631  23.119  26.735  1.00  0.00    -0.014 A 
ATOM     67  C   UNL A   1      43.034  22.417  27.799  1.00  0.00     0.010 A 
ATOM     68  C   UNL A   1      43.765  22.482  25.487  1.00  0.00     0.010 A 
ATOM     69  C   UNL A   1      42.633  21.089  27.637  1.00  0.00     0.020 A 
ATOM     70  C   UNL A   1      43.337  21.162  25.312  1.00  0.00     0.020 A 
ATOM     71  C   UNL A   1      42.795  20.466  26.396  1.00  0.00     0.054 A 
BRANCH  71  72
ATOM     72  S   UNL A   1      42.269  18.740  26.211  1.00  0.00     0.124 S 
ATOM     73  O   UNL A   1      42.432  18.230  27.571  1.00  0.00    -0.237 OA
ATOM     74  O   UNL A   1      40.890  18.871  25.750  1.00  0.00    -0.237 OA
ATOM     75  O   UNL A   1      43.203  18.197  25.227  1.00  0.00    -0.744 OA
ENDBRANCH  71  72
ENDBRANCH  52  66
BRANCH  53  76
ATOM     76  C   UNL A   1      46.449  32.574  28.319  1.00  0.00    -0.014 A 
ATOM     77  C   UNL A   1      46.290  33.534  27.304  1.00  0.00     0.010 A 
ATOM     78  C   UNL A   1      47.001  32.966  29.551  1.00  0.00     0.010 A 
ATOM     79  C   UNL A   1      46.690  34.857  27.510  1.00  0.00     0.020 A 
ATOM     80  C   UNL A   1      47.379  34.294  29.770  1.00  0.00     0.020 A 
ATOM     81  C   UNL A   1      47.232  35.228  28.744  1.00  0.00     0.054 A 
BRANCH  81  82
ATOM     82  S   UNL A   1      47.698  36.963  29.008  1.00  0.00     0.124 S 
ATOM     83  O   UNL A   1      46.409  37.580  29.307  1.00  0.00    -0.237 OA
ATOM     84  O   UNL A   1      48.633  36.874  30.127  1.00  0.00    -0.237 OA
ATOM     85  O   UNL A   1      48.298  37.352  27.734  1.00  0.00    -0.744 OA
ENDBRANCH  81  82
ENDBRANCH  53  76
BRANCH  65  86
ATOM     86  C   UNL A   1      49.663  26.965  25.719  1.00  0.00    -0.014 A 
ATOM     87  C   UNL A   1      49.958  27.266  24.377  1.00  0.00     0.010 A 
ATOM     88  C   UNL A   1      50.689  26.496  26.560  1.00  0.00     0.010 A 
ATOM     89  C   UNL A   1      51.247  27.063  23.876  1.00  0.00     0.020 A 
ATOM     90  C   UNL A   1      51.985  26.317  26.069  1.00  0.00     0.020 A 
ATOM     91  C   UNL A   1      52.251  26.584  24.725  1.00  0.00     0.054 A 
BRANCH  91  92
ATOM     92  S   UNL A   1      53.923  26.355  24.061  1.00  0.00     0.124 S 
ATOM     93  O   UNL A   1      53.661  26.181  22.635  1.00  0.00    -0.237 OA
ATOM     94  O   UNL A   1      54.591  27.599  24.431  1.00  0.00    -0.237 OA
ATOM     95  O   UNL A   1      54.410  25.164  24.755  1.00  0.00    -0.744 OA
ENDBRANCH  91  92
ENDBRANCH  65  86
ENDBRANCH  39  40
ENDBRANCH  31  34
ENDBRANCH  29  30
ENDBRANCH   1  29
TORSDOF 16
ENDMDL
