MODEL 1
REMARK VINA RESULT:     -13.7      0.000      0.000
REMARK SMILES Cc1c(CC(=O)NCCCNC(=O)c2ccc(-c3c4nc(c(-c5ccc(S(=O)(=O)[O-])cc5)c5ccc([nH]5)c(-c5ccc(S(=O)(=O)[O-])cc5)c5nc(c(-c6ccc(S(=O)(=O)[O-])cc6)c6ccc3[nH]6)C=C5)C=C4)cc2)cccc1-c1ccn(C(F)F)c(=O)c1
REMARK SMILES IDX 9 1 8 2 7 3 5 4 6 5 4 7 3 8 1 9 2 10 77 11 74 12 76 13 75 14
REMARK SMILES IDX 78 15 79 16 87 17 80 18 85 19 81 20 86 21 82 22 83 23 84 24
REMARK SMILES IDX 10 25 11 26 12 27 13 29 14 30 15 31 73 32 16 33 72 34 17 35
REMARK SMILES IDX 18 36 19 37 66 38 20 39 71 40 65 41 67 42 21 43 70 44 64 45
REMARK SMILES IDX 63 46 22 48 52 49 33 50 51 51 34 52 37 53 50 54 68 55 35 56
REMARK SMILES IDX 36 57 49 59 69 60 38 61 23 62 24 63 32 64 25 65 31 66 26 67
REMARK SMILES IDX 27 68 28 69 29 70 30 71 53 72 54 73 62 74 55 75 61 76 56 77
REMARK SMILES IDX 57 78 58 79 59 80 60 81 39 82 40 83 48 84 41 85 47 86 42 87
REMARK SMILES IDX 43 88 44 89 45 90 46 91
REMARK H PARENT 7 6 11 28 67 47 37 58
REMARK Flexibility Score: inf
ROOT
ATOM      1  C   UNL A   1      32.781  29.688  27.223  1.00  0.00     0.042 C 
ENDROOT
BRANCH   1   2
ATOM      2  C   UNL A   1      32.032  30.436  26.124  1.00  0.00     0.117 C 
BRANCH   2   3
ATOM      3  N   UNL A   1      32.232  29.861  24.800  1.00  0.00    -0.356 N 
ATOM      4  C   UNL A   1      31.900  28.623  24.328  1.00  0.00     0.224 C 
ATOM      5  O   UNL A   1      32.131  28.355  23.145  1.00  0.00    -0.275 OA
ATOM      6  H   UNL A   1      32.673  30.453  24.149  1.00  0.00     0.163 HD
BRANCH   4   7
ATOM      7  C   UNL A   1      31.246  27.587  25.238  1.00  0.00     0.135 C 
BRANCH   7   8
ATOM      8  C   UNL A   1      31.322  26.169  24.699  1.00  0.00    -0.035 A 
ATOM      9  C   UNL A   1      33.593  25.743  25.771  1.00  0.00     0.045 C 
ATOM     10  C   UNL A   1      32.454  25.328  24.869  1.00  0.00    -0.040 A 
ATOM     11  C   UNL A   1      32.488  24.080  24.191  1.00  0.00    -0.015 A 
ATOM     12  C   UNL A   1      30.226  25.707  23.942  1.00  0.00     0.004 A 
ATOM     13  C   UNL A   1      31.387  23.665  23.424  1.00  0.00     0.009 A 
ATOM     14  C   UNL A   1      30.257  24.466  23.313  1.00  0.00     0.001 A 
BRANCH  11  15
ATOM     15  C   UNL A   1      33.690  23.214  24.200  1.00  0.00    -0.011 A 
ATOM     16  C   UNL A   1      33.830  22.067  25.077  1.00  0.00     0.027 A 
ATOM     17  C   UNL A   1      34.724  23.566  23.414  1.00  0.00     0.080 A 
ATOM     18  C   UNL A   1      35.005  21.437  25.184  1.00  0.00     0.095 A 
ATOM     19  C   UNL A   1      36.004  22.807  23.448  1.00  0.00     0.255 A 
ATOM     20  N   UNL A   1      36.088  21.815  24.412  1.00  0.00    -0.258 N 
ATOM     21  O   UNL A   1      36.890  23.095  22.652  1.00  0.00    -0.269 OA
BRANCH  20  22
ATOM     22  C   UNL A   1      37.358  21.154  24.555  1.00  0.00     0.451 C 
ATOM     23  F   UNL A   1      38.220  21.897  25.291  1.00  0.00    -0.185 F 
ATOM     24  F   UNL A   1      37.228  19.943  25.149  1.00  0.00    -0.185 F 
ENDBRANCH  20  22
ENDBRANCH  11  15
ENDBRANCH   7   8
ENDBRANCH   4   7
ENDBRANCH   2   3
ENDBRANCH   1   2
BRANCH   1  25
ATOM     25  C   UNL A   1      34.282  29.628  26.989  1.00  0.00     0.118 C 
BRANCH  25  26
ATOM     26  N   UNL A   1      34.957  30.881  27.302  1.00  0.00    -0.352 N 
ATOM     27  C   UNL A   1      36.151  31.039  27.982  1.00  0.00     0.251 C 
ATOM     28  H   UNL A   1      34.514  31.704  26.995  1.00  0.00     0.163 HD
ATOM     29  O   UNL A   1      36.517  32.102  28.448  1.00  0.00    -0.269 OA
BRANCH  27  30
ATOM     30  C   UNL A   1      37.059  29.875  27.968  1.00  0.00     0.039 A 
ATOM     31  C   UNL A   1      37.146  29.138  29.155  1.00  0.00     0.014 A 
ATOM     32  C   UNL A   1      38.000  29.736  26.953  1.00  0.00     0.014 A 
ATOM     33  C   UNL A   1      38.280  28.371  29.397  1.00  0.00     0.010 A 
ATOM     34  C   UNL A   1      39.166  29.054  27.238  1.00  0.00     0.010 A 
ATOM     35  C   UNL A   1      39.325  28.408  28.474  1.00  0.00    -0.014 A 
BRANCH  35  36
ATOM     36  C   UNL A   1      40.649  27.856  28.734  1.00  0.00     0.031 A 
ATOM     37  C   UNL A   1      40.939  26.445  28.383  1.00  0.00     0.074 A 
ATOM     38  C   UNL A   1      41.640  28.645  29.209  1.00  0.00     0.049 A 
ATOM     39  N   UNL A   1      41.901  25.745  28.887  1.00  0.00    -0.248 NA
ATOM     40  C   UNL A   1      40.103  25.688  27.457  1.00  0.00     0.031 C 
ATOM     41  C   UNL A   1      43.069  28.343  29.203  1.00  0.00     0.029 A 
ATOM     42  N   UNL A   1      41.543  29.793  29.997  1.00  0.00    -0.354 N 
ATOM     43  C   UNL A   1      42.001  24.590  28.144  1.00  0.00     0.074 A 
ATOM     44  C   UNL A   1      40.810  24.562  27.328  1.00  0.00     0.031 C 
ATOM     45  C   UNL A   1      43.662  29.060  30.168  1.00  0.00     0.029 A 
ATOM     46  C   UNL A   1      42.609  29.733  30.911  1.00  0.00     0.049 A 
ATOM     47  H   UNL A   1      40.864  30.502  29.927  1.00  0.00     0.167 HD
ATOM     48  C   UNL A   1      43.149  23.854  28.183  1.00  0.00     0.031 A 
ATOM     49  C   UNL A   1      42.464  29.708  32.268  1.00  0.00     0.031 A 
ATOM     50  C   UNL A   1      44.097  24.379  29.163  1.00  0.00     0.049 A 
ATOM     51  C   UNL A   1      43.108  28.499  32.911  1.00  0.00     0.074 A 
ATOM     52  C   UNL A   1      45.226  25.175  29.054  1.00  0.00     0.029 A 
ATOM     53  N   UNL A   1      43.774  24.335  30.513  1.00  0.00    -0.354 N 
ATOM     54  N   UNL A   1      43.498  27.446  32.248  1.00  0.00    -0.248 NA
ATOM     55  C   UNL A   1      43.323  28.354  34.350  1.00  0.00     0.031 C 
ATOM     56  C   UNL A   1      45.534  25.675  30.345  1.00  0.00     0.029 A 
ATOM     57  C   UNL A   1      44.611  25.162  31.238  1.00  0.00     0.049 A 
ATOM     58  H   UNL A   1      43.049  23.791  30.901  1.00  0.00     0.167 HD
ATOM     59  C   UNL A   1      43.990  26.506  33.114  1.00  0.00     0.074 A 
ATOM     60  C   UNL A   1      43.871  27.127  34.420  1.00  0.00     0.031 C 
ATOM     61  C   UNL A   1      44.443  25.293  32.680  1.00  0.00     0.031 A 
BRANCH  48  62
ATOM     62  C   UNL A   1      43.522  22.845  27.117  1.00  0.00    -0.014 A 
ATOM     63  C   UNL A   1      42.705  21.712  26.914  1.00  0.00     0.010 A 
ATOM     64  C   UNL A   1      44.688  22.913  26.332  1.00  0.00     0.010 A 
ATOM     65  C   UNL A   1      43.087  20.658  26.068  1.00  0.00     0.020 A 
ATOM     66  C   UNL A   1      45.104  21.850  25.514  1.00  0.00     0.020 A 
ATOM     67  C   UNL A   1      44.306  20.720  25.398  1.00  0.00     0.054 A 
BRANCH  67  68
ATOM     68  S   UNL A   1      44.834  19.310  24.390  1.00  0.00     0.124 S 
ATOM     69  O   UNL A   1      44.564  19.773  23.031  1.00  0.00    -0.237 OA
ATOM     70  O   UNL A   1      46.243  19.181  24.744  1.00  0.00    -0.237 OA
ATOM     71  O   UNL A   1      43.976  18.218  24.847  1.00  0.00    -0.744 OA
ENDBRANCH  67  68
ENDBRANCH  48  62
BRANCH  49  72
ATOM     72  C   UNL A   1      41.247  30.404  32.767  1.00  0.00    -0.014 A 
ATOM     73  C   UNL A   1      40.127  29.600  33.064  1.00  0.00     0.010 A 
ATOM     74  C   UNL A   1      41.350  31.677  33.356  1.00  0.00     0.010 A 
ATOM     75  C   UNL A   1      39.237  29.970  34.075  1.00  0.00     0.020 A 
ATOM     76  C   UNL A   1      40.454  32.051  34.368  1.00  0.00     0.020 A 
ATOM     77  C   UNL A   1      39.453  31.159  34.770  1.00  0.00     0.054 A 
BRANCH  77  78
ATOM     78  S   UNL A   1      38.539  31.417  36.321  1.00  0.00     0.124 S 
ATOM     79  O   UNL A   1      39.540  32.049  37.175  1.00  0.00    -0.237 OA
ATOM     80  O   UNL A   1      37.446  32.288  35.886  1.00  0.00    -0.237 OA
ATOM     81  O   UNL A   1      38.145  30.066  36.705  1.00  0.00    -0.744 OA
ENDBRANCH  77  78
ENDBRANCH  49  72
BRANCH  61  82
ATOM     82  C   UNL A   1      44.840  24.126  33.550  1.00  0.00    -0.014 A 
ATOM     83  C   UNL A   1      44.026  23.008  33.791  1.00  0.00     0.010 A 
ATOM     84  C   UNL A   1      46.163  24.076  34.055  1.00  0.00     0.010 A 
ATOM     85  C   UNL A   1      44.491  21.919  34.545  1.00  0.00     0.020 A 
ATOM     86  C   UNL A   1      46.649  22.979  34.770  1.00  0.00     0.020 A 
ATOM     87  C   UNL A   1      45.798  21.913  35.032  1.00  0.00     0.054 A 
BRANCH  87  88
ATOM     88  S   UNL A   1      46.418  20.472  35.940  1.00  0.00     0.124 S 
ATOM     89  O   UNL A   1      47.812  20.422  35.507  1.00  0.00    -0.237 OA
ATOM     90  O   UNL A   1      46.211  20.848  37.336  1.00  0.00    -0.237 OA
ATOM     91  O   UNL A   1      45.572  19.381  35.465  1.00  0.00    -0.744 OA
ENDBRANCH  87  88
ENDBRANCH  61  82
ENDBRANCH  35  36
ENDBRANCH  27  30
ENDBRANCH  25  26
ENDBRANCH   1  25
TORSDOF 16
ENDMDL
MODEL 2
REMARK VINA RESULT:     -13.3      1.603      2.001
REMARK SMILES Cc1c(CC(=O)NCCCNC(=O)c2ccc(-c3c4nc(c(-c5ccc(S(=O)(=O)[O-])cc5)c5ccc([nH]5)c(-c5ccc(S(=O)(=O)[O-])cc5)c5nc(c(-c6ccc(S(=O)(=O)[O-])cc6)c6ccc3[nH]6)C=C5)C=C4)cc2)cccc1-c1ccn(C(F)F)c(=O)c1
REMARK SMILES IDX 9 1 8 2 7 3 5 4 6 5 4 7 3 8 1 9 2 10 77 11 74 12 76 13 75 14
REMARK SMILES IDX 78 15 79 16 87 17 80 18 85 19 81 20 86 21 82 22 83 23 84 24
REMARK SMILES IDX 10 25 11 26 12 27 13 29 14 30 15 31 73 32 16 33 72 34 17 35
REMARK SMILES IDX 18 36 19 37 66 38 20 39 71 40 65 41 67 42 21 43 70 44 64 45
REMARK SMILES IDX 63 46 22 48 52 49 33 50 51 51 34 52 37 53 50 54 68 55 35 56
REMARK SMILES IDX 36 57 49 59 69 60 38 61 23 62 24 63 32 64 25 65 31 66 26 67
REMARK SMILES IDX 27 68 28 69 29 70 30 71 53 72 54 73 62 74 55 75 61 76 56 77
REMARK SMILES IDX 57 78 58 79 59 80 60 81 39 82 40 83 48 84 41 85 47 86 42 87
REMARK SMILES IDX 43 88 44 89 45 90 46 91
REMARK H PARENT 7 6 11 28 67 47 37 58
REMARK Flexibility Score: inf
ROOT
ATOM      1  C   UNL A   1      33.334  28.979  27.390  1.00  0.00     0.042 C 
ENDROOT
BRANCH   1   2
ATOM      2  C   UNL A   1      32.819  27.664  26.814  1.00  0.00     0.117 C 
BRANCH   2   3
ATOM      3  N   UNL A   1      31.851  27.849  25.740  1.00  0.00    -0.356 N 
ATOM      4  C   UNL A   1      31.034  26.936  25.134  1.00  0.00     0.224 C 
ATOM      5  O   UNL A   1      30.253  27.323  24.260  1.00  0.00    -0.275 OA
ATOM      6  H   UNL A   1      31.774  28.770  25.401  1.00  0.00     0.163 HD
BRANCH   4   7
ATOM      7  C   UNL A   1      31.075  25.464  25.534  1.00  0.00     0.135 C 
BRANCH   7   8
ATOM      8  C   UNL A   1      31.654  24.559  24.460  1.00  0.00    -0.035 A 
ATOM      9  C   UNL A   1      31.106  22.441  25.764  1.00  0.00     0.045 C 
ATOM     10  C   UNL A   1      31.753  23.149  24.596  1.00  0.00    -0.040 A 
ATOM     11  C   UNL A   1      32.454  22.412  23.604  1.00  0.00    -0.015 A 
ATOM     12  C   UNL A   1      32.170  25.179  23.303  1.00  0.00     0.004 A 
ATOM     13  C   UNL A   1      32.977  23.070  22.478  1.00  0.00     0.009 A 
ATOM     14  C   UNL A   1      32.822  24.442  22.321  1.00  0.00     0.001 A 
BRANCH  11  15
ATOM     15  C   UNL A   1      32.726  20.963  23.746  1.00  0.00    -0.011 A 
ATOM     16  C   UNL A   1      33.572  20.418  24.790  1.00  0.00     0.027 A 
ATOM     17  C   UNL A   1      32.226  20.136  22.809  1.00  0.00     0.080 A 
ATOM     18  C   UNL A   1      33.940  19.132  24.760  1.00  0.00     0.095 A 
ATOM     19  C   UNL A   1      32.545  18.681  22.825  1.00  0.00     0.255 A 
ATOM     20  N   UNL A   1      33.468  18.279  23.779  1.00  0.00    -0.258 N 
ATOM     21  O   UNL A   1      31.998  17.942  22.015  1.00  0.00    -0.269 OA
BRANCH  20  22
ATOM     22  C   UNL A   1      33.892  16.905  23.733  1.00  0.00     0.451 C 
ATOM     23  F   UNL A   1      34.386  16.583  22.512  1.00  0.00    -0.185 F 
ATOM     24  F   UNL A   1      34.847  16.646  24.658  1.00  0.00    -0.185 F 
ENDBRANCH  20  22
ENDBRANCH  11  15
ENDBRANCH   7   8
ENDBRANCH   4   7
ENDBRANCH   2   3
ENDBRANCH   1   2
BRANCH   1  25
ATOM     25  C   UNL A   1      34.493  29.565  26.599  1.00  0.00     0.118 C 
BRANCH  25  26
ATOM     26  N   UNL A   1      35.052  30.762  27.212  1.00  0.00    -0.352 N 
ATOM     27  C   UNL A   1      36.142  30.835  28.062  1.00  0.00     0.251 C 
ATOM     28  H   UNL A   1      34.605  31.613  26.999  1.00  0.00     0.163 HD
ATOM     29  O   UNL A   1      36.387  31.808  28.750  1.00  0.00    -0.269 OA
BRANCH  27  30
ATOM     30  C   UNL A   1      37.109  29.724  27.964  1.00  0.00     0.039 A 
ATOM     31  C   UNL A   1      37.177  28.857  29.061  1.00  0.00     0.014 A 
ATOM     32  C   UNL A   1      38.105  29.748  26.993  1.00  0.00     0.014 A 
ATOM     33  C   UNL A   1      38.336  28.120  29.276  1.00  0.00     0.010 A 
ATOM     34  C   UNL A   1      39.290  29.092  27.261  1.00  0.00     0.010 A 
ATOM     35  C   UNL A   1      39.421  28.314  28.422  1.00  0.00    -0.014 A 
BRANCH  35  36
ATOM     36  C   UNL A   1      40.758  27.797  28.689  1.00  0.00     0.031 A 
ATOM     37  C   UNL A   1      41.091  26.399  28.327  1.00  0.00     0.074 A 
ATOM     38  C   UNL A   1      41.721  28.609  29.181  1.00  0.00     0.049 A 
ATOM     39  N   UNL A   1      42.068  25.721  28.832  1.00  0.00    -0.248 NA
ATOM     40  C   UNL A   1      40.286  25.628  27.385  1.00  0.00     0.031 C 
ATOM     41  C   UNL A   1      43.159  28.348  29.186  1.00  0.00     0.029 A 
ATOM     42  N   UNL A   1      41.584  29.746  29.980  1.00  0.00    -0.354 N 
ATOM     43  C   UNL A   1      42.208  24.577  28.079  1.00  0.00     0.074 A 
ATOM     44  C   UNL A   1      41.026  24.524  27.252  1.00  0.00     0.031 C 
ATOM     45  C   UNL A   1      43.722  29.072  30.164  1.00  0.00     0.029 A 
ATOM     46  C   UNL A   1      42.643  29.706  30.903  1.00  0.00     0.049 A 
ATOM     47  H   UNL A   1      40.886  30.436  29.910  1.00  0.00     0.167 HD
ATOM     48  C   UNL A   1      43.376  23.874  28.122  1.00  0.00     0.031 A 
ATOM     49  C   UNL A   1      42.486  29.664  32.258  1.00  0.00     0.031 A 
ATOM     50  C   UNL A   1      44.299  24.415  29.116  1.00  0.00     0.049 A 
ATOM     51  C   UNL A   1      43.159  28.467  32.896  1.00  0.00     0.074 A 
ATOM     52  C   UNL A   1      45.406  25.244  29.026  1.00  0.00     0.029 A 
ATOM     53  N   UNL A   1      43.965  24.349  30.463  1.00  0.00    -0.354 N 
ATOM     54  N   UNL A   1      43.584  27.432  32.226  1.00  0.00    -0.248 NA
ATOM     55  C   UNL A   1      43.364  28.314  34.335  1.00  0.00     0.031 C 
ATOM     56  C   UNL A   1      45.688  25.739  30.325  1.00  0.00     0.029 A 
ATOM     57  C   UNL A   1      44.772  25.191  31.204  1.00  0.00     0.049 A 
ATOM     58  H   UNL A   1      43.253  23.780  30.838  1.00  0.00     0.167 HD
ATOM     59  C   UNL A   1      44.095  26.497  33.087  1.00  0.00     0.074 A 
ATOM     60  C   UNL A   1      43.947  27.102  34.398  1.00  0.00     0.031 C 
ATOM     61  C   UNL A   1      44.586  25.302  32.645  1.00  0.00     0.031 A 
BRANCH  48  62
ATOM     62  C   UNL A   1      43.787  22.887  27.050  1.00  0.00    -0.014 A 
ATOM     63  C   UNL A   1      42.917  21.831  26.703  1.00  0.00     0.010 A 
ATOM     64  C   UNL A   1      45.033  22.898  26.395  1.00  0.00     0.010 A 
ATOM     65  C   UNL A   1      43.311  20.789  25.849  1.00  0.00     0.020 A 
ATOM     66  C   UNL A   1      45.457  21.844  25.570  1.00  0.00     0.020 A 
ATOM     67  C   UNL A   1      44.596  20.785  25.313  1.00  0.00     0.054 A 
BRANCH  67  68
ATOM     68  S   UNL A   1      45.126  19.384  24.294  1.00  0.00     0.124 S 
ATOM     69  O   UNL A   1      44.578  18.240  25.018  1.00  0.00    -0.237 OA
ATOM     70  O   UNL A   1      44.499  19.676  23.009  1.00  0.00    -0.237 OA
ATOM     71  O   UNL A   1      46.585  19.478  24.309  1.00  0.00    -0.744 OA
ENDBRANCH  67  68
ENDBRANCH  48  62
BRANCH  49  72
ATOM     72  C   UNL A   1      41.245  30.320  32.752  1.00  0.00    -0.014 A 
ATOM     73  C   UNL A   1      40.187  29.473  33.144  1.00  0.00     0.010 A 
ATOM     74  C   UNL A   1      41.288  31.634  33.250  1.00  0.00     0.010 A 
ATOM     75  C   UNL A   1      39.310  29.860  34.159  1.00  0.00     0.020 A 
ATOM     76  C   UNL A   1      40.404  32.025  34.266  1.00  0.00     0.020 A 
ATOM     77  C   UNL A   1      39.474  31.106  34.764  1.00  0.00     0.054 A 
BRANCH  77  78
ATOM     78  S   UNL A   1      38.596  31.417  36.325  1.00  0.00     0.124 S 
ATOM     79  O   UNL A   1      37.464  32.231  35.893  1.00  0.00    -0.237 OA
ATOM     80  O   UNL A   1      38.262  30.060  36.760  1.00  0.00    -0.237 OA
ATOM     81  O   UNL A   1      39.593  32.105  37.138  1.00  0.00    -0.744 OA
ENDBRANCH  77  78
ENDBRANCH  49  72
BRANCH  61  82
ATOM     82  C   UNL A   1      45.008  24.138  33.507  1.00  0.00    -0.014 A 
ATOM     83  C   UNL A   1      44.205  23.017  33.770  1.00  0.00     0.010 A 
ATOM     84  C   UNL A   1      46.344  24.094  33.980  1.00  0.00     0.010 A 
ATOM     85  C   UNL A   1      44.692  21.931  34.514  1.00  0.00     0.020 A 
ATOM     86  C   UNL A   1      46.851  23.000  34.686  1.00  0.00     0.020 A 
ATOM     87  C   UNL A   1      46.010  21.931  34.969  1.00  0.00     0.054 A 
BRANCH  87  88
ATOM     88  S   UNL A   1      46.657  20.494  35.864  1.00  0.00     0.124 S 
ATOM     89  O   UNL A   1      48.027  20.422  35.364  1.00  0.00    -0.237 OA
ATOM     90  O   UNL A   1      46.523  20.890  37.264  1.00  0.00    -0.237 OA
ATOM     91  O   UNL A   1      45.776  19.408  35.445  1.00  0.00    -0.744 OA
ENDBRANCH  87  88
ENDBRANCH  61  82
ENDBRANCH  35  36
ENDBRANCH  27  30
ENDBRANCH  25  26
ENDBRANCH   1  25
TORSDOF 16
ENDMDL
MODEL 3
REMARK VINA RESULT:     -13.1      5.034     12.657
REMARK SMILES Cc1c(CC(=O)NCCCNC(=O)c2ccc(-c3c4nc(c(-c5ccc(S(=O)(=O)[O-])cc5)c5ccc([nH]5)c(-c5ccc(S(=O)(=O)[O-])cc5)c5nc(c(-c6ccc(S(=O)(=O)[O-])cc6)c6ccc3[nH]6)C=C5)C=C4)cc2)cccc1-c1ccn(C(F)F)c(=O)c1
REMARK SMILES IDX 9 1 8 2 7 3 5 4 6 5 4 7 3 8 1 9 2 10 77 11 74 12 76 13 75 14
REMARK SMILES IDX 78 15 79 16 87 17 80 18 85 19 81 20 86 21 82 22 83 23 84 24
REMARK SMILES IDX 10 25 11 26 12 27 13 29 14 30 15 31 73 32 16 33 72 34 17 35
REMARK SMILES IDX 18 36 19 37 66 38 20 39 71 40 65 41 67 42 21 43 70 44 64 45
REMARK SMILES IDX 63 46 22 48 52 49 33 50 51 51 34 52 37 53 50 54 68 55 35 56
REMARK SMILES IDX 36 57 49 59 69 60 38 61 23 62 24 63 32 64 25 65 31 66 26 67
REMARK SMILES IDX 27 68 28 69 29 70 30 71 53 72 54 73 62 74 55 75 61 76 56 77
REMARK SMILES IDX 57 78 58 79 59 80 60 81 39 82 40 83 48 84 41 85 47 86 42 87
REMARK SMILES IDX 43 88 44 89 45 90 46 91
REMARK H PARENT 7 6 11 28 67 47 37 58
REMARK Flexibility Score: inf
ROOT
ATOM      1  C   UNL A   1      40.552  21.234  26.453  1.00  0.00     0.042 C 
ENDROOT
BRANCH   1   2
ATOM      2  C   UNL A   1      42.068  21.118  26.577  1.00  0.00     0.117 C 
BRANCH   2   3
ATOM      3  N   UNL A   1      42.775  21.529  25.370  1.00  0.00    -0.356 N 
ATOM      4  C   UNL A   1      43.256  22.758  25.017  1.00  0.00     0.224 C 
ATOM      5  O   UNL A   1      43.866  22.875  23.950  1.00  0.00    -0.275 OA
ATOM      6  H   UNL A   1      42.928  20.814  24.711  1.00  0.00     0.163 HD
BRANCH   4   7
ATOM      7  C   UNL A   1      43.056  23.967  25.927  1.00  0.00     0.135 C 
BRANCH   7   8
ATOM      8  C   UNL A   1      44.097  24.077  27.028  1.00  0.00    -0.035 A 
ATOM      9  C   UNL A   1      42.346  23.971  28.874  1.00  0.00     0.045 C 
ATOM     10  C   UNL A   1      43.769  24.167  28.407  1.00  0.00    -0.040 A 
ATOM     11  C   UNL A   1      44.807  24.426  29.343  1.00  0.00    -0.015 A 
ATOM     12  C   UNL A   1      45.449  24.153  26.633  1.00  0.00     0.004 A 
ATOM     13  C   UNL A   1      46.139  24.521  28.907  1.00  0.00     0.009 A 
ATOM     14  C   UNL A   1      46.460  24.370  27.563  1.00  0.00     0.001 A 
BRANCH  11  15
ATOM     15  C   UNL A   1      44.528  24.678  30.775  1.00  0.00    -0.011 A 
ATOM     16  C   UNL A   1      44.591  25.999  31.371  1.00  0.00     0.027 A 
ATOM     17  C   UNL A   1      44.289  23.614  31.564  1.00  0.00     0.080 A 
ATOM     18  C   UNL A   1      44.522  26.146  32.699  1.00  0.00     0.095 A 
ATOM     19  C   UNL A   1      44.106  23.778  33.033  1.00  0.00     0.255 A 
ATOM     20  N   UNL A   1      44.318  25.056  33.526  1.00  0.00    -0.258 N 
ATOM     21  O   UNL A   1      43.796  22.803  33.708  1.00  0.00    -0.269 OA
BRANCH  20  22
ATOM     22  C   UNL A   1      44.276  25.217  34.955  1.00  0.00     0.451 C 
ATOM     23  F   UNL A   1      45.512  25.108  35.499  1.00  0.00    -0.185 F 
ATOM     24  F   UNL A   1      43.761  26.419  35.309  1.00  0.00    -0.185 F 
ENDBRANCH  20  22
ENDBRANCH  11  15
ENDBRANCH   7   8
ENDBRANCH   4   7
ENDBRANCH   2   3
ENDBRANCH   1   2
BRANCH   1  25
ATOM     25  C   UNL A   1      39.980  22.425  27.205  1.00  0.00     0.118 C 
BRANCH  25  26
ATOM     26  N   UNL A   1      38.961  23.140  26.448  1.00  0.00    -0.352 N 
ATOM     27  C   UNL A   1      38.403  24.370  26.752  1.00  0.00     0.251 C 
ATOM     28  H   UNL A   1      38.635  22.701  25.630  1.00  0.00     0.163 HD
ATOM     29  O   UNL A   1      37.377  24.779  26.244  1.00  0.00    -0.269 OA
BRANCH  27  30
ATOM     30  C   UNL A   1      39.218  25.251  27.612  1.00  0.00     0.039 A 
ATOM     31  C   UNL A   1      38.857  25.312  28.963  1.00  0.00     0.014 A 
ATOM     32  C   UNL A   1      40.063  26.196  27.041  1.00  0.00     0.014 A 
ATOM     33  C   UNL A   1      39.215  26.427  29.713  1.00  0.00     0.010 A 
ATOM     34  C   UNL A   1      40.333  27.344  27.758  1.00  0.00     0.010 A 
ATOM     35  C   UNL A   1      39.874  27.479  29.078  1.00  0.00    -0.014 A 
BRANCH  35  36
ATOM     36  C   UNL A   1      40.075  28.789  29.686  1.00  0.00     0.031 A 
ATOM     37  C   UNL A   1      39.034  29.834  29.539  1.00  0.00     0.074 A 
ATOM     38  C   UNL A   1      41.159  29.027  30.458  1.00  0.00     0.049 A 
ATOM     39  N   UNL A   1      39.239  31.101  29.688  1.00  0.00    -0.248 NA
ATOM     40  C   UNL A   1      37.666  29.518  29.145  1.00  0.00     0.031 C 
ATOM     41  C   UNL A   1      41.335  30.139  31.389  1.00  0.00     0.029 A 
ATOM     42  N   UNL A   1      42.422  28.435  30.400  1.00  0.00    -0.354 N 
ATOM     43  C   UNL A   1      38.007  31.715  29.721  1.00  0.00     0.074 A 
ATOM     44  C   UNL A   1      37.070  30.704  29.291  1.00  0.00     0.031 C 
ATOM     45  C   UNL A   1      42.648  30.343  31.569  1.00  0.00     0.029 A 
ATOM     46  C   UNL A   1      43.349  29.462  30.649  1.00  0.00     0.049 A 
ATOM     47  H   UNL A   1      42.624  27.489  30.220  1.00  0.00     0.167 HD
ATOM     48  C   UNL A   1      37.885  32.966  30.250  1.00  0.00     0.031 A 
ATOM     49  C   UNL A   1      44.326  29.850  29.778  1.00  0.00     0.031 A 
ATOM     50  C   UNL A   1      39.184  33.534  30.606  1.00  0.00     0.049 A 
ATOM     51  C   UNL A   1      44.251  31.318  29.417  1.00  0.00     0.074 A 
ATOM     52  C   UNL A   1      39.865  33.657  31.806  1.00  0.00     0.029 A 
ATOM     53  N   UNL A   1      40.099  33.820  29.601  1.00  0.00    -0.354 N 
ATOM     54  N   UNL A   1      43.214  32.071  29.657  1.00  0.00    -0.248 NA
ATOM     55  C   UNL A   1      45.309  32.044  28.717  1.00  0.00     0.031 C 
ATOM     56  C   UNL A   1      41.223  33.943  31.511  1.00  0.00     0.029 A 
ATOM     57  C   UNL A   1      41.357  34.021  30.136  1.00  0.00     0.049 A 
ATOM     58  H   UNL A   1      39.882  33.873  28.642  1.00  0.00     0.167 HD
ATOM     59  C   UNL A   1      43.430  33.332  29.166  1.00  0.00     0.074 A 
ATOM     60  C   UNL A   1      44.763  33.269  28.598  1.00  0.00     0.031 C 
ATOM     61  C   UNL A   1      42.486  34.314  29.263  1.00  0.00     0.031 A 
BRANCH  48  62
ATOM     62  C   UNL A   1      36.565  33.541  30.720  1.00  0.00    -0.014 A 
ATOM     63  C   UNL A   1      35.584  33.900  29.770  1.00  0.00     0.010 A 
ATOM     64  C   UNL A   1      36.251  33.817  32.063  1.00  0.00     0.010 A 
ATOM     65  C   UNL A   1      34.418  34.595  30.127  1.00  0.00     0.020 A 
ATOM     66  C   UNL A   1      35.110  34.548  32.433  1.00  0.00     0.020 A 
ATOM     67  C   UNL A   1      34.205  34.946  31.458  1.00  0.00     0.054 A 
BRANCH  67  68
ATOM     68  S   UNL A   1      32.748  35.931  31.891  1.00  0.00     0.124 S 
ATOM     69  O   UNL A   1      33.266  36.826  32.922  1.00  0.00    -0.237 OA
ATOM     70  O   UNL A   1      32.406  36.562  30.621  1.00  0.00    -0.237 OA
ATOM     71  O   UNL A   1      31.788  34.936  32.368  1.00  0.00    -0.744 OA
ENDBRANCH  67  68
ENDBRANCH  48  62
BRANCH  49  72
ATOM     72  C   UNL A   1      44.815  28.766  28.883  1.00  0.00    -0.014 A 
ATOM     73  C   UNL A   1      44.053  28.501  27.725  1.00  0.00     0.010 A 
ATOM     74  C   UNL A   1      46.164  28.372  28.918  1.00  0.00     0.010 A 
ATOM     75  C   UNL A   1      44.671  28.039  26.562  1.00  0.00     0.020 A 
ATOM     76  C   UNL A   1      46.785  27.903  27.751  1.00  0.00     0.020 A 
ATOM     77  C   UNL A   1      46.048  27.816  26.564  1.00  0.00     0.054 A 
BRANCH  77  78
ATOM     78  S   UNL A   1      46.880  27.609  24.961  1.00  0.00     0.124 S 
ATOM     79  O   UNL A   1      46.156  26.487  24.373  1.00  0.00    -0.237 OA
ATOM     80  O   UNL A   1      46.643  28.907  24.328  1.00  0.00    -0.237 OA
ATOM     81  O   UNL A   1      48.264  27.341  25.335  1.00  0.00    -0.744 OA
ENDBRANCH  77  78
ENDBRANCH  49  72
BRANCH  61  82
ATOM     82  C   UNL A   1      42.545  35.674  28.611  1.00  0.00    -0.014 A 
ATOM     83  C   UNL A   1      41.842  36.023  27.447  1.00  0.00     0.010 A 
ATOM     84  C   UNL A   1      43.243  36.714  29.275  1.00  0.00     0.010 A 
ATOM     85  C   UNL A   1      41.878  37.332  26.941  1.00  0.00     0.020 A 
ATOM     86  C   UNL A   1      43.250  38.029  28.802  1.00  0.00     0.020 A 
ATOM     87  C   UNL A   1      42.584  38.325  27.620  1.00  0.00     0.054 A 
BRANCH  87  88
ATOM     88  S   UNL A   1      42.565  40.029  27.003  1.00  0.00     0.124 S 
ATOM     89  O   UNL A   1      42.591  40.797  28.245  1.00  0.00    -0.237 OA
ATOM     90  O   UNL A   1      43.783  40.102  26.198  1.00  0.00    -0.237 OA
ATOM     91  O   UNL A   1      41.320  40.102  26.244  1.00  0.00    -0.744 OA
ENDBRANCH  87  88
ENDBRANCH  61  82
ENDBRANCH  35  36
ENDBRANCH  27  30
ENDBRANCH  25  26
ENDBRANCH   1  25
TORSDOF 16
ENDMDL
