MODEL 1
REMARK VINA RESULT:     -10.1      0.000      0.000
REMARK SMILES CC[NH2+][C@]1(C(=O)NCCCNC(=O)c2ccc(-c3c4nc(c(-c5ccc(S(=O)(=O)[O-])cc5)c5ccc([nH]5)c(-c5ccc(S(=O)(=O)[O-])cc5)c5nc(c(-c6ccc(S(=O)(=O)[O-])cc6)c6ccc3[nH]6)C=C5)C=C4)cc2)CC[C@H](SC2COC2)C1
REMARK SMILES IDX 9 1 8 2 7 3 5 4 6 5 4 7 74 8 82 9 75 10 76 11 3 12 2 15 1 16
REMARK SMILES IDX 77 17 78 18 79 19 81 20 80 21 10 22 11 23 12 24 13 26 14 27
REMARK SMILES IDX 15 28 73 29 16 30 72 31 17 32 18 33 19 34 66 35 20 36 71 37
REMARK SMILES IDX 65 38 67 39 21 40 70 41 64 42 63 43 22 45 52 46 33 47 51 48
REMARK SMILES IDX 34 49 37 50 50 51 68 52 35 53 36 54 49 56 69 57 38 58 23 59
REMARK SMILES IDX 24 60 32 61 25 62 31 63 26 64 27 65 28 66 29 67 30 68 53 69
REMARK SMILES IDX 54 70 62 71 55 72 61 73 56 74 57 75 58 76 59 77 60 78 39 79
REMARK SMILES IDX 40 80 48 81 41 82 47 83 42 84 43 85 44 86 45 87 46 88
REMARK H PARENT 7 6 3 13 3 14 11 25 67 44 37 55
REMARK Flexibility Score: inf
ROOT
ATOM      1  C   UNL A   1      34.005  28.408  25.894  1.00  0.00     0.042 C 
ENDROOT
BRANCH   1   2
ATOM      2  C   UNL A   1      32.998  27.663  25.030  1.00  0.00     0.118 C 
BRANCH   2   3
ATOM      3  N   UNL A   1      31.841  27.227  25.786  1.00  0.00    -0.351 N 
ATOM      4  C   UNL A   1      31.375  26.014  26.174  1.00  0.00     0.281 C 
ATOM      5  O   UNL A   1      30.245  26.053  26.677  1.00  0.00    -0.268 OA
ATOM      6  H   UNL A   1      31.269  27.973  26.081  1.00  0.00     0.163 HD
BRANCH   4   7
ATOM      7  C   UNL A   1      32.156  24.679  25.947  1.00  0.00     0.176 C 
ATOM      8  C   UNL A   1      31.923  24.233  24.494  1.00  0.00     0.080 C 
ATOM      9  C   UNL A   1      33.698  24.733  26.057  1.00  0.00     0.093 C 
ATOM     10  C   UNL A   1      33.057  23.271  24.184  1.00  0.00     0.022 C 
ATOM     11  C   UNL A   1      34.266  23.813  24.947  1.00  0.00     0.054 C 
BRANCH   7  12
ATOM     12  N   UNL A   1      31.670  23.586  26.852  1.00  0.00    -0.334 N 
ATOM     13  H   UNL A   1      32.451  22.960  27.048  1.00  0.00     0.347 HD
ATOM     14  H   UNL A   1      31.309  24.038  27.693  1.00  0.00     0.347 HD
BRANCH  12  15
ATOM     15  C   UNL A   1      30.571  22.791  26.291  1.00  0.00     0.257 C 
ATOM     16  C   UNL A   1      29.388  22.765  27.248  1.00  0.00     0.071 C 
ENDBRANCH  12  15
ENDBRANCH   7  12
BRANCH  11  17
ATOM     17  S   UNL A   1      35.267  22.497  25.707  1.00  0.00    -0.150 SA
BRANCH  17  18
ATOM     18  C   UNL A   1      36.990  22.875  25.294  1.00  0.00     0.098 C 
ATOM     19  C   UNL A   1      37.758  23.775  26.258  1.00  0.00     0.177 C 
ATOM     20  C   UNL A   1      38.081  21.852  25.590  1.00  0.00     0.177 C 
ATOM     21  O   UNL A   1      38.898  22.874  26.227  1.00  0.00    -0.379 OA
ENDBRANCH  17  18
ENDBRANCH  11  17
ENDBRANCH   4   7
ENDBRANCH   2   3
ENDBRANCH   1   2
BRANCH   1  22
ATOM     22  C   UNL A   1      33.574  28.630  27.338  1.00  0.00     0.118 C 
BRANCH  22  23
ATOM     23  N   UNL A   1      33.609  30.029  27.745  1.00  0.00    -0.352 N 
ATOM     24  C   UNL A   1      34.633  30.747  28.321  1.00  0.00     0.251 C 
ATOM     25  H   UNL A   1      32.779  30.535  27.585  1.00  0.00     0.163 HD
ATOM     26  O   UNL A   1      34.438  31.886  28.725  1.00  0.00    -0.269 OA
BRANCH  24  27
ATOM     27  C   UNL A   1      35.958  30.111  28.485  1.00  0.00     0.039 A 
ATOM     28  C   UNL A   1      36.881  30.178  27.438  1.00  0.00     0.014 A 
ATOM     29  C   UNL A   1      36.306  29.503  29.693  1.00  0.00     0.014 A 
ATOM     30  C   UNL A   1      38.188  29.728  27.641  1.00  0.00     0.010 A 
ATOM     31  C   UNL A   1      37.628  29.145  29.922  1.00  0.00     0.010 A 
ATOM     32  C   UNL A   1      38.587  29.259  28.903  1.00  0.00    -0.014 A 
BRANCH  32  33
ATOM     33  C   UNL A   1      39.994  28.883  29.199  1.00  0.00     0.031 A 
ATOM     34  C   UNL A   1      40.931  29.909  29.779  1.00  0.00     0.074 A 
ATOM     35  C   UNL A   1      40.459  27.668  28.845  1.00  0.00     0.049 A 
ATOM     36  N   UNL A   1      42.227  29.846  29.941  1.00  0.00    -0.248 NA
ATOM     37  C   UNL A   1      40.335  31.189  30.193  1.00  0.00     0.031 C 
ATOM     38  C   UNL A   1      39.666  26.595  28.237  1.00  0.00     0.029 A 
ATOM     39  N   UNL A   1      41.723  27.136  28.930  1.00  0.00    -0.354 N 
ATOM     40  C   UNL A   1      42.606  31.089  30.432  1.00  0.00     0.074 A 
ATOM     41  C   UNL A   1      41.409  31.898  30.505  1.00  0.00     0.031 C 
ATOM     42  C   UNL A   1      40.457  25.530  28.024  1.00  0.00     0.029 A 
ATOM     43  C   UNL A   1      41.819  25.857  28.433  1.00  0.00     0.049 A 
ATOM     44  H   UNL A   1      42.487  27.625  29.310  1.00  0.00     0.167 HD
ATOM     45  C   UNL A   1      43.836  31.516  30.803  1.00  0.00     0.031 A 
ATOM     46  C   UNL A   1      42.885  25.042  28.307  1.00  0.00     0.031 A 
ATOM     47  C   UNL A   1      45.017  30.697  30.769  1.00  0.00     0.049 A 
ATOM     48  C   UNL A   1      44.236  25.525  28.758  1.00  0.00     0.074 A 
ATOM     49  C   UNL A   1      46.298  31.017  31.179  1.00  0.00     0.029 A 
ATOM     50  N   UNL A   1      45.056  29.390  30.311  1.00  0.00    -0.354 N 
ATOM     51  N   UNL A   1      44.567  26.693  29.254  1.00  0.00    -0.248 NA
ATOM     52  C   UNL A   1      45.354  24.578  28.642  1.00  0.00     0.031 C 
ATOM     53  C   UNL A   1      47.120  29.911  30.943  1.00  0.00     0.029 A 
ATOM     54  C   UNL A   1      46.341  28.889  30.426  1.00  0.00     0.049 A 
ATOM     55  H   UNL A   1      44.285  28.891  29.956  1.00  0.00     0.167 HD
ATOM     56  C   UNL A   1      45.925  26.611  29.538  1.00  0.00     0.074 A 
ATOM     57  C   UNL A   1      46.353  25.279  29.162  1.00  0.00     0.031 C 
ATOM     58  C   UNL A   1      46.743  27.554  30.065  1.00  0.00     0.031 A 
BRANCH  45  59
ATOM     59  C   UNL A   1      43.961  32.939  31.279  1.00  0.00    -0.014 A 
ATOM     60  C   UNL A   1      43.976  33.245  32.651  1.00  0.00     0.010 A 
ATOM     61  C   UNL A   1      44.083  33.981  30.342  1.00  0.00     0.010 A 
ATOM     62  C   UNL A   1      44.061  34.573  33.078  1.00  0.00     0.020 A 
ATOM     63  C   UNL A   1      44.196  35.307  30.765  1.00  0.00     0.020 A 
ATOM     64  C   UNL A   1      44.163  35.596  32.132  1.00  0.00     0.054 A 
BRANCH  64  65
ATOM     65  S   UNL A   1      44.283  37.310  32.712  1.00  0.00     0.124 S 
ATOM     66  O   UNL A   1      43.041  37.457  33.468  1.00  0.00    -0.237 OA
ATOM     67  O   UNL A   1      45.505  37.296  33.511  1.00  0.00    -0.237 OA
ATOM     68  O   UNL A   1      44.357  38.089  31.479  1.00  0.00    -0.744 OA
ENDBRANCH  64  65
ENDBRANCH  45  59
BRANCH  46  69
ATOM     69  C   UNL A   1      42.713  23.675  27.746  1.00  0.00    -0.014 A 
ATOM     70  C   UNL A   1      42.360  22.605  28.588  1.00  0.00     0.010 A 
ATOM     71  C   UNL A   1      42.880  23.438  26.370  1.00  0.00     0.010 A 
ATOM     72  C   UNL A   1      42.191  21.319  28.065  1.00  0.00     0.020 A 
ATOM     73  C   UNL A   1      42.689  22.158  25.841  1.00  0.00     0.020 A 
ATOM     74  C   UNL A   1      42.356  21.104  26.694  1.00  0.00     0.054 A 
BRANCH  74  75
ATOM     75  S   UNL A   1      42.075  19.439  26.028  1.00  0.00     0.124 S 
ATOM     76  O   UNL A   1      42.520  18.593  27.130  1.00  0.00    -0.237 OA
ATOM     77  O   UNL A   1      40.636  19.440  25.770  1.00  0.00    -0.237 OA
ATOM     78  O   UNL A   1      42.913  19.406  24.831  1.00  0.00    -0.744 OA
ENDBRANCH  74  75
ENDBRANCH  46  69
BRANCH  58  79
ATOM     79  C   UNL A   1      48.174  27.170  30.322  1.00  0.00    -0.014 A 
ATOM     80  C   UNL A   1      49.184  27.454  29.388  1.00  0.00     0.010 A 
ATOM     81  C   UNL A   1      48.520  26.591  31.557  1.00  0.00     0.010 A 
ATOM     82  C   UNL A   1      50.516  27.151  29.679  1.00  0.00     0.020 A 
ATOM     83  C   UNL A   1      49.853  26.306  31.859  1.00  0.00     0.020 A 
ATOM     84  C   UNL A   1      50.842  26.581  30.914  1.00  0.00     0.054 A 
BRANCH  84  85
ATOM     85  S   UNL A   1      52.587  26.259  31.298  1.00  0.00     0.124 S 
ATOM     86  O   UNL A   1      52.923  27.392  32.154  1.00  0.00    -0.237 OA
ATOM     87  O   UNL A   1      52.536  24.961  31.964  1.00  0.00    -0.237 OA
ATOM     88  O   UNL A   1      53.233  26.253  29.987  1.00  0.00    -0.744 OA
ENDBRANCH  84  85
ENDBRANCH  58  79
ENDBRANCH  32  33
ENDBRANCH  24  27
ENDBRANCH  22  23
ENDBRANCH   1  22
TORSDOF 17
ENDMDL
MODEL 2
REMARK VINA RESULT:     -10.1      1.376      2.089
REMARK SMILES CC[NH2+][C@]1(C(=O)NCCCNC(=O)c2ccc(-c3c4nc(c(-c5ccc(S(=O)(=O)[O-])cc5)c5ccc([nH]5)c(-c5ccc(S(=O)(=O)[O-])cc5)c5nc(c(-c6ccc(S(=O)(=O)[O-])cc6)c6ccc3[nH]6)C=C5)C=C4)cc2)CC[C@H](SC2COC2)C1
REMARK SMILES IDX 9 1 8 2 7 3 5 4 6 5 4 7 74 8 82 9 75 10 76 11 3 12 2 15 1 16
REMARK SMILES IDX 77 17 78 18 79 19 81 20 80 21 10 22 11 23 12 24 13 26 14 27
REMARK SMILES IDX 15 28 73 29 16 30 72 31 17 32 18 33 19 34 66 35 20 36 71 37
REMARK SMILES IDX 65 38 67 39 21 40 70 41 64 42 63 43 22 45 52 46 33 47 51 48
REMARK SMILES IDX 34 49 37 50 50 51 68 52 35 53 36 54 49 56 69 57 38 58 23 59
REMARK SMILES IDX 24 60 32 61 25 62 31 63 26 64 27 65 28 66 29 67 30 68 53 69
REMARK SMILES IDX 54 70 62 71 55 72 61 73 56 74 57 75 58 76 59 77 60 78 39 79
REMARK SMILES IDX 40 80 48 81 41 82 47 83 42 84 43 85 44 86 45 87 46 88
REMARK H PARENT 7 6 3 13 3 14 11 25 67 44 37 55
REMARK Flexibility Score: inf
ROOT
ATOM      1  C   UNL A   1      33.623  28.349  25.627  1.00  0.00     0.042 C 
ENDROOT
BRANCH   1   2
ATOM      2  C   UNL A   1      32.724  27.276  25.031  1.00  0.00     0.118 C 
BRANCH   2   3
ATOM      3  N   UNL A   1      32.080  26.470  26.049  1.00  0.00    -0.351 N 
ATOM      4  C   UNL A   1      32.100  25.148  26.352  1.00  0.00     0.281 C 
ATOM      5  O   UNL A   1      31.272  24.823  27.212  1.00  0.00    -0.268 OA
ATOM      6  H   UNL A   1      31.504  26.995  26.650  1.00  0.00     0.163 HD
BRANCH   4   7
ATOM      7  C   UNL A   1      33.030  24.115  25.637  1.00  0.00     0.176 C 
ATOM      8  C   UNL A   1      34.437  24.730  25.541  1.00  0.00     0.080 C 
ATOM      9  C   UNL A   1      33.281  22.770  26.357  1.00  0.00     0.093 C 
ATOM     10  C   UNL A   1      35.374  23.553  25.326  1.00  0.00     0.022 C 
ATOM     11  C   UNL A   1      34.770  22.403  26.133  1.00  0.00     0.054 C 
BRANCH   7  12
ATOM     12  N   UNL A   1      32.562  23.811  24.245  1.00  0.00    -0.334 N 
ATOM     13  H   UNL A   1      32.772  24.614  23.653  1.00  0.00     0.347 HD
ATOM     14  H   UNL A   1      33.050  22.966  23.948  1.00  0.00     0.347 HD
BRANCH  12  15
ATOM     15  C   UNL A   1      31.124  23.528  24.147  1.00  0.00     0.257 C 
ATOM     16  C   UNL A   1      30.445  24.530  23.224  1.00  0.00     0.071 C 
ENDBRANCH  12  15
ENDBRANCH   7  12
BRANCH  11  17
ATOM     17  S   UNL A   1      34.876  20.805  25.269  1.00  0.00    -0.150 SA
BRANCH  17  18
ATOM     18  C   UNL A   1      33.210  20.093  25.328  1.00  0.00     0.098 C 
ATOM     19  C   UNL A   1      32.454  19.975  24.008  1.00  0.00     0.177 C 
ATOM     20  C   UNL A   1      33.038  18.580  25.408  1.00  0.00     0.177 C 
ATOM     21  O   UNL A   1      32.067  18.611  24.325  1.00  0.00    -0.379 OA
ENDBRANCH  17  18
ENDBRANCH  11  17
ENDBRANCH   4   7
ENDBRANCH   2   3
ENDBRANCH   1   2
BRANCH   1  22
ATOM     22  C   UNL A   1      33.431  28.595  27.117  1.00  0.00     0.118 C 
BRANCH  22  23
ATOM     23  N   UNL A   1      33.457  30.006  27.480  1.00  0.00    -0.352 N 
ATOM     24  C   UNL A   1      34.458  30.737  28.080  1.00  0.00     0.251 C 
ATOM     25  H   UNL A   1      32.638  30.510  27.267  1.00  0.00     0.163 HD
ATOM     26  O   UNL A   1      34.252  31.889  28.437  1.00  0.00    -0.269 OA
BRANCH  24  27
ATOM     27  C   UNL A   1      35.770  30.100  28.324  1.00  0.00     0.039 A 
ATOM     28  C   UNL A   1      36.736  30.119  27.315  1.00  0.00     0.014 A 
ATOM     29  C   UNL A   1      36.062  29.538  29.568  1.00  0.00     0.014 A 
ATOM     30  C   UNL A   1      38.030  29.669  27.590  1.00  0.00     0.010 A 
ATOM     31  C   UNL A   1      37.372  29.181  29.867  1.00  0.00     0.010 A 
ATOM     32  C   UNL A   1      38.372  29.249  28.885  1.00  0.00    -0.014 A 
BRANCH  32  33
ATOM     33  C   UNL A   1      39.763  28.876  29.255  1.00  0.00     0.031 A 
ATOM     34  C   UNL A   1      40.659  29.898  29.900  1.00  0.00     0.074 A 
ATOM     35  C   UNL A   1      40.254  27.668  28.910  1.00  0.00     0.049 A 
ATOM     36  N   UNL A   1      41.944  29.840  30.134  1.00  0.00    -0.248 NA
ATOM     37  C   UNL A   1      40.033  31.170  30.298  1.00  0.00     0.031 C 
ATOM     38  C   UNL A   1      39.504  26.600  28.244  1.00  0.00     0.029 A 
ATOM     39  N   UNL A   1      41.515  27.142  29.059  1.00  0.00    -0.354 N 
ATOM     40  C   UNL A   1      42.288  31.078  30.663  1.00  0.00     0.074 A 
ATOM     41  C   UNL A   1      41.084  31.880  30.680  1.00  0.00     0.031 C 
ATOM     42  C   UNL A   1      40.312  25.542  28.061  1.00  0.00     0.029 A 
ATOM     43  C   UNL A   1      41.647  25.871  28.551  1.00  0.00     0.049 A 
ATOM     44  H   UNL A   1      42.253  27.629  29.488  1.00  0.00     0.167 HD
ATOM     45  C   UNL A   1      43.493  31.507  31.108  1.00  0.00     0.031 A 
ATOM     46  C   UNL A   1      42.723  25.063  28.474  1.00  0.00     0.031 A 
ATOM     47  C   UNL A   1      44.679  30.694  31.129  1.00  0.00     0.049 A 
ATOM     48  C   UNL A   1      44.044  25.547  29.007  1.00  0.00     0.074 A 
ATOM     49  C   UNL A   1      45.933  31.016  31.616  1.00  0.00     0.029 A 
ATOM     50  N   UNL A   1      44.752  29.393  30.656  1.00  0.00    -0.354 N 
ATOM     51  N   UNL A   1      44.339  26.710  29.536  1.00  0.00    -0.248 NA
ATOM     52  C   UNL A   1      45.172  24.608  28.940  1.00  0.00     0.031 C 
ATOM     53  C   UNL A   1      46.774  29.917  31.411  1.00  0.00     0.029 A 
ATOM     54  C   UNL A   1      46.031  28.898  30.837  1.00  0.00     0.049 A 
ATOM     55  H   UNL A   1      44.005  28.896  30.252  1.00  0.00     0.167 HD
ATOM     56  C   UNL A   1      45.680  26.631  29.895  1.00  0.00     0.074 A 
ATOM     57  C   UNL A   1      46.136  25.307  29.526  1.00  0.00     0.031 C 
ATOM     58  C   UNL A   1      46.461  27.570  30.480  1.00  0.00     0.031 A 
BRANCH  45  59
ATOM     59  C   UNL A   1      43.582  32.923  31.610  1.00  0.00    -0.014 A 
ATOM     60  C   UNL A   1      44.046  33.959  30.780  1.00  0.00     0.010 A 
ATOM     61  C   UNL A   1      43.176  33.225  32.923  1.00  0.00     0.010 A 
ATOM     62  C   UNL A   1      44.151  35.263  31.270  1.00  0.00     0.020 A 
ATOM     63  C   UNL A   1      43.254  34.533  33.407  1.00  0.00     0.020 A 
ATOM     64  C   UNL A   1      43.762  35.540  32.582  1.00  0.00     0.054 A 
BRANCH  64  65
ATOM     65  S   UNL A   1      43.898  37.244  33.190  1.00  0.00     0.124 S 
ATOM     66  O   UNL A   1      45.234  37.244  33.782  1.00  0.00    -0.237 OA
ATOM     67  O   UNL A   1      43.754  38.034  31.971  1.00  0.00    -0.237 OA
ATOM     68  O   UNL A   1      42.796  37.362  34.140  1.00  0.00    -0.744 OA
ENDBRANCH  64  65
ENDBRANCH  45  59
BRANCH  46  69
ATOM     69  C   UNL A   1      42.591  23.703  27.885  1.00  0.00    -0.014 A 
ATOM     70  C   UNL A   1      42.215  22.617  28.694  1.00  0.00     0.010 A 
ATOM     71  C   UNL A   1      42.819  23.490  26.514  1.00  0.00     0.010 A 
ATOM     72  C   UNL A   1      42.085  21.337  28.145  1.00  0.00     0.020 A 
ATOM     73  C   UNL A   1      42.666  22.217  25.958  1.00  0.00     0.020 A 
ATOM     74  C   UNL A   1      42.310  21.145  26.780  1.00  0.00     0.054 A 
BRANCH  74  75
ATOM     75  S   UNL A   1      42.076  19.489  26.077  1.00  0.00     0.124 S 
ATOM     76  O   UNL A   1      42.877  19.560  24.860  1.00  0.00    -0.237 OA
ATOM     77  O   UNL A   1      42.599  18.620  27.130  1.00  0.00    -0.237 OA
ATOM     78  O   UNL A   1      40.631  19.406  25.875  1.00  0.00    -0.744 OA
ENDBRANCH  74  75
ENDBRANCH  46  69
BRANCH  58  79
ATOM     79  C   UNL A   1      47.877  27.191  30.812  1.00  0.00    -0.014 A 
ATOM     80  C   UNL A   1      48.213  26.652  32.065  1.00  0.00     0.010 A 
ATOM     81  C   UNL A   1      48.870  27.302  29.822  1.00  0.00     0.010 A 
ATOM     82  C   UNL A   1      49.523  26.243  32.327  1.00  0.00     0.020 A 
ATOM     83  C   UNL A   1      50.175  26.875  30.073  1.00  0.00     0.020 A 
ATOM     84  C   UNL A   1      50.495  26.355  31.328  1.00  0.00     0.054 A 
BRANCH  84  85
ATOM     85  S   UNL A   1      52.173  25.753  31.667  1.00  0.00     0.124 S 
ATOM     86  O   UNL A   1      51.941  24.336  31.927  1.00  0.00    -0.237 OA
ATOM     87  O   UNL A   1      52.881  26.057  30.426  1.00  0.00    -0.237 OA
ATOM     88  O   UNL A   1      52.595  26.540  32.824  1.00  0.00    -0.744 OA
ENDBRANCH  84  85
ENDBRANCH  58  79
ENDBRANCH  32  33
ENDBRANCH  24  27
ENDBRANCH  22  23
ENDBRANCH   1  22
TORSDOF 17
ENDMDL
MODEL 3
REMARK VINA RESULT:      -9.8      2.760      3.710
REMARK SMILES CC[NH2+][C@]1(C(=O)NCCCNC(=O)c2ccc(-c3c4nc(c(-c5ccc(S(=O)(=O)[O-])cc5)c5ccc([nH]5)c(-c5ccc(S(=O)(=O)[O-])cc5)c5nc(c(-c6ccc(S(=O)(=O)[O-])cc6)c6ccc3[nH]6)C=C5)C=C4)cc2)CC[C@H](SC2COC2)C1
REMARK SMILES IDX 9 1 8 2 7 3 5 4 6 5 4 7 74 8 82 9 75 10 76 11 3 12 2 15 1 16
REMARK SMILES IDX 77 17 78 18 79 19 81 20 80 21 10 22 11 23 12 24 13 26 14 27
REMARK SMILES IDX 15 28 73 29 16 30 72 31 17 32 18 33 19 34 66 35 20 36 71 37
REMARK SMILES IDX 65 38 67 39 21 40 70 41 64 42 63 43 22 45 52 46 33 47 51 48
REMARK SMILES IDX 34 49 37 50 50 51 68 52 35 53 36 54 49 56 69 57 38 58 23 59
REMARK SMILES IDX 24 60 32 61 25 62 31 63 26 64 27 65 28 66 29 67 30 68 53 69
REMARK SMILES IDX 54 70 62 71 55 72 61 73 56 74 57 75 58 76 59 77 60 78 39 79
REMARK SMILES IDX 40 80 48 81 41 82 47 83 42 84 43 85 44 86 45 87 46 88
REMARK H PARENT 7 6 3 13 3 14 11 25 67 44 37 55
REMARK Flexibility Score: inf
ROOT
ATOM      1  C   UNL A   1      34.019  28.662  27.148  1.00  0.00     0.042 C 
ENDROOT
BRANCH   1   2
ATOM      2  C   UNL A   1      33.017  29.047  26.070  1.00  0.00     0.118 C 
BRANCH   2   3
ATOM      3  N   UNL A   1      33.650  29.256  24.782  1.00  0.00    -0.351 N 
ATOM      4  C   UNL A   1      33.766  28.503  23.660  1.00  0.00     0.281 C 
ATOM      5  O   UNL A   1      34.536  28.982  22.818  1.00  0.00    -0.268 OA
ATOM      6  H   UNL A   1      34.090  30.134  24.706  1.00  0.00     0.163 HD
BRANCH   4   7
ATOM      7  C   UNL A   1      33.052  27.126  23.470  1.00  0.00     0.176 C 
ATOM      8  C   UNL A   1      33.315  26.649  22.030  1.00  0.00     0.080 C 
ATOM      9  C   UNL A   1      33.553  25.943  24.331  1.00  0.00     0.093 C 
ATOM     10  C   UNL A   1      33.060  25.151  22.053  1.00  0.00     0.022 C 
ATOM     11  C   UNL A   1      33.531  24.682  23.429  1.00  0.00     0.054 C 
BRANCH   7  12
ATOM     12  N   UNL A   1      31.569  27.235  23.658  1.00  0.00    -0.334 N 
ATOM     13  H   UNL A   1      31.164  26.303  23.566  1.00  0.00     0.347 HD
ATOM     14  H   UNL A   1      31.417  27.637  24.583  1.00  0.00     0.347 HD
BRANCH  12  15
ATOM     15  C   UNL A   1      30.907  28.123  22.695  1.00  0.00     0.257 C 
ATOM     16  C   UNL A   1      29.977  29.091  23.412  1.00  0.00     0.071 C 
ENDBRANCH  12  15
ENDBRANCH   7  12
BRANCH  11  17
ATOM     17  S   UNL A   1      32.428  23.435  24.163  1.00  0.00    -0.150 SA
BRANCH  17  18
ATOM     18  C   UNL A   1      32.069  24.010  25.844  1.00  0.00     0.098 C 
ATOM     19  C   UNL A   1      30.601  24.127  26.244  1.00  0.00     0.177 C 
ATOM     20  C   UNL A   1      32.171  23.037  27.013  1.00  0.00     0.177 C 
ATOM     21  O   UNL A   1      30.866  23.454  27.504  1.00  0.00    -0.379 OA
ENDBRANCH  17  18
ENDBRANCH  11  17
ENDBRANCH   4   7
ENDBRANCH   2   3
ENDBRANCH   1   2
BRANCH   1  22
ATOM     22  C   UNL A   1      35.184  29.627  27.320  1.00  0.00     0.118 C 
BRANCH  22  23
ATOM     23  N   UNL A   1      35.224  30.261  28.632  1.00  0.00    -0.352 N 
ATOM     24  C   UNL A   1      36.228  30.257  29.574  1.00  0.00     0.251 C 
ATOM     25  H   UNL A   1      34.416  30.765  28.880  1.00  0.00     0.163 HD
ATOM     26  O   UNL A   1      36.034  30.732  30.685  1.00  0.00    -0.269 OA
BRANCH  24  27
ATOM     27  C   UNL A   1      37.528  29.634  29.243  1.00  0.00     0.039 A 
ATOM     28  C   UNL A   1      38.028  29.750  27.943  1.00  0.00     0.014 A 
ATOM     29  C   UNL A   1      38.275  28.990  30.230  1.00  0.00     0.014 A 
ATOM     30  C   UNL A   1      39.325  29.311  27.661  1.00  0.00     0.010 A 
ATOM     31  C   UNL A   1      39.595  28.642  29.972  1.00  0.00     0.010 A 
ATOM     32  C   UNL A   1      40.138  28.804  28.688  1.00  0.00    -0.014 A 
BRANCH  32  33
ATOM     33  C   UNL A   1      41.561  28.438  28.462  1.00  0.00     0.031 A 
ATOM     34  C   UNL A   1      42.616  29.511  28.479  1.00  0.00     0.074 A 
ATOM     35  C   UNL A   1      41.889  27.173  28.129  1.00  0.00     0.049 A 
ATOM     36  N   UNL A   1      43.874  29.438  28.131  1.00  0.00    -0.248 NA
ATOM     37  C   UNL A   1      42.189  30.852  28.909  1.00  0.00     0.031 C 
ATOM     38  C   UNL A   1      40.957  26.045  28.036  1.00  0.00     0.029 A 
ATOM     39  N   UNL A   1      43.103  26.626  27.789  1.00  0.00    -0.354 N 
ATOM     40  C   UNL A   1      44.375  30.728  28.255  1.00  0.00     0.074 A 
ATOM     41  C   UNL A   1      43.277  31.570  28.674  1.00  0.00     0.031 C 
ATOM     42  C   UNL A   1      41.636  24.941  27.684  1.00  0.00     0.029 A 
ATOM     43  C   UNL A   1      43.039  25.287  27.479  1.00  0.00     0.049 A 
ATOM     44  H   UNL A   1      43.939  27.144  27.768  1.00  0.00     0.167 HD
ATOM     45  C   UNL A   1      45.639  31.171  28.052  1.00  0.00     0.031 A 
ATOM     46  C   UNL A   1      43.997  24.435  27.064  1.00  0.00     0.031 A 
ATOM     47  C   UNL A   1      46.738  30.325  27.676  1.00  0.00     0.049 A 
ATOM     48  C   UNL A   1      45.401  24.942  26.879  1.00  0.00     0.074 A 
ATOM     49  C   UNL A   1      48.067  30.667  27.506  1.00  0.00     0.029 A 
ATOM     50  N   UNL A   1      46.638  28.965  27.428  1.00  0.00    -0.354 N 
ATOM     51  N   UNL A   1      45.861  26.160  27.037  1.00  0.00    -0.248 NA
ATOM     52  C   UNL A   1      46.414  23.960  26.471  1.00  0.00     0.031 C 
ATOM     53  C   UNL A   1      48.767  29.518  27.126  1.00  0.00     0.029 A 
ATOM     54  C   UNL A   1      47.881  28.453  27.103  1.00  0.00     0.049 A 
ATOM     55  H   UNL A   1      45.805  28.441  27.476  1.00  0.00     0.167 HD
ATOM     56  C   UNL A   1      47.225  26.083  26.778  1.00  0.00     0.074 A 
ATOM     57  C   UNL A   1      47.515  24.701  26.457  1.00  0.00     0.031 C 
ATOM     58  C   UNL A   1      48.153  27.070  26.805  1.00  0.00     0.031 A 
BRANCH  45  59
ATOM     59  C   UNL A   1      45.894  32.643  28.237  1.00  0.00    -0.014 A 
ATOM     60  C   UNL A   1      45.771  33.541  27.161  1.00  0.00     0.010 A 
ATOM     61  C   UNL A   1      46.241  33.138  29.507  1.00  0.00     0.010 A 
ATOM     62  C   UNL A   1      46.040  34.900  27.341  1.00  0.00     0.020 A 
ATOM     63  C   UNL A   1      46.484  34.501  29.697  1.00  0.00     0.020 A 
ATOM     64  C   UNL A   1      46.402  35.370  28.606  1.00  0.00     0.054 A 
BRANCH  64  65
ATOM     65  S   UNL A   1      46.735  37.140  28.815  1.00  0.00     0.124 S 
ATOM     66  O   UNL A   1      45.385  37.692  28.893  1.00  0.00    -0.237 OA
ATOM     67  O   UNL A   1      47.501  37.180  30.057  1.00  0.00    -0.237 OA
ATOM     68  O   UNL A   1      47.484  37.496  27.612  1.00  0.00    -0.744 OA
ENDBRANCH  64  65
ENDBRANCH  45  59
BRANCH  46  69
ATOM     69  C   UNL A   1      43.663  23.007  26.813  1.00  0.00    -0.014 A 
ATOM     70  C   UNL A   1      43.009  22.250  27.801  1.00  0.00     0.010 A 
ATOM     71  C   UNL A   1      43.976  22.403  25.583  1.00  0.00     0.010 A 
ATOM     72  C   UNL A   1      42.688  20.909  27.569  1.00  0.00     0.020 A 
ATOM     73  C   UNL A   1      43.636  21.069  25.339  1.00  0.00     0.020 A 
ATOM     74  C   UNL A   1      43.003  20.327  26.338  1.00  0.00     0.054 A 
BRANCH  74  75
ATOM     75  S   UNL A   1      42.524  18.603  26.036  1.00  0.00     0.124 S 
ATOM     76  O   UNL A   1      42.824  17.976  27.319  1.00  0.00    -0.237 OA
ATOM     77  O   UNL A   1      41.105  18.721  25.704  1.00  0.00    -0.237 OA
ATOM     78  O   UNL A   1      43.383  18.202  24.924  1.00  0.00    -0.744 OA
ENDBRANCH  74  75
ENDBRANCH  46  69
BRANCH  58  79
ATOM     79  C   UNL A   1      49.582  26.690  26.536  1.00  0.00    -0.014 A 
ATOM     80  C   UNL A   1      50.105  26.696  25.232  1.00  0.00     0.010 A 
ATOM     81  C   UNL A   1      50.434  26.402  27.618  1.00  0.00     0.010 A 
ATOM     82  C   UNL A   1      51.454  26.407  25.013  1.00  0.00     0.020 A 
ATOM     83  C   UNL A   1      51.787  26.133  27.405  1.00  0.00     0.020 A 
ATOM     84  C   UNL A   1      52.287  26.129  26.102  1.00  0.00     0.054 A 
BRANCH  84  85
ATOM     85  S   UNL A   1      54.050  25.824  25.801  1.00  0.00     0.124 S 
ATOM     86  O   UNL A   1      54.616  27.163  25.927  1.00  0.00    -0.237 OA
ATOM     87  O   UNL A   1      54.402  24.889  26.867  1.00  0.00    -0.237 OA
ATOM     88  O   UNL A   1      54.078  25.259  24.454  1.00  0.00    -0.744 OA
ENDBRANCH  84  85
ENDBRANCH  58  79
ENDBRANCH  32  33
ENDBRANCH  24  27
ENDBRANCH  22  23
ENDBRANCH   1  22
TORSDOF 17
ENDMDL
