MODEL 1
REMARK VINA RESULT:     -10.8      0.000      0.000
REMARK SMILES CCCCCCNC(=O)Oc1cccc(-c2ccc([C@@H](C)C(=O)NCCCNC(=O)c3ccc(-c4c5nc(c(-c6ccc(S(=O)(=O)[O-])cc6)c6ccc([nH]6)c(-c6ccc(S(=O)(=O)[O-])cc6)c6nc(c(-c7ccc(S(=O)(=O)[O-])cc7)c7ccc4[nH]7)C=C6)C=C5)cc3)cc2O)c1
REMARK SMILES IDX 20 1 21 2 19 3 16 4 17 5 92 6 18 7 91 8 15 9 11 10 12 11
REMARK SMILES IDX 94 12 13 13 14 14 10 15 8 16 7 17 9 19 6 20 5 21 4 22 3 23
REMARK SMILES IDX 2 24 1 25 93 26 22 28 23 29 24 30 25 32 26 33 27 34 28 35
REMARK SMILES IDX 29 36 30 38 31 39 32 40 90 41 33 42 89 43 34 44 35 45 36 46
REMARK SMILES IDX 83 47 37 48 88 49 82 50 84 51 38 52 87 53 81 54 80 55 39 57
REMARK SMILES IDX 69 58 50 59 68 60 51 61 54 62 67 63 85 64 52 65 53 66 66 68
REMARK SMILES IDX 86 69 55 70 40 71 41 72 49 73 42 74 48 75 43 76 44 77 45 78
REMARK SMILES IDX 46 79 47 80 70 81 71 82 79 83 72 84 78 85 73 86 74 87 75 88
REMARK SMILES IDX 76 89 77 90 56 91 57 92 65 93 58 94 64 95 59 96 60 97 61 98
REMARK SMILES IDX 62 99 63 100
REMARK H PARENT 7 18 93 27 24 31 28 37 84 56 54 67
REMARK Flexibility Score: inf
ROOT
ATOM      1  C   UNL A   1      42.221  19.970  26.761  1.00  0.00     0.105 C 
ATOM      2  C   UNL A   1      42.314  18.706  27.615  1.00  0.00     0.023 C 
ENDROOT
BRANCH   1   3
ATOM      3  C   UNL A   1      40.810  20.401  26.400  1.00  0.00    -0.032 A 
ATOM      4  C   UNL A   1      38.196  21.310  25.638  1.00  0.00     0.024 A 
ATOM      5  C   UNL A   1      38.646  20.009  25.357  1.00  0.00     0.013 A 
ATOM      6  C   UNL A   1      39.083  22.127  26.363  1.00  0.00     0.123 A 
ATOM      7  C   UNL A   1      39.899  19.550  25.773  1.00  0.00     0.005 A 
ATOM      8  C   UNL A   1      40.375  21.700  26.699  1.00  0.00     0.051 A 
BRANCH   4   9
ATOM      9  C   UNL A   1      36.856  21.731  25.166  1.00  0.00    -0.011 A 
ATOM     10  C   UNL A   1      34.461  22.009  25.488  1.00  0.00     0.133 A 
ATOM     11  C   UNL A   1      34.316  22.560  24.220  1.00  0.00     0.047 A 
ATOM     12  C   UNL A   1      35.711  21.611  25.972  1.00  0.00     0.056 A 
ATOM     13  C   UNL A   1      35.440  22.720  23.419  1.00  0.00     0.004 A 
ATOM     14  C   UNL A   1      36.688  22.294  23.881  1.00  0.00     0.009 A 
BRANCH  10  15
ATOM     15  O   UNL A   1      33.274  21.729  26.184  1.00  0.00    -0.410 OA
BRANCH  15  16
ATOM     16  C   UNL A   1      32.155  21.277  25.506  1.00  0.00     0.412 C 
ATOM     17  N   UNL A   1      31.041  22.025  25.774  1.00  0.00    -0.321 N 
ATOM     18  H   UNL A   1      30.199  21.731  25.358  1.00  0.00     0.167 HD
ATOM     19  O   UNL A   1      32.111  20.327  24.735  1.00  0.00    -0.224 OA
BRANCH  17  20
ATOM     20  C   UNL A   1      30.979  23.207  26.610  1.00  0.00     0.119 C 
BRANCH  20  21
ATOM     21  C   UNL A   1      31.229  24.482  25.803  1.00  0.00     0.021 C 
BRANCH  21  22
ATOM     22  C   UNL A   1      32.569  25.169  26.093  1.00  0.00     0.002 C 
BRANCH  22  23
ATOM     23  C   UNL A   1      32.493  26.679  26.339  1.00  0.00    -0.000 C 
BRANCH  23  24
ATOM     24  C   UNL A   1      31.280  27.381  25.724  1.00  0.00    -0.003 C 
ATOM     25  C   UNL A   1      31.579  28.800  25.262  1.00  0.00     0.004 C 
ENDBRANCH  23  24
ENDBRANCH  22  23
ENDBRANCH  21  22
ENDBRANCH  20  21
ENDBRANCH  17  20
ENDBRANCH  15  16
ENDBRANCH  10  15
ENDBRANCH   4   9
BRANCH   6  26
ATOM     26  O   UNL A   1      38.740  23.369  26.832  1.00  0.00    -0.507 OA
ATOM     27  H   UNL A   1      37.838  23.609  26.908  1.00  0.00     0.293 HD
ENDBRANCH   6  26
ENDBRANCH   1   3
BRANCH   1  28
ATOM     28  C   UNL A   1      43.217  20.014  25.592  1.00  0.00     0.227 C 
ATOM     29  O   UNL A   1      43.247  19.082  24.776  1.00  0.00    -0.274 OA
ATOM     30  N   UNL A   1      44.077  21.039  25.349  1.00  0.00    -0.356 N 
ATOM     31  H   UNL A   1      44.616  20.922  24.534  1.00  0.00     0.163 HD
BRANCH  30  32
ATOM     32  C   UNL A   1      44.353  22.274  26.060  1.00  0.00     0.117 C 
BRANCH  32  33
ATOM     33  C   UNL A   1      44.200  23.508  25.172  1.00  0.00     0.042 C 
BRANCH  33  34
ATOM     34  C   UNL A   1      43.673  24.737  25.904  1.00  0.00     0.118 C 
BRANCH  34  35
ATOM     35  N   UNL A   1      43.473  25.870  25.006  1.00  0.00    -0.352 N 
ATOM     36  C   UNL A   1      42.929  27.110  25.237  1.00  0.00     0.251 C 
ATOM     37  H   UNL A   1      43.778  25.720  24.082  1.00  0.00     0.163 HD
ATOM     38  O   UNL A   1      42.649  27.825  24.277  1.00  0.00    -0.269 OA
BRANCH  36  39
ATOM     39  C   UNL A   1      42.663  27.588  26.613  1.00  0.00     0.039 A 
ATOM     40  C   UNL A   1      43.364  28.702  27.089  1.00  0.00     0.014 A 
ATOM     41  C   UNL A   1      41.762  26.928  27.452  1.00  0.00     0.014 A 
ATOM     42  C   UNL A   1      43.099  29.200  28.368  1.00  0.00     0.010 A 
ATOM     43  C   UNL A   1      41.445  27.466  28.697  1.00  0.00     0.010 A 
ATOM     44  C   UNL A   1      42.102  28.614  29.164  1.00  0.00    -0.014 A 
BRANCH  44  45
ATOM     45  C   UNL A   1      41.695  29.210  30.464  1.00  0.00     0.031 A 
ATOM     46  C   UNL A   1      40.489  30.102  30.552  1.00  0.00     0.074 A 
ATOM     47  C   UNL A   1      42.473  29.016  31.548  1.00  0.00     0.049 A 
ATOM     48  N   UNL A   1      40.047  30.791  31.573  1.00  0.00    -0.248 NA
ATOM     49  C   UNL A   1      39.683  30.256  29.330  1.00  0.00     0.031 C 
ATOM     50  C   UNL A   1      43.688  28.197  31.582  1.00  0.00     0.029 A 
ATOM     51  N   UNL A   1      42.369  29.507  32.826  1.00  0.00    -0.354 N 
ATOM     52  C   UNL A   1      38.924  31.471  31.116  1.00  0.00     0.074 A 
ATOM     53  C   UNL A   1      38.777  31.143  29.715  1.00  0.00     0.031 C 
ATOM     54  C   UNL A   1      44.208  28.233  32.818  1.00  0.00     0.029 A 
ATOM     55  C   UNL A   1      43.398  29.115  33.651  1.00  0.00     0.049 A 
ATOM     56  H   UNL A   1      41.630  30.084  33.123  1.00  0.00     0.167 HD
ATOM     57  C   UNL A   1      38.088  32.286  31.803  1.00  0.00     0.031 A 
ATOM     58  C   UNL A   1      43.678  29.449  34.927  1.00  0.00     0.031 A 
ATOM     59  C   UNL A   1      38.245  32.613  33.197  1.00  0.00     0.049 A 
ATOM     60  C   UNL A   1      42.764  30.395  35.653  1.00  0.00     0.074 A 
ATOM     61  C   UNL A   1      37.418  33.381  33.999  1.00  0.00     0.029 A 
ATOM     62  N   UNL A   1      39.306  32.204  33.993  1.00  0.00    -0.354 N 
ATOM     63  N   UNL A   1      41.664  30.969  35.226  1.00  0.00    -0.248 NA
ATOM     64  C   UNL A   1      43.129  30.741  37.034  1.00  0.00     0.031 C 
ATOM     65  C   UNL A   1      38.010  33.488  35.261  1.00  0.00     0.029 A 
ATOM     66  C   UNL A   1      39.175  32.737  35.265  1.00  0.00     0.049 A 
ATOM     67  H   UNL A   1      40.042  31.621  33.697  1.00  0.00     0.167 HD
ATOM     68  C   UNL A   1      41.200  31.735  36.288  1.00  0.00     0.074 A 
ATOM     69  C   UNL A   1      42.124  31.535  37.386  1.00  0.00     0.031 C 
ATOM     70  C   UNL A   1      40.108  32.537  36.345  1.00  0.00     0.031 A 
BRANCH  57  71
ATOM     71  C   UNL A   1      36.933  32.896  31.052  1.00  0.00    -0.014 A 
ATOM     72  C   UNL A   1      37.137  33.935  30.125  1.00  0.00     0.010 A 
ATOM     73  C   UNL A   1      35.632  32.396  31.243  1.00  0.00     0.010 A 
ATOM     74  C   UNL A   1      36.054  34.492  29.437  1.00  0.00     0.020 A 
ATOM     75  C   UNL A   1      34.551  32.932  30.536  1.00  0.00     0.020 A 
ATOM     76  C   UNL A   1      34.768  33.989  29.651  1.00  0.00     0.054 A 
BRANCH  76  77
ATOM     77  S   UNL A   1      33.386  34.724  28.733  1.00  0.00     0.124 S 
ATOM     78  O   UNL A   1      34.017  35.893  28.124  1.00  0.00    -0.237 OA
ATOM     79  O   UNL A   1      33.014  33.658  27.806  1.00  0.00    -0.237 OA
ATOM     80  O   UNL A   1      32.398  35.018  29.767  1.00  0.00    -0.744 OA
ENDBRANCH  76  77
ENDBRANCH  57  71
BRANCH  58  81
ATOM     81  C   UNL A   1      44.890  28.891  35.585  1.00  0.00    -0.014 A 
ATOM     82  C   UNL A   1      46.157  29.451  35.342  1.00  0.00     0.010 A 
ATOM     83  C   UNL A   1      44.778  27.816  36.486  1.00  0.00     0.010 A 
ATOM     84  C   UNL A   1      47.290  28.943  35.984  1.00  0.00     0.020 A 
ATOM     85  C   UNL A   1      45.904  27.325  37.151  1.00  0.00     0.020 A 
ATOM     86  C   UNL A   1      47.155  27.886  36.890  1.00  0.00     0.054 A 
BRANCH  86  87
ATOM     87  S   UNL A   1      48.624  27.288  37.770  1.00  0.00     0.124 S 
ATOM     88  O   UNL A   1      48.592  25.859  37.482  1.00  0.00    -0.237 OA
ATOM     89  O   UNL A   1      49.702  28.041  37.134  1.00  0.00    -0.237 OA
ATOM     90  O   UNL A   1      48.358  27.654  39.162  1.00  0.00    -0.744 OA
ENDBRANCH  86  87
ENDBRANCH  58  81
BRANCH  70  91
ATOM     91  C   UNL A   1      39.844  33.258  37.639  1.00  0.00    -0.014 A 
ATOM     92  C   UNL A   1      40.521  34.450  37.952  1.00  0.00     0.010 A 
ATOM     93  C   UNL A   1      38.849  32.784  38.514  1.00  0.00     0.010 A 
ATOM     94  C   UNL A   1      40.217  35.148  39.124  1.00  0.00     0.020 A 
ATOM     95  C   UNL A   1      38.524  33.493  39.672  1.00  0.00     0.020 A 
ATOM     96  C   UNL A   1      39.216  34.668  39.974  1.00  0.00     0.054 A 
BRANCH  96  97
ATOM     97  S   UNL A   1      38.789  35.635  41.448  1.00  0.00     0.124 S 
ATOM     98  O   UNL A   1      37.502  35.059  41.829  1.00  0.00    -0.237 OA
ATOM     99  O   UNL A   1      39.900  35.346  42.352  1.00  0.00    -0.237 OA
ATOM    100  O   UNL A   1      38.734  37.011  40.957  1.00  0.00    -0.744 OA
ENDBRANCH  96  97
ENDBRANCH  70  91
ENDBRANCH  44  45
ENDBRANCH  36  39
ENDBRANCH  34  35
ENDBRANCH  33  34
ENDBRANCH  32  33
ENDBRANCH  30  32
ENDBRANCH   1  28
TORSDOF 23
ENDMDL
MODEL 2
REMARK VINA RESULT:     -10.7      1.355      2.351
REMARK SMILES CCCCCCNC(=O)Oc1cccc(-c2ccc([C@@H](C)C(=O)NCCCNC(=O)c3ccc(-c4c5nc(c(-c6ccc(S(=O)(=O)[O-])cc6)c6ccc([nH]6)c(-c6ccc(S(=O)(=O)[O-])cc6)c6nc(c(-c7ccc(S(=O)(=O)[O-])cc7)c7ccc4[nH]7)C=C6)C=C5)cc3)cc2O)c1
REMARK SMILES IDX 20 1 21 2 19 3 16 4 17 5 92 6 18 7 91 8 15 9 11 10 12 11
REMARK SMILES IDX 94 12 13 13 14 14 10 15 8 16 7 17 9 19 6 20 5 21 4 22 3 23
REMARK SMILES IDX 2 24 1 25 93 26 22 28 23 29 24 30 25 32 26 33 27 34 28 35
REMARK SMILES IDX 29 36 30 38 31 39 32 40 90 41 33 42 89 43 34 44 35 45 36 46
REMARK SMILES IDX 83 47 37 48 88 49 82 50 84 51 38 52 87 53 81 54 80 55 39 57
REMARK SMILES IDX 69 58 50 59 68 60 51 61 54 62 67 63 85 64 52 65 53 66 66 68
REMARK SMILES IDX 86 69 55 70 40 71 41 72 49 73 42 74 48 75 43 76 44 77 45 78
REMARK SMILES IDX 46 79 47 80 70 81 71 82 79 83 72 84 78 85 73 86 74 87 75 88
REMARK SMILES IDX 76 89 77 90 56 91 57 92 65 93 58 94 64 95 59 96 60 97 61 98
REMARK SMILES IDX 62 99 63 100
REMARK H PARENT 7 18 93 27 24 31 28 37 84 56 54 67
REMARK Flexibility Score: inf
ROOT
ATOM      1  C   UNL A   1      41.257  22.087  27.107  1.00  0.00     0.105 C 
ATOM      2  C   UNL A   1      41.250  21.940  28.628  1.00  0.00     0.023 C 
ENDROOT
BRANCH   1   3
ATOM      3  C   UNL A   1      39.939  22.532  26.496  1.00  0.00    -0.032 A 
ATOM      4  C   UNL A   1      37.386  23.286  25.424  1.00  0.00     0.024 A 
ATOM      5  C   UNL A   1      38.209  24.198  26.106  1.00  0.00     0.013 A 
ATOM      6  C   UNL A   1      37.910  21.992  25.251  1.00  0.00     0.123 A 
ATOM      7  C   UNL A   1      39.474  23.845  26.583  1.00  0.00     0.005 A 
ATOM      8  C   UNL A   1      39.137  21.610  25.810  1.00  0.00     0.051 A 
BRANCH   4   9
ATOM      9  C   UNL A   1      36.054  23.729  24.946  1.00  0.00    -0.011 A 
ATOM     10  C   UNL A   1      33.880  24.755  25.311  1.00  0.00     0.133 A 
ATOM     11  C   UNL A   1      33.525  24.567  23.980  1.00  0.00     0.047 A 
ATOM     12  C   UNL A   1      35.130  24.361  25.796  1.00  0.00     0.056 A 
ATOM     13  C   UNL A   1      34.436  23.976  23.114  1.00  0.00     0.004 A 
ATOM     14  C   UNL A   1      35.676  23.547  23.597  1.00  0.00     0.009 A 
BRANCH  10  15
ATOM     15  O   UNL A   1      32.864  25.210  26.167  1.00  0.00    -0.410 OA
BRANCH  15  16
ATOM     16  C   UNL A   1      31.548  24.840  25.950  1.00  0.00     0.412 C 
ATOM     17  N   UNL A   1      31.227  23.660  26.564  1.00  0.00    -0.321 N 
ATOM     18  H   UNL A   1      30.318  23.316  26.414  1.00  0.00     0.167 HD
ATOM     19  O   UNL A   1      30.719  25.463  25.300  1.00  0.00    -0.224 OA
BRANCH  17  20
ATOM     20  C   UNL A   1      32.095  22.868  27.413  1.00  0.00     0.119 C 
BRANCH  20  21
ATOM     21  C   UNL A   1      32.935  21.884  26.597  1.00  0.00     0.021 C 
BRANCH  21  22
ATOM     22  C   UNL A   1      32.196  21.241  25.416  1.00  0.00     0.002 C 
BRANCH  22  23
ATOM     23  C   UNL A   1      33.092  20.715  24.290  1.00  0.00    -0.000 C 
BRANCH  23  24
ATOM     24  C   UNL A   1      33.623  19.292  24.487  1.00  0.00    -0.003 C 
ATOM     25  C   UNL A   1      32.640  18.380  25.205  1.00  0.00     0.004 C 
ENDBRANCH  23  24
ENDBRANCH  22  23
ENDBRANCH  21  22
ENDBRANCH  20  21
ENDBRANCH  17  20
ENDBRANCH  15  16
ENDBRANCH  10  15
ENDBRANCH   4   9
BRANCH   6  26
ATOM     26  O   UNL A   1      37.291  21.031  24.493  1.00  0.00    -0.507 OA
ATOM     27  H   UNL A   1      37.767  20.586  23.821  1.00  0.00     0.293 HD
ENDBRANCH   6  26
ENDBRANCH   1   3
BRANCH   1  28
ATOM     28  C   UNL A   1      41.941  20.927  26.367  1.00  0.00     0.227 C 
ATOM     29  O   UNL A   1      41.440  19.795  26.405  1.00  0.00    -0.274 OA
ATOM     30  N   UNL A   1      43.071  21.048  25.620  1.00  0.00    -0.356 N 
ATOM     31  H   UNL A   1      43.350  20.212  25.182  1.00  0.00     0.163 HD
BRANCH  30  32
ATOM     32  C   UNL A   1      43.946  22.173  25.344  1.00  0.00     0.117 C 
BRANCH  32  33
ATOM     33  C   UNL A   1      44.668  22.674  26.594  1.00  0.00     0.042 C 
BRANCH  33  34
ATOM     34  C   UNL A   1      44.614  24.186  26.778  1.00  0.00     0.118 C 
BRANCH  34  35
ATOM     35  N   UNL A   1      43.747  24.829  25.796  1.00  0.00    -0.352 N 
ATOM     36  C   UNL A   1      42.717  25.724  25.962  1.00  0.00     0.251 C 
ATOM     37  H   UNL A   1      43.930  24.580  24.862  1.00  0.00     0.163 HD
ATOM     38  O   UNL A   1      41.972  25.956  25.011  1.00  0.00    -0.269 OA
BRANCH  36  39
ATOM     39  C   UNL A   1      42.483  26.393  27.261  1.00  0.00     0.039 A 
ATOM     40  C   UNL A   1      43.169  27.580  27.543  1.00  0.00     0.014 A 
ATOM     41  C   UNL A   1      41.627  25.845  28.220  1.00  0.00     0.014 A 
ATOM     42  C   UNL A   1      42.933  28.256  28.744  1.00  0.00     0.010 A 
ATOM     43  C   UNL A   1      41.337  26.555  29.383  1.00  0.00     0.010 A 
ATOM     44  C   UNL A   1      41.978  27.773  29.652  1.00  0.00    -0.014 A 
BRANCH  44  45
ATOM     45  C   UNL A   1      41.598  28.545  30.864  1.00  0.00     0.031 A 
ATOM     46  C   UNL A   1      40.436  29.498  30.831  1.00  0.00     0.074 A 
ATOM     47  C   UNL A   1      42.362  28.451  31.970  1.00  0.00     0.049 A 
ATOM     48  N   UNL A   1      40.026  30.330  31.754  1.00  0.00    -0.248 NA
ATOM     49  C   UNL A   1      39.641  29.537  29.592  1.00  0.00     0.031 C 
ATOM     50  C   UNL A   1      43.536  27.586  32.116  1.00  0.00     0.029 A 
ATOM     51  N   UNL A   1      42.280  29.102  33.176  1.00  0.00    -0.354 N 
ATOM     52  C   UNL A   1      38.939  31.001  31.206  1.00  0.00     0.074 A 
ATOM     53  C   UNL A   1      38.778  30.508  29.856  1.00  0.00     0.031 C 
ATOM     54  C   UNL A   1      44.055  27.751  33.343  1.00  0.00     0.029 A 
ATOM     55  C   UNL A   1      43.288  28.768  34.052  1.00  0.00     0.049 A 
ATOM     56  H   UNL A   1      41.569  29.747  33.393  1.00  0.00     0.167 HD
ATOM     57  C   UNL A   1      38.142  31.935  31.780  1.00  0.00     0.031 A 
ATOM     58  C   UNL A   1      43.580  29.244  35.278  1.00  0.00     0.031 A 
ATOM     59  C   UNL A   1      38.311  32.425  33.123  1.00  0.00     0.049 A 
ATOM     60  C   UNL A   1      42.712  30.317  35.874  1.00  0.00     0.074 A 
ATOM     61  C   UNL A   1      37.522  33.326  33.816  1.00  0.00     0.029 A 
ATOM     62  N   UNL A   1      39.349  32.069  33.972  1.00  0.00    -0.354 N 
ATOM     63  N   UNL A   1      41.642  30.885  35.369  1.00  0.00    -0.248 NA
ATOM     64  C   UNL A   1      43.090  30.815  37.204  1.00  0.00     0.031 C 
ATOM     65  C   UNL A   1      38.115  33.561  35.060  1.00  0.00     0.029 A 
ATOM     66  C   UNL A   1      39.242  32.762  35.167  1.00  0.00     0.049 A 
ATOM     67  H   UNL A   1      40.057  31.418  33.758  1.00  0.00     0.167 HD
ATOM     68  C   UNL A   1      41.214  31.800  36.323  1.00  0.00     0.074 A 
ATOM     69  C   UNL A   1      42.125  31.693  37.445  1.00  0.00     0.031 C 
ATOM     70  C   UNL A   1      40.162  32.654  36.272  1.00  0.00     0.031 A 
BRANCH  57  71
ATOM     71  C   UNL A   1      37.020  32.500  30.949  1.00  0.00    -0.014 A 
ATOM     72  C   UNL A   1      37.218  33.628  30.130  1.00  0.00     0.010 A 
ATOM     73  C   UNL A   1      35.760  31.872  30.952  1.00  0.00     0.010 A 
ATOM     74  C   UNL A   1      36.166  34.143  29.367  1.00  0.00     0.020 A 
ATOM     75  C   UNL A   1      34.714  32.368  30.169  1.00  0.00     0.020 A 
ATOM     76  C   UNL A   1      34.919  33.511  29.395  1.00  0.00     0.054 A 
BRANCH  76  77
ATOM     77  S   UNL A   1      33.578  34.195  28.382  1.00  0.00     0.124 S 
ATOM     78  O   UNL A   1      33.057  32.997  27.725  1.00  0.00    -0.237 OA
ATOM     79  O   UNL A   1      32.697  34.794  29.381  1.00  0.00    -0.237 OA
ATOM     80  O   UNL A   1      34.254  35.143  27.502  1.00  0.00    -0.744 OA
ENDBRANCH  76  77
ENDBRANCH  57  71
BRANCH  58  81
ATOM     81  C   UNL A   1      44.762  28.716  36.011  1.00  0.00    -0.014 A 
ATOM     82  C   UNL A   1      44.654  27.559  36.803  1.00  0.00     0.010 A 
ATOM     83  C   UNL A   1      46.013  29.350  35.893  1.00  0.00     0.010 A 
ATOM     84  C   UNL A   1      45.773  27.049  37.468  1.00  0.00     0.020 A 
ATOM     85  C   UNL A   1      47.139  28.826  36.533  1.00  0.00     0.020 A 
ATOM     86  C   UNL A   1      47.010  27.683  37.324  1.00  0.00     0.054 A 
BRANCH  86  87
ATOM     87  S   UNL A   1      48.467  26.966  38.132  1.00  0.00     0.124 S 
ATOM     88  O   UNL A   1      48.013  25.612  38.432  1.00  0.00    -0.237 OA
ATOM     89  O   UNL A   1      49.490  27.077  37.096  1.00  0.00    -0.237 OA
ATOM     90  O   UNL A   1      48.672  27.831  39.293  1.00  0.00    -0.744 OA
ENDBRANCH  86  87
ENDBRANCH  58  81
BRANCH  70  91
ATOM     91  C   UNL A   1      39.930  33.543  37.463  1.00  0.00    -0.014 A 
ATOM     92  C   UNL A   1      40.652  34.739  37.621  1.00  0.00     0.010 A 
ATOM     93  C   UNL A   1      38.923  33.221  38.391  1.00  0.00     0.010 A 
ATOM     94  C   UNL A   1      40.379  35.591  38.695  1.00  0.00     0.020 A 
ATOM     95  C   UNL A   1      38.629  34.083  39.450  1.00  0.00     0.020 A 
ATOM     96  C   UNL A   1      39.365  35.261  39.599  1.00  0.00     0.054 A 
BRANCH  96  97
ATOM     97  S   UNL A   1      38.982  36.422  40.939  1.00  0.00     0.124 S 
ATOM     98  O   UNL A   1      37.967  35.692  41.694  1.00  0.00    -0.237 OA
ATOM     99  O   UNL A   1      40.272  36.578  41.606  1.00  0.00    -0.237 OA
ATOM    100  O   UNL A   1      38.501  37.612  40.239  1.00  0.00    -0.744 OA
ENDBRANCH  96  97
ENDBRANCH  70  91
ENDBRANCH  44  45
ENDBRANCH  36  39
ENDBRANCH  34  35
ENDBRANCH  33  34
ENDBRANCH  32  33
ENDBRANCH  30  32
ENDBRANCH   1  28
TORSDOF 23
ENDMDL
MODEL 3
REMARK VINA RESULT:     -10.6      5.605     12.279
REMARK SMILES CCCCCCNC(=O)Oc1cccc(-c2ccc([C@@H](C)C(=O)NCCCNC(=O)c3ccc(-c4c5nc(c(-c6ccc(S(=O)(=O)[O-])cc6)c6ccc([nH]6)c(-c6ccc(S(=O)(=O)[O-])cc6)c6nc(c(-c7ccc(S(=O)(=O)[O-])cc7)c7ccc4[nH]7)C=C6)C=C5)cc3)cc2O)c1
REMARK SMILES IDX 20 1 21 2 19 3 16 4 17 5 92 6 18 7 91 8 15 9 11 10 12 11
REMARK SMILES IDX 94 12 13 13 14 14 10 15 8 16 7 17 9 19 6 20 5 21 4 22 3 23
REMARK SMILES IDX 2 24 1 25 93 26 22 28 23 29 24 30 25 32 26 33 27 34 28 35
REMARK SMILES IDX 29 36 30 38 31 39 32 40 90 41 33 42 89 43 34 44 35 45 36 46
REMARK SMILES IDX 83 47 37 48 88 49 82 50 84 51 38 52 87 53 81 54 80 55 39 57
REMARK SMILES IDX 69 58 50 59 68 60 51 61 54 62 67 63 85 64 52 65 53 66 66 68
REMARK SMILES IDX 86 69 55 70 40 71 41 72 49 73 42 74 48 75 43 76 44 77 45 78
REMARK SMILES IDX 46 79 47 80 70 81 71 82 79 83 72 84 78 85 73 86 74 87 75 88
REMARK SMILES IDX 76 89 77 90 56 91 57 92 65 93 58 94 64 95 59 96 60 97 61 98
REMARK SMILES IDX 62 99 63 100
REMARK H PARENT 7 18 93 27 24 31 28 37 84 56 54 67
REMARK Flexibility Score: inf
ROOT
ATOM      1  C   UNL A   1      35.380  32.611  28.774  1.00  0.00     0.105 C 
ATOM      2  C   UNL A   1      36.535  33.211  27.973  1.00  0.00     0.023 C 
ENDROOT
BRANCH   1   3
ATOM      3  C   UNL A   1      34.767  31.355  28.178  1.00  0.00    -0.032 A 
ATOM      4  C   UNL A   1      33.599  29.048  26.934  1.00  0.00     0.024 A 
ATOM      5  C   UNL A   1      34.899  29.032  27.467  1.00  0.00     0.013 A 
ATOM      6  C   UNL A   1      32.881  30.247  27.092  1.00  0.00     0.123 A 
ATOM      7  C   UNL A   1      35.449  30.140  28.119  1.00  0.00     0.005 A 
ATOM      8  C   UNL A   1      33.464  31.388  27.661  1.00  0.00     0.051 A 
BRANCH   4   9
ATOM      9  C   UNL A   1      33.080  27.837  26.255  1.00  0.00    -0.011 A 
ATOM     10  C   UNL A   1      33.108  26.223  24.436  1.00  0.00     0.133 A 
ATOM     11  C   UNL A   1      32.058  25.509  25.001  1.00  0.00     0.047 A 
ATOM     12  C   UNL A   1      33.632  27.363  25.052  1.00  0.00     0.056 A 
ATOM     13  C   UNL A   1      31.520  25.939  26.208  1.00  0.00     0.004 A 
ATOM     14  C   UNL A   1      32.014  27.098  26.814  1.00  0.00     0.009 A 
BRANCH  10  15
ATOM     15  O   UNL A   1      33.502  25.832  23.145  1.00  0.00    -0.410 OA
BRANCH  15  16
ATOM     16  C   UNL A   1      32.553  25.608  22.162  1.00  0.00     0.412 C 
ATOM     17  N   UNL A   1      32.669  24.368  21.594  1.00  0.00    -0.321 N 
ATOM     18  H   UNL A   1      32.053  24.160  20.856  1.00  0.00     0.167 HD
ATOM     19  O   UNL A   1      31.682  26.390  21.806  1.00  0.00    -0.224 OA
BRANCH  17  20
ATOM     20  C   UNL A   1      33.611  23.333  21.973  1.00  0.00     0.119 C 
BRANCH  20  21
ATOM     21  C   UNL A   1      33.199  22.646  23.276  1.00  0.00     0.021 C 
BRANCH  21  22
ATOM     22  C   UNL A   1      32.289  21.426  23.094  1.00  0.00     0.002 C 
BRANCH  22  23
ATOM     23  C   UNL A   1      32.171  20.507  24.315  1.00  0.00    -0.000 C 
BRANCH  23  24
ATOM     24  C   UNL A   1      33.190  19.367  24.376  1.00  0.00    -0.003 C 
ATOM     25  C   UNL A   1      32.809  18.275  25.365  1.00  0.00     0.004 C 
ENDBRANCH  23  24
ENDBRANCH  22  23
ENDBRANCH  21  22
ENDBRANCH  20  21
ENDBRANCH  17  20
ENDBRANCH  15  16
ENDBRANCH  10  15
ENDBRANCH   4   9
BRANCH   6  26
ATOM     26  O   UNL A   1      31.560  30.378  26.749  1.00  0.00    -0.507 OA
ATOM     27  H   UNL A   1      31.300  30.310  25.852  1.00  0.00     0.293 HD
ENDBRANCH   6  26
ENDBRANCH   1   3
BRANCH   1  28
ATOM     28  C   UNL A   1      34.356  33.644  29.270  1.00  0.00     0.227 C 
ATOM     29  O   UNL A   1      33.608  34.206  28.459  1.00  0.00    -0.274 OA
ATOM     30  N   UNL A   1      34.173  33.983  30.575  1.00  0.00    -0.356 N 
ATOM     31  H   UNL A   1      33.447  34.632  30.719  1.00  0.00     0.163 HD
BRANCH  30  32
ATOM     32  C   UNL A   1      34.841  33.571  31.796  1.00  0.00     0.117 C 
BRANCH  32  33
ATOM     33  C   UNL A   1      36.326  33.931  31.801  1.00  0.00     0.042 C 
BRANCH  33  34
ATOM     34  C   UNL A   1      37.233  32.813  32.302  1.00  0.00     0.118 C 
BRANCH  34  35
ATOM     35  N   UNL A   1      36.587  31.507  32.233  1.00  0.00    -0.352 N 
ATOM     36  C   UNL A   1      36.949  30.363  31.564  1.00  0.00     0.251 C 
ATOM     37  H   UNL A   1      35.754  31.434  32.753  1.00  0.00     0.163 HD
ATOM     38  O   UNL A   1      36.131  29.450  31.462  1.00  0.00    -0.269 OA
BRANCH  36  39
ATOM     39  C   UNL A   1      38.290  30.223  30.954  1.00  0.00     0.039 A 
ATOM     40  C   UNL A   1      39.360  29.818  31.761  1.00  0.00     0.014 A 
ATOM     41  C   UNL A   1      38.514  30.522  29.608  1.00  0.00     0.014 A 
ATOM     42  C   UNL A   1      40.628  29.634  31.200  1.00  0.00     0.010 A 
ATOM     43  C   UNL A   1      39.758  30.270  29.035  1.00  0.00     0.010 A 
ATOM     44  C   UNL A   1      40.825  29.812  29.822  1.00  0.00    -0.014 A 
BRANCH  44  45
ATOM     45  C   UNL A   1      42.121  29.482  29.174  1.00  0.00     0.031 A 
ATOM     46  C   UNL A   1      42.384  28.097  28.650  1.00  0.00     0.074 A 
ATOM     47  C   UNL A   1      43.096  30.413  29.141  1.00  0.00     0.049 A 
ATOM     48  N   UNL A   1      43.488  27.601  28.153  1.00  0.00    -0.248 NA
ATOM     49  C   UNL A   1      41.268  27.140  28.710  1.00  0.00     0.031 C 
ATOM     50  C   UNL A   1      42.975  31.783  29.646  1.00  0.00     0.029 A 
ATOM     51  N   UNL A   1      44.387  30.344  28.679  1.00  0.00    -0.354 N 
ATOM     52  C   UNL A   1      43.207  26.272  27.856  1.00  0.00     0.074 A 
ATOM     53  C   UNL A   1      41.841  26.030  28.265  1.00  0.00     0.031 C 
ATOM     54  C   UNL A   1      44.137  32.427  29.456  1.00  0.00     0.029 A 
ATOM     55  C   UNL A   1      45.101  31.506  28.866  1.00  0.00     0.049 A 
ATOM     56  H   UNL A   1      44.766  29.541  28.256  1.00  0.00     0.167 HD
ATOM     57  C   UNL A   1      44.011  25.343  27.285  1.00  0.00     0.031 A 
ATOM     58  C   UNL A   1      46.394  31.792  28.616  1.00  0.00     0.031 A 
ATOM     59  C   UNL A   1      45.372  25.589  26.885  1.00  0.00     0.049 A 
ATOM     60  C   UNL A   1      47.281  30.730  28.030  1.00  0.00     0.074 A 
ATOM     61  C   UNL A   1      46.249  24.732  26.244  1.00  0.00     0.029 A 
ATOM     62  N   UNL A   1      46.059  26.775  27.100  1.00  0.00    -0.354 N 
ATOM     63  N   UNL A   1      46.975  29.501  27.686  1.00  0.00    -0.248 NA
ATOM     64  C   UNL A   1      48.686  31.090  27.800  1.00  0.00     0.031 C 
ATOM     65  C   UNL A   1      47.484  25.377  26.128  1.00  0.00     0.029 A 
ATOM     66  C   UNL A   1      47.361  26.658  26.642  1.00  0.00     0.049 A 
ATOM     67  H   UNL A   1      45.678  27.582  27.517  1.00  0.00     0.167 HD
ATOM     68  C   UNL A   1      48.147  28.945  27.188  1.00  0.00     0.074 A 
ATOM     69  C   UNL A   1      49.162  29.978  27.255  1.00  0.00     0.031 C 
ATOM     70  C   UNL A   1      48.364  27.690  26.723  1.00  0.00     0.031 A 
BRANCH  57  71
ATOM     71  C   UNL A   1      43.442  23.964  27.071  1.00  0.00    -0.014 A 
ATOM     72  C   UNL A   1      42.911  23.582  25.825  1.00  0.00     0.010 A 
ATOM     73  C   UNL A   1      43.475  23.023  28.117  1.00  0.00     0.010 A 
ATOM     74  C   UNL A   1      42.384  22.300  25.643  1.00  0.00     0.020 A 
ATOM     75  C   UNL A   1      42.975  21.731  27.929  1.00  0.00     0.020 A 
ATOM     76  C   UNL A   1      42.416  21.384  26.698  1.00  0.00     0.054 A 
BRANCH  76  77
ATOM     77  S   UNL A   1      41.737  19.724  26.426  1.00  0.00     0.124 S 
ATOM     78  O   UNL A   1      42.434  19.309  25.210  1.00  0.00    -0.237 OA
ATOM     79  O   UNL A   1      42.125  19.016  27.643  1.00  0.00    -0.237 OA
ATOM     80  O   UNL A   1      40.303  19.954  26.273  1.00  0.00    -0.744 OA
ENDBRANCH  76  77
ENDBRANCH  57  71
BRANCH  58  81
ATOM     81  C   UNL A   1      46.925  33.144  28.941  1.00  0.00    -0.014 A 
ATOM     82  C   UNL A   1      47.492  33.405  30.201  1.00  0.00     0.010 A 
ATOM     83  C   UNL A   1      46.895  34.169  27.978  1.00  0.00     0.010 A 
ATOM     84  C   UNL A   1      48.016  34.668  30.493  1.00  0.00     0.020 A 
ATOM     85  C   UNL A   1      47.442  35.424  28.257  1.00  0.00     0.020 A 
ATOM     86  C   UNL A   1      47.992  35.668  29.516  1.00  0.00     0.054 A 
BRANCH  86  87
ATOM     87  S   UNL A   1      48.743  37.278  29.886  1.00  0.00     0.124 S 
ATOM     88  O   UNL A   1      49.692  36.936  30.940  1.00  0.00    -0.237 OA
ATOM     89  O   UNL A   1      49.328  37.656  28.602  1.00  0.00    -0.237 OA
ATOM     90  O   UNL A   1      47.605  38.095  30.307  1.00  0.00    -0.744 OA
ENDBRANCH  86  87
ENDBRANCH  58  81
BRANCH  70  91
ATOM     91  C   UNL A   1      49.750  27.357  26.242  1.00  0.00    -0.014 A 
ATOM     92  C   UNL A   1      50.741  26.927  27.141  1.00  0.00     0.010 A 
ATOM     93  C   UNL A   1      50.041  27.397  24.866  1.00  0.00     0.010 A 
ATOM     94  C   UNL A   1      52.004  26.553  26.674  1.00  0.00     0.020 A 
ATOM     95  C   UNL A   1      51.294  26.999  24.393  1.00  0.00     0.020 A 
ATOM     96  C   UNL A   1      52.271  26.586  25.301  1.00  0.00     0.054 A 
BRANCH  96  97
ATOM     97  S   UNL A   1      53.893  26.024  24.717  1.00  0.00     0.124 S 
ATOM     98  O   UNL A   1      54.765  26.405  25.826  1.00  0.00    -0.237 OA
ATOM     99  O   UNL A   1      53.690  24.588  24.542  1.00  0.00    -0.237 OA
ATOM    100  O   UNL A   1      54.096  26.775  23.479  1.00  0.00    -0.744 OA
ENDBRANCH  96  97
ENDBRANCH  70  91
ENDBRANCH  44  45
ENDBRANCH  36  39
ENDBRANCH  34  35
ENDBRANCH  33  34
ENDBRANCH  32  33
ENDBRANCH  30  32
ENDBRANCH   1  28
TORSDOF 23
ENDMDL
