MODEL 1
REMARK VINA RESULT:     -10.5      0.000      0.000
REMARK SMILES C[C@H]1OCC[C@H]1C(=O)Nc1ccsc1C(=O)NCCCNC(=O)c1ccc(-c2c3nc(c(-c4ccc(S(=O)(=O)[O-])cc4)c4ccc([nH]4)c(-c4ccc(S(=O)(=O)[O-])cc4)c4nc(c(-c5ccc(S(=O)(=O)[O-])cc5)c5ccc2[nH]5)C=C4)C=C3)cc1
REMARK SMILES IDX 19 1 18 2 17 3 15 4 16 5 14 7 10 8 11 9 12 10 13 11 9 12
REMARK SMILES IDX 7 13 8 14 6 16 1 17 2 18 3 19 4 20 5 21 20 22 21 23 22 24
REMARK SMILES IDX 23 26 24 27 25 28 83 29 26 30 82 31 27 32 28 33 29 34 76 35
REMARK SMILES IDX 30 36 81 37 75 38 77 39 31 40 80 41 74 42 73 43 32 45 62 46
REMARK SMILES IDX 43 47 61 48 44 49 47 50 60 51 78 52 45 53 46 54 59 56 79 57
REMARK SMILES IDX 48 58 33 59 34 60 42 61 35 62 41 63 36 64 37 65 38 66 39 67
REMARK SMILES IDX 40 68 63 69 64 70 72 71 65 72 71 73 66 74 67 75 68 76 69 77
REMARK SMILES IDX 70 78 49 79 50 80 58 81 51 82 57 83 52 84 53 85 54 86 55 87
REMARK SMILES IDX 56 88
REMARK H PARENT 17 6 9 15 21 25 77 44 47 55
REMARK Flexibility Score: inf
ROOT
ATOM      1  C   UNL A   1      34.060  27.741  25.494  1.00  0.00     0.042 C 
ENDROOT
BRANCH   1   2
ATOM      2  C   UNL A   1      33.712  26.348  25.029  1.00  0.00     0.118 C 
BRANCH   2   3
ATOM      3  N   UNL A   1      32.859  26.242  23.876  1.00  0.00    -0.351 N 
ATOM      4  C   UNL A   1      32.243  25.146  23.316  1.00  0.00     0.263 C 
ATOM      5  O   UNL A   1      31.542  25.428  22.336  1.00  0.00    -0.268 OA
ATOM      6  H   UNL A   1      32.690  27.092  23.410  1.00  0.00     0.163 HD
BRANCH   4   7
ATOM      7  C   UNL A   1      32.410  23.768  23.800  1.00  0.00     0.115 A 
ATOM      8  C   UNL A   1      33.383  22.769  23.703  1.00  0.00     0.065 A 
ATOM      9  C   UNL A   1      33.040  21.614  24.473  1.00  0.00     0.038 A 
ATOM     10  C   UNL A   1      31.798  21.692  25.051  1.00  0.00     0.068 A 
ATOM     11  S   UNL A   1      31.048  23.172  24.713  1.00  0.00    -0.137 S 
BRANCH   8  12
ATOM     12  N   UNL A   1      34.636  22.914  23.141  1.00  0.00    -0.324 N 
ATOM     13  C   UNL A   1      35.875  22.984  23.708  1.00  0.00     0.230 C 
ATOM     14  O   UNL A   1      36.817  23.054  22.902  1.00  0.00    -0.274 OA
ATOM     15  H   UNL A   1      34.636  22.976  22.158  1.00  0.00     0.169 HD
BRANCH  13  16
ATOM     16  C   UNL A   1      36.218  22.895  25.199  1.00  0.00     0.110 C 
ATOM     17  C   UNL A   1      36.365  20.349  24.882  1.00  0.00     0.039 C 
ATOM     18  C   UNL A   1      36.770  21.572  25.684  1.00  0.00     0.127 C 
ATOM     19  O   UNL A   1      38.193  21.737  25.743  1.00  0.00    -0.378 OA
ATOM     20  C   UNL A   1      38.464  23.120  26.024  1.00  0.00     0.161 C 
ATOM     21  C   UNL A   1      37.184  23.900  25.792  1.00  0.00     0.044 C 
ENDBRANCH  13  16
ENDBRANCH   8  12
ENDBRANCH   4   7
ENDBRANCH   2   3
ENDBRANCH   1   2
BRANCH   1  22
ATOM     22  C   UNL A   1      33.750  28.020  26.946  1.00  0.00     0.118 C 
BRANCH  22  23
ATOM     23  N   UNL A   1      33.479  29.420  27.236  1.00  0.00    -0.352 N 
ATOM     24  C   UNL A   1      34.257  30.399  27.818  1.00  0.00     0.251 C 
ATOM     25  H   UNL A   1      32.580  29.722  26.969  1.00  0.00     0.163 HD
ATOM     26  O   UNL A   1      33.765  31.495  28.050  1.00  0.00    -0.269 OA
BRANCH  24  27
ATOM     27  C   UNL A   1      35.663  30.123  28.200  1.00  0.00     0.039 A 
ATOM     28  C   UNL A   1      35.943  29.609  29.470  1.00  0.00     0.014 A 
ATOM     29  C   UNL A   1      36.711  30.362  27.316  1.00  0.00     0.014 A 
ATOM     30  C   UNL A   1      37.257  29.264  29.808  1.00  0.00     0.010 A 
ATOM     31  C   UNL A   1      37.977  29.866  27.587  1.00  0.00     0.010 A 
ATOM     32  C   UNL A   1      38.280  29.345  28.850  1.00  0.00    -0.014 A 
BRANCH  32  33
ATOM     33  C   UNL A   1      39.687  28.965  29.148  1.00  0.00     0.031 A 
ATOM     34  C   UNL A   1      40.614  29.980  29.776  1.00  0.00     0.074 A 
ATOM     35  C   UNL A   1      40.157  27.754  28.788  1.00  0.00     0.049 A 
ATOM     36  N   UNL A   1      41.899  29.896  30.006  1.00  0.00    -0.248 NA
ATOM     37  C   UNL A   1      40.028  31.281  30.151  1.00  0.00     0.031 C 
ATOM     38  C   UNL A   1      39.382  26.700  28.127  1.00  0.00     0.029 A 
ATOM     39  N   UNL A   1      41.408  27.205  28.922  1.00  0.00    -0.354 N 
ATOM     40  C   UNL A   1      42.274  31.137  30.510  1.00  0.00     0.074 A 
ATOM     41  C   UNL A   1      41.101  31.979  30.485  1.00  0.00     0.031 C 
ATOM     42  C   UNL A   1      40.163  25.622  27.952  1.00  0.00     0.029 A 
ATOM     43  C   UNL A   1      41.506  25.921  28.441  1.00  0.00     0.049 A 
ATOM     44  H   UNL A   1      42.167  27.687  29.326  1.00  0.00     0.167 HD
ATOM     45  C   UNL A   1      43.476  31.535  30.988  1.00  0.00     0.031 A 
ATOM     46  C   UNL A   1      42.557  25.079  28.397  1.00  0.00     0.031 A 
ATOM     47  C   UNL A   1      44.630  30.681  31.057  1.00  0.00     0.049 A 
ATOM     48  C   UNL A   1      43.879  25.533  28.954  1.00  0.00     0.074 A 
ATOM     49  C   UNL A   1      45.876  30.960  31.587  1.00  0.00     0.029 A 
ATOM     50  N   UNL A   1      44.671  29.375  30.593  1.00  0.00    -0.354 N 
ATOM     51  N   UNL A   1      44.197  26.692  29.482  1.00  0.00    -0.248 NA
ATOM     52  C   UNL A   1      44.980  24.561  28.926  1.00  0.00     0.031 C 
ATOM     53  C   UNL A   1      46.688  29.838  31.399  1.00  0.00     0.029 A 
ATOM     54  C   UNL A   1      45.928  28.839  30.811  1.00  0.00     0.049 A 
ATOM     55  H   UNL A   1      43.919  28.900  30.172  1.00  0.00     0.167 HD
ATOM     56  C   UNL A   1      45.524  26.574  29.881  1.00  0.00     0.074 A 
ATOM     57  C   UNL A   1      45.944  25.229  29.545  1.00  0.00     0.031 C 
ATOM     58  C   UNL A   1      46.323  27.494  30.478  1.00  0.00     0.031 A 
BRANCH  45  59
ATOM     59  C   UNL A   1      43.597  32.954  31.482  1.00  0.00    -0.014 A 
ATOM     60  C   UNL A   1      43.961  34.000  30.614  1.00  0.00     0.010 A 
ATOM     61  C   UNL A   1      43.314  33.253  32.828  1.00  0.00     0.010 A 
ATOM     62  C   UNL A   1      44.087  35.308  31.092  1.00  0.00     0.020 A 
ATOM     63  C   UNL A   1      43.404  34.564  33.302  1.00  0.00     0.020 A 
ATOM     64  C   UNL A   1      43.808  35.581  32.433  1.00  0.00     0.054 A 
BRANCH  64  65
ATOM     65  S   UNL A   1      43.952  37.291  33.019  1.00  0.00     0.124 S 
ATOM     66  O   UNL A   1      45.238  37.264  33.713  1.00  0.00    -0.237 OA
ATOM     67  O   UNL A   1      43.928  38.057  31.775  1.00  0.00    -0.237 OA
ATOM     68  O   UNL A   1      42.784  37.464  33.878  1.00  0.00    -0.744 OA
ENDBRANCH  64  65
ENDBRANCH  45  59
BRANCH  46  69
ATOM     69  C   UNL A   1      42.395  23.710  27.831  1.00  0.00    -0.014 A 
ATOM     70  C   UNL A   1      42.816  23.425  26.520  1.00  0.00     0.010 A 
ATOM     71  C   UNL A   1      41.825  22.680  28.602  1.00  0.00     0.010 A 
ATOM     72  C   UNL A   1      42.649  22.145  25.981  1.00  0.00     0.020 A 
ATOM     73  C   UNL A   1      41.683  21.391  28.078  1.00  0.00     0.020 A 
ATOM     74  C   UNL A   1      42.083  21.136  26.765  1.00  0.00     0.054 A 
BRANCH  74  75
ATOM     75  S   UNL A   1      41.916  19.472  26.060  1.00  0.00     0.124 S 
ATOM     76  O   UNL A   1      42.723  19.573  24.848  1.00  0.00    -0.237 OA
ATOM     77  O   UNL A   1      42.462  18.626  27.117  1.00  0.00    -0.237 OA
ATOM     78  O   UNL A   1      40.476  19.336  25.846  1.00  0.00    -0.744 OA
ENDBRANCH  74  75
ENDBRANCH  46  69
BRANCH  58  79
ATOM     79  C   UNL A   1      47.714  27.064  30.858  1.00  0.00    -0.014 A 
ATOM     80  C   UNL A   1      48.816  27.321  30.025  1.00  0.00     0.010 A 
ATOM     81  C   UNL A   1      47.925  26.446  32.105  1.00  0.00     0.010 A 
ATOM     82  C   UNL A   1      50.100  26.934  30.416  1.00  0.00     0.020 A 
ATOM     83  C   UNL A   1      49.211  26.086  32.512  1.00  0.00     0.020 A 
ATOM     84  C   UNL A   1      50.289  26.319  31.657  1.00  0.00     0.054 A 
BRANCH  84  85
ATOM     85  S   UNL A   1      51.971  25.864  32.159  1.00  0.00     0.124 S 
ATOM     86  O   UNL A   1      52.641  25.710  30.872  1.00  0.00    -0.237 OA
ATOM     87  O   UNL A   1      52.391  27.016  32.953  1.00  0.00    -0.237 OA
ATOM     88  O   UNL A   1      51.785  24.628  32.917  1.00  0.00    -0.744 OA
ENDBRANCH  84  85
ENDBRANCH  58  79
ENDBRANCH  32  33
ENDBRANCH  24  27
ENDBRANCH  22  23
ENDBRANCH   1  22
TORSDOF 15
ENDMDL
MODEL 2
REMARK VINA RESULT:     -10.3      2.656      9.313
REMARK SMILES C[C@H]1OCC[C@H]1C(=O)Nc1ccsc1C(=O)NCCCNC(=O)c1ccc(-c2c3nc(c(-c4ccc(S(=O)(=O)[O-])cc4)c4ccc([nH]4)c(-c4ccc(S(=O)(=O)[O-])cc4)c4nc(c(-c5ccc(S(=O)(=O)[O-])cc5)c5ccc2[nH]5)C=C4)C=C3)cc1
REMARK SMILES IDX 19 1 18 2 17 3 15 4 16 5 14 7 10 8 11 9 12 10 13 11 9 12
REMARK SMILES IDX 7 13 8 14 6 16 1 17 2 18 3 19 4 20 5 21 20 22 21 23 22 24
REMARK SMILES IDX 23 26 24 27 25 28 83 29 26 30 82 31 27 32 28 33 29 34 76 35
REMARK SMILES IDX 30 36 81 37 75 38 77 39 31 40 80 41 74 42 73 43 32 45 62 46
REMARK SMILES IDX 43 47 61 48 44 49 47 50 60 51 78 52 45 53 46 54 59 56 79 57
REMARK SMILES IDX 48 58 33 59 34 60 42 61 35 62 41 63 36 64 37 65 38 66 39 67
REMARK SMILES IDX 40 68 63 69 64 70 72 71 65 72 71 73 66 74 67 75 68 76 69 77
REMARK SMILES IDX 70 78 49 79 50 80 58 81 51 82 57 83 52 84 53 85 54 86 55 87
REMARK SMILES IDX 56 88
REMARK H PARENT 17 6 9 15 21 25 77 44 47 55
REMARK Flexibility Score: inf
ROOT
ATOM      1  C   UNL A   1      35.791  23.356  24.598  1.00  0.00     0.042 C 
ENDROOT
BRANCH   1   2
ATOM      2  C   UNL A   1      34.350  23.796  24.690  1.00  0.00     0.118 C 
BRANCH   2   3
ATOM      3  N   UNL A   1      33.643  23.457  25.895  1.00  0.00    -0.351 N 
ATOM      4  C   UNL A   1      32.343  23.707  26.271  1.00  0.00     0.263 C 
ATOM      5  O   UNL A   1      32.054  23.233  27.377  1.00  0.00    -0.268 OA
ATOM      6  H   UNL A   1      34.177  22.967  26.561  1.00  0.00     0.163 HD
BRANCH   4   7
ATOM      7  C   UNL A   1      31.385  24.482  25.468  1.00  0.00     0.115 A 
ATOM      8  C   UNL A   1      30.633  25.647  25.632  1.00  0.00     0.065 A 
ATOM      9  C   UNL A   1      29.915  25.990  24.444  1.00  0.00     0.038 A 
ATOM     10  C   UNL A   1      30.035  25.058  23.445  1.00  0.00     0.068 A 
ATOM     11  S   UNL A   1      31.049  23.782  23.905  1.00  0.00    -0.137 S 
BRANCH   8  12
ATOM     12  N   UNL A   1      30.716  26.520  26.699  1.00  0.00    -0.324 N 
ATOM     13  C   UNL A   1      31.606  27.514  26.983  1.00  0.00     0.230 C 
ATOM     14  O   UNL A   1      31.357  28.162  28.012  1.00  0.00    -0.274 OA
ATOM     15  H   UNL A   1      30.008  26.405  27.373  1.00  0.00     0.169 HD
BRANCH  13  16
ATOM     16  C   UNL A   1      32.801  27.958  26.132  1.00  0.00     0.110 C 
ATOM     17  C   UNL A   1      31.200  29.603  24.975  1.00  0.00     0.039 C 
ATOM     18  C   UNL A   1      32.627  29.240  25.347  1.00  0.00     0.127 C 
ATOM     19  O   UNL A   1      33.264  30.265  26.120  1.00  0.00    -0.378 OA
ATOM     20  C   UNL A   1      34.339  29.658  26.854  1.00  0.00     0.161 C 
ATOM     21  C   UNL A   1      34.146  28.155  26.801  1.00  0.00     0.044 C 
ENDBRANCH  13  16
ENDBRANCH   8  12
ENDBRANCH   4   7
ENDBRANCH   2   3
ENDBRANCH   1   2
BRANCH   1  22
ATOM     22  C   UNL A   1      36.569  23.462  25.888  1.00  0.00     0.118 C 
BRANCH  22  23
ATOM     23  N   UNL A   1      37.789  22.669  25.910  1.00  0.00    -0.352 N 
ATOM     24  C   UNL A   1      39.066  22.970  26.339  1.00  0.00     0.251 C 
ATOM     25  H   UNL A   1      37.686  21.756  25.556  1.00  0.00     0.163 HD
ATOM     26  O   UNL A   1      39.964  22.159  26.160  1.00  0.00    -0.269 OA
BRANCH  24  27
ATOM     27  C   UNL A   1      39.364  24.277  26.974  1.00  0.00     0.039 A 
ATOM     28  C   UNL A   1      38.984  24.501  28.300  1.00  0.00     0.014 A 
ATOM     29  C   UNL A   1      40.019  25.286  26.274  1.00  0.00     0.014 A 
ATOM     30  C   UNL A   1      39.337  25.699  28.933  1.00  0.00     0.010 A 
ATOM     31  C   UNL A   1      40.514  26.392  26.946  1.00  0.00     0.010 A 
ATOM     32  C   UNL A   1      40.148  26.636  28.275  1.00  0.00    -0.014 A 
BRANCH  32  33
ATOM     33  C   UNL A   1      40.576  27.911  28.912  1.00  0.00     0.031 A 
ATOM     34  C   UNL A   1      41.962  28.017  29.505  1.00  0.00     0.074 A 
ATOM     35  C   UNL A   1      39.710  28.937  29.031  1.00  0.00     0.049 A 
ATOM     36  N   UNL A   1      42.489  28.987  30.207  1.00  0.00    -0.248 NA
ATOM     37  C   UNL A   1      42.857  26.858  29.329  1.00  0.00     0.031 C 
ATOM     38  C   UNL A   1      38.327  28.947  28.548  1.00  0.00     0.029 A 
ATOM     39  N   UNL A   1      39.865  30.175  29.605  1.00  0.00    -0.354 N 
ATOM     40  C   UNL A   1      43.751  28.538  30.583  1.00  0.00     0.074 A 
ATOM     41  C   UNL A   1      43.883  27.185  30.097  1.00  0.00     0.031 C 
ATOM     42  C   UNL A   1      37.776  30.144  28.810  1.00  0.00     0.029 A 
ATOM     43  C   UNL A   1      38.746  30.970  29.521  1.00  0.00     0.049 A 
ATOM     44  H   UNL A   1      40.701  30.466  30.037  1.00  0.00     0.167 HD
ATOM     45  C   UNL A   1      44.731  29.201  31.241  1.00  0.00     0.031 A 
ATOM     46  C   UNL A   1      38.526  32.222  29.968  1.00  0.00     0.031 A 
ATOM     47  C   UNL A   1      44.615  30.564  31.681  1.00  0.00     0.049 A 
ATOM     48  C   UNL A   1      39.635  32.950  30.678  1.00  0.00     0.074 A 
ATOM     49  C   UNL A   1      45.570  31.354  32.294  1.00  0.00     0.029 A 
ATOM     50  N   UNL A   1      43.476  31.343  31.541  1.00  0.00    -0.354 N 
ATOM     51  N   UNL A   1      40.843  32.527  30.971  1.00  0.00    -0.248 NA
ATOM     52  C   UNL A   1      39.360  34.329  31.102  1.00  0.00     0.031 C 
ATOM     53  C   UNL A   1      44.993  32.597  32.569  1.00  0.00     0.029 A 
ATOM     54  C   UNL A   1      43.700  32.602  32.069  1.00  0.00     0.049 A 
ATOM     55  H   UNL A   1      42.634  31.045  31.126  1.00  0.00     0.167 HD
ATOM     56  C   UNL A   1      41.482  33.602  31.580  1.00  0.00     0.074 A 
ATOM     57  C   UNL A   1      40.532  34.695  31.603  1.00  0.00     0.031 C 
ATOM     58  C   UNL A   1      42.744  33.679  32.073  1.00  0.00     0.031 A 
BRANCH  45  59
ATOM     59  C   UNL A   1      46.015  28.461  31.514  1.00  0.00    -0.014 A 
ATOM     60  C   UNL A   1      47.093  28.514  30.611  1.00  0.00     0.010 A 
ATOM     61  C   UNL A   1      46.159  27.725  32.704  1.00  0.00     0.010 A 
ATOM     62  C   UNL A   1      48.270  27.806  30.870  1.00  0.00     0.020 A 
ATOM     63  C   UNL A   1      47.347  27.045  32.984  1.00  0.00     0.020 A 
ATOM     64  C   UNL A   1      48.390  27.076  32.054  1.00  0.00     0.054 A 
BRANCH  64  65
ATOM     65  S   UNL A   1      49.940  26.191  32.376  1.00  0.00     0.124 S 
ATOM     66  O   UNL A   1      49.848  25.937  33.813  1.00  0.00    -0.237 OA
ATOM     67  O   UNL A   1      49.818  25.013  31.522  1.00  0.00    -0.237 OA
ATOM     68  O   UNL A   1      50.972  27.144  31.977  1.00  0.00    -0.744 OA
ENDBRANCH  64  65
ENDBRANCH  45  59
BRANCH  46  69
ATOM     69  C   UNL A   1      37.209  32.878  29.732  1.00  0.00    -0.014 A 
ATOM     70  C   UNL A   1      36.315  33.091  30.796  1.00  0.00     0.010 A 
ATOM     71  C   UNL A   1      36.843  33.302  28.440  1.00  0.00     0.010 A 
ATOM     72  C   UNL A   1      35.072  33.691  30.572  1.00  0.00     0.020 A 
ATOM     73  C   UNL A   1      35.614  33.930  28.217  1.00  0.00     0.020 A 
ATOM     74  C   UNL A   1      34.730  34.108  29.283  1.00  0.00     0.054 A 
BRANCH  74  75
ATOM     75  S   UNL A   1      33.130  34.923  29.023  1.00  0.00     0.124 S 
ATOM     76  O   UNL A   1      32.534  34.098  27.978  1.00  0.00    -0.237 OA
ATOM     77  O   UNL A   1      32.508  34.825  30.341  1.00  0.00    -0.237 OA
ATOM     78  O   UNL A   1      33.500  36.278  28.618  1.00  0.00    -0.744 OA
ENDBRANCH  74  75
ENDBRANCH  46  69
BRANCH  58  79
ATOM     79  C   UNL A   1      43.193  35.004  32.629  1.00  0.00    -0.014 A 
ATOM     80  C   UNL A   1      43.796  35.977  31.813  1.00  0.00     0.010 A 
ATOM     81  C   UNL A   1      42.947  35.299  33.983  1.00  0.00     0.010 A 
ATOM     82  C   UNL A   1      44.177  37.208  32.351  1.00  0.00     0.020 A 
ATOM     83  C   UNL A   1      43.299  36.540  34.516  1.00  0.00     0.020 A 
ATOM     84  C   UNL A   1      43.926  37.482  33.699  1.00  0.00     0.054 A 
BRANCH  84  85
ATOM     85  S   UNL A   1      44.395  39.103  34.363  1.00  0.00     0.124 S 
ATOM     86  O   UNL A   1      44.454  38.838  35.797  1.00  0.00    -0.237 OA
ATOM     87  O   UNL A   1      45.681  39.354  33.717  1.00  0.00    -0.237 OA
ATOM     88  O   UNL A   1      43.308  39.981  33.936  1.00  0.00    -0.744 OA
ENDBRANCH  84  85
ENDBRANCH  58  79
ENDBRANCH  32  33
ENDBRANCH  24  27
ENDBRANCH  22  23
ENDBRANCH   1  22
TORSDOF 15
ENDMDL
MODEL 3
REMARK VINA RESULT:     -10.2      1.278      2.219
REMARK SMILES C[C@H]1OCC[C@H]1C(=O)Nc1ccsc1C(=O)NCCCNC(=O)c1ccc(-c2c3nc(c(-c4ccc(S(=O)(=O)[O-])cc4)c4ccc([nH]4)c(-c4ccc(S(=O)(=O)[O-])cc4)c4nc(c(-c5ccc(S(=O)(=O)[O-])cc5)c5ccc2[nH]5)C=C4)C=C3)cc1
REMARK SMILES IDX 19 1 18 2 17 3 15 4 16 5 14 7 10 8 11 9 12 10 13 11 9 12
REMARK SMILES IDX 7 13 8 14 6 16 1 17 2 18 3 19 4 20 5 21 20 22 21 23 22 24
REMARK SMILES IDX 23 26 24 27 25 28 83 29 26 30 82 31 27 32 28 33 29 34 76 35
REMARK SMILES IDX 30 36 81 37 75 38 77 39 31 40 80 41 74 42 73 43 32 45 62 46
REMARK SMILES IDX 43 47 61 48 44 49 47 50 60 51 78 52 45 53 46 54 59 56 79 57
REMARK SMILES IDX 48 58 33 59 34 60 42 61 35 62 41 63 36 64 37 65 38 66 39 67
REMARK SMILES IDX 40 68 63 69 64 70 72 71 65 72 71 73 66 74 67 75 68 76 69 77
REMARK SMILES IDX 70 78 49 79 50 80 58 81 51 82 57 83 52 84 53 85 54 86 55 87
REMARK SMILES IDX 56 88
REMARK H PARENT 17 6 9 15 21 25 77 44 47 55
REMARK Flexibility Score: inf
ROOT
ATOM      1  C   UNL A   1      32.110  27.908  27.197  1.00  0.00     0.042 C 
ENDROOT
BRANCH   1   2
ATOM      2  C   UNL A   1      32.073  26.499  26.656  1.00  0.00     0.118 C 
BRANCH   2   3
ATOM      3  N   UNL A   1      31.081  26.213  25.654  1.00  0.00    -0.351 N 
ATOM      4  C   UNL A   1      31.092  26.433  24.295  1.00  0.00     0.263 C 
ATOM      5  O   UNL A   1      30.072  26.023  23.727  1.00  0.00    -0.268 OA
ATOM      6  H   UNL A   1      30.260  25.793  25.997  1.00  0.00     0.163 HD
BRANCH   4   7
ATOM      7  C   UNL A   1      32.181  27.110  23.577  1.00  0.00     0.115 A 
ATOM      8  C   UNL A   1      33.294  26.724  22.826  1.00  0.00     0.065 A 
ATOM      9  C   UNL A   1      33.981  27.850  22.273  1.00  0.00     0.038 A 
ATOM     10  C   UNL A   1      33.468  29.055  22.678  1.00  0.00     0.068 A 
ATOM     11  S   UNL A   1      32.127  28.850  23.691  1.00  0.00    -0.137 S 
BRANCH   8  12
ATOM     12  N   UNL A   1      33.602  25.433  22.441  1.00  0.00    -0.324 N 
ATOM     13  C   UNL A   1      34.052  24.363  23.157  1.00  0.00     0.230 C 
ATOM     14  O   UNL A   1      34.174  23.312  22.507  1.00  0.00    -0.274 OA
ATOM     15  H   UNL A   1      33.474  25.255  21.482  1.00  0.00     0.169 HD
BRANCH  13  16
ATOM     16  C   UNL A   1      34.329  24.306  24.663  1.00  0.00     0.110 C 
ATOM     17  C   UNL A   1      32.179  22.915  24.875  1.00  0.00     0.039 C 
ATOM     18  C   UNL A   1      33.528  23.296  25.456  1.00  0.00     0.127 C 
ATOM     19  O   UNL A   1      34.386  22.161  25.628  1.00  0.00    -0.378 OA
ATOM     20  C   UNL A   1      35.742  22.635  25.655  1.00  0.00     0.161 C 
ATOM     21  C   UNL A   1      35.745  24.061  25.141  1.00  0.00     0.044 C 
ENDBRANCH  13  16
ENDBRANCH   8  12
ENDBRANCH   4   7
ENDBRANCH   2   3
ENDBRANCH   1   2
BRANCH   1  22
ATOM     22  C   UNL A   1      33.478  28.548  27.201  1.00  0.00     0.118 C 
BRANCH  22  23
ATOM     23  N   UNL A   1      33.473  29.951  27.590  1.00  0.00    -0.352 N 
ATOM     24  C   UNL A   1      34.449  30.743  28.159  1.00  0.00     0.251 C 
ATOM     25  H   UNL A   1      32.623  30.417  27.416  1.00  0.00     0.163 HD
ATOM     26  O   UNL A   1      34.171  31.887  28.492  1.00  0.00    -0.269 OA
BRANCH  24  27
ATOM     27  C   UNL A   1      35.811  30.209  28.406  1.00  0.00     0.039 A 
ATOM     28  C   UNL A   1      36.760  30.244  27.380  1.00  0.00     0.014 A 
ATOM     29  C   UNL A   1      36.163  29.676  29.642  1.00  0.00     0.014 A 
ATOM     30  C   UNL A   1      38.071  29.822  27.631  1.00  0.00     0.010 A 
ATOM     31  C   UNL A   1      37.493  29.420  29.937  1.00  0.00     0.010 A 
ATOM     32  C   UNL A   1      38.462  29.451  28.927  1.00  0.00    -0.014 A 
BRANCH  32  33
ATOM     33  C   UNL A   1      39.848  29.022  29.253  1.00  0.00     0.031 A 
ATOM     34  C   UNL A   1      40.790  29.997  29.922  1.00  0.00     0.074 A 
ATOM     35  C   UNL A   1      40.289  27.803  28.884  1.00  0.00     0.049 A 
ATOM     36  N   UNL A   1      42.066  29.868  30.182  1.00  0.00    -0.248 NA
ATOM     37  C   UNL A   1      40.236  31.309  30.305  1.00  0.00     0.031 C 
ATOM     38  C   UNL A   1      39.499  26.785  28.185  1.00  0.00     0.029 A 
ATOM     39  N   UNL A   1      41.519  27.213  29.039  1.00  0.00    -0.354 N 
ATOM     40  C   UNL A   1      42.466  31.088  30.717  1.00  0.00     0.074 A 
ATOM     41  C   UNL A   1      41.321  31.967  30.678  1.00  0.00     0.031 C 
ATOM     42  C   UNL A   1      40.250  25.686  28.011  1.00  0.00     0.029 A 
ATOM     43  C   UNL A   1      41.588  25.934  28.539  1.00  0.00     0.049 A 
ATOM     44  H   UNL A   1      42.281  27.664  29.471  1.00  0.00     0.167 HD
ATOM     45  C   UNL A   1      43.668  31.440  31.232  1.00  0.00     0.031 A 
ATOM     46  C   UNL A   1      42.614  25.061  28.507  1.00  0.00     0.031 A 
ATOM     47  C   UNL A   1      44.791  30.549  31.316  1.00  0.00     0.049 A 
ATOM     48  C   UNL A   1      43.935  25.463  29.104  1.00  0.00     0.074 A 
ATOM     49  C   UNL A   1      46.032  30.780  31.881  1.00  0.00     0.029 A 
ATOM     50  N   UNL A   1      44.804  29.250  30.830  1.00  0.00    -0.354 N 
ATOM     51  N   UNL A   1      44.275  26.602  29.660  1.00  0.00    -0.248 NA
ATOM     52  C   UNL A   1      45.005  24.457  29.087  1.00  0.00     0.031 C 
ATOM     53  C   UNL A   1      46.813  29.635  31.694  1.00  0.00     0.029 A 
ATOM     54  C   UNL A   1      46.038  28.670  31.070  1.00  0.00     0.049 A 
ATOM     55  H   UNL A   1      44.048  28.806  30.382  1.00  0.00     0.167 HD
ATOM     56  C   UNL A   1      45.587  26.435  30.091  1.00  0.00     0.074 A 
ATOM     57  C   UNL A   1      45.973  25.084  29.742  1.00  0.00     0.031 C 
ATOM     58  C   UNL A   1      46.399  27.320  30.724  1.00  0.00     0.031 A 
BRANCH  45  59
ATOM     59  C   UNL A   1      43.820  32.846  31.754  1.00  0.00    -0.014 A 
ATOM     60  C   UNL A   1      43.549  33.158  33.099  1.00  0.00     0.010 A 
ATOM     61  C   UNL A   1      44.270  33.866  30.895  1.00  0.00     0.010 A 
ATOM     62  C   UNL A   1      43.678  34.470  33.563  1.00  0.00     0.020 A 
ATOM     63  C   UNL A   1      44.435  35.172  31.363  1.00  0.00     0.020 A 
ATOM     64  C   UNL A   1      44.119  35.469  32.692  1.00  0.00     0.054 A 
BRANCH  64  65
ATOM     65  S   UNL A   1      44.304  37.157  33.329  1.00  0.00     0.124 S 
ATOM     66  O   UNL A   1      42.944  37.462  33.769  1.00  0.00    -0.237 OA
ATOM     67  O   UNL A   1      45.286  36.989  34.397  1.00  0.00    -0.237 OA
ATOM     68  O   UNL A   1      44.769  37.916  32.171  1.00  0.00    -0.744 OA
ENDBRANCH  64  65
ENDBRANCH  45  59
BRANCH  46  69
ATOM     69  C   UNL A   1      42.424  23.707  27.912  1.00  0.00    -0.014 A 
ATOM     70  C   UNL A   1      42.661  23.488  26.544  1.00  0.00     0.010 A 
ATOM     71  C   UNL A   1      42.011  22.626  28.714  1.00  0.00     0.010 A 
ATOM     72  C   UNL A   1      42.466  22.222  25.982  1.00  0.00     0.020 A 
ATOM     73  C   UNL A   1      41.844  21.351  28.162  1.00  0.00     0.020 A 
ATOM     74  C   UNL A   1      42.059  21.162  26.796  1.00  0.00     0.054 A 
BRANCH  74  75
ATOM     75  S   UNL A   1      41.855  19.518  26.054  1.00  0.00     0.124 S 
ATOM     76  O   UNL A   1      42.730  19.600  24.888  1.00  0.00    -0.237 OA
ATOM     77  O   UNL A   1      42.304  18.631  27.123  1.00  0.00    -0.237 OA
ATOM     78  O   UNL A   1      40.424  19.452  25.760  1.00  0.00    -0.744 OA
ENDBRANCH  74  75
ENDBRANCH  46  69
BRANCH  58  79
ATOM     79  C   UNL A   1      47.766  26.840  31.131  1.00  0.00    -0.014 A 
ATOM     80  C   UNL A   1      48.017  26.347  32.422  1.00  0.00     0.010 A 
ATOM     81  C   UNL A   1      48.801  26.829  30.177  1.00  0.00     0.010 A 
ATOM     82  C   UNL A   1      49.290  25.883  32.763  1.00  0.00     0.020 A 
ATOM     83  C   UNL A   1      50.066  26.337  30.505  1.00  0.00     0.020 A 
ATOM     84  C   UNL A   1      50.306  25.881  31.802  1.00  0.00     0.054 A 
BRANCH  84  85
ATOM     85  S   UNL A   1      51.938  25.236  32.258  1.00  0.00     0.124 S 
ATOM     86  O   UNL A   1      52.066  25.684  33.642  1.00  0.00    -0.237 OA
ATOM     87  O   UNL A   1      51.775  23.796  32.077  1.00  0.00    -0.237 OA
ATOM     88  O   UNL A   1      52.844  25.879  31.309  1.00  0.00    -0.744 OA
ENDBRANCH  84  85
ENDBRANCH  58  79
ENDBRANCH  32  33
ENDBRANCH  24  27
ENDBRANCH  22  23
ENDBRANCH   1  22
TORSDOF 15
ENDMDL
