MODEL 1
REMARK VINA RESULT:     -11.6      0.000      0.000
REMARK SMILES CC(C)c1cc(OCC(=O)NCCCNC(=O)c2ccc(-c3c4nc(c(-c5ccc(S(=O)(=O)[O-])cc5)c5ccc([nH]5)c(-c5ccc(S(=O)(=O)[O-])cc5)c5nc(c(-c6ccc(S(=O)(=O)[O-])cc6)c6ccc3[nH]6)C=C5)C=C4)cc2)nc(Nc2ccc(F)cc2F)n1
REMARK SMILES IDX 12 1 11 2 9 3 10 4 8 6 7 7 6 8 4 9 5 10 89 11 79 12 78 13
REMARK SMILES IDX 2 14 1 15 3 16 80 17 81 19 82 20 87 21 83 22 86 23 88 24
REMARK SMILES IDX 84 25 85 26 13 27 14 28 15 29 16 30 17 32 18 33 19 34 77 35
REMARK SMILES IDX 20 36 76 37 21 38 22 39 23 40 70 41 24 42 75 43 69 44 71 45
REMARK SMILES IDX 25 46 74 47 68 48 67 49 26 51 56 52 37 53 55 54 38 55 41 56
REMARK SMILES IDX 54 57 72 58 39 59 40 60 53 62 73 63 42 64 27 65 28 66 36 67
REMARK SMILES IDX 29 68 35 69 30 70 31 71 32 72 33 73 34 74 57 75 58 76 66 77
REMARK SMILES IDX 59 78 65 79 60 80 61 81 62 82 63 83 64 84 43 85 44 86 52 87
REMARK SMILES IDX 45 88 51 89 46 90 47 91 48 92 49 93 50 94
REMARK H PARENT 11 5 80 18 15 31 71 50 41 61
REMARK Flexibility Score: inf
ROOT
ATOM      1  C   UNL A   1      40.153  21.321  26.741  1.00  0.00     0.117 C 
ENDROOT
BRANCH   1   2
ATOM      2  N   UNL A   1      39.351  22.523  26.877  1.00  0.00    -0.353 N 
ATOM      3  C   UNL A   1      38.253  22.894  26.161  1.00  0.00     0.258 C 
ATOM      4  O   UNL A   1      37.672  23.941  26.459  1.00  0.00    -0.271 OA
ATOM      5  H   UNL A   1      39.637  23.152  27.578  1.00  0.00     0.163 HD
BRANCH   3   6
ATOM      6  C   UNL A   1      37.746  22.003  25.019  1.00  0.00     0.331 C 
BRANCH   6   7
ATOM      7  O   UNL A   1      36.905  20.924  25.379  1.00  0.00    -0.467 OA
BRANCH   7   8
ATOM      8  C   UNL A   1      35.596  20.964  24.986  1.00  0.00     0.218 A 
ATOM      9  C   UNL A   1      33.461  20.119  24.533  1.00  0.00     0.052 A 
ATOM     10  C   UNL A   1      34.773  19.867  24.860  1.00  0.00     0.092 A 
ATOM     11  N   UNL A   1      33.019  21.366  24.318  1.00  0.00    -0.217 NA
ATOM     12  C   UNL A   1      33.887  22.382  24.419  1.00  0.00     0.230 A 
ATOM     13  N   UNL A   1      35.176  22.217  24.740  1.00  0.00    -0.177 NA
BRANCH   9  14
ATOM     14  C   UNL A   1      32.450  18.992  24.482  1.00  0.00     0.032 C 
ATOM     15  C   UNL A   1      32.411  18.395  23.074  1.00  0.00     0.014 C 
ATOM     16  C   UNL A   1      32.741  17.903  25.517  1.00  0.00     0.014 C 
ENDBRANCH   9  14
BRANCH  12  17
ATOM     17  N   UNL A   1      33.467  23.666  24.081  1.00  0.00    -0.322 N 
ATOM     18  H   UNL A   1      33.584  23.928  23.140  1.00  0.00     0.170 HD
BRANCH  17  19
ATOM     19  C   UNL A   1      32.896  24.624  24.927  1.00  0.00     0.077 A 
ATOM     20  C   UNL A   1      33.701  25.645  25.451  1.00  0.00     0.032 A 
ATOM     21  C   UNL A   1      31.511  24.678  25.178  1.00  0.00     0.149 A 
ATOM     22  C   UNL A   1      33.131  26.694  26.181  1.00  0.00     0.041 A 
ATOM     23  C   UNL A   1      30.940  25.707  25.919  1.00  0.00     0.080 A 
ATOM     24  F   UNL A   1      30.706  23.700  24.734  1.00  0.00    -0.205 F 
ATOM     25  C   UNL A   1      31.758  26.715  26.403  1.00  0.00     0.126 A 
ATOM     26  F   UNL A   1      31.217  27.732  27.087  1.00  0.00    -0.207 F 
ENDBRANCH  17  19
ENDBRANCH  12  17
ENDBRANCH   7   8
ENDBRANCH   6   7
ENDBRANCH   3   6
ENDBRANCH   1   2
BRANCH   1  27
ATOM     27  C   UNL A   1      41.649  21.589  26.862  1.00  0.00     0.042 C 
BRANCH  27  28
ATOM     28  C   UNL A   1      42.016  23.035  27.191  1.00  0.00     0.118 C 
BRANCH  28  29
ATOM     29  N   UNL A   1      41.795  23.951  26.079  1.00  0.00    -0.352 N 
ATOM     30  C   UNL A   1      41.460  25.283  26.067  1.00  0.00     0.251 C 
ATOM     31  H   UNL A   1      41.903  23.549  25.186  1.00  0.00     0.163 HD
ATOM     32  O   UNL A   1      41.164  25.817  24.998  1.00  0.00    -0.269 OA
BRANCH  30  33
ATOM     33  C   UNL A   1      41.424  26.073  27.318  1.00  0.00     0.039 A 
ATOM     34  C   UNL A   1      42.450  26.993  27.562  1.00  0.00     0.014 A 
ATOM     35  C   UNL A   1      40.405  25.904  28.258  1.00  0.00     0.014 A 
ATOM     36  C   UNL A   1      42.403  27.803  28.700  1.00  0.00     0.010 A 
ATOM     37  C   UNL A   1      40.321  26.761  29.355  1.00  0.00     0.010 A 
ATOM     38  C   UNL A   1      41.310  27.731  29.579  1.00  0.00    -0.014 A 
BRANCH  38  39
ATOM     39  C   UNL A   1      41.154  28.699  30.697  1.00  0.00     0.031 A 
ATOM     40  C   UNL A   1      42.009  28.596  31.930  1.00  0.00     0.074 A 
ATOM     41  C   UNL A   1      40.180  29.629  30.629  1.00  0.00     0.049 A 
ATOM     42  N   UNL A   1      41.956  29.304  33.030  1.00  0.00    -0.248 NA
ATOM     43  C   UNL A   1      43.045  27.551  31.938  1.00  0.00     0.031 C 
ATOM     44  C   UNL A   1      39.262  29.812  29.502  1.00  0.00     0.029 A 
ATOM     45  N   UNL A   1      39.790  30.588  31.530  1.00  0.00    -0.354 N 
ATOM     46  C   UNL A   1      42.940  28.787  33.864  1.00  0.00     0.074 A 
ATOM     47  C   UNL A   1      43.546  27.676  33.160  1.00  0.00     0.031 C 
ATOM     48  C   UNL A   1      38.432  30.833  29.771  1.00  0.00     0.029 A 
ATOM     49  C   UNL A   1      38.720  31.342  31.107  1.00  0.00     0.049 A 
ATOM     50  H   UNL A   1      40.234  30.725  32.399  1.00  0.00     0.167 HD
ATOM     51  C   UNL A   1      43.312  29.204  35.099  1.00  0.00     0.031 A 
ATOM     52  C   UNL A   1      38.031  32.320  31.727  1.00  0.00     0.031 A 
ATOM     53  C   UNL A   1      42.700  30.304  35.799  1.00  0.00     0.049 A 
ATOM     54  C   UNL A   1      38.436  32.736  33.114  1.00  0.00     0.074 A 
ATOM     55  C   UNL A   1      43.042  30.834  37.031  1.00  0.00     0.029 A 
ATOM     56  N   UNL A   1      41.615  31.035  35.339  1.00  0.00    -0.354 N 
ATOM     57  N   UNL A   1      39.415  32.280  33.857  1.00  0.00    -0.248 NA
ATOM     58  C   UNL A   1      37.645  33.803  33.744  1.00  0.00     0.031 C 
ATOM     59  C   UNL A   1      42.123  31.841  37.346  1.00  0.00     0.029 A 
ATOM     60  C   UNL A   1      41.251  31.986  36.279  1.00  0.00     0.049 A 
ATOM     61  H   UNL A   1      41.168  30.897  34.473  1.00  0.00     0.167 HD
ATOM     62  C   UNL A   1      39.372  33.018  35.035  1.00  0.00     0.074 A 
ATOM     63  C   UNL A   1      38.285  33.966  34.894  1.00  0.00     0.031 C 
ATOM     64  C   UNL A   1      40.160  32.917  36.134  1.00  0.00     0.031 A 
BRANCH  51  65
ATOM     65  C   UNL A   1      44.428  28.457  35.784  1.00  0.00    -0.014 A 
ATOM     66  C   UNL A   1      45.770  28.856  35.640  1.00  0.00     0.010 A 
ATOM     67  C   UNL A   1      44.127  27.371  36.629  1.00  0.00     0.010 A 
ATOM     68  C   UNL A   1      46.790  28.161  36.294  1.00  0.00     0.020 A 
ATOM     69  C   UNL A   1      45.143  26.692  37.309  1.00  0.00     0.020 A 
ATOM     70  C   UNL A   1      46.471  27.082  37.124  1.00  0.00     0.054 A 
BRANCH  70  71
ATOM     71  S   UNL A   1      47.816  26.216  37.979  1.00  0.00     0.124 S 
ATOM     72  O   UNL A   1      47.096  25.158  38.683  1.00  0.00    -0.237 OA
ATOM     73  O   UNL A   1      48.662  25.772  36.874  1.00  0.00    -0.237 OA
ATOM     74  O   UNL A   1      48.403  27.245  38.835  1.00  0.00    -0.744 OA
ENDBRANCH  70  71
ENDBRANCH  51  65
BRANCH  52  75
ATOM     75  C   UNL A   1      36.879  32.968  31.040  1.00  0.00    -0.014 A 
ATOM     76  C   UNL A   1      35.571  32.805  31.530  1.00  0.00     0.010 A 
ATOM     77  C   UNL A   1      37.085  33.762  29.897  1.00  0.00     0.010 A 
ATOM     78  C   UNL A   1      34.491  33.411  30.880  1.00  0.00     0.020 A 
ATOM     79  C   UNL A   1      36.013  34.395  29.264  1.00  0.00     0.020 A 
ATOM     80  C   UNL A   1      34.719  34.205  29.753  1.00  0.00     0.054 A 
BRANCH  80  81
ATOM     81  S   UNL A   1      33.308  35.024  28.959  1.00  0.00     0.124 S 
ATOM     82  O   UNL A   1      33.928  36.214  28.388  1.00  0.00    -0.237 OA
ATOM     83  O   UNL A   1      32.862  34.018  27.999  1.00  0.00    -0.237 OA
ATOM     84  O   UNL A   1      32.386  35.267  30.067  1.00  0.00    -0.744 OA
ENDBRANCH  80  81
ENDBRANCH  52  75
BRANCH  64  85
ATOM     85  C   UNL A   1      39.890  33.872  37.269  1.00  0.00    -0.014 A 
ATOM     86  C   UNL A   1      40.434  35.169  37.276  1.00  0.00     0.010 A 
ATOM     87  C   UNL A   1      39.040  33.482  38.320  1.00  0.00     0.010 A 
ATOM     88  C   UNL A   1      40.159  36.046  38.329  1.00  0.00     0.020 A 
ATOM     89  C   UNL A   1      38.737  34.366  39.358  1.00  0.00     0.020 A 
ATOM     90  C   UNL A   1      39.310  35.639  39.363  1.00  0.00     0.054 A 
BRANCH  90  91
ATOM     91  S   UNL A   1      38.935  36.813  40.695  1.00  0.00     0.124 S 
ATOM     92  O   UNL A   1      38.147  35.992  41.610  1.00  0.00    -0.237 OA
ATOM     93  O   UNL A   1      40.263  37.190  41.172  1.00  0.00    -0.237 OA
ATOM     94  O   UNL A   1      38.196  37.878  40.021  1.00  0.00    -0.744 OA
ENDBRANCH  90  91
ENDBRANCH  64  85
ENDBRANCH  38  39
ENDBRANCH  30  33
ENDBRANCH  28  29
ENDBRANCH  27  28
ENDBRANCH   1  27
TORSDOF 18
ENDMDL
MODEL 2
REMARK VINA RESULT:     -11.4      1.578      3.299
REMARK SMILES CC(C)c1cc(OCC(=O)NCCCNC(=O)c2ccc(-c3c4nc(c(-c5ccc(S(=O)(=O)[O-])cc5)c5ccc([nH]5)c(-c5ccc(S(=O)(=O)[O-])cc5)c5nc(c(-c6ccc(S(=O)(=O)[O-])cc6)c6ccc3[nH]6)C=C5)C=C4)cc2)nc(Nc2ccc(F)cc2F)n1
REMARK SMILES IDX 12 1 11 2 9 3 10 4 8 6 7 7 6 8 4 9 5 10 89 11 79 12 78 13
REMARK SMILES IDX 2 14 1 15 3 16 80 17 81 19 82 20 87 21 83 22 86 23 88 24
REMARK SMILES IDX 84 25 85 26 13 27 14 28 15 29 16 30 17 32 18 33 19 34 77 35
REMARK SMILES IDX 20 36 76 37 21 38 22 39 23 40 70 41 24 42 75 43 69 44 71 45
REMARK SMILES IDX 25 46 74 47 68 48 67 49 26 51 56 52 37 53 55 54 38 55 41 56
REMARK SMILES IDX 54 57 72 58 39 59 40 60 53 62 73 63 42 64 27 65 28 66 36 67
REMARK SMILES IDX 29 68 35 69 30 70 31 71 32 72 33 73 34 74 57 75 58 76 66 77
REMARK SMILES IDX 59 78 65 79 60 80 61 81 62 82 63 83 64 84 43 85 44 86 52 87
REMARK SMILES IDX 45 88 51 89 46 90 47 91 48 92 49 93 50 94
REMARK H PARENT 11 5 80 18 15 31 71 50 41 61
REMARK Flexibility Score: inf
ROOT
ATOM      1  C   UNL A   1      39.841  21.615  26.257  1.00  0.00     0.117 C 
ENDROOT
BRANCH   1   2
ATOM      2  N   UNL A   1      39.146  22.820  26.672  1.00  0.00    -0.353 N 
ATOM      3  C   UNL A   1      38.041  23.394  26.117  1.00  0.00     0.258 C 
ATOM      4  O   UNL A   1      37.563  24.400  26.648  1.00  0.00    -0.271 OA
ATOM      5  H   UNL A   1      39.520  23.282  27.457  1.00  0.00     0.163 HD
BRANCH   3   6
ATOM      6  C   UNL A   1      37.401  22.776  24.868  1.00  0.00     0.331 C 
BRANCH   6   7
ATOM      7  O   UNL A   1      36.527  21.683  25.074  1.00  0.00    -0.467 OA
BRANCH   7   8
ATOM      8  C   UNL A   1      35.183  21.893  24.930  1.00  0.00     0.218 A 
ATOM      9  C   UNL A   1      33.195  23.126  24.870  1.00  0.00     0.052 A 
ATOM     10  C   UNL A   1      34.542  23.091  25.149  1.00  0.00     0.092 A 
ATOM     11  N   UNL A   1      32.541  22.038  24.437  1.00  0.00    -0.217 NA
ATOM     12  C   UNL A   1      33.223  20.895  24.286  1.00  0.00     0.230 A 
ATOM     13  N   UNL A   1      34.534  20.785  24.530  1.00  0.00    -0.177 NA
BRANCH   9  14
ATOM     14  C   UNL A   1      32.421  24.423  24.968  1.00  0.00     0.032 C 
ATOM     15  C   UNL A   1      33.299  25.586  24.502  1.00  0.00     0.014 C 
ATOM     16  C   UNL A   1      31.117  24.384  24.167  1.00  0.00     0.014 C 
ENDBRANCH   9  14
BRANCH  12  17
ATOM     17  N   UNL A   1      32.531  19.734  23.953  1.00  0.00    -0.322 N 
ATOM     18  H   UNL A   1      31.742  19.847  23.376  1.00  0.00     0.170 HD
BRANCH  17  19
ATOM     19  C   UNL A   1      32.830  18.423  24.346  1.00  0.00     0.077 A 
ATOM     20  C   UNL A   1      32.588  18.030  25.670  1.00  0.00     0.032 A 
ATOM     21  C   UNL A   1      33.254  17.441  23.431  1.00  0.00     0.149 A 
ATOM     22  C   UNL A   1      32.743  16.694  26.053  1.00  0.00     0.041 A 
ATOM     23  C   UNL A   1      33.428  16.114  23.809  1.00  0.00     0.080 A 
ATOM     24  F   UNL A   1      33.541  17.777  22.163  1.00  0.00    -0.205 F 
ATOM     25  C   UNL A   1      33.157  15.751  25.118  1.00  0.00     0.126 A 
ATOM     26  F   UNL A   1      33.285  14.469  25.487  1.00  0.00    -0.207 F 
ENDBRANCH  17  19
ENDBRANCH  12  17
ENDBRANCH   7   8
ENDBRANCH   6   7
ENDBRANCH   3   6
ENDBRANCH   1   2
BRANCH   1  27
ATOM     27  C   UNL A   1      41.317  21.621  26.636  1.00  0.00     0.042 C 
BRANCH  27  28
ATOM     28  C   UNL A   1      41.863  22.984  27.061  1.00  0.00     0.118 C 
BRANCH  28  29
ATOM     29  N   UNL A   1      41.924  23.945  25.967  1.00  0.00    -0.352 N 
ATOM     30  C   UNL A   1      41.783  25.311  25.965  1.00  0.00     0.251 C 
ATOM     31  H   UNL A   1      42.094  23.550  25.081  1.00  0.00     0.163 HD
ATOM     32  O   UNL A   1      41.710  25.904  24.888  1.00  0.00    -0.269 OA
BRANCH  30  33
ATOM     33  C   UNL A   1      41.690  26.072  27.231  1.00  0.00     0.039 A 
ATOM     34  C   UNL A   1      42.719  26.960  27.559  1.00  0.00     0.014 A 
ATOM     35  C   UNL A   1      40.611  25.906  28.103  1.00  0.00     0.014 A 
ATOM     36  C   UNL A   1      42.622  27.744  28.712  1.00  0.00     0.010 A 
ATOM     37  C   UNL A   1      40.481  26.739  29.214  1.00  0.00     0.010 A 
ATOM     38  C   UNL A   1      41.477  27.679  29.521  1.00  0.00    -0.014 A 
BRANCH  38  39
ATOM     39  C   UNL A   1      41.276  28.623  30.652  1.00  0.00     0.031 A 
ATOM     40  C   UNL A   1      42.104  28.515  31.903  1.00  0.00     0.074 A 
ATOM     41  C   UNL A   1      40.286  29.536  30.577  1.00  0.00     0.049 A 
ATOM     42  N   UNL A   1      42.011  29.203  33.014  1.00  0.00    -0.248 NA
ATOM     43  C   UNL A   1      43.159  27.490  31.918  1.00  0.00     0.031 C 
ATOM     44  C   UNL A   1      39.391  29.722  29.432  1.00  0.00     0.029 A 
ATOM     45  N   UNL A   1      39.856  30.472  31.485  1.00  0.00    -0.354 N 
ATOM     46  C   UNL A   1      42.985  28.689  33.862  1.00  0.00     0.074 A 
ATOM     47  C   UNL A   1      43.629  27.603  33.153  1.00  0.00     0.031 C 
ATOM     48  C   UNL A   1      38.535  30.721  29.698  1.00  0.00     0.029 A 
ATOM     49  C   UNL A   1      38.783  31.212  31.049  1.00  0.00     0.049 A 
ATOM     50  H   UNL A   1      40.277  30.601  32.366  1.00  0.00     0.167 HD
ATOM     51  C   UNL A   1      43.319  29.091  35.112  1.00  0.00     0.031 A 
ATOM     52  C   UNL A   1      38.060  32.166  31.669  1.00  0.00     0.031 A 
ATOM     53  C   UNL A   1      42.670  30.167  35.817  1.00  0.00     0.049 A 
ATOM     54  C   UNL A   1      38.424  32.565  33.072  1.00  0.00     0.074 A 
ATOM     55  C   UNL A   1      42.972  30.682  37.065  1.00  0.00     0.029 A 
ATOM     56  N   UNL A   1      41.582  30.886  35.343  1.00  0.00    -0.354 N 
ATOM     57  N   UNL A   1      39.394  32.115  33.831  1.00  0.00    -0.248 NA
ATOM     58  C   UNL A   1      37.598  33.605  33.701  1.00  0.00     0.031 C 
ATOM     59  C   UNL A   1      42.027  31.665  37.375  1.00  0.00     0.029 A 
ATOM     60  C   UNL A   1      41.177  31.812  36.291  1.00  0.00     0.049 A 
ATOM     61  H   UNL A   1      41.158  30.754  34.464  1.00  0.00     0.167 HD
ATOM     62  C   UNL A   1      39.308  32.831  35.020  1.00  0.00     0.074 A 
ATOM     63  C   UNL A   1      38.208  33.760  34.869  1.00  0.00     0.031 C 
ATOM     64  C   UNL A   1      40.072  32.726  36.135  1.00  0.00     0.031 A 
BRANCH  51  65
ATOM     65  C   UNL A   1      44.433  28.353  35.811  1.00  0.00    -0.014 A 
ATOM     66  C   UNL A   1      45.780  28.706  35.609  1.00  0.00     0.010 A 
ATOM     67  C   UNL A   1      44.126  27.327  36.725  1.00  0.00     0.010 A 
ATOM     68  C   UNL A   1      46.799  28.021  36.276  1.00  0.00     0.020 A 
ATOM     69  C   UNL A   1      45.142  26.660  37.417  1.00  0.00     0.020 A 
ATOM     70  C   UNL A   1      46.474  27.001  37.176  1.00  0.00     0.054 A 
BRANCH  70  71
ATOM     71  S   UNL A   1      47.818  26.147  38.045  1.00  0.00     0.124 S 
ATOM     72  O   UNL A   1      48.135  25.062  37.120  1.00  0.00    -0.237 OA
ATOM     73  O   UNL A   1      48.835  27.190  38.161  1.00  0.00    -0.237 OA
ATOM     74  O   UNL A   1      47.208  25.732  39.306  1.00  0.00    -0.744 OA
ENDBRANCH  70  71
ENDBRANCH  51  65
BRANCH  52  75
ATOM     75  C   UNL A   1      36.912  32.804  30.966  1.00  0.00    -0.014 A 
ATOM     76  C   UNL A   1      35.597  32.360  31.195  1.00  0.00     0.010 A 
ATOM     77  C   UNL A   1      37.126  33.868  30.071  1.00  0.00     0.010 A 
ATOM     78  C   UNL A   1      34.522  32.959  30.531  1.00  0.00     0.020 A 
ATOM     79  C   UNL A   1      36.053  34.489  29.429  1.00  0.00     0.020 A 
ATOM     80  C   UNL A   1      34.756  34.022  29.654  1.00  0.00     0.054 A 
BRANCH  80  81
ATOM     81  S   UNL A   1      33.340  34.816  28.844  1.00  0.00     0.124 S 
ATOM     82  O   UNL A   1      32.484  35.143  29.979  1.00  0.00    -0.237 OA
ATOM     83  O   UNL A   1      33.961  35.953  28.170  1.00  0.00    -0.237 OA
ATOM     84  O   UNL A   1      32.829  33.776  27.953  1.00  0.00    -0.744 OA
ENDBRANCH  80  81
ENDBRANCH  52  75
BRANCH  64  85
ATOM     85  C   UNL A   1      39.757  33.655  37.280  1.00  0.00    -0.014 A 
ATOM     86  C   UNL A   1      38.906  33.257  38.327  1.00  0.00     0.010 A 
ATOM     87  C   UNL A   1      40.360  34.924  37.334  1.00  0.00     0.010 A 
ATOM     88  C   UNL A   1      38.639  34.126  39.390  1.00  0.00     0.020 A 
ATOM     89  C   UNL A   1      40.121  35.783  38.408  1.00  0.00     0.020 A 
ATOM     90  C   UNL A   1      39.250  35.384  39.424  1.00  0.00     0.054 A 
BRANCH  90  91
ATOM     91  S   UNL A   1      38.920  36.474  40.836  1.00  0.00     0.124 S 
ATOM     92  O   UNL A   1      38.441  37.687  40.178  1.00  0.00    -0.237 OA
ATOM     93  O   UNL A   1      37.915  35.728  41.588  1.00  0.00    -0.237 OA
ATOM     94  O   UNL A   1      40.219  36.595  41.493  1.00  0.00    -0.744 OA
ENDBRANCH  90  91
ENDBRANCH  64  85
ENDBRANCH  38  39
ENDBRANCH  30  33
ENDBRANCH  28  29
ENDBRANCH  27  28
ENDBRANCH   1  27
TORSDOF 18
ENDMDL
MODEL 3
REMARK VINA RESULT:     -10.9      2.028      8.788
REMARK SMILES CC(C)c1cc(OCC(=O)NCCCNC(=O)c2ccc(-c3c4nc(c(-c5ccc(S(=O)(=O)[O-])cc5)c5ccc([nH]5)c(-c5ccc(S(=O)(=O)[O-])cc5)c5nc(c(-c6ccc(S(=O)(=O)[O-])cc6)c6ccc3[nH]6)C=C5)C=C4)cc2)nc(Nc2ccc(F)cc2F)n1
REMARK SMILES IDX 12 1 11 2 9 3 10 4 8 6 7 7 6 8 4 9 5 10 89 11 79 12 78 13
REMARK SMILES IDX 2 14 1 15 3 16 80 17 81 19 82 20 87 21 83 22 86 23 88 24
REMARK SMILES IDX 84 25 85 26 13 27 14 28 15 29 16 30 17 32 18 33 19 34 77 35
REMARK SMILES IDX 20 36 76 37 21 38 22 39 23 40 70 41 24 42 75 43 69 44 71 45
REMARK SMILES IDX 25 46 74 47 68 48 67 49 26 51 56 52 37 53 55 54 38 55 41 56
REMARK SMILES IDX 54 57 72 58 39 59 40 60 53 62 73 63 42 64 27 65 28 66 36 67
REMARK SMILES IDX 29 68 35 69 30 70 31 71 32 72 33 73 34 74 57 75 58 76 66 77
REMARK SMILES IDX 59 78 65 79 60 80 61 81 62 82 63 83 64 84 43 85 44 86 52 87
REMARK SMILES IDX 45 88 51 89 46 90 47 91 48 92 49 93 50 94
REMARK H PARENT 11 5 80 18 15 31 71 50 41 61
REMARK Flexibility Score: inf
ROOT
ATOM      1  C   UNL A   1      43.528  21.528  25.579  1.00  0.00     0.117 C 
ENDROOT
BRANCH   1   2
ATOM      2  N   UNL A   1      43.552  20.136  25.992  1.00  0.00    -0.353 N 
ATOM      3  C   UNL A   1      42.499  19.303  26.222  1.00  0.00     0.258 C 
ATOM      4  O   UNL A   1      42.723  18.127  26.522  1.00  0.00    -0.271 OA
ATOM      5  H   UNL A   1      44.445  19.743  26.122  1.00  0.00     0.163 HD
BRANCH   3   6
ATOM      6  C   UNL A   1      41.063  19.826  26.085  1.00  0.00     0.331 C 
BRANCH   6   7
ATOM      7  O   UNL A   1      40.592  20.673  27.116  1.00  0.00    -0.467 OA
BRANCH   7   8
ATOM      8  C   UNL A   1      39.836  21.758  26.768  1.00  0.00     0.218 A 
ATOM      9  C   UNL A   1      39.180  24.004  26.754  1.00  0.00     0.052 A 
ATOM     10  C   UNL A   1      39.980  23.023  27.292  1.00  0.00     0.092 A 
ATOM     11  N   UNL A   1      38.287  23.731  25.792  1.00  0.00    -0.217 NA
ATOM     12  C   UNL A   1      38.175  22.468  25.358  1.00  0.00     0.230 A 
ATOM     13  N   UNL A   1      38.922  21.462  25.828  1.00  0.00    -0.177 NA
BRANCH   9  14
ATOM     14  C   UNL A   1      39.340  25.448  27.180  1.00  0.00     0.032 C 
ATOM     15  C   UNL A   1      39.585  25.519  28.688  1.00  0.00     0.014 C 
ATOM     16  C   UNL A   1      40.465  26.156  26.421  1.00  0.00     0.014 C 
ENDBRANCH   9  14
BRANCH  12  17
ATOM     17  N   UNL A   1      37.170  22.153  24.447  1.00  0.00    -0.322 N 
ATOM     18  H   UNL A   1      37.408  22.219  23.495  1.00  0.00     0.170 HD
BRANCH  17  19
ATOM     19  C   UNL A   1      35.859  21.750  24.733  1.00  0.00     0.077 A 
ATOM     20  C   UNL A   1      34.834  22.707  24.746  1.00  0.00     0.032 A 
ATOM     21  C   UNL A   1      35.503  20.397  24.888  1.00  0.00     0.149 A 
ATOM     22  C   UNL A   1      33.499  22.313  24.886  1.00  0.00     0.041 A 
ATOM     23  C   UNL A   1      34.180  20.000  25.047  1.00  0.00     0.080 A 
ATOM     24  F   UNL A   1      36.453  19.449  24.927  1.00  0.00    -0.205 F 
ATOM     25  C   UNL A   1      33.187  20.966  25.031  1.00  0.00     0.126 A 
ATOM     26  F   UNL A   1      31.905  20.595  25.146  1.00  0.00    -0.207 F 
ENDBRANCH  17  19
ENDBRANCH  12  17
ENDBRANCH   7   8
ENDBRANCH   6   7
ENDBRANCH   3   6
ENDBRANCH   1   2
BRANCH   1  27
ATOM     27  C   UNL A   1      43.684  22.495  26.746  1.00  0.00     0.042 C 
BRANCH  27  28
ATOM     28  C   UNL A   1      43.238  23.927  26.455  1.00  0.00     0.118 C 
BRANCH  28  29
ATOM     29  N   UNL A   1      44.318  24.780  25.974  1.00  0.00    -0.352 N 
ATOM     30  C   UNL A   1      44.642  26.078  26.285  1.00  0.00     0.251 C 
ATOM     31  H   UNL A   1      44.915  24.355  25.316  1.00  0.00     0.163 HD
ATOM     32  O   UNL A   1      45.510  26.652  25.627  1.00  0.00    -0.269 OA
BRANCH  30  33
ATOM     33  C   UNL A   1      43.948  26.799  27.374  1.00  0.00     0.039 A 
ATOM     34  C   UNL A   1      43.468  26.066  28.465  1.00  0.00     0.014 A 
ATOM     35  C   UNL A   1      43.750  28.180  27.324  1.00  0.00     0.014 A 
ATOM     36  C   UNL A   1      42.873  26.730  29.542  1.00  0.00     0.010 A 
ATOM     37  C   UNL A   1      43.222  28.848  28.429  1.00  0.00     0.010 A 
ATOM     38  C   UNL A   1      42.793  28.131  29.557  1.00  0.00    -0.014 A 
BRANCH  38  39
ATOM     39  C   UNL A   1      42.324  28.865  30.762  1.00  0.00     0.031 A 
ATOM     40  C   UNL A   1      41.074  29.701  30.718  1.00  0.00     0.074 A 
ATOM     41  C   UNL A   1      43.075  28.838  31.882  1.00  0.00     0.049 A 
ATOM     42  N   UNL A   1      40.562  30.467  31.648  1.00  0.00    -0.248 NA
ATOM     43  C   UNL A   1      40.310  29.691  29.460  1.00  0.00     0.031 C 
ATOM     44  C   UNL A   1      44.326  28.092  32.043  1.00  0.00     0.029 A 
ATOM     45  N   UNL A   1      42.905  29.462  33.093  1.00  0.00    -0.354 N 
ATOM     46  C   UNL A   1      39.425  31.038  31.088  1.00  0.00     0.074 A 
ATOM     47  C   UNL A   1      39.346  30.563  29.722  1.00  0.00     0.031 C 
ATOM     48  C   UNL A   1      44.797  28.285  33.286  1.00  0.00     0.029 A 
ATOM     49  C   UNL A   1      43.915  29.208  33.991  1.00  0.00     0.049 A 
ATOM     50  H   UNL A   1      42.132  30.037  33.300  1.00  0.00     0.167 HD
ATOM     51  C   UNL A   1      38.524  31.872  31.661  1.00  0.00     0.031 A 
ATOM     52  C   UNL A   1      44.124  29.677  35.237  1.00  0.00     0.031 A 
ATOM     53  C   UNL A   1      38.611  32.348  33.018  1.00  0.00     0.049 A 
ATOM     54  C   UNL A   1      43.133  30.636  35.836  1.00  0.00     0.074 A 
ATOM     55  C   UNL A   1      37.720  33.154  33.705  1.00  0.00     0.029 A 
ATOM     56  N   UNL A   1      39.654  32.074  33.892  1.00  0.00    -0.354 N 
ATOM     57  N   UNL A   1      42.026  31.108  35.314  1.00  0.00    -0.248 NA
ATOM     58  C   UNL A   1      43.415  31.121  37.194  1.00  0.00     0.031 C 
ATOM     59  C   UNL A   1      38.255  33.422  34.969  1.00  0.00     0.029 A 
ATOM     60  C   UNL A   1      39.446  32.726  35.096  1.00  0.00     0.049 A 
ATOM     61  H   UNL A   1      40.428  31.502  33.685  1.00  0.00     0.167 HD
ATOM     62  C   UNL A   1      41.469  31.930  36.287  1.00  0.00     0.074 A 
ATOM     63  C   UNL A   1      42.348  31.871  37.437  1.00  0.00     0.031 C 
ATOM     64  C   UNL A   1      40.333  32.669  36.232  1.00  0.00     0.031 A 
BRANCH  51  65
ATOM     65  C   UNL A   1      37.366  32.340  30.816  1.00  0.00    -0.014 A 
ATOM     66  C   UNL A   1      36.096  31.743  30.925  1.00  0.00     0.010 A 
ATOM     67  C   UNL A   1      37.535  33.428  29.939  1.00  0.00     0.010 A 
ATOM     68  C   UNL A   1      35.030  32.199  30.145  1.00  0.00     0.020 A 
ATOM     69  C   UNL A   1      36.463  33.906  29.179  1.00  0.00     0.020 A 
ATOM     70  C   UNL A   1      35.220  33.278  29.276  1.00  0.00     0.054 A 
BRANCH  70  71
ATOM     71  S   UNL A   1      33.811  33.862  28.295  1.00  0.00     0.124 S 
ATOM     72  O   UNL A   1      33.348  32.628  27.665  1.00  0.00    -0.237 OA
ATOM     73  O   UNL A   1      32.922  34.418  29.313  1.00  0.00    -0.237 OA
ATOM     74  O   UNL A   1      34.401  34.841  27.385  1.00  0.00    -0.744 OA
ENDBRANCH  70  71
ENDBRANCH  51  65
BRANCH  52  75
ATOM     75  C   UNL A   1      45.332  29.252  35.999  1.00  0.00    -0.014 A 
ATOM     76  C   UNL A   1      46.529  29.985  35.908  1.00  0.00     0.010 A 
ATOM     77  C   UNL A   1      45.288  28.117  36.829  1.00  0.00     0.010 A 
ATOM     78  C   UNL A   1      47.662  29.580  36.621  1.00  0.00     0.020 A 
ATOM     79  C   UNL A   1      46.408  27.729  37.567  1.00  0.00     0.020 A 
ATOM     80  C   UNL A   1      47.594  28.457  37.449  1.00  0.00     0.054 A 
BRANCH  80  81
ATOM     81  S   UNL A   1      49.061  27.983  38.405  1.00  0.00     0.124 S 
ATOM     82  O   UNL A   1      50.141  28.556  37.608  1.00  0.00    -0.237 OA
ATOM     83  O   UNL A   1      48.816  28.623  39.695  1.00  0.00    -0.237 OA
ATOM     84  O   UNL A   1      49.002  26.522  38.421  1.00  0.00    -0.744 OA
ENDBRANCH  80  81
ENDBRANCH  52  75
BRANCH  64  85
ATOM     85  C   UNL A   1      39.962  33.461  37.460  1.00  0.00    -0.014 A 
ATOM     86  C   UNL A   1      40.418  34.779  37.642  1.00  0.00     0.010 A 
ATOM     87  C   UNL A   1      39.104  32.895  38.420  1.00  0.00     0.010 A 
ATOM     88  C   UNL A   1      40.049  35.504  38.779  1.00  0.00     0.020 A 
ATOM     89  C   UNL A   1      38.708  33.627  39.542  1.00  0.00     0.020 A 
ATOM     90  C   UNL A   1      39.195  34.924  39.721  1.00  0.00     0.054 A 
BRANCH  90  91
ATOM     91  S   UNL A   1      38.696  35.902  41.165  1.00  0.00     0.124 S 
ATOM     92  O   UNL A   1      38.550  37.237  40.592  1.00  0.00    -0.237 OA
ATOM     93  O   UNL A   1      37.453  35.255  41.576  1.00  0.00    -0.237 OA
ATOM     94  O   UNL A   1      39.812  35.743  42.095  1.00  0.00    -0.744 OA
ENDBRANCH  90  91
ENDBRANCH  64  85
ENDBRANCH  38  39
ENDBRANCH  30  33
ENDBRANCH  28  29
ENDBRANCH  27  28
ENDBRANCH   1  27
TORSDOF 18
ENDMDL
