MODEL 1
REMARK VINA RESULT:     -10.1      0.000      0.000
REMARK SMILES O=C(NCCCNC(=O)[C@@H]1C[C@@H]2CC[C@H]1N2C(=O)c1ccncc1Cl)c1ccc(-c2c3nc(c(-c4ccc(S(=O)(=O)[O-])cc4)c4ccc([nH]4)c(-c4ccc(S(=O)(=O)[O-])cc4)c4nc(c(-c5ccc(S(=O)(=O)[O-])cc5)c5ccc2[nH]5)C=C4)C=C3)cc1
REMARK SMILES IDX 4 1 3 2 1 3 2 4 26 6 27 7 85 8 28 9 84 10 29 11 30 12 31 13
REMARK SMILES IDX 78 14 32 15 83 16 77 17 79 18 33 19 82 20 76 21 75 22 34 24
REMARK SMILES IDX 64 25 45 26 63 27 46 28 49 29 62 30 80 31 47 32 48 33 61 35
REMARK SMILES IDX 81 36 50 37 35 38 36 39 44 40 37 41 43 42 38 43 39 44 40 45
REMARK SMILES IDX 41 46 42 47 65 48 66 49 74 50 67 51 73 52 68 53 69 54 70 55
REMARK SMILES IDX 71 56 72 57 51 58 52 59 60 60 53 61 59 62 54 63 55 64 56 65
REMARK SMILES IDX 57 66 58 67 5 68 6 69 7 70 8 71 9 73 10 74 11 75 15 76 12 77
REMARK SMILES IDX 14 78 16 79 13 80 17 81 18 82 19 83 20 84 24 85 21 86 23 87
REMARK SMILES IDX 25 88 22 89
REMARK H PARENT 3 5 79 23 49 34 7 72
REMARK Flexibility Score: inf
ROOT
ATOM      1  C   UNL A   1      34.442  32.828  27.962  1.00  0.00     0.118 C 
ENDROOT
BRANCH   1   2
ATOM      2  N   UNL A   1      33.801  31.552  27.686  1.00  0.00    -0.352 N 
ATOM      3  O   UNL A   1      33.615  29.403  27.084  1.00  0.00    -0.269 OA
ATOM      4  C   UNL A   1      34.318  30.283  27.581  1.00  0.00     0.251 C 
ATOM      5  H   UNL A   1      32.827  31.607  27.552  1.00  0.00     0.163 HD
BRANCH   4   6
ATOM      6  C   UNL A   1      35.693  29.962  28.027  1.00  0.00     0.039 A 
ATOM      7  C   UNL A   1      35.954  29.474  29.308  1.00  0.00     0.014 A 
ATOM      8  C   UNL A   1      36.745  30.069  27.108  1.00  0.00     0.014 A 
ATOM      9  C   UNL A   1      37.263  29.240  29.719  1.00  0.00     0.010 A 
ATOM     10  C   UNL A   1      38.048  29.733  27.490  1.00  0.00     0.010 A 
ATOM     11  C   UNL A   1      38.323  29.339  28.808  1.00  0.00    -0.014 A 
BRANCH  11  12
ATOM     12  C   UNL A   1      39.700  28.960  29.220  1.00  0.00     0.031 A 
ATOM     13  C   UNL A   1      40.579  29.931  29.957  1.00  0.00     0.074 A 
ATOM     14  C   UNL A   1      40.165  27.734  28.905  1.00  0.00     0.049 A 
ATOM     15  N   UNL A   1      41.829  29.799  30.321  1.00  0.00    -0.248 NA
ATOM     16  C   UNL A   1      39.979  31.224  30.326  1.00  0.00     0.031 C 
ATOM     17  C   UNL A   1      39.407  26.700  28.196  1.00  0.00     0.029 A 
ATOM     18  N   UNL A   1      41.385  27.150  29.135  1.00  0.00    -0.354 N 
ATOM     19  C   UNL A   1      42.178  30.999  30.929  1.00  0.00     0.074 A 
ATOM     20  C   UNL A   1      41.011  31.854  30.870  1.00  0.00     0.031 C 
ATOM     21  C   UNL A   1      40.167  25.604  28.071  1.00  0.00     0.029 A 
ATOM     22  C   UNL A   1      41.489  25.879  28.622  1.00  0.00     0.049 A 
ATOM     23  H   UNL A   1      42.116  27.597  29.620  1.00  0.00     0.167 HD
ATOM     24  C   UNL A   1      43.363  31.354  31.483  1.00  0.00     0.031 A 
ATOM     25  C   UNL A   1      42.537  25.036  28.560  1.00  0.00     0.031 A 
ATOM     26  C   UNL A   1      44.520  30.498  31.530  1.00  0.00     0.049 A 
ATOM     27  C   UNL A   1      43.851  25.463  29.145  1.00  0.00     0.074 A 
ATOM     28  C   UNL A   1      45.759  30.755  32.090  1.00  0.00     0.029 A 
ATOM     29  N   UNL A   1      44.583  29.221  30.989  1.00  0.00    -0.354 N 
ATOM     30  N   UNL A   1      44.156  26.594  29.733  1.00  0.00    -0.248 NA
ATOM     31  C   UNL A   1      44.959  24.503  29.063  1.00  0.00     0.031 C 
ATOM     32  C   UNL A   1      46.588  29.656  31.840  1.00  0.00     0.029 A 
ATOM     33  C   UNL A   1      45.847  28.687  31.183  1.00  0.00     0.049 A 
ATOM     34  H   UNL A   1      43.840  28.763  30.535  1.00  0.00     0.167 HD
ATOM     35  C   UNL A   1      45.487  26.475  30.115  1.00  0.00     0.074 A 
ATOM     36  C   UNL A   1      45.925  25.159  29.695  1.00  0.00     0.031 C 
ATOM     37  C   UNL A   1      46.268  27.373  30.762  1.00  0.00     0.031 A 
BRANCH  24  38
ATOM     38  C   UNL A   1      43.478  32.752  32.035  1.00  0.00    -0.014 A 
ATOM     39  C   UNL A   1      43.329  33.017  33.408  1.00  0.00     0.010 A 
ATOM     40  C   UNL A   1      43.745  33.823  31.160  1.00  0.00     0.010 A 
ATOM     41  C   UNL A   1      43.381  34.330  33.886  1.00  0.00     0.020 A 
ATOM     42  C   UNL A   1      43.827  35.135  31.638  1.00  0.00     0.020 A 
ATOM     43  C   UNL A   1      43.616  35.382  32.995  1.00  0.00     0.054 A 
BRANCH  43  44
ATOM     44  S   UNL A   1      43.650  37.078  33.635  1.00  0.00     0.124 S 
ATOM     45  O   UNL A   1      43.717  37.860  32.403  1.00  0.00    -0.237 OA
ATOM     46  O   UNL A   1      42.390  37.172  34.369  1.00  0.00    -0.237 OA
ATOM     47  O   UNL A   1      44.854  37.114  34.462  1.00  0.00    -0.744 OA
ENDBRANCH  43  44
ENDBRANCH  24  38
BRANCH  25  48
ATOM     48  C   UNL A   1      42.365  23.715  27.898  1.00  0.00    -0.014 A 
ATOM     49  C   UNL A   1      42.805  23.512  26.580  1.00  0.00     0.010 A 
ATOM     50  C   UNL A   1      41.841  22.627  28.621  1.00  0.00     0.010 A 
ATOM     51  C   UNL A   1      42.730  22.243  25.998  1.00  0.00     0.020 A 
ATOM     52  C   UNL A   1      41.791  21.352  28.054  1.00  0.00     0.020 A 
ATOM     53  C   UNL A   1      42.235  21.168  26.743  1.00  0.00     0.054 A 
BRANCH  53  54
ATOM     54  S   UNL A   1      42.245  19.511  26.003  1.00  0.00     0.124 S 
ATOM     55  O   UNL A   1      43.160  19.687  24.879  1.00  0.00    -0.237 OA
ATOM     56  O   UNL A   1      42.740  18.681  27.099  1.00  0.00    -0.237 OA
ATOM     57  O   UNL A   1      40.847  19.288  25.645  1.00  0.00    -0.744 OA
ENDBRANCH  53  54
ENDBRANCH  25  48
BRANCH  37  58
ATOM     58  C   UNL A   1      47.672  26.954  31.105  1.00  0.00    -0.014 A 
ATOM     59  C   UNL A   1      47.956  26.229  32.274  1.00  0.00     0.010 A 
ATOM     60  C   UNL A   1      48.708  27.218  30.190  1.00  0.00     0.010 A 
ATOM     61  C   UNL A   1      49.256  25.782  32.527  1.00  0.00     0.020 A 
ATOM     62  C   UNL A   1      50.003  26.752  30.428  1.00  0.00     0.020 A 
ATOM     63  C   UNL A   1      50.269  26.042  31.599  1.00  0.00     0.054 A 
BRANCH  63  64
ATOM     64  S   UNL A   1      51.931  25.382  31.910  1.00  0.00     0.124 S 
ATOM     65  O   UNL A   1      52.631  25.730  30.677  1.00  0.00    -0.237 OA
ATOM     66  O   UNL A   1      52.350  26.118  33.100  1.00  0.00    -0.237 OA
ATOM     67  O   UNL A   1      51.703  23.953  32.117  1.00  0.00    -0.744 OA
ENDBRANCH  63  64
ENDBRANCH  37  58
ENDBRANCH  11  12
ENDBRANCH   4   6
ENDBRANCH   1   2
BRANCH   1  68
ATOM     68  C   UNL A   1      33.627  33.686  28.917  1.00  0.00     0.042 C 
BRANCH  68  69
ATOM     69  C   UNL A   1      34.476  34.605  29.788  1.00  0.00     0.117 C 
BRANCH  69  70
ATOM     70  N   UNL A   1      35.900  34.522  29.489  1.00  0.00    -0.356 N 
ATOM     71  C   UNL A   1      36.947  33.804  29.956  1.00  0.00     0.225 C 
ATOM     72  H   UNL A   1      36.164  35.141  28.770  1.00  0.00     0.163 HD
ATOM     73  O   UNL A   1      38.033  34.042  29.409  1.00  0.00    -0.275 OA
BRANCH  71  74
ATOM     74  C   UNL A   1      36.936  32.809  31.111  1.00  0.00     0.103 C 
ATOM     75  C   UNL A   1      35.642  32.274  31.758  1.00  0.00     0.040 C 
ATOM     76  C   UNL A   1      37.740  33.313  32.343  1.00  0.00     0.098 C 
ATOM     77  C   UNL A   1      35.783  32.726  33.223  1.00  0.00     0.086 C 
ATOM     78  C   UNL A   1      37.169  34.664  32.800  1.00  0.00     0.028 C 
ATOM     79  N   UNL A   1      37.190  32.460  33.395  1.00  0.00    -0.332 N 
ATOM     80  C   UNL A   1      35.788  34.256  33.371  1.00  0.00     0.027 C 
BRANCH  79  81
ATOM     81  C   UNL A   1      37.685  31.531  34.258  1.00  0.00     0.256 C 
ATOM     82  O   UNL A   1      37.491  31.575  35.477  1.00  0.00    -0.269 OA
BRANCH  81  83
ATOM     83  C   UNL A   1      38.395  30.360  33.740  1.00  0.00     0.061 A 
ATOM     84  C   UNL A   1      37.600  29.376  33.142  1.00  0.00     0.035 A 
ATOM     85  C   UNL A   1      39.753  30.138  33.938  1.00  0.00     0.072 A 
ATOM     86  C   UNL A   1      38.210  28.211  32.720  1.00  0.00     0.112 A 
ATOM     87  C   UNL A   1      40.268  28.939  33.467  1.00  0.00     0.132 A 
ATOM     88  Cl  UNL A   1      40.792  31.214  34.783  1.00  0.00    -0.082 Cl
ATOM     89  N   UNL A   1      39.532  27.976  32.854  1.00  0.00    -0.263 NA
ENDBRANCH  81  83
ENDBRANCH  79  81
ENDBRANCH  71  74
ENDBRANCH  69  70
ENDBRANCH  68  69
ENDBRANCH   1  68
TORSDOF 15
ENDMDL
MODEL 2
REMARK VINA RESULT:      -9.9      3.752      6.097
REMARK SMILES O=C(NCCCNC(=O)[C@@H]1C[C@@H]2CC[C@H]1N2C(=O)c1ccncc1Cl)c1ccc(-c2c3nc(c(-c4ccc(S(=O)(=O)[O-])cc4)c4ccc([nH]4)c(-c4ccc(S(=O)(=O)[O-])cc4)c4nc(c(-c5ccc(S(=O)(=O)[O-])cc5)c5ccc2[nH]5)C=C4)C=C3)cc1
REMARK SMILES IDX 4 1 3 2 1 3 2 4 26 6 27 7 85 8 28 9 84 10 29 11 30 12 31 13
REMARK SMILES IDX 78 14 32 15 83 16 77 17 79 18 33 19 82 20 76 21 75 22 34 24
REMARK SMILES IDX 64 25 45 26 63 27 46 28 49 29 62 30 80 31 47 32 48 33 61 35
REMARK SMILES IDX 81 36 50 37 35 38 36 39 44 40 37 41 43 42 38 43 39 44 40 45
REMARK SMILES IDX 41 46 42 47 65 48 66 49 74 50 67 51 73 52 68 53 69 54 70 55
REMARK SMILES IDX 71 56 72 57 51 58 52 59 60 60 53 61 59 62 54 63 55 64 56 65
REMARK SMILES IDX 57 66 58 67 5 68 6 69 7 70 8 71 9 73 10 74 11 75 15 76 12 77
REMARK SMILES IDX 14 78 16 79 13 80 17 81 18 82 19 83 20 84 24 85 21 86 23 87
REMARK SMILES IDX 25 88 22 89
REMARK H PARENT 3 5 79 23 49 34 7 72
REMARK Flexibility Score: inf
ROOT
ATOM      1  C   UNL A   1      33.982  28.647  25.982  1.00  0.00     0.118 C 
ENDROOT
BRANCH   1   2
ATOM      2  N   UNL A   1      33.842  29.969  26.572  1.00  0.00    -0.352 N 
ATOM      3  O   UNL A   1      34.118  31.630  28.049  1.00  0.00    -0.269 OA
ATOM      4  C   UNL A   1      34.587  30.618  27.528  1.00  0.00     0.251 C 
ATOM      5  H   UNL A   1      33.082  30.490  26.226  1.00  0.00     0.163 HD
BRANCH   4   6
ATOM      6  C   UNL A   1      35.915  30.120  27.952  1.00  0.00     0.039 A 
ATOM      7  C   UNL A   1      37.040  30.241  27.135  1.00  0.00     0.014 A 
ATOM      8  C   UNL A   1      36.059  29.593  29.241  1.00  0.00     0.014 A 
ATOM      9  C   UNL A   1      38.262  29.707  27.535  1.00  0.00     0.010 A 
ATOM     10  C   UNL A   1      37.311  29.152  29.684  1.00  0.00     0.010 A 
ATOM     11  C   UNL A   1      38.420  29.182  28.824  1.00  0.00    -0.014 A 
BRANCH  11  12
ATOM     12  C   UNL A   1      39.759  28.735  29.289  1.00  0.00     0.031 A 
ATOM     13  C   UNL A   1      40.639  29.648  30.097  1.00  0.00     0.074 A 
ATOM     14  C   UNL A   1      40.191  27.501  28.959  1.00  0.00     0.049 A 
ATOM     15  N   UNL A   1      41.863  29.454  30.515  1.00  0.00    -0.248 NA
ATOM     16  C   UNL A   1      40.073  30.952  30.476  1.00  0.00     0.031 C 
ATOM     17  C   UNL A   1      39.427  26.520  28.182  1.00  0.00     0.029 A 
ATOM     18  N   UNL A   1      41.374  26.861  29.227  1.00  0.00    -0.354 N 
ATOM     19  C   UNL A   1      42.230  30.620  31.177  1.00  0.00     0.074 A 
ATOM     20  C   UNL A   1      41.102  31.524  31.088  1.00  0.00     0.031 C 
ATOM     21  C   UNL A   1      40.149  25.397  28.060  1.00  0.00     0.029 A 
ATOM     22  C   UNL A   1      41.453  25.603  28.681  1.00  0.00     0.049 A 
ATOM     23  H   UNL A   1      42.097  27.264  29.760  1.00  0.00     0.167 HD
ATOM     24  C   UNL A   1      43.400  30.911  31.796  1.00  0.00     0.031 A 
ATOM     25  C   UNL A   1      42.469  24.720  28.643  1.00  0.00     0.031 A 
ATOM     26  C   UNL A   1      44.518  30.007  31.871  1.00  0.00     0.049 A 
ATOM     27  C   UNL A   1      43.768  25.075  29.302  1.00  0.00     0.074 A 
ATOM     28  C   UNL A   1      45.738  30.197  32.497  1.00  0.00     0.029 A 
ATOM     29  N   UNL A   1      44.557  28.745  31.295  1.00  0.00    -0.354 N 
ATOM     30  N   UNL A   1      44.089  26.175  29.938  1.00  0.00    -0.248 NA
ATOM     31  C   UNL A   1      44.840  24.074  29.243  1.00  0.00     0.031 C 
ATOM     32  C   UNL A   1      46.534  29.072  32.253  1.00  0.00     0.029 A 
ATOM     33  C   UNL A   1      45.788  28.154  31.532  1.00  0.00     0.049 A 
ATOM     34  H   UNL A   1      43.819  28.331  30.792  1.00  0.00     0.167 HD
ATOM     35  C   UNL A   1      45.393  25.991  30.379  1.00  0.00     0.074 A 
ATOM     36  C   UNL A   1      45.800  24.671  29.940  1.00  0.00     0.031 C 
ATOM     37  C   UNL A   1      46.177  26.837  31.091  1.00  0.00     0.031 A 
BRANCH  24  38
ATOM     38  C   UNL A   1      43.542  32.286  32.396  1.00  0.00    -0.014 A 
ATOM     39  C   UNL A   1      43.068  32.579  33.688  1.00  0.00     0.010 A 
ATOM     40  C   UNL A   1      44.169  33.305  31.653  1.00  0.00     0.010 A 
ATOM     41  C   UNL A   1      43.159  33.879  34.197  1.00  0.00     0.020 A 
ATOM     42  C   UNL A   1      44.289  34.598  32.171  1.00  0.00     0.020 A 
ATOM     43  C   UNL A   1      43.757  34.883  33.430  1.00  0.00     0.054 A 
BRANCH  43  44
ATOM     44  S   UNL A   1      43.837  36.565  34.101  1.00  0.00     0.124 S 
ATOM     45  O   UNL A   1      45.241  36.662  34.497  1.00  0.00    -0.237 OA
ATOM     46  O   UNL A   1      43.451  37.388  32.959  1.00  0.00    -0.237 OA
ATOM     47  O   UNL A   1      42.879  36.545  35.204  1.00  0.00    -0.744 OA
ENDBRANCH  43  44
ENDBRANCH  24  38
BRANCH  25  48
ATOM     48  C   UNL A   1      42.277  23.427  27.932  1.00  0.00    -0.014 A 
ATOM     49  C   UNL A   1      42.707  23.268  26.605  1.00  0.00     0.010 A 
ATOM     50  C   UNL A   1      41.743  22.318  28.617  1.00  0.00     0.010 A 
ATOM     51  C   UNL A   1      42.614  22.023  25.976  1.00  0.00     0.020 A 
ATOM     52  C   UNL A   1      41.675  21.066  28.002  1.00  0.00     0.020 A 
ATOM     53  C   UNL A   1      42.110  20.926  26.683  1.00  0.00     0.054 A 
BRANCH  53  54
ATOM     54  S   UNL A   1      42.096  19.298  25.881  1.00  0.00     0.124 S 
ATOM     55  O   UNL A   1      42.956  19.524  24.723  1.00  0.00    -0.237 OA
ATOM     56  O   UNL A   1      42.648  18.432  26.920  1.00  0.00    -0.237 OA
ATOM     57  O   UNL A   1      40.684  19.077  25.581  1.00  0.00    -0.744 OA
ENDBRANCH  53  54
ENDBRANCH  25  48
BRANCH  37  58
ATOM     58  C   UNL A   1      47.545  26.352  31.487  1.00  0.00    -0.014 A 
ATOM     59  C   UNL A   1      47.781  25.770  32.743  1.00  0.00     0.010 A 
ATOM     60  C   UNL A   1      48.588  26.400  30.543  1.00  0.00     0.010 A 
ATOM     61  C   UNL A   1      49.042  25.253  33.054  1.00  0.00     0.020 A 
ATOM     62  C   UNL A   1      49.842  25.863  30.842  1.00  0.00     0.020 A 
ATOM     63  C   UNL A   1      50.063  25.298  32.099  1.00  0.00     0.054 A 
BRANCH  63  64
ATOM     64  S   UNL A   1      51.667  24.548  32.496  1.00  0.00     0.124 S 
ATOM     65  O   UNL A   1      52.567  25.265  31.597  1.00  0.00    -0.237 OA
ATOM     66  O   UNL A   1      51.820  24.854  33.916  1.00  0.00    -0.237 OA
ATOM     67  O   UNL A   1      51.473  23.133  32.187  1.00  0.00    -0.744 OA
ENDBRANCH  63  64
ENDBRANCH  37  58
ENDBRANCH  11  12
ENDBRANCH   4   6
ENDBRANCH   1   2
BRANCH   1  68
ATOM     68  C   UNL A   1      33.191  28.507  24.691  1.00  0.00     0.042 C 
BRANCH  68  69
ATOM     69  C   UNL A   1      34.067  28.340  23.454  1.00  0.00     0.117 C 
BRANCH  69  70
ATOM     70  N   UNL A   1      33.437  27.541  22.412  1.00  0.00    -0.356 N 
ATOM     71  C   UNL A   1      33.227  26.222  22.195  1.00  0.00     0.225 C 
ATOM     72  H   UNL A   1      33.075  28.098  21.685  1.00  0.00     0.163 HD
ATOM     73  O   UNL A   1      32.627  25.950  21.146  1.00  0.00    -0.275 OA
BRANCH  71  74
ATOM     74  C   UNL A   1      33.711  25.062  23.059  1.00  0.00     0.103 C 
ATOM     75  C   UNL A   1      33.745  23.599  22.573  1.00  0.00     0.040 C 
ATOM     76  C   UNL A   1      32.934  24.949  24.401  1.00  0.00     0.098 C 
ATOM     77  C   UNL A   1      32.818  22.887  23.575  1.00  0.00     0.086 C 
ATOM     78  C   UNL A   1      31.434  24.799  24.103  1.00  0.00     0.028 C 
ATOM     79  N   UNL A   1      33.236  23.569  24.775  1.00  0.00    -0.332 N 
ATOM     80  C   UNL A   1      31.365  23.380  23.488  1.00  0.00     0.027 C 
BRANCH  79  81
ATOM     81  C   UNL A   1      33.852  22.953  25.821  1.00  0.00     0.256 C 
ATOM     82  O   UNL A   1      33.249  22.582  26.833  1.00  0.00    -0.269 OA
BRANCH  81  83
ATOM     83  C   UNL A   1      35.272  22.609  25.730  1.00  0.00     0.061 A 
ATOM     84  C   UNL A   1      36.172  23.653  25.969  1.00  0.00     0.035 A 
ATOM     85  C   UNL A   1      35.735  21.372  25.297  1.00  0.00     0.072 A 
ATOM     86  C   UNL A   1      37.520  23.404  25.806  1.00  0.00     0.112 A 
ATOM     87  C   UNL A   1      37.109  21.224  25.176  1.00  0.00     0.132 A 
ATOM     88  Cl  UNL A   1      34.715  20.067  24.841  1.00  0.00    -0.082 Cl
ATOM     89  N   UNL A   1      38.012  22.205  25.430  1.00  0.00    -0.263 NA
ENDBRANCH  81  83
ENDBRANCH  79  81
ENDBRANCH  71  74
ENDBRANCH  69  70
ENDBRANCH  68  69
ENDBRANCH   1  68
TORSDOF 15
ENDMDL
MODEL 3
REMARK VINA RESULT:      -9.7      4.239      6.548
REMARK SMILES O=C(NCCCNC(=O)[C@@H]1C[C@@H]2CC[C@H]1N2C(=O)c1ccncc1Cl)c1ccc(-c2c3nc(c(-c4ccc(S(=O)(=O)[O-])cc4)c4ccc([nH]4)c(-c4ccc(S(=O)(=O)[O-])cc4)c4nc(c(-c5ccc(S(=O)(=O)[O-])cc5)c5ccc2[nH]5)C=C4)C=C3)cc1
REMARK SMILES IDX 4 1 3 2 1 3 2 4 26 6 27 7 85 8 28 9 84 10 29 11 30 12 31 13
REMARK SMILES IDX 78 14 32 15 83 16 77 17 79 18 33 19 82 20 76 21 75 22 34 24
REMARK SMILES IDX 64 25 45 26 63 27 46 28 49 29 62 30 80 31 47 32 48 33 61 35
REMARK SMILES IDX 81 36 50 37 35 38 36 39 44 40 37 41 43 42 38 43 39 44 40 45
REMARK SMILES IDX 41 46 42 47 65 48 66 49 74 50 67 51 73 52 68 53 69 54 70 55
REMARK SMILES IDX 71 56 72 57 51 58 52 59 60 60 53 61 59 62 54 63 55 64 56 65
REMARK SMILES IDX 57 66 58 67 5 68 6 69 7 70 8 71 9 73 10 74 11 75 15 76 12 77
REMARK SMILES IDX 14 78 16 79 13 80 17 81 18 82 19 83 20 84 24 85 21 86 23 87
REMARK SMILES IDX 25 88 22 89
REMARK H PARENT 3 5 79 23 49 34 7 72
REMARK Flexibility Score: inf
ROOT
ATOM      1  C   UNL A   1      33.429  28.234  27.250  1.00  0.00     0.118 C 
ENDROOT
BRANCH   1   2
ATOM      2  N   UNL A   1      33.438  29.685  27.365  1.00  0.00    -0.352 N 
ATOM      3  O   UNL A   1      34.043  31.711  28.102  1.00  0.00    -0.269 OA
ATOM      4  C   UNL A   1      34.376  30.547  27.880  1.00  0.00     0.251 C 
ATOM      5  H   UNL A   1      32.631  30.125  27.013  1.00  0.00     0.163 HD
BRANCH   4   6
ATOM      6  C   UNL A   1      35.755  30.104  28.189  1.00  0.00     0.039 A 
ATOM      7  C   UNL A   1      36.783  30.195  27.249  1.00  0.00     0.014 A 
ATOM      8  C   UNL A   1      36.050  29.664  29.485  1.00  0.00     0.014 A 
ATOM      9  C   UNL A   1      38.055  29.714  27.547  1.00  0.00     0.010 A 
ATOM     10  C   UNL A   1      37.353  29.279  29.816  1.00  0.00     0.010 A 
ATOM     11  C   UNL A   1      38.363  29.276  28.842  1.00  0.00    -0.014 A 
BRANCH  11  12
ATOM     12  C   UNL A   1      39.756  28.888  29.187  1.00  0.00     0.031 A 
ATOM     13  C   UNL A   1      40.683  29.860  29.861  1.00  0.00     0.074 A 
ATOM     14  C   UNL A   1      40.191  27.652  28.866  1.00  0.00     0.049 A 
ATOM     15  N   UNL A   1      41.949  29.719  30.160  1.00  0.00    -0.248 NA
ATOM     16  C   UNL A   1      40.118  31.164  30.240  1.00  0.00     0.031 C 
ATOM     17  C   UNL A   1      39.385  26.616  28.214  1.00  0.00     0.029 A 
ATOM     18  N   UNL A   1      41.415  27.057  29.040  1.00  0.00    -0.354 N 
ATOM     19  C   UNL A   1      42.343  30.924  30.730  1.00  0.00     0.074 A 
ATOM     20  C   UNL A   1      41.184  31.791  30.719  1.00  0.00     0.031 C 
ATOM     21  C   UNL A   1      40.126  25.509  28.067  1.00  0.00     0.029 A 
ATOM     22  C   UNL A   1      41.479  25.778  28.542  1.00  0.00     0.049 A 
ATOM     23  H   UNL A   1      42.175  27.504  29.479  1.00  0.00     0.167 HD
ATOM     24  C   UNL A   1      43.560  31.274  31.214  1.00  0.00     0.031 A 
ATOM     25  C   UNL A   1      42.513  24.923  28.439  1.00  0.00     0.031 A 
ATOM     26  C   UNL A   1      44.707  30.406  31.213  1.00  0.00     0.049 A 
ATOM     27  C   UNL A   1      43.861  25.343  28.947  1.00  0.00     0.074 A 
ATOM     28  C   UNL A   1      45.978  30.657  31.703  1.00  0.00     0.029 A 
ATOM     29  N   UNL A   1      44.729  29.120  30.690  1.00  0.00    -0.354 N 
ATOM     30  N   UNL A   1      44.209  26.480  29.499  1.00  0.00    -0.248 NA
ATOM     31  C   UNL A   1      44.953  24.370  28.821  1.00  0.00     0.031 C 
ATOM     32  C   UNL A   1      46.780  29.545  31.427  1.00  0.00     0.029 A 
ATOM     33  C   UNL A   1      45.995  28.575  30.825  1.00  0.00     0.049 A 
ATOM     34  H   UNL A   1      43.958  28.663  30.283  1.00  0.00     0.167 HD
ATOM     35  C   UNL A   1      45.556  26.351  29.812  1.00  0.00     0.074 A 
ATOM     36  C   UNL A   1      45.958  25.024  29.390  1.00  0.00     0.031 C 
ATOM     37  C   UNL A   1      46.380  27.250  30.403  1.00  0.00     0.031 A 
BRANCH  24  38
ATOM     38  C   UNL A   1      43.718  32.679  31.738  1.00  0.00    -0.014 A 
ATOM     39  C   UNL A   1      43.628  32.968  33.111  1.00  0.00     0.010 A 
ATOM     40  C   UNL A   1      43.967  33.731  30.835  1.00  0.00     0.010 A 
ATOM     41  C   UNL A   1      43.719  34.288  33.565  1.00  0.00     0.020 A 
ATOM     42  C   UNL A   1      44.088  35.048  31.287  1.00  0.00     0.020 A 
ATOM     43  C   UNL A   1      43.935  35.321  32.647  1.00  0.00     0.054 A 
BRANCH  43  44
ATOM     44  S   UNL A   1      44.021  37.027  33.257  1.00  0.00     0.124 S 
ATOM     45  O   UNL A   1      45.185  36.970  34.139  1.00  0.00    -0.237 OA
ATOM     46  O   UNL A   1      44.201  37.800  32.031  1.00  0.00    -0.237 OA
ATOM     47  O   UNL A   1      42.738  37.220  33.930  1.00  0.00    -0.744 OA
ENDBRANCH  43  44
ENDBRANCH  24  38
BRANCH  25  48
ATOM     48  C   UNL A   1      42.293  23.594  27.807  1.00  0.00    -0.014 A 
ATOM     49  C   UNL A   1      42.589  23.388  26.450  1.00  0.00     0.010 A 
ATOM     50  C   UNL A   1      41.869  22.503  28.589  1.00  0.00     0.010 A 
ATOM     51  C   UNL A   1      42.473  22.113  25.887  1.00  0.00     0.020 A 
ATOM     52  C   UNL A   1      41.780  21.223  28.038  1.00  0.00     0.020 A 
ATOM     53  C   UNL A   1      42.080  21.036  26.688  1.00  0.00     0.054 A 
BRANCH  53  54
ATOM     54  S   UNL A   1      42.038  19.374  25.961  1.00  0.00     0.124 S 
ATOM     55  O   UNL A   1      42.912  19.528  24.802  1.00  0.00    -0.237 OA
ATOM     56  O   UNL A   1      42.563  18.544  27.044  1.00  0.00    -0.237 OA
ATOM     57  O   UNL A   1      40.624  19.169  25.659  1.00  0.00    -0.744 OA
ENDBRANCH  53  54
ENDBRANCH  25  48
BRANCH  37  58
ATOM     58  C   UNL A   1      47.795  26.821  30.678  1.00  0.00    -0.014 A 
ATOM     59  C   UNL A   1      48.817  27.014  29.733  1.00  0.00     0.010 A 
ATOM     60  C   UNL A   1      48.119  26.297  31.944  1.00  0.00     0.010 A 
ATOM     61  C   UNL A   1      50.138  26.681  30.046  1.00  0.00     0.020 A 
ATOM     62  C   UNL A   1      49.441  25.986  32.268  1.00  0.00     0.020 A 
ATOM     63  C   UNL A   1      50.442  26.174  31.314  1.00  0.00     0.054 A 
BRANCH  63  64
ATOM     64  S   UNL A   1      52.174  25.826  31.725  1.00  0.00     0.124 S 
ATOM     65  O   UNL A   1      52.125  24.408  32.070  1.00  0.00    -0.237 OA
ATOM     66  O   UNL A   1      52.869  26.146  30.480  1.00  0.00    -0.237 OA
ATOM     67  O   UNL A   1      52.455  26.730  32.838  1.00  0.00    -0.744 OA
ENDBRANCH  63  64
ENDBRANCH  37  58
ENDBRANCH  11  12
ENDBRANCH   4   6
ENDBRANCH   1   2
BRANCH   1  68
ATOM     68  C   UNL A   1      34.103  27.755  25.974  1.00  0.00     0.042 C 
BRANCH  68  69
ATOM     69  C   UNL A   1      33.388  28.198  24.703  1.00  0.00     0.117 C 
BRANCH  69  70
ATOM     70  N   UNL A   1      31.961  27.904  24.718  1.00  0.00    -0.356 N 
ATOM     71  C   UNL A   1      31.194  26.816  24.476  1.00  0.00     0.225 C 
ATOM     72  H   UNL A   1      31.423  28.690  24.964  1.00  0.00     0.163 HD
ATOM     73  O   UNL A   1      29.974  26.993  24.606  1.00  0.00    -0.275 OA
BRANCH  71  74
ATOM     74  C   UNL A   1      31.666  25.447  23.998  1.00  0.00     0.103 C 
ATOM     75  C   UNL A   1      30.707  24.331  23.537  1.00  0.00     0.040 C 
ATOM     76  C   UNL A   1      32.545  24.715  25.051  1.00  0.00     0.098 C 
ATOM     77  C   UNL A   1      31.019  23.188  24.520  1.00  0.00     0.086 C 
ATOM     78  C   UNL A   1      31.753  24.576  26.360  1.00  0.00     0.028 C 
ATOM     79  N   UNL A   1      32.452  23.337  24.574  1.00  0.00    -0.332 N 
ATOM     80  C   UNL A   1      30.664  23.545  25.972  1.00  0.00     0.027 C 
BRANCH  79  81
ATOM     81  C   UNL A   1      33.328  22.395  24.132  1.00  0.00     0.256 C 
ATOM     82  O   UNL A   1      34.401  22.677  23.588  1.00  0.00    -0.269 OA
BRANCH  81  83
ATOM     83  C   UNL A   1      33.065  20.978  24.387  1.00  0.00     0.061 A 
ATOM     84  C   UNL A   1      32.553  20.246  23.310  1.00  0.00     0.035 A 
ATOM     85  C   UNL A   1      33.170  20.392  25.643  1.00  0.00     0.072 A 
ATOM     86  C   UNL A   1      32.201  18.928  23.524  1.00  0.00     0.112 A 
ATOM     87  C   UNL A   1      32.801  19.059  25.747  1.00  0.00     0.132 A 
ATOM     88  Cl  UNL A   1      33.653  21.234  27.061  1.00  0.00    -0.082 Cl
ATOM     89  N   UNL A   1      32.329  18.311  24.717  1.00  0.00    -0.263 NA
ENDBRANCH  81  83
ENDBRANCH  79  81
ENDBRANCH  71  74
ENDBRANCH  69  70
ENDBRANCH  68  69
ENDBRANCH   1  68
TORSDOF 15
ENDMDL
