MODEL 1
REMARK VINA RESULT:     -11.3      0.000      0.000
REMARK SMILES N#C[C@H]1CN(c2cc(C(=O)NCCCNC(=O)c3ccc(-c4c5nc(c(-c6ccc(S(=O)(=O)[O-])cc6)c6ccc([nH]6)c(-c6ccc(S(=O)(=O)[O-])cc6)c6nc(c(-c7ccc(S(=O)(=O)[O-])cc7)c7ccc4[nH]7)C=C6)C=C5)cc3)c(N)cc2F)CCO1
REMARK SMILES IDX 13 1 12 2 11 3 9 4 10 5 8 7 6 8 7 9 81 10 80 11 82 12 78 13
REMARK SMILES IDX 5 14 3 15 4 16 85 17 84 18 83 19 2 20 1 21 79 22 14 25 15 26
REMARK SMILES IDX 16 27 17 29 18 30 19 31 77 32 20 33 76 34 21 35 22 36 23 37
REMARK SMILES IDX 70 38 24 39 75 40 69 41 71 42 25 43 74 44 68 45 67 46 26 48
REMARK SMILES IDX 56 49 37 50 55 51 38 52 41 53 54 54 72 55 39 56 40 57 53 59
REMARK SMILES IDX 73 60 42 61 27 62 28 63 36 64 29 65 35 66 30 67 31 68 32 69
REMARK SMILES IDX 33 70 34 71 57 72 58 73 66 74 59 75 65 76 60 77 61 78 62 79
REMARK SMILES IDX 63 80 64 81 43 82 44 83 52 84 45 85 51 86 46 87 47 88 48 89
REMARK SMILES IDX 49 90 50 91
REMARK H PARENT 11 6 79 23 79 24 15 28 71 47 41 58
REMARK Flexibility Score: inf
ROOT
ATOM      1  C   UNL A   1      37.942  20.738  25.139  1.00  0.00     0.042 C 
ENDROOT
BRANCH   1   2
ATOM      2  C   UNL A   1      36.879  21.813  25.184  1.00  0.00     0.118 C 
BRANCH   2   3
ATOM      3  N   UNL A   1      36.030  21.822  26.361  1.00  0.00    -0.352 N 
ATOM      4  C   UNL A   1      34.692  21.525  26.494  1.00  0.00     0.253 C 
ATOM      5  O   UNL A   1      34.220  21.539  27.633  1.00  0.00    -0.269 OA
ATOM      6  H   UNL A   1      36.482  22.082  27.196  1.00  0.00     0.163 HD
BRANCH   4   7
ATOM      7  C   UNL A   1      33.779  21.270  25.334  1.00  0.00     0.065 A 
ATOM      8  C   UNL A   1      32.661  22.317  23.415  1.00  0.00     0.074 A 
ATOM      9  C   UNL A   1      33.505  22.400  24.527  1.00  0.00     0.045 A 
ATOM     10  C   UNL A   1      32.258  21.038  23.018  1.00  0.00     0.148 A 
ATOM     11  C   UNL A   1      32.501  19.918  23.799  1.00  0.00     0.067 A 
ATOM     12  F   UNL A   1      31.544  20.879  21.892  1.00  0.00    -0.205 F 
ATOM     13  C   UNL A   1      33.147  20.047  25.029  1.00  0.00     0.047 A 
BRANCH   8  14
ATOM     14  N   UNL A   1      32.157  23.453  22.820  1.00  0.00    -0.363 N 
ATOM     15  C   UNL A   1      31.033  25.472  23.674  1.00  0.00     0.240 C 
ATOM     16  C   UNL A   1      30.846  24.028  23.136  1.00  0.00     0.164 C 
ATOM     17  O   UNL A   1      31.844  26.271  22.774  1.00  0.00    -0.360 OA
ATOM     18  C   UNL A   1      33.146  25.685  22.603  1.00  0.00     0.183 C 
ATOM     19  C   UNL A   1      33.040  24.284  21.994  1.00  0.00     0.145 C 
BRANCH  15  20
ATOM     20  C   UNL A   1      29.713  26.112  23.847  1.00  0.00     0.096 C 
ATOM     21  N   UNL A   1      28.679  26.617  23.974  1.00  0.00    -0.195 NA
ENDBRANCH  15  20
ENDBRANCH   8  14
BRANCH  13  22
ATOM     22  N   UNL A   1      33.036  18.978  25.907  1.00  0.00    -0.398 N 
ATOM     23  H   UNL A   1      33.541  18.150  25.741  1.00  0.00     0.156 HD
ATOM     24  H   UNL A   1      32.450  19.048  26.695  1.00  0.00     0.156 HD
ENDBRANCH  13  22
ENDBRANCH   4   7
ENDBRANCH   2   3
ENDBRANCH   1   2
BRANCH   1  25
ATOM     25  C   UNL A   1      39.088  20.916  26.115  1.00  0.00     0.118 C 
BRANCH  25  26
ATOM     26  N   UNL A   1      40.065  19.832  26.094  1.00  0.00    -0.352 N 
ATOM     27  C   UNL A   1      41.439  19.843  26.188  1.00  0.00     0.251 C 
ATOM     28  H   UNL A   1      39.673  18.935  25.995  1.00  0.00     0.163 HD
ATOM     29  O   UNL A   1      42.058  18.795  26.018  1.00  0.00    -0.269 OA
BRANCH  27  30
ATOM     30  C   UNL A   1      42.177  21.101  26.446  1.00  0.00     0.039 A 
ATOM     31  C   UNL A   1      42.508  21.929  25.369  1.00  0.00     0.014 A 
ATOM     32  C   UNL A   1      42.536  21.483  27.738  1.00  0.00     0.014 A 
ATOM     33  C   UNL A   1      43.099  23.173  25.606  1.00  0.00     0.010 A 
ATOM     34  C   UNL A   1      42.989  22.774  27.983  1.00  0.00     0.010 A 
ATOM     35  C   UNL A   1      43.287  23.635  26.919  1.00  0.00    -0.014 A 
BRANCH  35  36
ATOM     36  C   UNL A   1      43.790  25.007  27.196  1.00  0.00     0.031 A 
ATOM     37  C   UNL A   1      45.247  25.342  26.996  1.00  0.00     0.074 A 
ATOM     38  C   UNL A   1      42.945  25.940  27.681  1.00  0.00     0.049 A 
ATOM     39  N   UNL A   1      45.866  26.476  27.201  1.00  0.00    -0.248 NA
ATOM     40  C   UNL A   1      46.130  24.256  26.534  1.00  0.00     0.031 C 
ATOM     41  C   UNL A   1      41.524  25.726  27.974  1.00  0.00     0.029 A 
ATOM     42  N   UNL A   1      43.152  27.257  28.009  1.00  0.00    -0.354 N 
ATOM     43  C   UNL A   1      47.204  26.237  26.907  1.00  0.00     0.074 A 
ATOM     44  C   UNL A   1      47.321  24.836  26.576  1.00  0.00     0.031 C 
ATOM     45  C   UNL A   1      40.980  26.881  28.387  1.00  0.00     0.029 A 
ATOM     46  C   UNL A   1      42.018  27.904  28.444  1.00  0.00     0.049 A 
ATOM     47  H   UNL A   1      44.030  27.697  27.940  1.00  0.00     0.167 HD
ATOM     48  C   UNL A   1      48.240  27.109  26.888  1.00  0.00     0.031 A 
ATOM     49  C   UNL A   1      41.832  29.176  28.847  1.00  0.00     0.031 A 
ATOM     50  C   UNL A   1      48.118  28.506  27.215  1.00  0.00     0.049 A 
ATOM     51  C   UNL A   1      43.002  30.121  28.836  1.00  0.00     0.074 A 
ATOM     52  C   UNL A   1      49.093  29.486  27.169  1.00  0.00     0.029 A 
ATOM     53  N   UNL A   1      46.955  29.119  27.656  1.00  0.00    -0.354 N 
ATOM     54  N   UNL A   1      44.242  29.893  28.471  1.00  0.00    -0.248 NA
ATOM     55  C   UNL A   1      42.745  31.497  29.280  1.00  0.00     0.031 C 
ATOM     56  C   UNL A   1      48.539  30.674  27.655  1.00  0.00     0.029 A 
ATOM     57  C   UNL A   1      47.197  30.456  27.923  1.00  0.00     0.049 A 
ATOM     58  H   UNL A   1      46.085  28.669  27.763  1.00  0.00     0.167 HD
ATOM     59  C   UNL A   1      44.907  31.107  28.617  1.00  0.00     0.074 A 
ATOM     60  C   UNL A   1      43.925  32.068  29.077  1.00  0.00     0.031 C 
ATOM     61  C   UNL A   1      46.212  31.399  28.391  1.00  0.00     0.031 A 
BRANCH  48  62
ATOM     62  C   UNL A   1      49.599  26.577  26.506  1.00  0.00    -0.014 A 
ATOM     63  C   UNL A   1      50.471  26.038  27.470  1.00  0.00     0.010 A 
ATOM     64  C   UNL A   1      49.992  26.573  25.155  1.00  0.00     0.010 A 
ATOM     65  C   UNL A   1      51.724  25.544  27.096  1.00  0.00     0.020 A 
ATOM     66  C   UNL A   1      51.229  26.047  24.772  1.00  0.00     0.020 A 
ATOM     67  C   UNL A   1      52.094  25.550  25.748  1.00  0.00     0.054 A 
BRANCH  67  68
ATOM     68  S   UNL A   1      53.713  24.870  25.291  1.00  0.00     0.124 S 
ATOM     69  O   UNL A   1      54.030  25.634  24.086  1.00  0.00    -0.237 OA
ATOM     70  O   UNL A   1      54.528  25.178  26.463  1.00  0.00    -0.237 OA
ATOM     71  O   UNL A   1      53.445  23.450  25.075  1.00  0.00    -0.744 OA
ENDBRANCH  67  68
ENDBRANCH  48  62
BRANCH  49  72
ATOM     72  C   UNL A   1      40.482  29.630  29.289  1.00  0.00    -0.014 A 
ATOM     73  C   UNL A   1      40.157  29.699  30.655  1.00  0.00     0.010 A 
ATOM     74  C   UNL A   1      39.513  30.002  28.338  1.00  0.00     0.010 A 
ATOM     75  C   UNL A   1      38.884  30.112  31.061  1.00  0.00     0.020 A 
ATOM     76  C   UNL A   1      38.252  30.450  28.741  1.00  0.00     0.020 A 
ATOM     77  C   UNL A   1      37.941  30.490  30.101  1.00  0.00     0.054 A 
BRANCH  77  78
ATOM     78  S   UNL A   1      36.314  31.071  30.654  1.00  0.00     0.124 S 
ATOM     79  O   UNL A   1      36.614  32.422  31.117  1.00  0.00    -0.237 OA
ATOM     80  O   UNL A   1      35.517  30.982  29.432  1.00  0.00    -0.237 OA
ATOM     81  O   UNL A   1      35.947  30.117  31.699  1.00  0.00    -0.744 OA
ENDBRANCH  77  78
ENDBRANCH  49  72
BRANCH  61  82
ATOM     82  C   UNL A   1      46.650  32.825  28.607  1.00  0.00    -0.014 A 
ATOM     83  C   UNL A   1      47.104  33.270  29.862  1.00  0.00     0.010 A 
ATOM     84  C   UNL A   1      46.644  33.723  27.525  1.00  0.00     0.010 A 
ATOM     85  C   UNL A   1      47.502  34.598  30.039  1.00  0.00     0.020 A 
ATOM     86  C   UNL A   1      47.078  35.041  27.688  1.00  0.00     0.020 A 
ATOM     87  C   UNL A   1      47.488  35.474  28.950  1.00  0.00     0.054 A 
BRANCH  87  88
ATOM     88  S   UNL A   1      48.039  37.183  29.200  1.00  0.00     0.124 S 
ATOM     89  O   UNL A   1      47.361  37.883  28.113  1.00  0.00    -0.237 OA
ATOM     90  O   UNL A   1      47.549  37.481  30.543  1.00  0.00    -0.237 OA
ATOM     91  O   UNL A   1      49.493  37.101  29.077  1.00  0.00    -0.744 OA
ENDBRANCH  87  88
ENDBRANCH  61  82
ENDBRANCH  35  36
ENDBRANCH  27  30
ENDBRANCH  25  26
ENDBRANCH   1  25
TORSDOF 16
ENDMDL
MODEL 2
REMARK VINA RESULT:     -11.2      2.486      8.977
REMARK SMILES N#C[C@H]1CN(c2cc(C(=O)NCCCNC(=O)c3ccc(-c4c5nc(c(-c6ccc(S(=O)(=O)[O-])cc6)c6ccc([nH]6)c(-c6ccc(S(=O)(=O)[O-])cc6)c6nc(c(-c7ccc(S(=O)(=O)[O-])cc7)c7ccc4[nH]7)C=C6)C=C5)cc3)c(N)cc2F)CCO1
REMARK SMILES IDX 13 1 12 2 11 3 9 4 10 5 8 7 6 8 7 9 81 10 80 11 82 12 78 13
REMARK SMILES IDX 5 14 3 15 4 16 85 17 84 18 83 19 2 20 1 21 79 22 14 25 15 26
REMARK SMILES IDX 16 27 17 29 18 30 19 31 77 32 20 33 76 34 21 35 22 36 23 37
REMARK SMILES IDX 70 38 24 39 75 40 69 41 71 42 25 43 74 44 68 45 67 46 26 48
REMARK SMILES IDX 56 49 37 50 55 51 38 52 41 53 54 54 72 55 39 56 40 57 53 59
REMARK SMILES IDX 73 60 42 61 27 62 28 63 36 64 29 65 35 66 30 67 31 68 32 69
REMARK SMILES IDX 33 70 34 71 57 72 58 73 66 74 59 75 65 76 60 77 61 78 62 79
REMARK SMILES IDX 63 80 64 81 43 82 44 83 52 84 45 85 51 86 46 87 47 88 48 89
REMARK SMILES IDX 49 90 50 91
REMARK H PARENT 11 6 79 23 79 24 15 28 71 47 41 58
REMARK Flexibility Score: inf
ROOT
ATOM      1  C   UNL A   1      34.144  29.980  26.954  1.00  0.00     0.042 C 
ENDROOT
BRANCH   1   2
ATOM      2  C   UNL A   1      33.697  28.869  26.028  1.00  0.00     0.118 C 
BRANCH   2   3
ATOM      3  N   UNL A   1      34.134  28.975  24.648  1.00  0.00    -0.352 N 
ATOM      4  C   UNL A   1      33.436  28.779  23.477  1.00  0.00     0.253 C 
ATOM      5  O   UNL A   1      34.029  29.007  22.421  1.00  0.00    -0.269 OA
ATOM      6  H   UNL A   1      35.079  29.225  24.531  1.00  0.00     0.163 HD
BRANCH   4   7
ATOM      7  C   UNL A   1      32.041  28.235  23.424  1.00  0.00     0.065 A 
ATOM      8  C   UNL A   1      30.624  26.328  24.043  1.00  0.00     0.074 A 
ATOM      9  C   UNL A   1      31.868  26.966  24.026  1.00  0.00     0.045 A 
ATOM     10  C   UNL A   1      29.521  27.077  23.620  1.00  0.00     0.148 A 
ATOM     11  C   UNL A   1      29.665  28.316  23.014  1.00  0.00     0.067 A 
ATOM     12  F   UNL A   1      28.284  26.565  23.722  1.00  0.00    -0.205 F 
ATOM     13  C   UNL A   1      30.938  28.843  22.791  1.00  0.00     0.047 A 
BRANCH   8  14
ATOM     14  N   UNL A   1      30.518  24.988  24.347  1.00  0.00    -0.363 N 
ATOM     15  C   UNL A   1      31.870  23.002  23.805  1.00  0.00     0.240 C 
ATOM     16  C   UNL A   1      30.691  23.912  23.368  1.00  0.00     0.164 C 
ATOM     17  O   UNL A   1      31.712  22.554  25.177  1.00  0.00    -0.360 OA
ATOM     18  C   UNL A   1      31.652  23.674  26.077  1.00  0.00     0.183 C 
ATOM     19  C   UNL A   1      30.456  24.574  25.754  1.00  0.00     0.145 C 
BRANCH  15  20
ATOM     20  C   UNL A   1      31.951  21.830  22.911  1.00  0.00     0.096 C 
ATOM     21  N   UNL A   1      32.023  20.911  22.210  1.00  0.00    -0.195 NA
ENDBRANCH  15  20
ENDBRANCH   8  14
BRANCH  13  22
ATOM     22  N   UNL A   1      31.030  29.883  21.875  1.00  0.00    -0.398 N 
ATOM     23  H   UNL A   1      31.496  29.746  21.020  1.00  0.00     0.156 HD
ATOM     24  H   UNL A   1      30.630  30.758  22.083  1.00  0.00     0.156 HD
ENDBRANCH  13  22
ENDBRANCH   4   7
ENDBRANCH   2   3
ENDBRANCH   1   2
BRANCH   1  25
ATOM     25  C   UNL A   1      35.471  29.751  27.650  1.00  0.00     0.118 C 
BRANCH  25  26
ATOM     26  N   UNL A   1      35.405  29.832  29.105  1.00  0.00    -0.352 N 
ATOM     27  C   UNL A   1      36.385  29.739  30.068  1.00  0.00     0.251 C 
ATOM     28  H   UNL A   1      34.499  29.980  29.462  1.00  0.00     0.163 HD
ATOM     29  O   UNL A   1      36.059  29.715  31.252  1.00  0.00    -0.269 OA
BRANCH  27  30
ATOM     30  C   UNL A   1      37.814  29.621  29.695  1.00  0.00     0.039 A 
ATOM     31  C   UNL A   1      38.759  29.371  30.693  1.00  0.00     0.014 A 
ATOM     32  C   UNL A   1      38.232  29.740  28.370  1.00  0.00     0.014 A 
ATOM     33  C   UNL A   1      40.093  29.141  30.344  1.00  0.00     0.010 A 
ATOM     34  C   UNL A   1      39.523  29.370  28.010  1.00  0.00     0.010 A 
ATOM     35  C   UNL A   1      40.476  29.075  28.993  1.00  0.00    -0.014 A 
BRANCH  35  36
ATOM     36  C   UNL A   1      41.858  28.701  28.594  1.00  0.00     0.031 A 
ATOM     37  C   UNL A   1      42.950  29.741  28.554  1.00  0.00     0.074 A 
ATOM     38  C   UNL A   1      42.121  27.433  28.215  1.00  0.00     0.049 A 
ATOM     39  N   UNL A   1      44.207  29.602  28.216  1.00  0.00    -0.248 NA
ATOM     40  C   UNL A   1      42.579  31.121  28.911  1.00  0.00     0.031 C 
ATOM     41  C   UNL A   1      41.139  26.346  28.153  1.00  0.00     0.029 A 
ATOM     42  N   UNL A   1      43.292  26.839  27.813  1.00  0.00    -0.354 N 
ATOM     43  C   UNL A   1      44.767  30.871  28.307  1.00  0.00     0.074 A 
ATOM     44  C   UNL A   1      43.702  31.779  28.664  1.00  0.00     0.031 C 
ATOM     45  C   UNL A   1      41.758  25.212  27.790  1.00  0.00     0.029 A 
ATOM     46  C   UNL A   1      43.165  25.497  27.537  1.00  0.00     0.049 A 
ATOM     47  H   UNL A   1      44.142  27.328  27.730  1.00  0.00     0.167 HD
ATOM     48  C   UNL A   1      46.057  31.246  28.135  1.00  0.00     0.031 A 
ATOM     49  C   UNL A   1      44.078  24.596  27.124  1.00  0.00     0.031 A 
ATOM     50  C   UNL A   1      47.116  30.337  27.783  1.00  0.00     0.049 A 
ATOM     51  C   UNL A   1      45.500  25.040  26.921  1.00  0.00     0.074 A 
ATOM     52  C   UNL A   1      48.466  30.604  27.642  1.00  0.00     0.029 A 
ATOM     53  N   UNL A   1      46.945  28.988  27.507  1.00  0.00    -0.354 N 
ATOM     54  N   UNL A   1      46.024  26.229  27.096  1.00  0.00    -0.248 NA
ATOM     55  C   UNL A   1      46.455  24.017  26.475  1.00  0.00     0.031 C 
ATOM     56  C   UNL A   1      49.098  29.436  27.208  1.00  0.00     0.029 A 
ATOM     57  C   UNL A   1      48.158  28.419  27.159  1.00  0.00     0.049 A 
ATOM     58  H   UNL A   1      46.087  28.507  27.551  1.00  0.00     0.167 HD
ATOM     59  C   UNL A   1      47.378  26.091  26.808  1.00  0.00     0.074 A 
ATOM     60  C   UNL A   1      47.593  24.697  26.473  1.00  0.00     0.031 C 
ATOM     61  C   UNL A   1      48.356  27.032  26.818  1.00  0.00     0.031 A 
BRANCH  48  62
ATOM     62  C   UNL A   1      46.395  32.705  28.319  1.00  0.00    -0.014 A 
ATOM     63  C   UNL A   1      46.329  33.612  27.246  1.00  0.00     0.010 A 
ATOM     64  C   UNL A   1      46.739  33.185  29.596  1.00  0.00     0.010 A 
ATOM     65  C   UNL A   1      46.640  34.962  27.437  1.00  0.00     0.020 A 
ATOM     66  C   UNL A   1      47.016  34.539  29.800  1.00  0.00     0.020 A 
ATOM     67  C   UNL A   1      46.979  35.417  28.715  1.00  0.00     0.054 A 
BRANCH  67  68
ATOM     68  S   UNL A   1      47.344  37.180  28.938  1.00  0.00     0.124 S 
ATOM     69  O   UNL A   1      47.917  37.535  27.641  1.00  0.00    -0.237 OA
ATOM     70  O   UNL A   1      46.026  37.744  29.216  1.00  0.00    -0.237 OA
ATOM     71  O   UNL A   1      48.280  37.202  30.059  1.00  0.00    -0.744 OA
ENDBRANCH  67  68
ENDBRANCH  48  62
BRANCH  49  72
ATOM     72  C   UNL A   1      43.672  23.181  26.882  1.00  0.00    -0.014 A 
ATOM     73  C   UNL A   1      42.996  22.447  27.873  1.00  0.00     0.010 A 
ATOM     74  C   UNL A   1      43.959  22.561  25.651  1.00  0.00     0.010 A 
ATOM     75  C   UNL A   1      42.631  21.116  27.645  1.00  0.00     0.020 A 
ATOM     76  C   UNL A   1      43.563  21.243  25.406  1.00  0.00     0.020 A 
ATOM     77  C   UNL A   1      42.913  20.524  26.410  1.00  0.00     0.054 A 
BRANCH  77  78
ATOM     78  S   UNL A   1      42.384  18.814  26.119  1.00  0.00     0.124 S 
ATOM     79  O   UNL A   1      42.602  18.201  27.425  1.00  0.00    -0.237 OA
ATOM     80  O   UNL A   1      40.988  18.981  25.721  1.00  0.00    -0.237 OA
ATOM     81  O   UNL A   1      43.276  18.356  25.055  1.00  0.00    -0.744 OA
ENDBRANCH  77  78
ENDBRANCH  49  72
BRANCH  61  82
ATOM     82  C   UNL A   1      49.755  26.581  26.487  1.00  0.00    -0.014 A 
ATOM     83  C   UNL A   1      50.265  26.672  25.179  1.00  0.00     0.010 A 
ATOM     84  C   UNL A   1      50.587  26.095  27.512  1.00  0.00     0.010 A 
ATOM     85  C   UNL A   1      51.565  26.244  24.896  1.00  0.00     0.020 A 
ATOM     86  C   UNL A   1      51.900  25.703  27.241  1.00  0.00     0.020 A 
ATOM     87  C   UNL A   1      52.374  25.764  25.930  1.00  0.00     0.054 A 
BRANCH  87  88
ATOM     88  S   UNL A   1      54.067  25.245  25.540  1.00  0.00     0.124 S 
ATOM     89  O   UNL A   1      54.631  25.026  26.869  1.00  0.00    -0.237 OA
ATOM     90  O   UNL A   1      53.853  24.041  24.741  1.00  0.00    -0.237 OA
ATOM     91  O   UNL A   1      54.620  26.382  24.808  1.00  0.00    -0.744 OA
ENDBRANCH  87  88
ENDBRANCH  61  82
ENDBRANCH  35  36
ENDBRANCH  27  30
ENDBRANCH  25  26
ENDBRANCH   1  25
TORSDOF 16
ENDMDL
MODEL 3
REMARK VINA RESULT:     -11.1      6.281     11.894
REMARK SMILES N#C[C@H]1CN(c2cc(C(=O)NCCCNC(=O)c3ccc(-c4c5nc(c(-c6ccc(S(=O)(=O)[O-])cc6)c6ccc([nH]6)c(-c6ccc(S(=O)(=O)[O-])cc6)c6nc(c(-c7ccc(S(=O)(=O)[O-])cc7)c7ccc4[nH]7)C=C6)C=C5)cc3)c(N)cc2F)CCO1
REMARK SMILES IDX 13 1 12 2 11 3 9 4 10 5 8 7 6 8 7 9 81 10 80 11 82 12 78 13
REMARK SMILES IDX 5 14 3 15 4 16 85 17 84 18 83 19 2 20 1 21 79 22 14 25 15 26
REMARK SMILES IDX 16 27 17 29 18 30 19 31 77 32 20 33 76 34 21 35 22 36 23 37
REMARK SMILES IDX 70 38 24 39 75 40 69 41 71 42 25 43 74 44 68 45 67 46 26 48
REMARK SMILES IDX 56 49 37 50 55 51 38 52 41 53 54 54 72 55 39 56 40 57 53 59
REMARK SMILES IDX 73 60 42 61 27 62 28 63 36 64 29 65 35 66 30 67 31 68 32 69
REMARK SMILES IDX 33 70 34 71 57 72 58 73 66 74 59 75 65 76 60 77 61 78 62 79
REMARK SMILES IDX 63 80 64 81 43 82 44 83 52 84 45 85 51 86 46 87 47 88 48 89
REMARK SMILES IDX 49 90 50 91
REMARK H PARENT 11 6 79 23 79 24 15 28 71 47 41 58
REMARK Flexibility Score: inf
ROOT
ATOM      1  C   UNL A   1      32.173  31.263  26.756  1.00  0.00     0.042 C 
ENDROOT
BRANCH   1   2
ATOM      2  C   UNL A   1      32.552  29.859  26.340  1.00  0.00     0.118 C 
BRANCH   2   3
ATOM      3  N   UNL A   1      33.284  29.738  25.093  1.00  0.00    -0.352 N 
ATOM      4  C   UNL A   1      32.887  29.235  23.874  1.00  0.00     0.253 C 
ATOM      5  O   UNL A   1      33.689  29.316  22.941  1.00  0.00    -0.269 OA
ATOM      6  H   UNL A   1      34.211  30.068  25.124  1.00  0.00     0.163 HD
BRANCH   4   7
ATOM      7  C   UNL A   1      31.583  28.534  23.651  1.00  0.00     0.065 A 
ATOM      8  C   UNL A   1      30.312  26.492  24.144  1.00  0.00     0.074 A 
ATOM      9  C   UNL A   1      31.468  27.268  24.272  1.00  0.00     0.045 A 
ATOM     10  C   UNL A   1      29.203  27.099  23.544  1.00  0.00     0.148 A 
ATOM     11  C   UNL A   1      29.294  28.332  22.915  1.00  0.00     0.067 A 
ATOM     12  F   UNL A   1      28.028  26.451  23.494  1.00  0.00    -0.205 F 
ATOM     13  C   UNL A   1      30.520  28.997  22.849  1.00  0.00     0.047 A 
BRANCH   8  14
ATOM     14  N   UNL A   1      30.312  25.156  24.482  1.00  0.00    -0.363 N 
ATOM     15  C   UNL A   1      31.826  23.274  24.002  1.00  0.00     0.240 C 
ATOM     16  C   UNL A   1      30.580  24.072  23.533  1.00  0.00     0.164 C 
ATOM     17  O   UNL A   1      31.692  22.849  25.384  1.00  0.00    -0.360 OA
ATOM     18  C   UNL A   1      31.534  23.983  26.254  1.00  0.00     0.183 C 
ATOM     19  C   UNL A   1      30.272  24.774  25.899  1.00  0.00     0.145 C 
BRANCH  15  20
ATOM     20  C   UNL A   1      32.010  22.090  23.140  1.00  0.00     0.096 C 
ATOM     21  N   UNL A   1      32.152  21.155  22.470  1.00  0.00    -0.195 NA
ENDBRANCH  15  20
ENDBRANCH   8  14
BRANCH  13  22
ATOM     22  N   UNL A   1      30.624  30.018  21.915  1.00  0.00    -0.398 N 
ATOM     23  H   UNL A   1      30.853  29.810  20.981  1.00  0.00     0.156 HD
ATOM     24  H   UNL A   1      30.470  30.951  22.188  1.00  0.00     0.156 HD
ENDBRANCH  13  22
ENDBRANCH   4   7
ENDBRANCH   2   3
ENDBRANCH   1   2
BRANCH   1  25
ATOM     25  C   UNL A   1      33.318  32.126  27.249  1.00  0.00     0.118 C 
BRANCH  25  26
ATOM     26  N   UNL A   1      32.925  33.478  27.632  1.00  0.00    -0.352 N 
ATOM     27  C   UNL A   1      33.385  34.313  28.626  1.00  0.00     0.251 C 
ATOM     28  H   UNL A   1      32.204  33.862  27.082  1.00  0.00     0.163 HD
ATOM     29  O   UNL A   1      32.802  35.375  28.832  1.00  0.00    -0.269 OA
BRANCH  27  30
ATOM     30  C   UNL A   1      34.538  33.929  29.474  1.00  0.00     0.039 A 
ATOM     31  C   UNL A   1      34.308  33.210  30.649  1.00  0.00     0.014 A 
ATOM     32  C   UNL A   1      35.845  34.257  29.116  1.00  0.00     0.014 A 
ATOM     33  C   UNL A   1      35.390  32.739  31.398  1.00  0.00     0.010 A 
ATOM     34  C   UNL A   1      36.917  33.669  29.778  1.00  0.00     0.010 A 
ATOM     35  C   UNL A   1      36.706  32.909  30.935  1.00  0.00    -0.014 A 
BRANCH  35  36
ATOM     36  C   UNL A   1      37.864  32.303  31.644  1.00  0.00     0.031 A 
ATOM     37  C   UNL A   1      38.310  32.842  32.980  1.00  0.00     0.074 A 
ATOM     38  C   UNL A   1      38.550  31.300  31.059  1.00  0.00     0.049 A 
ATOM     39  N   UNL A   1      39.305  32.451  33.734  1.00  0.00    -0.248 NA
ATOM     40  C   UNL A   1      37.560  33.985  33.529  1.00  0.00     0.031 C 
ATOM     41  C   UNL A   1      38.257  30.727  29.741  1.00  0.00     0.029 A 
ATOM     42  N   UNL A   1      39.634  30.578  31.495  1.00  0.00    -0.354 N 
ATOM     43  C   UNL A   1      39.308  33.304  34.831  1.00  0.00     0.074 A 
ATOM     44  C   UNL A   1      38.261  34.276  34.615  1.00  0.00     0.031 C 
ATOM     45  C   UNL A   1      39.103  29.713  29.501  1.00  0.00     0.029 A 
ATOM     46  C   UNL A   1      40.035  29.597  30.617  1.00  0.00     0.049 A 
ATOM     47  H   UNL A   1      40.082  30.748  32.355  1.00  0.00     0.167 HD
ATOM     48  C   UNL A   1      40.093  33.269  35.935  1.00  0.00     0.031 A 
ATOM     49  C   UNL A   1      41.042  28.705  30.698  1.00  0.00     0.031 A 
ATOM     50  C   UNL A   1      41.132  32.297  36.149  1.00  0.00     0.049 A 
ATOM     51  C   UNL A   1      41.912  28.697  31.924  1.00  0.00     0.074 A 
ATOM     52  C   UNL A   1      41.944  32.138  37.257  1.00  0.00     0.029 A 
ATOM     53  N   UNL A   1      41.510  31.325  35.234  1.00  0.00    -0.354 N 
ATOM     54  N   UNL A   1      41.841  29.460  32.989  1.00  0.00    -0.248 NA
ATOM     55  C   UNL A   1      42.991  27.702  31.964  1.00  0.00     0.031 C 
ATOM     56  C   UNL A   1      42.862  31.120  36.982  1.00  0.00     0.029 A 
ATOM     57  C   UNL A   1      42.569  30.588  35.737  1.00  0.00     0.049 A 
ATOM     58  H   UNL A   1      41.087  31.181  34.356  1.00  0.00     0.167 HD
ATOM     59  C   UNL A   1      42.850  29.018  33.838  1.00  0.00     0.074 A 
ATOM     60  C   UNL A   1      43.498  27.905  33.172  1.00  0.00     0.031 C 
ATOM     61  C   UNL A   1      43.210  29.489  35.058  1.00  0.00     0.031 A 
BRANCH  48  62
ATOM     62  C   UNL A   1      39.862  34.318  36.995  1.00  0.00    -0.014 A 
ATOM     63  C   UNL A   1      38.969  34.098  38.059  1.00  0.00     0.010 A 
ATOM     64  C   UNL A   1      40.584  35.525  36.950  1.00  0.00     0.010 A 
ATOM     65  C   UNL A   1      38.772  35.080  39.035  1.00  0.00     0.020 A 
ATOM     66  C   UNL A   1      40.418  36.495  37.942  1.00  0.00     0.020 A 
ATOM     67  C   UNL A   1      39.501  36.272  38.971  1.00  0.00     0.054 A 
BRANCH  67  68
ATOM     68  S   UNL A   1      39.248  37.512  40.271  1.00  0.00     0.124 S 
ATOM     69  O   UNL A   1      40.553  38.167  40.320  1.00  0.00    -0.237 OA
ATOM     70  O   UNL A   1      38.160  38.322  39.729  1.00  0.00    -0.237 OA
ATOM     71  O   UNL A   1      38.906  36.717  41.448  1.00  0.00    -0.744 OA
ENDBRANCH  67  68
ENDBRANCH  48  62
BRANCH  49  72
ATOM     72  C   UNL A   1      41.274  27.739  29.585  1.00  0.00    -0.014 A 
ATOM     73  C   UNL A   1      42.265  27.981  28.617  1.00  0.00     0.010 A 
ATOM     74  C   UNL A   1      40.503  26.565  29.492  1.00  0.00     0.010 A 
ATOM     75  C   UNL A   1      42.467  27.079  27.568  1.00  0.00     0.020 A 
ATOM     76  C   UNL A   1      40.727  25.642  28.466  1.00  0.00     0.020 A 
ATOM     77  C   UNL A   1      41.701  25.912  27.502  1.00  0.00     0.054 A 
BRANCH  77  78
ATOM     78  S   UNL A   1      42.017  24.731  26.162  1.00  0.00     0.124 S 
ATOM     79  O   UNL A   1      43.198  24.027  26.649  1.00  0.00    -0.237 OA
ATOM     80  O   UNL A   1      40.781  23.952  26.132  1.00  0.00    -0.237 OA
ATOM     81  O   UNL A   1      42.233  25.587  24.996  1.00  0.00    -0.744 OA
ENDBRANCH  77  78
ENDBRANCH  49  72
BRANCH  61  82
ATOM     82  C   UNL A   1      44.336  28.784  35.769  1.00  0.00    -0.014 A 
ATOM     83  C   UNL A   1      45.673  29.196  35.615  1.00  0.00     0.010 A 
ATOM     84  C   UNL A   1      44.046  27.716  36.637  1.00  0.00     0.010 A 
ATOM     85  C   UNL A   1      46.700  28.524  36.283  1.00  0.00     0.020 A 
ATOM     86  C   UNL A   1      45.067  27.067  37.337  1.00  0.00     0.020 A 
ATOM     87  C   UNL A   1      46.390  27.465  37.140  1.00  0.00     0.054 A 
BRANCH  87  88
ATOM     88  S   UNL A   1      47.739  26.631  38.017  1.00  0.00     0.124 S 
ATOM     89  O   UNL A   1      48.374  27.740  38.724  1.00  0.00    -0.237 OA
ATOM     90  O   UNL A   1      47.027  25.674  38.860  1.00  0.00    -0.237 OA
ATOM     91  O   UNL A   1      48.537  26.038  36.946  1.00  0.00    -0.744 OA
ENDBRANCH  87  88
ENDBRANCH  61  82
ENDBRANCH  35  36
ENDBRANCH  27  30
ENDBRANCH  25  26
ENDBRANCH   1  25
TORSDOF 16
ENDMDL
