MODEL 1
REMARK VINA RESULT:     -11.5      0.000      0.000
REMARK SMILES COc1cc(Cl)c2c(c1)C=C(C(=O)NCCCNC(=O)c1ccc(-c3c4nc(c(-c5ccc(S(=O)(=O)[O-])cc5)c5ccc([nH]5)c(-c5ccc(S(=O)(=O)[O-])cc5)c5nc(c(-c6ccc(S(=O)(=O)[O-])cc6)c6ccc3[nH]6)C=C5)C=C4)cc1)[C@@H](C(F)(F)F)O2
REMARK SMILES IDX 17 1 16 2 15 3 14 4 12 5 13 6 11 8 3 9 4 10 9 11 5 12 8 13
REMARK SMILES IDX 6 14 7 15 10 16 86 17 81 18 2 19 1 20 82 21 83 22 84 23
REMARK SMILES IDX 85 24 18 25 19 26 20 28 21 29 22 30 80 31 23 32 79 33 24 34
REMARK SMILES IDX 25 35 26 36 73 37 27 38 78 39 72 40 74 41 28 42 77 43 71 44
REMARK SMILES IDX 70 45 29 47 59 48 40 49 58 50 41 51 44 52 57 53 75 54 42 55
REMARK SMILES IDX 43 56 56 58 76 59 45 60 30 61 31 62 39 63 32 64 38 65 33 66
REMARK SMILES IDX 34 67 35 68 36 69 37 70 60 71 61 72 69 73 62 74 68 75 63 76
REMARK SMILES IDX 64 77 65 78 66 79 67 80 46 81 47 82 55 83 48 84 54 85 49 86
REMARK SMILES IDX 50 87 51 88 52 89 53 90
REMARK H PARENT 14 7 18 27 74 46 44 57
REMARK Flexibility Score: inf
ROOT
ATOM      1  C   UNL A   1      33.770  28.363  26.895  1.00  0.00     0.118 C 
ENDROOT
BRANCH   1   2
ATOM      2  C   UNL A   1      34.177  28.108  25.449  1.00  0.00     0.042 C 
BRANCH   2   3
ATOM      3  C   UNL A   1      33.266  27.095  24.769  1.00  0.00     0.118 C 
BRANCH   3   4
ATOM      4  N   UNL A   1      32.293  26.533  25.695  1.00  0.00    -0.352 N 
ATOM      5  C   UNL A   1      31.959  25.310  26.164  1.00  0.00     0.251 C 
ATOM      6  O   UNL A   1      31.033  25.294  26.980  1.00  0.00    -0.270 OA
ATOM      7  H   UNL A   1      31.725  27.234  26.087  1.00  0.00     0.163 HD
BRANCH   5   8
ATOM      8  C   UNL A   1      32.623  24.031  25.778  1.00  0.00     0.067 C 
ATOM      9  C   UNL A   1      36.733  21.495  25.447  1.00  0.00     0.121 A 
ATOM     10  C   UNL A   1      36.021  20.383  25.001  1.00  0.00     0.070 A 
ATOM     11  C   UNL A   1      36.046  22.656  25.818  1.00  0.00     0.058 A 
ATOM     12  C   UNL A   1      34.629  20.443  24.905  1.00  0.00     0.087 A 
ATOM     13  C   UNL A   1      34.653  22.724  25.708  1.00  0.00     0.022 A 
ATOM     14  Cl  UNL A   1      33.784  19.046  24.342  1.00  0.00    -0.080 Cl
ATOM     15  C   UNL A   1      33.946  21.614  25.245  1.00  0.00     0.146 A 
ATOM     16  C   UNL A   1      33.927  23.929  26.093  1.00  0.00     0.025 C 
ATOM     17  O   UNL A   1      32.582  21.618  25.158  1.00  0.00    -0.474 OA
ATOM     18  C   UNL A   1      31.939  22.914  25.042  1.00  0.00     0.314 C 
BRANCH   9  19
ATOM     19  O   UNL A   1      38.092  21.553  25.595  1.00  0.00    -0.497 OA
ATOM     20  C   UNL A   1      38.607  22.759  26.150  1.00  0.00     0.278 C 
ENDBRANCH   9  19
BRANCH  18  21
ATOM     21  C   UNL A   1      31.713  23.237  23.553  1.00  0.00     0.429 C 
ATOM     22  F   UNL A   1      31.839  22.120  22.795  1.00  0.00    -0.167 F 
ATOM     23  F   UNL A   1      30.476  23.731  23.306  1.00  0.00    -0.167 F 
ATOM     24  F   UNL A   1      32.595  24.149  23.082  1.00  0.00    -0.167 F 
ENDBRANCH  18  21
ENDBRANCH   5   8
ENDBRANCH   3   4
ENDBRANCH   2   3
ENDBRANCH   1   2
BRANCH   1  25
ATOM     25  N   UNL A   1      33.691  29.793  27.180  1.00  0.00    -0.352 N 
ATOM     26  C   UNL A   1      34.525  30.575  27.937  1.00  0.00     0.251 C 
ATOM     27  H   UNL A   1      32.931  30.264  26.769  1.00  0.00     0.163 HD
ATOM     28  O   UNL A   1      34.135  31.673  28.340  1.00  0.00    -0.269 OA
BRANCH  26  29
ATOM     29  C   UNL A   1      35.885  30.106  28.257  1.00  0.00     0.039 A 
ATOM     30  C   UNL A   1      36.163  29.602  29.529  1.00  0.00     0.014 A 
ATOM     31  C   UNL A   1      36.900  30.217  27.302  1.00  0.00     0.014 A 
ATOM     32  C   UNL A   1      37.454  29.167  29.830  1.00  0.00     0.010 A 
ATOM     33  C   UNL A   1      38.165  29.718  27.577  1.00  0.00     0.010 A 
ATOM     34  C   UNL A   1      38.458  29.212  28.851  1.00  0.00    -0.014 A 
BRANCH  34  35
ATOM     35  C   UNL A   1      39.852  28.816  29.151  1.00  0.00     0.031 A 
ATOM     36  C   UNL A   1      40.777  29.824  29.779  1.00  0.00     0.074 A 
ATOM     37  C   UNL A   1      40.298  27.595  28.807  1.00  0.00     0.049 A 
ATOM     38  N   UNL A   1      42.054  29.721  30.030  1.00  0.00    -0.248 NA
ATOM     39  C   UNL A   1      40.193  31.126  30.151  1.00  0.00     0.031 C 
ATOM     40  C   UNL A   1      39.497  26.546  28.172  1.00  0.00     0.029 A 
ATOM     41  N   UNL A   1      41.543  27.033  28.933  1.00  0.00    -0.354 N 
ATOM     42  C   UNL A   1      42.429  30.945  30.571  1.00  0.00     0.074 A 
ATOM     43  C   UNL A   1      41.258  31.791  30.575  1.00  0.00     0.031 C 
ATOM     44  C   UNL A   1      40.268  25.462  27.978  1.00  0.00     0.029 A 
ATOM     45  C   UNL A   1      41.622  25.751  28.441  1.00  0.00     0.049 A 
ATOM     46  H   UNL A   1      42.308  27.503  29.337  1.00  0.00     0.167 HD
ATOM     47  C   UNL A   1      43.639  31.321  31.042  1.00  0.00     0.031 A 
ATOM     48  C   UNL A   1      42.671  24.909  28.365  1.00  0.00     0.031 A 
ATOM     49  C   UNL A   1      44.791  30.465  31.067  1.00  0.00     0.049 A 
ATOM     50  C   UNL A   1      44.009  25.356  28.886  1.00  0.00     0.074 A 
ATOM     51  C   UNL A   1      46.046  30.734  31.581  1.00  0.00     0.029 A 
ATOM     52  N   UNL A   1      44.827  29.174  30.565  1.00  0.00    -0.354 N 
ATOM     53  N   UNL A   1      44.335  26.503  29.431  1.00  0.00    -0.248 NA
ATOM     54  C   UNL A   1      45.118  24.398  28.786  1.00  0.00     0.031 C 
ATOM     55  C   UNL A   1      46.856  29.620  31.351  1.00  0.00     0.029 A 
ATOM     56  C   UNL A   1      46.091  28.641  30.736  1.00  0.00     0.049 A 
ATOM     57  H   UNL A   1      44.067  28.708  30.149  1.00  0.00     0.167 HD
ATOM     58  C   UNL A   1      45.683  26.400  29.753  1.00  0.00     0.074 A 
ATOM     59  C   UNL A   1      46.109  25.075  29.352  1.00  0.00     0.031 C 
ATOM     60  C   UNL A   1      46.494  27.321  30.329  1.00  0.00     0.031 A 
BRANCH  47  61
ATOM     61  C   UNL A   1      43.783  32.714  31.586  1.00  0.00    -0.014 A 
ATOM     62  C   UNL A   1      44.245  33.758  30.768  1.00  0.00     0.010 A 
ATOM     63  C   UNL A   1      43.363  32.996  32.897  1.00  0.00     0.010 A 
ATOM     64  C   UNL A   1      44.287  35.066  31.254  1.00  0.00     0.020 A 
ATOM     65  C   UNL A   1      43.384  34.308  33.380  1.00  0.00     0.020 A 
ATOM     66  C   UNL A   1      43.844  35.334  32.553  1.00  0.00     0.054 A 
BRANCH  66  67
ATOM     67  S   UNL A   1      43.852  37.054  33.128  1.00  0.00     0.124 S 
ATOM     68  O   UNL A   1      43.744  37.796  31.875  1.00  0.00    -0.237 OA
ATOM     69  O   UNL A   1      42.673  37.101  33.990  1.00  0.00    -0.237 OA
ATOM     70  O   UNL A   1      45.134  37.186  33.817  1.00  0.00    -0.744 OA
ENDBRANCH  66  67
ENDBRANCH  47  61
BRANCH  48  71
ATOM     71  C   UNL A   1      42.488  23.557  27.774  1.00  0.00    -0.014 A 
ATOM     72  C   UNL A   1      42.818  23.318  26.429  1.00  0.00     0.010 A 
ATOM     73  C   UNL A   1      42.018  22.493  28.565  1.00  0.00     0.010 A 
ATOM     74  C   UNL A   1      42.679  22.039  25.883  1.00  0.00     0.020 A 
ATOM     75  C   UNL A   1      41.896  21.208  28.028  1.00  0.00     0.020 A 
ATOM     76  C   UNL A   1      42.228  20.990  26.690  1.00  0.00     0.054 A 
BRANCH  76  77
ATOM     77  S   UNL A   1      42.106  19.330  25.967  1.00  0.00     0.124 S 
ATOM     78  O   UNL A   1      42.945  19.448  24.779  1.00  0.00    -0.237 OA
ATOM     79  O   UNL A   1      42.639  18.490  27.037  1.00  0.00    -0.237 OA
ATOM     80  O   UNL A   1      40.677  19.169  25.710  1.00  0.00    -0.744 OA
ENDBRANCH  76  77
ENDBRANCH  48  71
BRANCH  60  81
ATOM     81  C   UNL A   1      47.925  26.940  30.575  1.00  0.00    -0.014 A 
ATOM     82  C   UNL A   1      48.910  27.187  29.602  1.00  0.00     0.010 A 
ATOM     83  C   UNL A   1      48.306  26.445  31.835  1.00  0.00     0.010 A 
ATOM     84  C   UNL A   1      50.254  26.940  29.888  1.00  0.00     0.020 A 
ATOM     85  C   UNL A   1      49.651  26.219  32.131  1.00  0.00     0.020 A 
ATOM     86  C   UNL A   1      50.618  26.469  31.154  1.00  0.00     0.054 A 
BRANCH  86  87
ATOM     87  S   UNL A   1      52.378  26.220  31.512  1.00  0.00     0.124 S 
ATOM     88  O   UNL A   1      52.997  26.492  30.217  1.00  0.00    -0.237 OA
ATOM     89  O   UNL A   1      52.630  27.215  32.551  1.00  0.00    -0.237 OA
ATOM     90  O   UNL A   1      52.451  24.828  31.953  1.00  0.00    -0.744 OA
ENDBRANCH  86  87
ENDBRANCH  60  81
ENDBRANCH  34  35
ENDBRANCH  26  29
ENDBRANCH   1  25
TORSDOF 15
ENDMDL
MODEL 2
REMARK VINA RESULT:     -11.3      2.968      9.359
REMARK SMILES COc1cc(Cl)c2c(c1)C=C(C(=O)NCCCNC(=O)c1ccc(-c3c4nc(c(-c5ccc(S(=O)(=O)[O-])cc5)c5ccc([nH]5)c(-c5ccc(S(=O)(=O)[O-])cc5)c5nc(c(-c6ccc(S(=O)(=O)[O-])cc6)c6ccc3[nH]6)C=C5)C=C4)cc1)[C@@H](C(F)(F)F)O2
REMARK SMILES IDX 17 1 16 2 15 3 14 4 12 5 13 6 11 8 3 9 4 10 9 11 5 12 8 13
REMARK SMILES IDX 6 14 7 15 10 16 86 17 81 18 2 19 1 20 82 21 83 22 84 23
REMARK SMILES IDX 85 24 18 25 19 26 20 28 21 29 22 30 80 31 23 32 79 33 24 34
REMARK SMILES IDX 25 35 26 36 73 37 27 38 78 39 72 40 74 41 28 42 77 43 71 44
REMARK SMILES IDX 70 45 29 47 59 48 40 49 58 50 41 51 44 52 57 53 75 54 42 55
REMARK SMILES IDX 43 56 56 58 76 59 45 60 30 61 31 62 39 63 32 64 38 65 33 66
REMARK SMILES IDX 34 67 35 68 36 69 37 70 60 71 61 72 69 73 62 74 68 75 63 76
REMARK SMILES IDX 64 77 65 78 66 79 67 80 46 81 47 82 55 83 48 84 54 85 49 86
REMARK SMILES IDX 50 87 51 88 52 89 53 90
REMARK H PARENT 14 7 18 27 74 46 44 57
REMARK Flexibility Score: inf
ROOT
ATOM      1  C   UNL A   1      36.517  23.648  25.835  1.00  0.00     0.118 C 
ENDROOT
BRANCH   1   2
ATOM      2  C   UNL A   1      35.275  23.173  26.579  1.00  0.00     0.042 C 
BRANCH   2   3
ATOM      3  C   UNL A   1      33.994  23.525  25.834  1.00  0.00     0.118 C 
BRANCH   3   4
ATOM      4  N   UNL A   1      34.232  23.731  24.413  1.00  0.00    -0.352 N 
ATOM      5  C   UNL A   1      33.900  24.644  23.472  1.00  0.00     0.251 C 
ATOM      6  O   UNL A   1      34.344  24.419  22.342  1.00  0.00    -0.270 OA
ATOM      7  H   UNL A   1      34.785  23.011  24.034  1.00  0.00     0.163 HD
BRANCH   5   8
ATOM      8  C   UNL A   1      33.074  25.863  23.711  1.00  0.00     0.067 C 
ATOM      9  C   UNL A   1      32.508  30.007  26.148  1.00  0.00     0.121 A 
ATOM     10  C   UNL A   1      31.366  30.298  25.404  1.00  0.00     0.070 A 
ATOM     11  C   UNL A   1      33.253  28.859  25.855  1.00  0.00     0.058 A 
ATOM     12  C   UNL A   1      30.961  29.432  24.387  1.00  0.00     0.087 A 
ATOM     13  C   UNL A   1      32.840  27.981  24.847  1.00  0.00     0.022 A 
ATOM     14  Cl  UNL A   1      29.537  29.825  23.491  1.00  0.00    -0.080 Cl
ATOM     15  C   UNL A   1      31.687  28.268  24.116  1.00  0.00     0.146 A 
ATOM     16  C   UNL A   1      33.610  26.783  24.533  1.00  0.00     0.025 C 
ATOM     17  O   UNL A   1      31.266  27.462  23.096  1.00  0.00    -0.474 OA
ATOM     18  C   UNL A   1      31.705  26.079  23.132  1.00  0.00     0.314 C 
BRANCH   9  19
ATOM     19  O   UNL A   1      33.011  30.782  27.156  1.00  0.00    -0.497 OA
ATOM     20  C   UNL A   1      34.388  30.591  27.462  1.00  0.00     0.278 C 
ENDBRANCH   9  19
BRANCH  18  21
ATOM     21  C   UNL A   1      30.627  25.223  23.824  1.00  0.00     0.429 C 
ATOM     22  F   UNL A   1      29.446  25.886  23.875  1.00  0.00    -0.167 F 
ATOM     23  F   UNL A   1      30.386  24.059  23.174  1.00  0.00    -0.167 F 
ATOM     24  F   UNL A   1      30.964  24.894  25.093  1.00  0.00    -0.167 F 
ENDBRANCH  18  21
ENDBRANCH   5   8
ENDBRANCH   3   4
ENDBRANCH   2   3
ENDBRANCH   1   2
BRANCH   1  25
ATOM     25  N   UNL A   1      37.620  22.702  25.986  1.00  0.00    -0.352 N 
ATOM     26  C   UNL A   1      38.931  22.940  26.303  1.00  0.00     0.251 C 
ATOM     27  H   UNL A   1      37.387  21.756  25.840  1.00  0.00     0.163 HD
ATOM     28  O   UNL A   1      39.784  22.082  26.064  1.00  0.00    -0.269 OA
BRANCH  26  29
ATOM     29  C   UNL A   1      39.316  24.214  26.935  1.00  0.00     0.039 A 
ATOM     30  C   UNL A   1      40.042  25.159  26.205  1.00  0.00     0.014 A 
ATOM     31  C   UNL A   1      38.998  24.448  28.275  1.00  0.00     0.014 A 
ATOM     32  C   UNL A   1      40.411  26.361  26.811  1.00  0.00     0.010 A 
ATOM     33  C   UNL A   1      39.302  25.672  28.856  1.00  0.00     0.010 A 
ATOM     34  C   UNL A   1      40.032  26.628  28.135  1.00  0.00    -0.014 A 
BRANCH  34  35
ATOM     35  C   UNL A   1      40.457  27.864  28.829  1.00  0.00     0.031 A 
ATOM     36  C   UNL A   1      41.819  27.910  29.466  1.00  0.00     0.074 A 
ATOM     37  C   UNL A   1      39.609  28.902  28.942  1.00  0.00     0.049 A 
ATOM     38  N   UNL A   1      42.348  28.848  30.205  1.00  0.00    -0.248 NA
ATOM     39  C   UNL A   1      42.692  26.739  29.265  1.00  0.00     0.031 C 
ATOM     40  C   UNL A   1      38.256  28.958  28.384  1.00  0.00     0.029 A 
ATOM     41  N   UNL A   1      39.758  30.109  29.575  1.00  0.00    -0.354 N 
ATOM     42  C   UNL A   1      43.602  28.375  30.571  1.00  0.00     0.074 A 
ATOM     43  C   UNL A   1      43.743  27.051  30.009  1.00  0.00     0.031 C 
ATOM     44  C   UNL A   1      37.705  30.145  28.689  1.00  0.00     0.029 A 
ATOM     45  C   UNL A   1      38.649  30.918  29.490  1.00  0.00     0.049 A 
ATOM     46  H   UNL A   1      40.582  30.371  30.047  1.00  0.00     0.167 HD
ATOM     47  C   UNL A   1      44.559  28.999  31.292  1.00  0.00     0.031 A 
ATOM     48  C   UNL A   1      38.420  32.140  30.008  1.00  0.00     0.031 A 
ATOM     49  C   UNL A   1      44.428  30.328  31.819  1.00  0.00     0.049 A 
ATOM     50  C   UNL A   1      39.497  32.808  30.816  1.00  0.00     0.074 A 
ATOM     51  C   UNL A   1      45.366  31.071  32.512  1.00  0.00     0.029 A 
ATOM     52  N   UNL A   1      43.292  31.113  31.706  1.00  0.00    -0.354 N 
ATOM     53  N   UNL A   1      40.693  32.361  31.117  1.00  0.00    -0.248 NA
ATOM     54  C   UNL A   1      39.198  34.144  31.353  1.00  0.00     0.031 C 
ATOM     55  C   UNL A   1      44.783  32.292  32.856  1.00  0.00     0.029 A 
ATOM     56  C   UNL A   1      43.497  32.326  32.336  1.00  0.00     0.049 A 
ATOM     57  H   UNL A   1      42.464  30.848  31.246  1.00  0.00     0.167 HD
ATOM     58  C   UNL A   1      41.295  33.366  31.865  1.00  0.00     0.074 A 
ATOM     59  C   UNL A   1      40.337  34.449  31.962  1.00  0.00     0.031 C 
ATOM     60  C   UNL A   1      42.531  33.389  32.421  1.00  0.00     0.031 A 
BRANCH  47  61
ATOM     61  C   UNL A   1      45.844  28.264  31.546  1.00  0.00    -0.014 A 
ATOM     62  C   UNL A   1      45.972  27.404  32.650  1.00  0.00     0.010 A 
ATOM     63  C   UNL A   1      46.898  28.362  30.621  1.00  0.00     0.010 A 
ATOM     64  C   UNL A   1      47.136  26.653  32.825  1.00  0.00     0.020 A 
ATOM     65  C   UNL A   1      48.056  27.597  30.782  1.00  0.00     0.020 A 
ATOM     66  C   UNL A   1      48.166  26.745  31.883  1.00  0.00     0.054 A 
BRANCH  66  67
ATOM     67  S   UNL A   1      49.635  25.708  32.109  1.00  0.00     0.124 S 
ATOM     68  O   UNL A   1      49.187  24.758  33.124  1.00  0.00    -0.237 OA
ATOM     69  O   UNL A   1      49.834  25.152  30.773  1.00  0.00    -0.237 OA
ATOM     70  O   UNL A   1      50.662  26.648  32.552  1.00  0.00    -0.744 OA
ENDBRANCH  66  67
ENDBRANCH  47  61
BRANCH  48  71
ATOM     71  C   UNL A   1      37.113  32.807  29.768  1.00  0.00    -0.014 A 
ATOM     72  C   UNL A   1      36.111  32.783  30.753  1.00  0.00     0.010 A 
ATOM     73  C   UNL A   1      36.878  33.501  28.567  1.00  0.00     0.010 A 
ATOM     74  C   UNL A   1      34.895  33.440  30.542  1.00  0.00     0.020 A 
ATOM     75  C   UNL A   1      35.671  34.175  28.360  1.00  0.00     0.020 A 
ATOM     76  C   UNL A   1      34.687  34.140  29.349  1.00  0.00     0.054 A 
BRANCH  76  77
ATOM     77  S   UNL A   1      33.119  35.025  29.124  1.00  0.00     0.124 S 
ATOM     78  O   UNL A   1      32.454  34.220  28.104  1.00  0.00    -0.237 OA
ATOM     79  O   UNL A   1      32.536  34.959  30.462  1.00  0.00    -0.237 OA
ATOM     80  O   UNL A   1      33.533  36.358  28.696  1.00  0.00    -0.744 OA
ENDBRANCH  76  77
ENDBRANCH  48  71
BRANCH  60  81
ATOM     81  C   UNL A   1      42.937  34.619  33.180  1.00  0.00    -0.014 A 
ATOM     82  C   UNL A   1      42.771  34.689  34.574  1.00  0.00     0.010 A 
ATOM     83  C   UNL A   1      43.601  35.662  32.509  1.00  0.00     0.010 A 
ATOM     84  C   UNL A   1      43.262  35.787  35.284  1.00  0.00     0.020 A 
ATOM     85  C   UNL A   1      44.112  36.750  33.219  1.00  0.00     0.020 A 
ATOM     86  C   UNL A   1      43.939  36.804  34.605  1.00  0.00     0.054 A 
BRANCH  86  87
ATOM     87  S   UNL A   1      44.618  38.183  35.566  1.00  0.00     0.124 S 
ATOM     88  O   UNL A   1      44.151  39.344  34.813  1.00  0.00    -0.237 OA
ATOM     89  O   UNL A   1      43.996  37.990  36.873  1.00  0.00    -0.237 OA
ATOM     90  O   UNL A   1      46.062  37.959  35.526  1.00  0.00    -0.744 OA
ENDBRANCH  86  87
ENDBRANCH  60  81
ENDBRANCH  34  35
ENDBRANCH  26  29
ENDBRANCH   1  25
TORSDOF 15
ENDMDL
MODEL 3
REMARK VINA RESULT:     -11.1      4.704      9.656
REMARK SMILES COc1cc(Cl)c2c(c1)C=C(C(=O)NCCCNC(=O)c1ccc(-c3c4nc(c(-c5ccc(S(=O)(=O)[O-])cc5)c5ccc([nH]5)c(-c5ccc(S(=O)(=O)[O-])cc5)c5nc(c(-c6ccc(S(=O)(=O)[O-])cc6)c6ccc3[nH]6)C=C5)C=C4)cc1)[C@@H](C(F)(F)F)O2
REMARK SMILES IDX 17 1 16 2 15 3 14 4 12 5 13 6 11 8 3 9 4 10 9 11 5 12 8 13
REMARK SMILES IDX 6 14 7 15 10 16 86 17 81 18 2 19 1 20 82 21 83 22 84 23
REMARK SMILES IDX 85 24 18 25 19 26 20 28 21 29 22 30 80 31 23 32 79 33 24 34
REMARK SMILES IDX 25 35 26 36 73 37 27 38 78 39 72 40 74 41 28 42 77 43 71 44
REMARK SMILES IDX 70 45 29 47 59 48 40 49 58 50 41 51 44 52 57 53 75 54 42 55
REMARK SMILES IDX 43 56 56 58 76 59 45 60 30 61 31 62 39 63 32 64 38 65 33 66
REMARK SMILES IDX 34 67 35 68 36 69 37 70 60 71 61 72 69 73 62 74 68 75 63 76
REMARK SMILES IDX 64 77 65 78 66 79 67 80 46 81 47 82 55 83 48 84 54 85 49 86
REMARK SMILES IDX 50 87 51 88 52 89 53 90
REMARK H PARENT 14 7 18 27 74 46 44 57
REMARK Flexibility Score: inf
ROOT
ATOM      1  C   UNL A   1      40.009  23.371  27.141  1.00  0.00     0.118 C 
ENDROOT
BRANCH   1   2
ATOM      2  C   UNL A   1      39.194  22.265  26.482  1.00  0.00     0.042 C 
BRANCH   2   3
ATOM      3  C   UNL A   1      37.964  22.810  25.770  1.00  0.00     0.118 C 
BRANCH   3   4
ATOM      4  N   UNL A   1      36.745  22.141  26.202  1.00  0.00    -0.352 N 
ATOM      5  C   UNL A   1      35.423  22.211  25.928  1.00  0.00     0.251 C 
ATOM      6  O   UNL A   1      34.714  21.414  26.550  1.00  0.00    -0.270 OA
ATOM      7  H   UNL A   1      36.936  21.450  26.875  1.00  0.00     0.163 HD
BRANCH   5   8
ATOM      8  C   UNL A   1      34.795  23.149  24.952  1.00  0.00     0.067 C 
ATOM      9  C   UNL A   1      33.116  27.600  24.058  1.00  0.00     0.121 A 
ATOM     10  C   UNL A   1      32.857  27.245  22.734  1.00  0.00     0.070 A 
ATOM     11  C   UNL A   1      33.730  26.681  24.914  1.00  0.00     0.058 A 
ATOM     12  C   UNL A   1      33.192  25.968  22.280  1.00  0.00     0.087 A 
ATOM     13  C   UNL A   1      34.053  25.394  24.466  1.00  0.00     0.022 A 
ATOM     14  Cl  UNL A   1      32.850  25.565  20.635  1.00  0.00    -0.080 Cl
ATOM     15  C   UNL A   1      33.777  25.039  23.145  1.00  0.00     0.146 A 
ATOM     16  C   UNL A   1      34.695  24.430  25.351  1.00  0.00     0.025 C 
ATOM     17  O   UNL A   1      34.109  23.810  22.650  1.00  0.00    -0.474 OA
ATOM     18  C   UNL A   1      34.253  22.734  23.614  1.00  0.00     0.314 C 
BRANCH   9  19
ATOM     19  O   UNL A   1      32.846  28.820  24.613  1.00  0.00    -0.497 OA
ATOM     20  C   UNL A   1      33.564  29.135  25.801  1.00  0.00     0.278 C 
ENDBRANCH   9  19
BRANCH  18  21
ATOM     21  C   UNL A   1      32.919  21.971  23.727  1.00  0.00     0.429 C 
ATOM     22  F   UNL A   1      32.145  22.501  24.705  1.00  0.00    -0.167 F 
ATOM     23  F   UNL A   1      32.187  22.024  22.588  1.00  0.00    -0.167 F 
ATOM     24  F   UNL A   1      33.095  20.660  24.013  1.00  0.00    -0.167 F 
ENDBRANCH  18  21
ENDBRANCH   5   8
ENDBRANCH   3   4
ENDBRANCH   2   3
ENDBRANCH   1   2
BRANCH   1  25
ATOM     25  N   UNL A   1      40.738  24.156  26.148  1.00  0.00    -0.352 N 
ATOM     26  C   UNL A   1      40.986  25.504  26.117  1.00  0.00     0.251 C 
ATOM     27  H   UNL A   1      41.104  23.643  25.391  1.00  0.00     0.163 HD
ATOM     28  O   UNL A   1      41.319  26.041  25.058  1.00  0.00    -0.269 OA
BRANCH  26  29
ATOM     29  C   UNL A   1      40.862  26.303  27.349  1.00  0.00     0.039 A 
ATOM     30  C   UNL A   1      39.793  26.076  28.219  1.00  0.00     0.014 A 
ATOM     31  C   UNL A   1      41.786  27.318  27.613  1.00  0.00     0.014 A 
ATOM     32  C   UNL A   1      39.676  26.841  29.380  1.00  0.00     0.010 A 
ATOM     33  C   UNL A   1      41.711  28.030  28.802  1.00  0.00     0.010 A 
ATOM     34  C   UNL A   1      40.642  27.813  29.683  1.00  0.00    -0.014 A 
BRANCH  34  35
ATOM     35  C   UNL A   1      40.517  28.685  30.873  1.00  0.00     0.031 A 
ATOM     36  C   UNL A   1      39.481  29.775  30.873  1.00  0.00     0.074 A 
ATOM     37  C   UNL A   1      41.365  28.541  31.908  1.00  0.00     0.049 A 
ATOM     38  N   UNL A   1      39.272  30.709  31.762  1.00  0.00    -0.248 NA
ATOM     39  C   UNL A   1      38.575  29.837  29.710  1.00  0.00     0.031 C 
ATOM     40  C   UNL A   1      42.424  27.534  32.005  1.00  0.00     0.029 A 
ATOM     41  N   UNL A   1      41.475  29.254  33.073  1.00  0.00    -0.354 N 
ATOM     42  C   UNL A   1      38.228  31.477  31.260  1.00  0.00     0.074 A 
ATOM     43  C   UNL A   1      37.872  30.929  29.971  1.00  0.00     0.031 C 
ATOM     44  C   UNL A   1      43.067  27.685  33.175  1.00  0.00     0.029 A 
ATOM     45  C   UNL A   1      42.490  28.819  33.893  1.00  0.00     0.049 A 
ATOM     46  H   UNL A   1      40.884  30.008  33.302  1.00  0.00     0.167 HD
ATOM     47  C   UNL A   1      37.609  32.532  31.834  1.00  0.00     0.031 A 
ATOM     48  C   UNL A   1      42.912  29.287  35.083  1.00  0.00     0.031 A 
ATOM     49  C   UNL A   1      37.944  33.051  33.130  1.00  0.00     0.049 A 
ATOM     50  C   UNL A   1      42.213  30.469  35.695  1.00  0.00     0.074 A 
ATOM     51  C   UNL A   1      37.333  34.079  33.824  1.00  0.00     0.029 A 
ATOM     52  N   UNL A   1      38.973  32.578  33.928  1.00  0.00    -0.354 N 
ATOM     53  N   UNL A   1      41.201  31.158  35.224  1.00  0.00    -0.248 NA
ATOM     54  C   UNL A   1      42.707  30.936  36.998  1.00  0.00     0.031 C 
ATOM     55  C   UNL A   1      38.021  34.257  35.027  1.00  0.00     0.029 A 
ATOM     56  C   UNL A   1      39.030  33.309  35.099  1.00  0.00     0.049 A 
ATOM     57  H   UNL A   1      39.574  31.834  33.695  1.00  0.00     0.167 HD
ATOM     58  C   UNL A   1      40.927  32.130  36.179  1.00  0.00     0.074 A 
ATOM     59  C   UNL A   1      41.872  31.934  37.259  1.00  0.00     0.031 C 
ATOM     60  C   UNL A   1      39.979  33.098  36.161  1.00  0.00     0.031 A 
BRANCH  47  61
ATOM     61  C   UNL A   1      36.492  33.192  31.077  1.00  0.00    -0.014 A 
ATOM     62  C   UNL A   1      35.182  33.186  31.584  1.00  0.00     0.010 A 
ATOM     63  C   UNL A   1      36.774  33.905  29.899  1.00  0.00     0.010 A 
ATOM     64  C   UNL A   1      34.168  33.882  30.922  1.00  0.00     0.020 A 
ATOM     65  C   UNL A   1      35.766  34.619  29.245  1.00  0.00     0.020 A 
ATOM     66  C   UNL A   1      34.470  34.605  29.764  1.00  0.00     0.054 A 
BRANCH  66  67
ATOM     67  S   UNL A   1      33.143  35.549  28.967  1.00  0.00     0.124 S 
ATOM     68  O   UNL A   1      32.386  36.042  30.115  1.00  0.00    -0.237 OA
ATOM     69  O   UNL A   1      33.885  36.563  28.222  1.00  0.00    -0.237 OA
ATOM     70  O   UNL A   1      32.450  34.556  28.150  1.00  0.00    -0.744 OA
ENDBRANCH  66  67
ENDBRANCH  47  61
BRANCH  48  71
ATOM     71  C   UNL A   1      44.053  28.628  35.771  1.00  0.00    -0.014 A 
ATOM     72  C   UNL A   1      43.825  27.594  36.695  1.00  0.00     0.010 A 
ATOM     73  C   UNL A   1      45.376  29.006  35.479  1.00  0.00     0.010 A 
ATOM     74  C   UNL A   1      44.899  26.950  37.317  1.00  0.00     0.020 A 
ATOM     75  C   UNL A   1      46.453  28.352  36.083  1.00  0.00     0.020 A 
ATOM     76  C   UNL A   1      46.207  27.327  36.998  1.00  0.00     0.054 A 
BRANCH  76  77
ATOM     77  S   UNL A   1      47.582  26.440  37.783  1.00  0.00     0.124 S 
ATOM     78  O   UNL A   1      48.747  27.112  37.217  1.00  0.00    -0.237 OA
ATOM     79  O   UNL A   1      47.336  26.686  39.201  1.00  0.00    -0.237 OA
ATOM     80  O   UNL A   1      47.389  25.057  37.354  1.00  0.00    -0.744 OA
ENDBRANCH  76  77
ENDBRANCH  48  71
BRANCH  60  81
ATOM     81  C   UNL A   1      39.896  34.022  37.341  1.00  0.00    -0.014 A 
ATOM     82  C   UNL A   1      40.639  35.216  37.371  1.00  0.00     0.010 A 
ATOM     83  C   UNL A   1      38.976  33.754  38.371  1.00  0.00     0.010 A 
ATOM     84  C   UNL A   1      40.462  36.125  38.416  1.00  0.00     0.020 A 
ATOM     85  C   UNL A   1      38.782  34.671  39.405  1.00  0.00     0.020 A 
ATOM     86  C   UNL A   1      39.527  35.853  39.420  1.00  0.00     0.054 A 
BRANCH  86  87
ATOM     87  S   UNL A   1      39.280  37.084  40.728  1.00  0.00     0.124 S 
ATOM     88  O   UNL A   1      38.803  36.263  41.838  1.00  0.00    -0.237 OA
ATOM     89  O   UNL A   1      40.619  37.644  40.889  1.00  0.00    -0.237 OA
ATOM     90  O   UNL A   1      38.288  37.998  40.163  1.00  0.00    -0.744 OA
ENDBRANCH  86  87
ENDBRANCH  60  81
ENDBRANCH  34  35
ENDBRANCH  26  29
ENDBRANCH   1  25
TORSDOF 15
ENDMDL
