MODEL 1
REMARK VINA RESULT:     -12.7      0.000      0.000
REMARK SMILES O=C(Cn1c2ccccc2c(=O)c2ccccc21)N[C@@H](Cc1ccccc1)C(=O)NCCCNC(=O)c1ccc(-c2c3nc(c(-c4ccc(S(=O)(=O)[O-])cc4)c4ccc([nH]4)c(-c4ccc(S(=O)(=O)[O-])cc4)c4nc(c(-c5ccc(S(=O)(=O)[O-])cc5)c5ccc2[nH]5)C=C4)C=C3)cc1
REMARK SMILES IDX 32 1 31 2 30 3 28 4 29 5 20 7 19 8 1 9 2 10 3 12 4 13 5 14
REMARK SMILES IDX 18 15 6 16 10 17 13 18 17 19 7 20 9 21 11 22 14 23 16 24
REMARK SMILES IDX 8 25 12 26 15 27 21 28 22 29 23 30 27 31 24 32 26 33 25 34
REMARK SMILES IDX 33 35 34 36 35 37 36 39 37 40 38 41 96 42 39 43 95 44 40 45
REMARK SMILES IDX 41 46 42 47 89 48 43 49 94 50 88 51 90 52 44 53 93 54 87 55
REMARK SMILES IDX 86 56 45 58 75 59 56 60 74 61 57 62 60 63 73 64 91 65 58 66
REMARK SMILES IDX 59 67 72 69 92 70 61 71 46 72 47 73 55 74 48 75 54 76 49 77
REMARK SMILES IDX 50 78 51 79 52 80 53 81 76 82 77 83 85 84 78 85 84 86 79 87
REMARK SMILES IDX 80 88 81 89 82 90 83 91 62 92 63 93 71 94 64 95 70 96 65 97
REMARK SMILES IDX 66 98 67 99 68 100 69 101
REMARK H PARENT 30 6 19 11 34 38 90 57 60 68
REMARK Flexibility Score: inf
ROOT
ATOM      1  C   UNL A   1      32.609  28.382  26.133  1.00  0.00     0.042 C 
ENDROOT
BRANCH   1   2
ATOM      2  C   UNL A   1      31.293  28.043  26.804  1.00  0.00     0.117 C 
BRANCH   2   3
ATOM      3  N   UNL A   1      31.111  26.632  27.043  1.00  0.00    -0.354 N 
ATOM      4  C   UNL A   1      31.278  25.549  26.242  1.00  0.00     0.242 C 
ATOM      5  O   UNL A   1      31.302  24.458  26.827  1.00  0.00    -0.273 OA
ATOM      6  H   UNL A   1      30.811  26.415  27.956  1.00  0.00     0.163 HD
BRANCH   4   7
ATOM      7  C   UNL A   1      31.399  25.601  24.696  1.00  0.00     0.175 C 
BRANCH   7   8
ATOM      8  N   UNL A   1      32.368  24.648  24.134  1.00  0.00    -0.342 N 
ATOM      9  O   UNL A   1      34.159  25.516  25.275  1.00  0.00    -0.273 OA
ATOM     10  C   UNL A   1      33.718  24.717  24.445  1.00  0.00     0.240 C 
ATOM     11  H   UNL A   1      32.051  23.945  23.523  1.00  0.00     0.164 HD
BRANCH  10  12
ATOM     12  C   UNL A   1      34.683  23.890  23.580  1.00  0.00     0.222 C 
BRANCH  12  13
ATOM     13  N   UNL A   1      35.196  22.665  24.232  1.00  0.00    -0.331 N 
ATOM     14  C   UNL A   1      36.441  22.717  24.906  1.00  0.00     0.053 A 
ATOM     15  C   UNL A   1      34.418  21.478  24.211  1.00  0.00     0.053 A 
ATOM     16  C   UNL A   1      37.064  23.908  25.315  1.00  0.00     0.027 A 
ATOM     17  C   UNL A   1      37.097  21.521  25.253  1.00  0.00     0.046 A 
ATOM     18  C   UNL A   1      34.999  20.262  24.629  1.00  0.00     0.046 A 
ATOM     19  C   UNL A   1      33.053  21.422  23.880  1.00  0.00     0.027 A 
ATOM     20  C   UNL A   1      38.296  23.905  25.980  1.00  0.00     0.002 A 
ATOM     21  C   UNL A   1      38.342  21.509  25.899  1.00  0.00     0.014 A 
ATOM     22  C   UNL A   1      36.433  20.237  24.972  1.00  0.00     0.197 A 
ATOM     23  C   UNL A   1      34.262  19.074  24.759  1.00  0.00     0.014 A 
ATOM     24  C   UNL A   1      32.305  20.241  24.019  1.00  0.00     0.002 A 
ATOM     25  C   UNL A   1      38.943  22.708  26.256  1.00  0.00     0.001 A 
ATOM     26  O   UNL A   1      37.052  19.179  25.043  1.00  0.00    -0.288 OA
ATOM     27  C   UNL A   1      32.904  19.071  24.469  1.00  0.00     0.001 A 
ENDBRANCH  12  13
ENDBRANCH  10  12
ENDBRANCH   7   8
BRANCH   7  28
ATOM     28  C   UNL A   1      30.109  25.809  23.855  1.00  0.00     0.070 C 
BRANCH  28  29
ATOM     29  C   UNL A   1      29.691  27.180  23.370  1.00  0.00    -0.045 A 
ATOM     30  C   UNL A   1      28.345  27.577  23.473  1.00  0.00     0.004 A 
ATOM     31  C   UNL A   1      30.602  28.081  22.801  1.00  0.00     0.004 A 
ATOM     32  C   UNL A   1      27.912  28.791  22.932  1.00  0.00     0.000 A 
ATOM     33  C   UNL A   1      30.163  29.285  22.240  1.00  0.00     0.000 A 
ATOM     34  C   UNL A   1      28.815  29.631  22.290  1.00  0.00     0.000 A 
ENDBRANCH  28  29
ENDBRANCH   7  28
ENDBRANCH   4   7
ENDBRANCH   2   3
ENDBRANCH   1   2
BRANCH   1  35
ATOM     35  C   UNL A   1      33.726  28.597  27.144  1.00  0.00     0.118 C 
BRANCH  35  36
ATOM     36  N   UNL A   1      33.781  29.970  27.646  1.00  0.00    -0.352 N 
ATOM     37  C   UNL A   1      34.753  30.687  28.305  1.00  0.00     0.251 C 
ATOM     38  H   UNL A   1      32.958  30.484  27.478  1.00  0.00     0.163 HD
ATOM     39  O   UNL A   1      34.458  31.798  28.745  1.00  0.00    -0.269 OA
BRANCH  37  40
ATOM     40  C   UNL A   1      36.116  30.150  28.537  1.00  0.00     0.039 A 
ATOM     41  C   UNL A   1      36.478  29.546  29.734  1.00  0.00     0.014 A 
ATOM     42  C   UNL A   1      37.065  30.223  27.506  1.00  0.00     0.014 A 
ATOM     43  C   UNL A   1      37.810  29.242  29.989  1.00  0.00     0.010 A 
ATOM     44  C   UNL A   1      38.376  29.770  27.713  1.00  0.00     0.010 A 
ATOM     45  C   UNL A   1      38.779  29.326  28.978  1.00  0.00    -0.014 A 
BRANCH  45  46
ATOM     46  C   UNL A   1      40.174  28.899  29.287  1.00  0.00     0.031 A 
ATOM     47  C   UNL A   1      40.705  27.559  28.844  1.00  0.00     0.074 A 
ATOM     48  C   UNL A   1      41.002  29.778  29.891  1.00  0.00     0.049 A 
ATOM     49  N   UNL A   1      41.928  27.099  28.921  1.00  0.00    -0.248 NA
ATOM     50  C   UNL A   1      39.751  26.608  28.248  1.00  0.00     0.031 C 
ATOM     51  C   UNL A   1      40.606  31.105  30.374  1.00  0.00     0.029 A 
ATOM     52  N   UNL A   1      42.351  29.730  30.141  1.00  0.00    -0.354 N 
ATOM     53  C   UNL A   1      41.890  25.810  28.401  1.00  0.00     0.074 A 
ATOM     54  C   UNL A   1      40.515  25.543  28.043  1.00  0.00     0.031 C 
ATOM     55  C   UNL A   1      41.699  31.784  30.744  1.00  0.00     0.029 A 
ATOM     56  C   UNL A   1      42.863  30.915  30.619  1.00  0.00     0.049 A 
ATOM     57  H   UNL A   1      42.900  28.924  29.994  1.00  0.00     0.167 HD
ATOM     58  C   UNL A   1      42.908  24.936  28.225  1.00  0.00     0.031 A 
ATOM     59  C   UNL A   1      44.126  31.279  30.922  1.00  0.00     0.031 A 
ATOM     60  C   UNL A   1      44.280  25.215  28.564  1.00  0.00     0.049 A 
ATOM     61  C   UNL A   1      45.232  30.282  30.741  1.00  0.00     0.074 A 
ATOM     62  C   UNL A   1      45.386  24.400  28.391  1.00  0.00     0.029 A 
ATOM     63  N   UNL A   1      44.739  26.391  29.137  1.00  0.00    -0.354 N 
ATOM     64  N   UNL A   1      45.172  29.075  30.235  1.00  0.00    -0.248 NA
ATOM     65  C   UNL A   1      46.572  30.688  31.183  1.00  0.00     0.031 C 
ATOM     66  C   UNL A   1      46.500  25.054  28.922  1.00  0.00     0.029 A 
ATOM     67  C   UNL A   1      46.104  26.307  29.361  1.00  0.00     0.049 A 
ATOM     68  H   UNL A   1      44.179  27.171  29.353  1.00  0.00     0.167 HD
ATOM     69  C   UNL A   1      46.464  28.571  30.305  1.00  0.00     0.074 A 
ATOM     70  C   UNL A   1      47.293  29.619  30.867  1.00  0.00     0.031 C 
ATOM     71  C   UNL A   1      46.917  27.345  29.947  1.00  0.00     0.031 A 
BRANCH  58  72
ATOM     72  C   UNL A   1      42.600  23.581  27.637  1.00  0.00    -0.014 A 
ATOM     73  C   UNL A   1      42.227  22.521  28.485  1.00  0.00     0.010 A 
ATOM     74  C   UNL A   1      42.801  23.321  26.269  1.00  0.00     0.010 A 
ATOM     75  C   UNL A   1      42.092  21.223  27.987  1.00  0.00     0.020 A 
ATOM     76  C   UNL A   1      42.638  22.028  25.761  1.00  0.00     0.020 A 
ATOM     77  C   UNL A   1      42.309  20.983  26.628  1.00  0.00     0.054 A 
BRANCH  77  78
ATOM     78  S   UNL A   1      42.157  19.287  26.002  1.00  0.00     0.124 S 
ATOM     79  O   UNL A   1      42.674  18.499  27.116  1.00  0.00    -0.237 OA
ATOM     80  O   UNL A   1      40.722  19.165  25.753  1.00  0.00    -0.237 OA
ATOM     81  O   UNL A   1      42.988  19.291  24.799  1.00  0.00    -0.744 OA
ENDBRANCH  77  78
ENDBRANCH  58  72
BRANCH  59  82
ATOM     82  C   UNL A   1      44.387  32.663  31.409  1.00  0.00    -0.014 A 
ATOM     83  C   UNL A   1      44.304  32.961  32.782  1.00  0.00     0.010 A 
ATOM     84  C   UNL A   1      44.614  33.708  30.497  1.00  0.00     0.010 A 
ATOM     85  C   UNL A   1      44.367  34.284  33.227  1.00  0.00     0.020 A 
ATOM     86  C   UNL A   1      44.714  35.030  30.942  1.00  0.00     0.020 A 
ATOM     87  C   UNL A   1      44.553  35.312  32.301  1.00  0.00     0.054 A 
BRANCH  87  88
ATOM     88  S   UNL A   1      44.559  37.026  32.894  1.00  0.00     0.124 S 
ATOM     89  O   UNL A   1      45.655  37.004  33.859  1.00  0.00    -0.237 OA
ATOM     90  O   UNL A   1      44.812  37.787  31.673  1.00  0.00    -0.237 OA
ATOM     91  O   UNL A   1      43.225  37.195  33.465  1.00  0.00    -0.744 OA
ENDBRANCH  87  88
ENDBRANCH  59  82
BRANCH  71  92
ATOM     92  C   UNL A   1      48.373  27.037  30.182  1.00  0.00    -0.014 A 
ATOM     93  C   UNL A   1      48.773  26.378  31.359  1.00  0.00     0.010 A 
ATOM     94  C   UNL A   1      49.355  27.501  29.288  1.00  0.00     0.010 A 
ATOM     95  C   UNL A   1      50.129  26.214  31.653  1.00  0.00     0.020 A 
ATOM     96  C   UNL A   1      50.711  27.310  29.564  1.00  0.00     0.020 A 
ATOM     97  C   UNL A   1      51.090  26.689  30.757  1.00  0.00     0.054 A 
BRANCH  97  98
ATOM     98  S   UNL A   1      52.845  26.484  31.163  1.00  0.00     0.124 S 
ATOM     99  O   UNL A   1      52.804  25.457  32.201  1.00  0.00    -0.237 OA
ATOM    100  O   UNL A   1      53.424  26.066  29.888  1.00  0.00    -0.237 OA
ATOM    101  O   UNL A   1      53.251  27.813  31.616  1.00  0.00    -0.744 OA
ENDBRANCH  97  98
ENDBRANCH  71  92
ENDBRANCH  45  46
ENDBRANCH  37  40
ENDBRANCH  35  36
ENDBRANCH   1  35
TORSDOF 18
ENDMDL
MODEL 2
REMARK VINA RESULT:     -12.0      1.329      7.883
REMARK SMILES O=C(Cn1c2ccccc2c(=O)c2ccccc21)N[C@@H](Cc1ccccc1)C(=O)NCCCNC(=O)c1ccc(-c2c3nc(c(-c4ccc(S(=O)(=O)[O-])cc4)c4ccc([nH]4)c(-c4ccc(S(=O)(=O)[O-])cc4)c4nc(c(-c5ccc(S(=O)(=O)[O-])cc5)c5ccc2[nH]5)C=C4)C=C3)cc1
REMARK SMILES IDX 32 1 31 2 30 3 28 4 29 5 20 7 19 8 1 9 2 10 3 12 4 13 5 14
REMARK SMILES IDX 18 15 6 16 10 17 13 18 17 19 7 20 9 21 11 22 14 23 16 24
REMARK SMILES IDX 8 25 12 26 15 27 21 28 22 29 23 30 27 31 24 32 26 33 25 34
REMARK SMILES IDX 33 35 34 36 35 37 36 39 37 40 38 41 96 42 39 43 95 44 40 45
REMARK SMILES IDX 41 46 42 47 89 48 43 49 94 50 88 51 90 52 44 53 93 54 87 55
REMARK SMILES IDX 86 56 45 58 75 59 56 60 74 61 57 62 60 63 73 64 91 65 58 66
REMARK SMILES IDX 59 67 72 69 92 70 61 71 46 72 47 73 55 74 48 75 54 76 49 77
REMARK SMILES IDX 50 78 51 79 52 80 53 81 76 82 77 83 85 84 78 85 84 86 79 87
REMARK SMILES IDX 80 88 81 89 82 90 83 91 62 92 63 93 71 94 64 95 70 96 65 97
REMARK SMILES IDX 66 98 67 99 68 100 69 101
REMARK H PARENT 30 6 19 11 34 38 90 57 60 68
REMARK Flexibility Score: inf
ROOT
ATOM      1  C   UNL A   1      33.811  27.921  26.215  1.00  0.00     0.042 C 
ENDROOT
BRANCH   1   2
ATOM      2  C   UNL A   1      33.630  26.421  26.097  1.00  0.00     0.117 C 
BRANCH   2   3
ATOM      3  N   UNL A   1      32.372  25.946  26.617  1.00  0.00    -0.354 N 
ATOM      4  C   UNL A   1      31.269  25.446  26.003  1.00  0.00     0.242 C 
ATOM      5  O   UNL A   1      30.462  24.875  26.749  1.00  0.00    -0.273 OA
ATOM      6  H   UNL A   1      32.299  25.993  27.598  1.00  0.00     0.163 HD
BRANCH   4   7
ATOM      7  C   UNL A   1      30.963  25.576  24.488  1.00  0.00     0.175 C 
BRANCH   7   8
ATOM      8  N   UNL A   1      31.754  24.679  23.633  1.00  0.00    -0.342 N 
ATOM      9  O   UNL A   1      32.075  23.104  25.269  1.00  0.00    -0.273 OA
ATOM     10  C   UNL A   1      32.300  23.502  24.124  1.00  0.00     0.240 C 
ATOM     11  H   UNL A   1      31.900  24.919  22.689  1.00  0.00     0.164 HD
BRANCH  10  12
ATOM     12  C   UNL A   1      33.356  22.800  23.255  1.00  0.00     0.222 C 
BRANCH  12  13
ATOM     13  N   UNL A   1      34.212  21.840  23.986  1.00  0.00    -0.331 N 
ATOM     14  C   UNL A   1      35.375  22.316  24.639  1.00  0.00     0.053 A 
ATOM     15  C   UNL A   1      33.834  20.473  24.058  1.00  0.00     0.053 A 
ATOM     16  C   UNL A   1      35.601  23.667  24.954  1.00  0.00     0.027 A 
ATOM     17  C   UNL A   1      36.361  21.406  25.062  1.00  0.00     0.046 A 
ATOM     18  C   UNL A   1      34.755  19.525  24.554  1.00  0.00     0.046 A 
ATOM     19  C   UNL A   1      32.554  19.980  23.749  1.00  0.00     0.027 A 
ATOM     20  C   UNL A   1      36.768  24.088  25.602  1.00  0.00     0.002 A 
ATOM     21  C   UNL A   1      37.544  21.821  25.691  1.00  0.00     0.014 A 
ATOM     22  C   UNL A   1      36.124  19.964  24.881  1.00  0.00     0.197 A 
ATOM     23  C   UNL A   1      34.413  18.182  24.777  1.00  0.00     0.014 A 
ATOM     24  C   UNL A   1      32.201  18.639  23.981  1.00  0.00     0.002 A 
ATOM     25  C   UNL A   1      37.747  23.169  25.955  1.00  0.00     0.001 A 
ATOM     26  O   UNL A   1      37.035  19.154  25.019  1.00  0.00    -0.288 OA
ATOM     27  C   UNL A   1      33.125  17.744  24.506  1.00  0.00     0.001 A 
ENDBRANCH  12  13
ENDBRANCH  10  12
ENDBRANCH   7   8
BRANCH   7  28
ATOM     28  C   UNL A   1      29.490  25.789  24.042  1.00  0.00     0.070 C 
BRANCH  28  29
ATOM     29  C   UNL A   1      29.006  27.121  23.510  1.00  0.00    -0.045 A 
ATOM     30  C   UNL A   1      29.932  28.040  22.983  1.00  0.00     0.004 A 
ATOM     31  C   UNL A   1      27.654  27.488  23.534  1.00  0.00     0.004 A 
ATOM     32  C   UNL A   1      29.528  29.319  22.587  1.00  0.00     0.000 A 
ATOM     33  C   UNL A   1      27.254  28.775  23.160  1.00  0.00     0.000 A 
ATOM     34  C   UNL A   1      28.194  29.696  22.703  1.00  0.00     0.000 A 
ENDBRANCH  28  29
ENDBRANCH   7  28
ENDBRANCH   4   7
ENDBRANCH   2   3
ENDBRANCH   1   2
BRANCH   1  35
ATOM     35  C   UNL A   1      33.149  28.479  27.467  1.00  0.00     0.118 C 
BRANCH  35  36
ATOM     36  N   UNL A   1      33.267  29.933  27.571  1.00  0.00    -0.352 N 
ATOM     37  C   UNL A   1      34.298  30.763  27.947  1.00  0.00     0.251 C 
ATOM     38  H   UNL A   1      32.445  30.414  27.323  1.00  0.00     0.163 HD
ATOM     39  O   UNL A   1      34.057  31.963  28.085  1.00  0.00    -0.269 OA
BRANCH  37  40
ATOM     40  C   UNL A   1      35.664  30.257  28.228  1.00  0.00     0.039 A 
ATOM     41  C   UNL A   1      36.011  29.718  29.460  1.00  0.00     0.014 A 
ATOM     42  C   UNL A   1      36.629  30.291  27.212  1.00  0.00     0.014 A 
ATOM     43  C   UNL A   1      37.342  29.445  29.753  1.00  0.00     0.010 A 
ATOM     44  C   UNL A   1      37.942  29.866  27.462  1.00  0.00     0.010 A 
ATOM     45  C   UNL A   1      38.328  29.491  28.755  1.00  0.00    -0.014 A 
BRANCH  45  46
ATOM     46  C   UNL A   1      39.723  29.098  29.109  1.00  0.00     0.031 A 
ATOM     47  C   UNL A   1      40.566  29.935  30.036  1.00  0.00     0.074 A 
ATOM     48  C   UNL A   1      40.195  27.915  28.661  1.00  0.00     0.049 A 
ATOM     49  N   UNL A   1      41.743  29.661  30.541  1.00  0.00    -0.248 NA
ATOM     50  C   UNL A   1      40.037  31.246  30.447  1.00  0.00     0.031 C 
ATOM     51  C   UNL A   1      39.478  27.017  27.751  1.00  0.00     0.029 A 
ATOM     52  N   UNL A   1      41.347  27.228  28.956  1.00  0.00    -0.354 N 
ATOM     53  C   UNL A   1      42.099  30.762  31.312  1.00  0.00     0.074 A 
ATOM     54  C   UNL A   1      41.030  31.728  31.182  1.00  0.00     0.031 C 
ATOM     55  C   UNL A   1      40.141  25.857  27.662  1.00  0.00     0.029 A 
ATOM     56  C   UNL A   1      41.379  25.958  28.426  1.00  0.00     0.049 A 
ATOM     57  H   UNL A   1      42.081  27.608  29.493  1.00  0.00     0.167 HD
ATOM     58  C   UNL A   1      43.206  30.945  32.068  1.00  0.00     0.031 A 
ATOM     59  C   UNL A   1      42.292  24.971  28.539  1.00  0.00     0.031 A 
ATOM     60  C   UNL A   1      44.258  29.972  32.211  1.00  0.00     0.049 A 
ATOM     61  C   UNL A   1      43.521  25.210  29.363  1.00  0.00     0.074 A 
ATOM     62  C   UNL A   1      45.404  30.058  32.983  1.00  0.00     0.029 A 
ATOM     63  N   UNL A   1      44.296  28.738  31.579  1.00  0.00    -0.354 N 
ATOM     64  N   UNL A   1      43.828  26.254  30.093  1.00  0.00    -0.248 NA
ATOM     65  C   UNL A   1      44.534  24.147  29.370  1.00  0.00     0.031 C 
ATOM     66  C   UNL A   1      46.168  28.910  32.764  1.00  0.00     0.029 A 
ATOM     67  C   UNL A   1      45.466  28.073  31.912  1.00  0.00     0.049 A 
ATOM     68  H   UNL A   1      43.597  28.386  30.982  1.00  0.00     0.167 HD
ATOM     69  C   UNL A   1      45.074  25.980  30.641  1.00  0.00     0.074 A 
ATOM     70  C   UNL A   1      45.448  24.655  30.189  1.00  0.00     0.031 C 
ATOM     71  C   UNL A   1      45.843  26.764  31.435  1.00  0.00     0.031 A 
BRANCH  58  72
ATOM     72  C   UNL A   1      43.360  32.248  32.815  1.00  0.00    -0.014 A 
ATOM     73  C   UNL A   1      42.996  32.321  34.173  1.00  0.00     0.010 A 
ATOM     74  C   UNL A   1      43.741  33.426  32.146  1.00  0.00     0.010 A 
ATOM     75  C   UNL A   1      42.978  33.548  34.840  1.00  0.00     0.020 A 
ATOM     76  C   UNL A   1      43.753  34.652  32.820  1.00  0.00     0.020 A 
ATOM     77  C   UNL A   1      43.347  34.708  34.155  1.00  0.00     0.054 A 
BRANCH  77  78
ATOM     78  S   UNL A   1      43.292  36.298  35.029  1.00  0.00     0.124 S 
ATOM     79  O   UNL A   1      43.700  35.922  36.379  1.00  0.00    -0.237 OA
ATOM     80  O   UNL A   1      44.251  37.107  34.281  1.00  0.00    -0.237 OA
ATOM     81  O   UNL A   1      41.899  36.716  34.890  1.00  0.00    -0.744 OA
ENDBRANCH  77  78
ENDBRANCH  58  72
BRANCH  59  82
ATOM     82  C   UNL A   1      42.042  23.670  27.857  1.00  0.00    -0.014 A 
ATOM     83  C   UNL A   1      41.300  22.661  28.500  1.00  0.00     0.010 A 
ATOM     84  C   UNL A   1      42.632  23.393  26.612  1.00  0.00     0.010 A 
ATOM     85  C   UNL A   1      41.216  21.380  27.949  1.00  0.00     0.020 A 
ATOM     86  C   UNL A   1      42.520  22.122  26.039  1.00  0.00     0.020 A 
ATOM     87  C   UNL A   1      41.842  21.114  26.730  1.00  0.00     0.054 A 
BRANCH  87  88
ATOM     88  S   UNL A   1      41.780  19.426  26.070  1.00  0.00     0.124 S 
ATOM     89  O   UNL A   1      40.361  19.281  25.756  1.00  0.00    -0.237 OA
ATOM     90  O   UNL A   1      42.675  19.498  24.919  1.00  0.00    -0.237 OA
ATOM     91  O   UNL A   1      42.262  18.607  27.179  1.00  0.00    -0.744 OA
ENDBRANCH  87  88
ENDBRANCH  59  82
BRANCH  71  92
ATOM     92  C   UNL A   1      47.193  26.237  31.848  1.00  0.00    -0.014 A 
ATOM     93  C   UNL A   1      48.293  26.359  30.978  1.00  0.00     0.010 A 
ATOM     94  C   UNL A   1      47.344  25.524  33.050  1.00  0.00     0.010 A 
ATOM     95  C   UNL A   1      49.511  25.751  31.289  1.00  0.00     0.020 A 
ATOM     96  C   UNL A   1      48.571  24.942  33.378  1.00  0.00     0.020 A 
ATOM     97  C   UNL A   1      49.640  25.039  32.485  1.00  0.00     0.054 A 
BRANCH  97  98
ATOM     98  S   UNL A   1      51.224  24.241  32.863  1.00  0.00     0.124 S 
ATOM     99  O   UNL A   1      52.184  25.155  32.251  1.00  0.00    -0.237 OA
ATOM    100  O   UNL A   1      51.227  24.211  34.324  1.00  0.00    -0.237 OA
ATOM    101  O   UNL A   1      51.112  22.933  32.222  1.00  0.00    -0.744 OA
ENDBRANCH  97  98
ENDBRANCH  71  92
ENDBRANCH  45  46
ENDBRANCH  37  40
ENDBRANCH  35  36
ENDBRANCH   1  35
TORSDOF 18
ENDMDL
MODEL 3
REMARK VINA RESULT:     -11.9      2.409      3.029
REMARK SMILES O=C(Cn1c2ccccc2c(=O)c2ccccc21)N[C@@H](Cc1ccccc1)C(=O)NCCCNC(=O)c1ccc(-c2c3nc(c(-c4ccc(S(=O)(=O)[O-])cc4)c4ccc([nH]4)c(-c4ccc(S(=O)(=O)[O-])cc4)c4nc(c(-c5ccc(S(=O)(=O)[O-])cc5)c5ccc2[nH]5)C=C4)C=C3)cc1
REMARK SMILES IDX 32 1 31 2 30 3 28 4 29 5 20 7 19 8 1 9 2 10 3 12 4 13 5 14
REMARK SMILES IDX 18 15 6 16 10 17 13 18 17 19 7 20 9 21 11 22 14 23 16 24
REMARK SMILES IDX 8 25 12 26 15 27 21 28 22 29 23 30 27 31 24 32 26 33 25 34
REMARK SMILES IDX 33 35 34 36 35 37 36 39 37 40 38 41 96 42 39 43 95 44 40 45
REMARK SMILES IDX 41 46 42 47 89 48 43 49 94 50 88 51 90 52 44 53 93 54 87 55
REMARK SMILES IDX 86 56 45 58 75 59 56 60 74 61 57 62 60 63 73 64 91 65 58 66
REMARK SMILES IDX 59 67 72 69 92 70 61 71 46 72 47 73 55 74 48 75 54 76 49 77
REMARK SMILES IDX 50 78 51 79 52 80 53 81 76 82 77 83 85 84 78 85 84 86 79 87
REMARK SMILES IDX 80 88 81 89 82 90 83 91 62 92 63 93 71 94 64 95 70 96 65 97
REMARK SMILES IDX 66 98 67 99 68 100 69 101
REMARK H PARENT 30 6 19 11 34 38 90 57 60 68
REMARK Flexibility Score: inf
ROOT
ATOM      1  C   UNL A   1      33.766  29.643  27.046  1.00  0.00     0.042 C 
ENDROOT
BRANCH   1   2
ATOM      2  C   UNL A   1      33.366  28.526  26.104  1.00  0.00     0.117 C 
BRANCH   2   3
ATOM      3  N   UNL A   1      32.563  27.502  26.726  1.00  0.00    -0.354 N 
ATOM      4  C   UNL A   1      31.957  26.396  26.223  1.00  0.00     0.242 C 
ATOM      5  O   UNL A   1      31.571  25.576  27.067  1.00  0.00    -0.273 OA
ATOM      6  H   UNL A   1      32.429  27.629  27.693  1.00  0.00     0.163 HD
BRANCH   4   7
ATOM      7  C   UNL A   1      31.704  26.132  24.716  1.00  0.00     0.175 C 
BRANCH   7   8
ATOM      8  N   UNL A   1      32.586  25.115  24.125  1.00  0.00    -0.342 N 
ATOM      9  O   UNL A   1      34.389  25.651  25.437  1.00  0.00    -0.273 OA
ATOM     10  C   UNL A   1      33.911  24.986  24.515  1.00  0.00     0.240 C 
ATOM     11  H   UNL A   1      32.228  24.510  23.435  1.00  0.00     0.164 HD
BRANCH  10  12
ATOM     12  C   UNL A   1      34.824  24.119  23.634  1.00  0.00     0.222 C 
BRANCH  12  13
ATOM     13  N   UNL A   1      35.282  22.865  24.271  1.00  0.00    -0.331 N 
ATOM     14  C   UNL A   1      36.517  22.859  24.965  1.00  0.00     0.053 A 
ATOM     15  C   UNL A   1      34.463  21.707  24.216  1.00  0.00     0.053 A 
ATOM     16  C   UNL A   1      37.176  24.020  25.404  1.00  0.00     0.027 A 
ATOM     17  C   UNL A   1      37.124  21.635  25.300  1.00  0.00     0.046 A 
ATOM     18  C   UNL A   1      34.992  20.464  24.621  1.00  0.00     0.046 A 
ATOM     19  C   UNL A   1      33.101  21.707  23.864  1.00  0.00     0.027 A 
ATOM     20  C   UNL A   1      38.397  23.961  26.087  1.00  0.00     0.002 A 
ATOM     21  C   UNL A   1      38.357  21.567  25.964  1.00  0.00     0.014 A 
ATOM     22  C   UNL A   1      36.419  20.381  24.986  1.00  0.00     0.197 A 
ATOM     23  C   UNL A   1      34.210  19.302  24.719  1.00  0.00     0.014 A 
ATOM     24  C   UNL A   1      32.309  20.551  23.970  1.00  0.00     0.002 A 
ATOM     25  C   UNL A   1      38.996  22.736  26.352  1.00  0.00     0.001 A 
ATOM     26  O   UNL A   1      36.998  19.300  25.047  1.00  0.00    -0.288 OA
ATOM     27  C   UNL A   1      32.859  19.352  24.409  1.00  0.00     0.001 A 
ENDBRANCH  12  13
ENDBRANCH  10  12
ENDBRANCH   7   8
BRANCH   7  28
ATOM     28  C   UNL A   1      30.240  26.122  24.198  1.00  0.00     0.070 C 
BRANCH  28  29
ATOM     29  C   UNL A   1      29.644  27.313  23.477  1.00  0.00    -0.045 A 
ATOM     30  C   UNL A   1      30.483  28.186  22.762  1.00  0.00     0.004 A 
ATOM     31  C   UNL A   1      28.271  27.592  23.505  1.00  0.00     0.004 A 
ATOM     32  C   UNL A   1      29.976  29.352  22.180  1.00  0.00     0.000 A 
ATOM     33  C   UNL A   1      27.769  28.771  22.943  1.00  0.00     0.000 A 
ATOM     34  C   UNL A   1      28.624  29.659  22.296  1.00  0.00     0.000 A 
ENDBRANCH  28  29
ENDBRANCH   7  28
ENDBRANCH   4   7
ENDBRANCH   2   3
ENDBRANCH   1   2
BRANCH   1  35
ATOM     35  C   UNL A   1      35.158  29.432  27.623  1.00  0.00     0.118 C 
BRANCH  35  36
ATOM     36  N   UNL A   1      35.268  29.869  29.015  1.00  0.00    -0.352 N 
ATOM     37  C   UNL A   1      36.292  29.824  29.932  1.00  0.00     0.251 C 
ATOM     38  H   UNL A   1      34.443  30.279  29.365  1.00  0.00     0.163 HD
ATOM     39  O   UNL A   1      36.044  30.136  31.097  1.00  0.00    -0.269 OA
BRANCH  37  40
ATOM     40  C   UNL A   1      37.659  29.373  29.575  1.00  0.00     0.039 A 
ATOM     41  C   UNL A   1      38.440  28.622  30.445  1.00  0.00     0.014 A 
ATOM     42  C   UNL A   1      38.173  29.684  28.308  1.00  0.00     0.014 A 
ATOM     43  C   UNL A   1      39.780  28.394  30.160  1.00  0.00     0.010 A 
ATOM     44  C   UNL A   1      39.481  29.315  27.960  1.00  0.00     0.010 A 
ATOM     45  C   UNL A   1      40.321  28.715  28.906  1.00  0.00    -0.014 A 
BRANCH  45  46
ATOM     46  C   UNL A   1      41.743  28.363  28.627  1.00  0.00     0.031 A 
ATOM     47  C   UNL A   1      42.131  27.001  28.111  1.00  0.00     0.074 A 
ATOM     48  C   UNL A   1      42.684  29.324  28.750  1.00  0.00     0.049 A 
ATOM     49  N   UNL A   1      43.303  26.587  27.699  1.00  0.00    -0.248 NA
ATOM     50  C   UNL A   1      41.085  25.966  28.054  1.00  0.00     0.031 C 
ATOM     51  C   UNL A   1      42.435  30.681  29.247  1.00  0.00     0.029 A 
ATOM     52  N   UNL A   1      44.013  29.340  28.408  1.00  0.00    -0.354 N 
ATOM     53  C   UNL A   1      43.140  25.251  27.349  1.00  0.00     0.074 A 
ATOM     54  C   UNL A   1      41.764  24.909  27.630  1.00  0.00     0.031 C 
ATOM     55  C   UNL A   1      43.532  31.425  29.064  1.00  0.00     0.029 A 
ATOM     56  C   UNL A   1      44.594  30.583  28.528  1.00  0.00     0.049 A 
ATOM     57  H   UNL A   1      44.505  28.541  28.108  1.00  0.00     0.167 HD
ATOM     58  C   UNL A   1      44.050  24.395  26.829  1.00  0.00     0.031 A 
ATOM     59  C   UNL A   1      45.840  31.013  28.236  1.00  0.00     0.031 A 
ATOM     60  C   UNL A   1      45.415  24.746  26.531  1.00  0.00     0.049 A 
ATOM     61  C   UNL A   1      46.834  30.036  27.685  1.00  0.00     0.074 A 
ATOM     62  C   UNL A   1      46.400  23.951  25.971  1.00  0.00     0.029 A 
ATOM     63  N   UNL A   1      45.988  25.988  26.759  1.00  0.00    -0.354 N 
ATOM     64  N   UNL A   1      46.652  28.782  27.350  1.00  0.00    -0.248 NA
ATOM     65  C   UNL A   1      48.204  30.524  27.482  1.00  0.00     0.031 C 
ATOM     66  C   UNL A   1      47.585  24.688  25.927  1.00  0.00     0.029 A 
ATOM     67  C   UNL A   1      47.323  25.967  26.389  1.00  0.00     0.049 A 
ATOM     68  H   UNL A   1      45.516  26.769  27.128  1.00  0.00     0.167 HD
ATOM     69  C   UNL A   1      47.887  28.325  26.906  1.00  0.00     0.074 A 
ATOM     70  C   UNL A   1      48.799  29.449  26.978  1.00  0.00     0.031 C 
ATOM     71  C   UNL A   1      48.232  27.083  26.490  1.00  0.00     0.031 A 
BRANCH  58  72
ATOM     72  C   UNL A   1      43.619  22.978  26.539  1.00  0.00    -0.014 A 
ATOM     73  C   UNL A   1      42.684  22.346  27.381  1.00  0.00     0.010 A 
ATOM     74  C   UNL A   1      44.228  22.230  25.514  1.00  0.00     0.010 A 
ATOM     75  C   UNL A   1      42.390  20.989  27.228  1.00  0.00     0.020 A 
ATOM     76  C   UNL A   1      43.915  20.878  25.340  1.00  0.00     0.020 A 
ATOM     77  C   UNL A   1      43.017  20.260  26.214  1.00  0.00     0.054 A 
BRANCH  77  78
ATOM     78  S   UNL A   1      42.645  18.492  26.047  1.00  0.00     0.124 S 
ATOM     79  O   UNL A   1      43.058  17.966  27.344  1.00  0.00    -0.237 OA
ATOM     80  O   UNL A   1      41.206  18.490  25.793  1.00  0.00    -0.237 OA
ATOM     81  O   UNL A   1      43.467  18.076  24.912  1.00  0.00    -0.744 OA
ENDBRANCH  77  78
ENDBRANCH  58  72
BRANCH  59  82
ATOM     82  C   UNL A   1      46.183  32.446  28.454  1.00  0.00    -0.014 A 
ATOM     83  C   UNL A   1      46.059  33.375  27.403  1.00  0.00     0.010 A 
ATOM     84  C   UNL A   1      46.733  32.870  29.676  1.00  0.00     0.010 A 
ATOM     85  C   UNL A   1      46.547  34.676  27.543  1.00  0.00     0.020 A 
ATOM     86  C   UNL A   1      47.190  34.182  29.833  1.00  0.00     0.020 A 
ATOM     87  C   UNL A   1      47.127  35.065  28.752  1.00  0.00     0.054 A 
BRANCH  87  88
ATOM     88  S   UNL A   1      47.818  36.737  28.886  1.00  0.00     0.124 S 
ATOM     89  O   UNL A   1      48.565  36.651  30.138  1.00  0.00    -0.237 OA
ATOM     90  O   UNL A   1      48.630  36.845  27.676  1.00  0.00    -0.237 OA
ATOM     91  O   UNL A   1      46.637  37.595  28.918  1.00  0.00    -0.744 OA
ENDBRANCH  87  88
ENDBRANCH  59  82
BRANCH  71  92
ATOM     92  C   UNL A   1      49.670  26.844  26.110  1.00  0.00    -0.014 A 
ATOM     93  C   UNL A   1      50.105  27.103  24.797  1.00  0.00     0.010 A 
ATOM     94  C   UNL A   1      50.563  26.258  27.025  1.00  0.00     0.010 A 
ATOM     95  C   UNL A   1      51.397  26.754  24.397  1.00  0.00     0.020 A 
ATOM     96  C   UNL A   1      51.866  25.937  26.636  1.00  0.00     0.020 A 
ATOM     97  C   UNL A   1      52.267  26.164  25.318  1.00  0.00     0.054 A 
BRANCH  97  98
ATOM     98  S   UNL A   1      53.935  25.701  24.776  1.00  0.00     0.124 S 
ATOM     99  O   UNL A   1      53.974  26.226  23.414  1.00  0.00    -0.237 OA
ATOM    100  O   UNL A   1      54.789  26.389  25.741  1.00  0.00    -0.237 OA
ATOM    101  O   UNL A   1      53.937  24.243  24.883  1.00  0.00    -0.744 OA
ENDBRANCH  97  98
ENDBRANCH  71  92
ENDBRANCH  45  46
ENDBRANCH  37  40
ENDBRANCH  35  36
ENDBRANCH   1  35
TORSDOF 18
ENDMDL
