MODEL 1
REMARK VINA RESULT:      -9.9      0.000      0.000
REMARK SMILES O=C(NCCCNC(=O)[C@@H]1CN(c2nc(-c3ccccc3)no2)CC[NH2+]1)c1ccc(-c2c3nc(c(-c4ccc(S(=O)(=O)[O-])cc4)c4ccc([nH]4)c(-c4ccc(S(=O)(=O)[O-])cc4)c4nc(c(-c5ccc(S(=O)(=O)[O-])cc5)c5ccc2[nH]5)C=C4)C=C3)cc1
REMARK SMILES IDX 4 1 3 2 1 3 2 4 27 6 28 7 86 8 29 9 85 10 30 11 31 12 32 13
REMARK SMILES IDX 79 14 33 15 84 16 78 17 80 18 34 19 83 20 77 21 76 22 35 24
REMARK SMILES IDX 65 25 46 26 64 27 47 28 50 29 63 30 81 31 48 32 49 33 62 35
REMARK SMILES IDX 82 36 51 37 36 38 37 39 45 40 38 41 44 42 39 43 40 44 41 45
REMARK SMILES IDX 42 46 43 47 66 48 67 49 75 50 68 51 74 52 69 53 70 54 71 55
REMARK SMILES IDX 72 56 73 57 52 58 53 59 61 60 54 61 60 62 55 63 56 64 57 65
REMARK SMILES IDX 58 66 59 67 5 68 6 69 7 70 8 71 9 73 10 74 11 75 26 76 12 77
REMARK SMILES IDX 25 78 24 81 13 82 14 83 23 84 15 85 22 86 16 87 17 88 21 89
REMARK SMILES IDX 18 90 20 91 19 92
REMARK H PARENT 3 5 80 23 50 34 7 72 26 79 26 80
REMARK Flexibility Score: inf
ROOT
ATOM      1  C   UNL A   1      34.746  32.682  28.425  1.00  0.00     0.118 C 
ENDROOT
BRANCH   1   2
ATOM      2  N   UNL A   1      34.023  31.431  28.209  1.00  0.00    -0.352 N 
ATOM      3  O   UNL A   1      33.735  29.299  27.554  1.00  0.00    -0.269 OA
ATOM      4  C   UNL A   1      34.495  30.159  27.986  1.00  0.00     0.251 C 
ATOM      5  H   UNL A   1      33.042  31.511  28.225  1.00  0.00     0.163 HD
BRANCH   4   6
ATOM      6  C   UNL A   1      35.908  29.831  28.271  1.00  0.00     0.039 A 
ATOM      7  C   UNL A   1      36.877  29.999  27.285  1.00  0.00     0.014 A 
ATOM      8  C   UNL A   1      36.280  29.398  29.549  1.00  0.00     0.014 A 
ATOM      9  C   UNL A   1      38.178  29.580  27.515  1.00  0.00     0.010 A 
ATOM     10  C   UNL A   1      37.619  29.091  29.817  1.00  0.00     0.010 A 
ATOM     11  C   UNL A   1      38.576  29.159  28.795  1.00  0.00    -0.014 A 
BRANCH  11  12
ATOM     12  C   UNL A   1      40.020  28.903  29.025  1.00  0.00     0.031 A 
ATOM     13  C   UNL A   1      40.659  27.595  28.653  1.00  0.00     0.074 A 
ATOM     14  C   UNL A   1      40.769  29.919  29.502  1.00  0.00     0.049 A 
ATOM     15  N   UNL A   1      41.923  27.261  28.705  1.00  0.00    -0.248 NA
ATOM     16  C   UNL A   1      39.776  26.523  28.168  1.00  0.00     0.031 C 
ATOM     17  C   UNL A   1      40.247  31.229  29.913  1.00  0.00     0.029 A 
ATOM     18  N   UNL A   1      42.123  30.038  29.678  1.00  0.00    -0.354 N 
ATOM     19  C   UNL A   1      41.990  25.942  28.273  1.00  0.00     0.074 A 
ATOM     20  C   UNL A   1      40.633  25.525  27.987  1.00  0.00     0.031 C 
ATOM     21  C   UNL A   1      41.270  32.040  30.210  1.00  0.00     0.029 A 
ATOM     22  C   UNL A   1      42.513  31.290  30.091  1.00  0.00     0.049 A 
ATOM     23  H   UNL A   1      42.753  29.298  29.524  1.00  0.00     0.167 HD
ATOM     24  C   UNL A   1      43.083  25.156  28.125  1.00  0.00     0.031 A 
ATOM     25  C   UNL A   1      43.735  31.784  30.360  1.00  0.00     0.031 A 
ATOM     26  C   UNL A   1      44.429  25.582  28.414  1.00  0.00     0.049 A 
ATOM     27  C   UNL A   1      44.924  30.884  30.195  1.00  0.00     0.074 A 
ATOM     28  C   UNL A   1      45.605  24.862  28.293  1.00  0.00     0.029 A 
ATOM     29  N   UNL A   1      44.781  26.842  28.876  1.00  0.00    -0.354 N 
ATOM     30  N   UNL A   1      44.962  29.643  29.775  1.00  0.00    -0.248 NA
ATOM     31  C   UNL A   1      46.233  31.450  30.542  1.00  0.00     0.031 C 
ATOM     32  C   UNL A   1      46.662  25.671  28.725  1.00  0.00     0.029 A 
ATOM     33  C   UNL A   1      46.153  26.914  29.062  1.00  0.00     0.049 A 
ATOM     34  H   UNL A   1      44.149  27.578  29.046  1.00  0.00     0.167 HD
ATOM     35  C   UNL A   1      46.301  29.276  29.810  1.00  0.00     0.074 A 
ATOM     36  C   UNL A   1      47.042  30.442  30.250  1.00  0.00     0.031 C 
ATOM     37  C   UNL A   1      46.866  28.079  29.517  1.00  0.00     0.031 A 
BRANCH  24  38
ATOM     38  C   UNL A   1      42.876  23.745  27.638  1.00  0.00    -0.014 A 
ATOM     39  C   UNL A   1      42.600  22.701  28.537  1.00  0.00     0.010 A 
ATOM     40  C   UNL A   1      42.882  23.474  26.256  1.00  0.00     0.010 A 
ATOM     41  C   UNL A   1      42.351  21.407  28.065  1.00  0.00     0.020 A 
ATOM     42  C   UNL A   1      42.612  22.188  25.779  1.00  0.00     0.020 A 
ATOM     43  C   UNL A   1      42.357  21.160  26.689  1.00  0.00     0.054 A 
BRANCH  43  44
ATOM     44  S   UNL A   1      41.983  19.482  26.105  1.00  0.00     0.124 S 
ATOM     45  O   UNL A   1      42.801  19.395  24.898  1.00  0.00    -0.237 OA
ATOM     46  O   UNL A   1      42.421  18.649  27.223  1.00  0.00    -0.237 OA
ATOM     47  O   UNL A   1      40.540  19.507  25.879  1.00  0.00    -0.744 OA
ENDBRANCH  43  44
ENDBRANCH  24  38
BRANCH  25  48
ATOM     48  C   UNL A   1      43.882  33.180  30.853  1.00  0.00    -0.014 A 
ATOM     49  C   UNL A   1      43.743  33.487  32.217  1.00  0.00     0.010 A 
ATOM     50  C   UNL A   1      44.171  34.216  29.945  1.00  0.00     0.010 A 
ATOM     51  C   UNL A   1      43.862  34.809  32.658  1.00  0.00     0.020 A 
ATOM     52  C   UNL A   1      44.326  35.531  30.386  1.00  0.00     0.020 A 
ATOM     53  C   UNL A   1      44.151  35.821  31.739  1.00  0.00     0.054 A 
BRANCH  53  54
ATOM     54  S   UNL A   1      44.333  37.527  32.331  1.00  0.00     0.124 S 
ATOM     55  O   UNL A   1      43.473  37.529  33.510  1.00  0.00    -0.237 OA
ATOM     56  O   UNL A   1      45.767  37.622  32.592  1.00  0.00    -0.237 OA
ATOM     57  O   UNL A   1      43.859  38.329  31.206  1.00  0.00    -0.744 OA
ENDBRANCH  53  54
ENDBRANCH  25  48
BRANCH  37  58
ATOM     58  C   UNL A   1      48.360  27.989  29.659  1.00  0.00    -0.014 A 
ATOM     59  C   UNL A   1      49.210  28.310  28.586  1.00  0.00     0.010 A 
ATOM     60  C   UNL A   1      48.921  27.581  30.883  1.00  0.00     0.010 A 
ATOM     61  C   UNL A   1      50.594  28.174  28.717  1.00  0.00     0.020 A 
ATOM     62  C   UNL A   1      50.306  27.471  31.027  1.00  0.00     0.020 A 
ATOM     63  C   UNL A   1      51.132  27.747  29.935  1.00  0.00     0.054 A 
BRANCH  63  64
ATOM     64  S   UNL A   1      52.931  27.584  30.085  1.00  0.00     0.124 S 
ATOM     65  O   UNL A   1      53.068  26.238  30.636  1.00  0.00    -0.237 OA
ATOM     66  O   UNL A   1      53.386  27.747  28.706  1.00  0.00    -0.237 OA
ATOM     67  O   UNL A   1      53.303  28.668  30.990  1.00  0.00    -0.744 OA
ENDBRANCH  63  64
ENDBRANCH  37  58
ENDBRANCH  11  12
ENDBRANCH   4   6
ENDBRANCH   1   2
BRANCH   1  68
ATOM     68  C   UNL A   1      33.801  33.877  28.503  1.00  0.00     0.042 C 
BRANCH  68  69
ATOM     69  C   UNL A   1      34.120  34.775  29.692  1.00  0.00     0.118 C 
BRANCH  69  70
ATOM     70  N   UNL A   1      33.714  34.157  30.944  1.00  0.00    -0.351 N 
ATOM     71  C   UNL A   1      34.372  33.507  31.940  1.00  0.00     0.280 C 
ATOM     72  H   UNL A   1      32.746  34.227  31.107  1.00  0.00     0.163 HD
ATOM     73  O   UNL A   1      33.640  32.974  32.786  1.00  0.00    -0.268 OA
BRANCH  71  74
ATOM     74  C   UNL A   1      35.896  33.522  32.176  1.00  0.00     0.292 C 
ATOM     75  C   UNL A   1      36.176  32.439  33.250  1.00  0.00     0.197 C 
ATOM     76  N   UNL A   1      36.471  34.865  32.479  1.00  0.00    -0.333 N 
ATOM     77  N   UNL A   1      37.544  32.494  33.773  1.00  0.00    -0.312 N 
ATOM     78  C   UNL A   1      37.909  34.709  32.786  1.00  0.00     0.283 C 
ATOM     79  H   UNL A   1      35.990  35.271  33.281  1.00  0.00     0.347 HD
ATOM     80  H   UNL A   1      36.354  35.482  31.675  1.00  0.00     0.347 HD
ATOM     81  C   UNL A   1      38.117  33.811  34.027  1.00  0.00     0.183 C 
BRANCH  77  82
ATOM     82  C   UNL A   1      38.374  31.442  33.650  1.00  0.00     0.324 A 
ATOM     83  N   UNL A   1      39.622  31.392  33.255  1.00  0.00    -0.171 NA
ATOM     84  O   UNL A   1      37.882  30.218  34.015  1.00  0.00    -0.315 OA
ATOM     85  C   UNL A   1      39.935  30.064  33.432  1.00  0.00     0.204 A 
ATOM     86  N   UNL A   1      38.912  29.298  33.839  1.00  0.00    -0.055 NA
BRANCH  85  87
ATOM     87  C   UNL A   1      41.283  29.548  33.310  1.00  0.00     0.023 A 
ATOM     88  C   UNL A   1      42.380  30.308  33.729  1.00  0.00     0.012 A 
ATOM     89  C   UNL A   1      41.496  28.309  32.691  1.00  0.00     0.012 A 
ATOM     90  C   UNL A   1      43.678  29.836  33.526  1.00  0.00     0.001 A 
ATOM     91  C   UNL A   1      42.795  27.847  32.474  1.00  0.00     0.001 A 
ATOM     92  C   UNL A   1      43.885  28.612  32.890  1.00  0.00     0.000 A 
ENDBRANCH  85  87
ENDBRANCH  77  82
ENDBRANCH  71  74
ENDBRANCH  69  70
ENDBRANCH  68  69
ENDBRANCH   1  68
TORSDOF 15
ENDMDL
MODEL 2
REMARK VINA RESULT:      -9.8      3.583      6.292
REMARK SMILES O=C(NCCCNC(=O)[C@@H]1CN(c2nc(-c3ccccc3)no2)CC[NH2+]1)c1ccc(-c2c3nc(c(-c4ccc(S(=O)(=O)[O-])cc4)c4ccc([nH]4)c(-c4ccc(S(=O)(=O)[O-])cc4)c4nc(c(-c5ccc(S(=O)(=O)[O-])cc5)c5ccc2[nH]5)C=C4)C=C3)cc1
REMARK SMILES IDX 4 1 3 2 1 3 2 4 27 6 28 7 86 8 29 9 85 10 30 11 31 12 32 13
REMARK SMILES IDX 79 14 33 15 84 16 78 17 80 18 34 19 83 20 77 21 76 22 35 24
REMARK SMILES IDX 65 25 46 26 64 27 47 28 50 29 63 30 81 31 48 32 49 33 62 35
REMARK SMILES IDX 82 36 51 37 36 38 37 39 45 40 38 41 44 42 39 43 40 44 41 45
REMARK SMILES IDX 42 46 43 47 66 48 67 49 75 50 68 51 74 52 69 53 70 54 71 55
REMARK SMILES IDX 72 56 73 57 52 58 53 59 61 60 54 61 60 62 55 63 56 64 57 65
REMARK SMILES IDX 58 66 59 67 5 68 6 69 7 70 8 71 9 73 10 74 11 75 26 76 12 77
REMARK SMILES IDX 25 78 24 81 13 82 14 83 23 84 15 85 22 86 16 87 17 88 21 89
REMARK SMILES IDX 18 90 20 91 19 92
REMARK H PARENT 3 5 80 23 50 34 7 72 26 79 26 80
REMARK Flexibility Score: inf
ROOT
ATOM      1  C   UNL A   1      34.077  28.388  26.340  1.00  0.00     0.118 C 
ENDROOT
BRANCH   1   2
ATOM      2  N   UNL A   1      33.845  29.726  26.881  1.00  0.00    -0.352 N 
ATOM      3  O   UNL A   1      34.049  31.428  28.335  1.00  0.00    -0.269 OA
ATOM      4  C   UNL A   1      34.558  30.443  27.812  1.00  0.00     0.251 C 
ATOM      5  H   UNL A   1      33.052  30.185  26.523  1.00  0.00     0.163 HD
BRANCH   4   6
ATOM      6  C   UNL A   1      35.931  30.032  28.174  1.00  0.00     0.039 A 
ATOM      7  C   UNL A   1      36.980  30.237  27.280  1.00  0.00     0.014 A 
ATOM      8  C   UNL A   1      36.187  29.480  29.434  1.00  0.00     0.014 A 
ATOM      9  C   UNL A   1      38.243  29.745  27.570  1.00  0.00     0.010 A 
ATOM     10  C   UNL A   1      37.488  29.094  29.774  1.00  0.00     0.010 A 
ATOM     11  C   UNL A   1      38.523  29.204  28.836  1.00  0.00    -0.014 A 
BRANCH  11  12
ATOM     12  C   UNL A   1      39.935  28.866  29.150  1.00  0.00     0.031 A 
ATOM     13  C   UNL A   1      40.538  27.548  28.757  1.00  0.00     0.074 A 
ATOM     14  C   UNL A   1      40.694  29.821  29.728  1.00  0.00     0.049 A 
ATOM     15  N   UNL A   1      41.778  27.150  28.878  1.00  0.00    -0.248 NA
ATOM     16  C   UNL A   1      39.644  26.544  28.161  1.00  0.00     0.031 C 
ATOM     17  C   UNL A   1      40.204  31.134  30.167  1.00  0.00     0.029 A 
ATOM     18  N   UNL A   1      42.036  29.865  30.001  1.00  0.00    -0.354 N 
ATOM     19  C   UNL A   1      41.815  25.851  28.386  1.00  0.00     0.074 A 
ATOM     20  C   UNL A   1      40.465  25.515  27.989  1.00  0.00     0.031 C 
ATOM     21  C   UNL A   1      41.240  31.879  30.574  1.00  0.00     0.029 A 
ATOM     22  C   UNL A   1      42.453  31.076  30.501  1.00  0.00     0.049 A 
ATOM     23  H   UNL A   1      42.641  29.103  29.853  1.00  0.00     0.167 HD
ATOM     24  C   UNL A   1      42.880  25.021  28.273  1.00  0.00     0.031 A 
ATOM     25  C   UNL A   1      43.674  31.496  30.877  1.00  0.00     0.031 A 
ATOM     26  C   UNL A   1      44.220  25.366  28.674  1.00  0.00     0.049 A 
ATOM     27  C   UNL A   1      44.830  30.548  30.749  1.00  0.00     0.074 A 
ATOM     28  C   UNL A   1      45.368  24.595  28.598  1.00  0.00     0.029 A 
ATOM     29  N   UNL A   1      44.595  26.584  29.221  1.00  0.00    -0.354 N 
ATOM     30  N   UNL A   1      44.840  29.328  30.271  1.00  0.00    -0.248 NA
ATOM     31  C   UNL A   1      46.135  31.033  31.212  1.00  0.00     0.031 C 
ATOM     32  C   UNL A   1      46.427  25.331  29.141  1.00  0.00     0.029 A 
ATOM     33  C   UNL A   1      45.953  26.581  29.504  1.00  0.00     0.049 A 
ATOM     34  H   UNL A   1      43.987  27.342  29.385  1.00  0.00     0.167 HD
ATOM     35  C   UNL A   1      46.156  28.894  30.378  1.00  0.00     0.074 A 
ATOM     36  C   UNL A   1      46.916  30.001  30.925  1.00  0.00     0.031 C 
ATOM     37  C   UNL A   1      46.685  27.686  30.064  1.00  0.00     0.031 A 
BRANCH  24  38
ATOM     38  C   UNL A   1      42.643  23.646  27.703  1.00  0.00    -0.014 A 
ATOM     39  C   UNL A   1      42.880  23.372  26.345  1.00  0.00     0.010 A 
ATOM     40  C   UNL A   1      42.254  22.594  28.555  1.00  0.00     0.010 A 
ATOM     41  C   UNL A   1      42.713  22.077  25.844  1.00  0.00     0.020 A 
ATOM     42  C   UNL A   1      42.108  21.293  28.062  1.00  0.00     0.020 A 
ATOM     43  C   UNL A   1      42.330  21.046  26.706  1.00  0.00     0.054 A 
BRANCH  43  44
ATOM     44  S   UNL A   1      42.169  19.366  26.036  1.00  0.00     0.124 S 
ATOM     45  O   UNL A   1      40.734  19.284  25.772  1.00  0.00    -0.237 OA
ATOM     46  O   UNL A   1      43.024  19.410  24.853  1.00  0.00    -0.237 OA
ATOM     47  O   UNL A   1      42.652  18.512  27.119  1.00  0.00    -0.744 OA
ENDBRANCH  43  44
ENDBRANCH  24  38
BRANCH  25  48
ATOM     48  C   UNL A   1      43.849  32.859  31.449  1.00  0.00    -0.014 A 
ATOM     49  C   UNL A   1      43.755  33.084  32.832  1.00  0.00     0.010 A 
ATOM     50  C   UNL A   1      44.121  33.945  30.595  1.00  0.00     0.010 A 
ATOM     51  C   UNL A   1      43.900  34.377  33.348  1.00  0.00     0.020 A 
ATOM     52  C   UNL A   1      44.302  35.230  31.111  1.00  0.00     0.020 A 
ATOM     53  C   UNL A   1      44.171  35.440  32.483  1.00  0.00     0.054 A 
BRANCH  53  54
ATOM     54  S   UNL A   1      44.387  37.105  33.170  1.00  0.00     0.124 S 
ATOM     55  O   UNL A   1      44.144  37.946  32.003  1.00  0.00    -0.237 OA
ATOM     56  O   UNL A   1      43.364  37.154  34.212  1.00  0.00    -0.237 OA
ATOM     57  O   UNL A   1      45.763  37.094  33.661  1.00  0.00    -0.744 OA
ENDBRANCH  53  54
ENDBRANCH  25  48
BRANCH  37  58
ATOM     58  C   UNL A   1      48.160  27.516  30.303  1.00  0.00    -0.014 A 
ATOM     59  C   UNL A   1      49.100  27.909  29.334  1.00  0.00     0.010 A 
ATOM     60  C   UNL A   1      48.610  26.960  31.514  1.00  0.00     0.010 A 
ATOM     61  C   UNL A   1      50.464  27.699  29.548  1.00  0.00     0.020 A 
ATOM     62  C   UNL A   1      49.975  26.775  31.744  1.00  0.00     0.020 A 
ATOM     63  C   UNL A   1      50.891  27.127  30.749  1.00  0.00     0.054 A 
BRANCH  63  64
ATOM     64  S   UNL A   1      52.667  26.870  31.010  1.00  0.00     0.124 S 
ATOM     65  O   UNL A   1      53.074  26.259  29.747  1.00  0.00    -0.237 OA
ATOM     66  O   UNL A   1      53.159  28.226  31.240  1.00  0.00    -0.237 OA
ATOM     67  O   UNL A   1      52.722  25.988  32.174  1.00  0.00    -0.744 OA
ENDBRANCH  63  64
ENDBRANCH  37  58
ENDBRANCH  11  12
ENDBRANCH   4   6
ENDBRANCH   1   2
BRANCH   1  68
ATOM     68  C   UNL A   1      32.770  27.636  26.107  1.00  0.00     0.042 C 
BRANCH  68  69
ATOM     69  C   UNL A   1      32.173  27.949  24.740  1.00  0.00     0.118 C 
BRANCH  69  70
ATOM     70  N   UNL A   1      30.774  27.561  24.674  1.00  0.00    -0.351 N 
ATOM     71  C   UNL A   1      30.101  26.396  24.866  1.00  0.00     0.280 C 
ATOM     72  H   UNL A   1      30.181  28.310  24.440  1.00  0.00     0.163 HD
ATOM     73  O   UNL A   1      28.901  26.431  24.555  1.00  0.00    -0.268 OA
BRANCH  71  74
ATOM     74  C   UNL A   1      30.654  25.137  25.564  1.00  0.00     0.292 C 
ATOM     75  C   UNL A   1      31.310  24.280  24.451  1.00  0.00     0.197 C 
ATOM     76  N   UNL A   1      29.669  24.407  26.414  1.00  0.00    -0.333 N 
ATOM     77  N   UNL A   1      31.665  22.932  24.901  1.00  0.00    -0.312 N 
ATOM     78  C   UNL A   1      30.305  23.174  26.927  1.00  0.00     0.283 C 
ATOM     79  H   UNL A   1      28.849  24.165  25.859  1.00  0.00     0.347 HD
ATOM     80  H   UNL A   1      29.379  24.997  27.194  1.00  0.00     0.347 HD
ATOM     81  C   UNL A   1      30.718  22.239  25.768  1.00  0.00     0.183 C 
BRANCH  77  82
ATOM     82  C   UNL A   1      32.941  22.505  24.869  1.00  0.00     0.324 A 
ATOM     83  N   UNL A   1      34.057  23.163  25.061  1.00  0.00    -0.171 NA
ATOM     84  O   UNL A   1      33.142  21.172  24.631  1.00  0.00    -0.315 OA
ATOM     85  C   UNL A   1      35.003  22.166  24.985  1.00  0.00     0.204 A 
ATOM     86  N   UNL A   1      34.517  20.955  24.677  1.00  0.00    -0.055 NA
BRANCH  85  87
ATOM     87  C   UNL A   1      36.396  22.373  25.327  1.00  0.00     0.023 A 
ATOM     88  C   UNL A   1      37.307  21.313  25.284  1.00  0.00     0.012 A 
ATOM     89  C   UNL A   1      36.818  23.630  25.783  1.00  0.00     0.012 A 
ATOM     90  C   UNL A   1      38.626  21.505  25.700  1.00  0.00     0.001 A 
ATOM     91  C   UNL A   1      38.131  23.815  26.213  1.00  0.00     0.001 A 
ATOM     92  C   UNL A   1      39.035  22.753  26.173  1.00  0.00     0.000 A 
ENDBRANCH  85  87
ENDBRANCH  77  82
ENDBRANCH  71  74
ENDBRANCH  69  70
ENDBRANCH  68  69
ENDBRANCH   1  68
TORSDOF 15
ENDMDL
MODEL 3
REMARK VINA RESULT:      -9.8      1.537      2.622
REMARK SMILES O=C(NCCCNC(=O)[C@@H]1CN(c2nc(-c3ccccc3)no2)CC[NH2+]1)c1ccc(-c2c3nc(c(-c4ccc(S(=O)(=O)[O-])cc4)c4ccc([nH]4)c(-c4ccc(S(=O)(=O)[O-])cc4)c4nc(c(-c5ccc(S(=O)(=O)[O-])cc5)c5ccc2[nH]5)C=C4)C=C3)cc1
REMARK SMILES IDX 4 1 3 2 1 3 2 4 27 6 28 7 86 8 29 9 85 10 30 11 31 12 32 13
REMARK SMILES IDX 79 14 33 15 84 16 78 17 80 18 34 19 83 20 77 21 76 22 35 24
REMARK SMILES IDX 65 25 46 26 64 27 47 28 50 29 63 30 81 31 48 32 49 33 62 35
REMARK SMILES IDX 82 36 51 37 36 38 37 39 45 40 38 41 44 42 39 43 40 44 41 45
REMARK SMILES IDX 42 46 43 47 66 48 67 49 75 50 68 51 74 52 69 53 70 54 71 55
REMARK SMILES IDX 72 56 73 57 52 58 53 59 61 60 54 61 60 62 55 63 56 64 57 65
REMARK SMILES IDX 58 66 59 67 5 68 6 69 7 70 8 71 9 73 10 74 11 75 26 76 12 77
REMARK SMILES IDX 25 78 24 81 13 82 14 83 23 84 15 85 22 86 16 87 17 88 21 89
REMARK SMILES IDX 18 90 20 91 19 92
REMARK H PARENT 3 5 80 23 50 34 7 72 26 79 26 80
REMARK Flexibility Score: inf
ROOT
ATOM      1  C   UNL A   1      34.528  32.562  28.850  1.00  0.00     0.118 C 
ENDROOT
BRANCH   1   2
ATOM      2  N   UNL A   1      33.838  31.346  28.425  1.00  0.00    -0.352 N 
ATOM      3  O   UNL A   1      33.614  29.331  27.455  1.00  0.00    -0.269 OA
ATOM      4  C   UNL A   1      34.341  30.128  28.037  1.00  0.00     0.251 C 
ATOM      5  H   UNL A   1      32.856  31.410  28.415  1.00  0.00     0.163 HD
BRANCH   4   6
ATOM      6  C   UNL A   1      35.749  29.780  28.326  1.00  0.00     0.039 A 
ATOM      7  C   UNL A   1      36.724  29.938  27.342  1.00  0.00     0.014 A 
ATOM      8  C   UNL A   1      36.112  29.339  29.603  1.00  0.00     0.014 A 
ATOM      9  C   UNL A   1      38.018  29.502  27.575  1.00  0.00     0.010 A 
ATOM     10  C   UNL A   1      37.446  29.014  29.875  1.00  0.00     0.010 A 
ATOM     11  C   UNL A   1      38.406  29.072  28.855  1.00  0.00    -0.014 A 
BRANCH  11  12
ATOM     12  C   UNL A   1      39.847  28.796  29.089  1.00  0.00     0.031 A 
ATOM     13  C   UNL A   1      40.478  27.496  28.679  1.00  0.00     0.074 A 
ATOM     14  C   UNL A   1      40.600  29.790  29.606  1.00  0.00     0.049 A 
ATOM     15  N   UNL A   1      41.739  27.150  28.731  1.00  0.00    -0.248 NA
ATOM     16  C   UNL A   1      39.591  26.448  28.152  1.00  0.00     0.031 C 
ATOM     17  C   UNL A   1      40.084  31.089  30.055  1.00  0.00     0.029 A 
ATOM     18  N   UNL A   1      41.952  29.891  29.797  1.00  0.00    -0.354 N 
ATOM     19  C   UNL A   1      41.798  25.845  28.256  1.00  0.00     0.074 A 
ATOM     20  C   UNL A   1      40.441  25.449  27.945  1.00  0.00     0.031 C 
ATOM     21  C   UNL A   1      41.112  31.881  30.388  1.00  0.00     0.029 A 
ATOM     22  C   UNL A   1      42.350  31.125  30.255  1.00  0.00     0.049 A 
ATOM     23  H   UNL A   1      42.578  29.151  29.624  1.00  0.00     0.167 HD
ATOM     24  C   UNL A   1      42.887  25.056  28.091  1.00  0.00     0.031 A 
ATOM     25  C   UNL A   1      43.573  31.600  30.550  1.00  0.00     0.031 A 
ATOM     26  C   UNL A   1      44.233  25.461  28.405  1.00  0.00     0.049 A 
ATOM     27  C   UNL A   1      44.756  30.697  30.366  1.00  0.00     0.074 A 
ATOM     28  C   UNL A   1      45.405  24.735  28.271  1.00  0.00     0.029 A 
ATOM     29  N   UNL A   1      44.591  26.702  28.911  1.00  0.00    -0.354 N 
ATOM     30  N   UNL A   1      44.787  29.469  29.905  1.00  0.00    -0.248 NA
ATOM     31  C   UNL A   1      46.066  31.239  30.742  1.00  0.00     0.031 C 
ATOM     32  C   UNL A   1      46.464  25.520  28.738  1.00  0.00     0.029 A 
ATOM     33  C   UNL A   1      45.962  26.756  29.111  1.00  0.00     0.049 A 
ATOM     34  H   UNL A   1      43.964  27.437  29.101  1.00  0.00     0.167 HD
ATOM     35  C   UNL A   1      46.123  29.090  29.939  1.00  0.00     0.074 A 
ATOM     36  C   UNL A   1      46.870  30.235  30.423  1.00  0.00     0.031 C 
ATOM     37  C   UNL A   1      46.681  27.899  29.611  1.00  0.00     0.031 A 
BRANCH  24  38
ATOM     38  C   UNL A   1      42.673  23.663  27.556  1.00  0.00    -0.014 A 
ATOM     39  C   UNL A   1      43.023  23.331  26.236  1.00  0.00     0.010 A 
ATOM     40  C   UNL A   1      42.186  22.654  28.409  1.00  0.00     0.010 A 
ATOM     41  C   UNL A   1      42.874  22.020  25.772  1.00  0.00     0.020 A 
ATOM     42  C   UNL A   1      42.057  21.337  27.956  1.00  0.00     0.020 A 
ATOM     43  C   UNL A   1      42.393  21.031  26.636  1.00  0.00     0.054 A 
BRANCH  43  44
ATOM     44  S   UNL A   1      42.257  19.329  26.020  1.00  0.00     0.124 S 
ATOM     45  O   UNL A   1      43.049  19.389  24.793  1.00  0.00    -0.237 OA
ATOM     46  O   UNL A   1      42.841  18.547  27.107  1.00  0.00    -0.237 OA
ATOM     47  O   UNL A   1      40.821  19.144  25.824  1.00  0.00    -0.744 OA
ENDBRANCH  43  44
ENDBRANCH  24  38
BRANCH  25  48
ATOM     48  C   UNL A   1      43.727  32.978  31.090  1.00  0.00    -0.014 A 
ATOM     49  C   UNL A   1      43.823  33.209  32.473  1.00  0.00     0.010 A 
ATOM     50  C   UNL A   1      43.784  34.073  30.208  1.00  0.00     0.010 A 
ATOM     51  C   UNL A   1      43.944  34.514  32.963  1.00  0.00     0.020 A 
ATOM     52  C   UNL A   1      43.941  35.373  30.692  1.00  0.00     0.020 A 
ATOM     53  C   UNL A   1      44.001  35.586  32.069  1.00  0.00     0.054 A 
BRANCH  53  54
ATOM     54  S   UNL A   1      44.189  37.270  32.718  1.00  0.00     0.124 S 
ATOM     55  O   UNL A   1      43.058  37.366  33.635  1.00  0.00    -0.237 OA
ATOM     56  O   UNL A   1      45.509  37.224  33.342  1.00  0.00    -0.237 OA
ATOM     57  O   UNL A   1      44.103  38.106  31.523  1.00  0.00    -0.744 OA
ENDBRANCH  53  54
ENDBRANCH  25  48
BRANCH  37  58
ATOM     58  C   UNL A   1      48.173  27.791  29.763  1.00  0.00    -0.014 A 
ATOM     59  C   UNL A   1      48.747  27.320  30.958  1.00  0.00     0.010 A 
ATOM     60  C   UNL A   1      49.011  28.163  28.697  1.00  0.00     0.010 A 
ATOM     61  C   UNL A   1      50.135  27.273  31.103  1.00  0.00     0.020 A 
ATOM     62  C   UNL A   1      50.400  28.090  28.828  1.00  0.00     0.020 A 
ATOM     63  C   UNL A   1      50.952  27.666  30.039  1.00  0.00     0.054 A 
BRANCH  63  64
ATOM     64  S   UNL A   1      52.752  27.590  30.246  1.00  0.00     0.124 S 
ATOM     65  O   UNL A   1      53.010  26.157  30.128  1.00  0.00    -0.237 OA
ATOM     66  O   UNL A   1      53.238  28.409  29.138  1.00  0.00    -0.237 OA
ATOM     67  O   UNL A   1      52.971  28.155  31.574  1.00  0.00    -0.744 OA
ENDBRANCH  63  64
ENDBRANCH  37  58
ENDBRANCH  11  12
ENDBRANCH   4   6
ENDBRANCH   1   2
BRANCH   1  68
ATOM     68  C   UNL A   1      35.031  33.374  27.661  1.00  0.00     0.042 C 
BRANCH  68  69
ATOM     69  C   UNL A   1      35.200  34.848  28.012  1.00  0.00     0.118 C 
BRANCH  69  70
ATOM     70  N   UNL A   1      33.912  35.500  28.184  1.00  0.00    -0.351 N 
ATOM     71  C   UNL A   1      33.263  36.058  29.240  1.00  0.00     0.280 C 
ATOM     72  H   UNL A   1      33.395  35.550  27.348  1.00  0.00     0.163 HD
ATOM     73  O   UNL A   1      32.086  36.377  29.018  1.00  0.00    -0.268 OA
BRANCH  71  74
ATOM     74  C   UNL A   1      33.903  36.456  30.585  1.00  0.00     0.292 C 
ATOM     75  C   UNL A   1      33.828  35.197  31.488  1.00  0.00     0.197 C 
ATOM     76  N   UNL A   1      33.349  37.698  31.200  1.00  0.00    -0.333 N 
ATOM     77  N   UNL A   1      34.165  35.474  32.886  1.00  0.00    -0.312 N 
ATOM     78  C   UNL A   1      33.977  37.893  32.526  1.00  0.00     0.283 C 
ATOM     79  H   UNL A   1      32.340  37.606  31.308  1.00  0.00     0.347 HD
ATOM     80  H   UNL A   1      33.548  38.499  30.601  1.00  0.00     0.347 HD
ATOM     81  C   UNL A   1      33.658  36.712  33.470  1.00  0.00     0.183 C 
BRANCH  77  82
ATOM     82  C   UNL A   1      35.201  34.856  33.484  1.00  0.00     0.324 A 
ATOM     83  N   UNL A   1      36.486  34.937  33.243  1.00  0.00    -0.171 NA
ATOM     84  O   UNL A   1      34.906  34.029  34.534  1.00  0.00    -0.315 OA
ATOM     85  C   UNL A   1      37.021  34.149  34.236  1.00  0.00     0.204 A 
ATOM     86  N   UNL A   1      36.116  33.534  35.012  1.00  0.00    -0.055 NA
BRANCH  85  87
ATOM     87  C   UNL A   1      38.443  34.077  34.505  1.00  0.00     0.023 A 
ATOM     88  C   UNL A   1      39.241  33.113  33.881  1.00  0.00     0.012 A 
ATOM     89  C   UNL A   1      39.010  34.930  35.462  1.00  0.00     0.012 A 
ATOM     90  C   UNL A   1      40.592  32.998  34.215  1.00  0.00     0.001 A 
ATOM     91  C   UNL A   1      40.355  34.802  35.806  1.00  0.00     0.001 A 
ATOM     92  C   UNL A   1      41.146  33.836  35.183  1.00  0.00     0.000 A 
ENDBRANCH  85  87
ENDBRANCH  77  82
ENDBRANCH  71  74
ENDBRANCH  69  70
ENDBRANCH  68  69
ENDBRANCH   1  68
TORSDOF 15
ENDMDL
