MODEL 1
REMARK VINA RESULT:     -11.8      0.000      0.000
REMARK SMILES CC(=O)N1C[C@@H]2C[N@H+](CC(=O)NCc3ccccc3)C[C@]2(C(=O)NCCCNC(=O)c2ccc(-c3c4nc(c(-c5ccc(S(=O)(=O)[O-])cc5)c5ccc([nH]5)c(-c5ccc(S(=O)(=O)[O-])cc5)c5nc(c(-c6ccc(S(=O)(=O)[O-])cc6)c6ccc3[nH]6)C=C5)C=C4)cc2)C1
REMARK SMILES IDX 25 1 24 2 22 3 23 4 21 6 4 7 5 8 91 9 6 10 7 11 20 12 8 13
REMARK SMILES IDX 2 15 1 16 3 17 9 18 10 19 11 20 12 21 13 23 14 24 15 25
REMARK SMILES IDX 19 26 16 27 18 28 17 29 26 30 27 31 28 32 29 33 30 35 31 36
REMARK SMILES IDX 32 37 90 38 33 39 89 40 34 41 35 42 36 43 83 44 37 45 88 46
REMARK SMILES IDX 82 47 84 48 38 49 87 50 81 51 80 52 39 54 69 55 50 56 68 57
REMARK SMILES IDX 51 58 54 59 67 60 85 61 52 62 53 63 66 65 86 66 55 67 40 68
REMARK SMILES IDX 41 69 49 70 42 71 48 72 43 73 44 74 45 75 46 76 47 77 70 78
REMARK SMILES IDX 71 79 79 80 72 81 78 82 73 83 74 84 75 85 76 86 77 87 56 88
REMARK SMILES IDX 57 89 65 90 58 91 64 92 59 93 60 94 61 95 62 96 63 97
REMARK H PARENT 24 5 8 14 12 22 28 34 84 53 54 64
REMARK Flexibility Score: inf
ROOT
ATOM      1  C   UNL A   1      32.983  27.513  25.351  1.00  0.00     0.117 C 
ENDROOT
BRANCH   1   2
ATOM      2  N   UNL A   1      32.463  26.470  26.238  1.00  0.00    -0.355 N 
ATOM      3  C   UNL A   1      32.440  25.086  26.134  1.00  0.00     0.234 C 
ATOM      4  O   UNL A   1      31.824  24.484  27.016  1.00  0.00    -0.274 OA
ATOM      5  H   UNL A   1      32.054  26.816  27.064  1.00  0.00     0.163 HD
BRANCH   3   6
ATOM      6  C   UNL A   1      33.168  24.364  24.933  1.00  0.00     0.125 C 
ATOM      7  N   UNL A   1      35.351  23.094  25.148  1.00  0.00    -0.341 N 
ATOM      8  C   UNL A   1      34.656  22.306  24.212  1.00  0.00     0.130 C 
ATOM      9  C   UNL A   1      34.404  23.928  25.870  1.00  0.00     0.143 C 
ATOM     10  C   UNL A   1      33.224  22.753  24.400  1.00  0.00     0.087 C 
ATOM     11  C   UNL A   1      32.558  22.596  23.023  1.00  0.00     0.269 C 
ATOM     12  C   UNL A   1      31.803  24.320  24.178  1.00  0.00     0.282 C 
ATOM     13  N   UNL A   1      32.014  23.910  22.801  1.00  0.00    -0.326 N 
ATOM     14  H   UNL A   1      31.188  23.894  22.203  1.00  0.00     0.348 HD
BRANCH   7  15
ATOM     15  C   UNL A   1      36.720  23.054  25.170  1.00  0.00     0.219 C 
ATOM     16  C   UNL A   1      37.430  23.952  26.139  1.00  0.00     0.114 C 
ATOM     17  O   UNL A   1      37.364  22.221  24.530  1.00  0.00    -0.275 OA
ENDBRANCH   7  15
BRANCH  13  18
ATOM     18  C   UNL A   1      32.819  24.875  21.988  1.00  0.00     0.363 C 
BRANCH  18  19
ATOM     19  C   UNL A   1      32.059  25.866  21.092  1.00  0.00     0.275 C 
ATOM     20  O   UNL A   1      31.986  25.645  19.876  1.00  0.00    -0.268 OA
ATOM     21  N   UNL A   1      31.464  27.016  21.519  1.00  0.00    -0.347 N 
ATOM     22  H   UNL A   1      31.440  27.714  20.826  1.00  0.00     0.164 HD
BRANCH  21  23
ATOM     23  C   UNL A   1      30.852  27.443  22.775  1.00  0.00     0.151 C 
BRANCH  23  24
ATOM     24  C   UNL A   1      29.782  28.513  22.610  1.00  0.00    -0.029 A 
ATOM     25  C   UNL A   1      30.082  29.774  22.069  1.00  0.00     0.005 A 
ATOM     26  C   UNL A   1      28.468  28.323  23.055  1.00  0.00     0.005 A 
ATOM     27  C   UNL A   1      29.091  30.724  21.795  1.00  0.00     0.000 A 
ATOM     28  C   UNL A   1      27.483  29.302  22.847  1.00  0.00     0.000 A 
ATOM     29  C   UNL A   1      27.780  30.478  22.169  1.00  0.00     0.000 A 
ENDBRANCH  23  24
ENDBRANCH  21  23
ENDBRANCH  18  19
ENDBRANCH  13  18
ENDBRANCH   3   6
ENDBRANCH   1   2
BRANCH   1  30
ATOM     30  C   UNL A   1      33.895  28.551  26.001  1.00  0.00     0.042 C 
BRANCH  30  31
ATOM     31  C   UNL A   1      33.489  28.855  27.443  1.00  0.00     0.118 C 
BRANCH  31  32
ATOM     32  N   UNL A   1      33.667  30.242  27.876  1.00  0.00    -0.352 N 
ATOM     33  C   UNL A   1      34.836  30.859  28.291  1.00  0.00     0.251 C 
ATOM     34  H   UNL A   1      32.859  30.804  27.873  1.00  0.00     0.163 HD
ATOM     35  O   UNL A   1      34.831  32.037  28.635  1.00  0.00    -0.269 OA
BRANCH  33  36
ATOM     36  C   UNL A   1      36.074  30.054  28.364  1.00  0.00     0.039 A 
ATOM     37  C   UNL A   1      36.984  30.087  27.304  1.00  0.00     0.014 A 
ATOM     38  C   UNL A   1      36.397  29.406  29.554  1.00  0.00     0.014 A 
ATOM     39  C   UNL A   1      38.276  29.588  27.494  1.00  0.00     0.010 A 
ATOM     40  C   UNL A   1      37.713  29.031  29.779  1.00  0.00     0.010 A 
ATOM     41  C   UNL A   1      38.674  29.125  28.758  1.00  0.00    -0.014 A 
BRANCH  41  42
ATOM     42  C   UNL A   1      40.070  28.720  29.072  1.00  0.00     0.031 A 
ATOM     43  C   UNL A   1      41.007  29.739  29.670  1.00  0.00     0.074 A 
ATOM     44  C   UNL A   1      40.538  27.511  28.697  1.00  0.00     0.049 A 
ATOM     45  N   UNL A   1      42.308  29.702  29.787  1.00  0.00    -0.248 NA
ATOM     46  C   UNL A   1      40.397  30.998  30.134  1.00  0.00     0.031 C 
ATOM     47  C   UNL A   1      39.755  26.447  28.060  1.00  0.00     0.029 A 
ATOM     48  N   UNL A   1      41.803  26.979  28.782  1.00  0.00    -0.354 N 
ATOM     49  C   UNL A   1      42.674  30.952  30.271  1.00  0.00     0.074 A 
ATOM     50  C   UNL A   1      41.467  31.740  30.371  1.00  0.00     0.031 C 
ATOM     51  C   UNL A   1      40.547  25.383  27.844  1.00  0.00     0.029 A 
ATOM     52  C   UNL A   1      41.904  25.702  28.275  1.00  0.00     0.049 A 
ATOM     53  H   UNL A   1      42.565  27.466  29.169  1.00  0.00     0.167 HD
ATOM     54  C   UNL A   1      43.901  31.398  30.630  1.00  0.00     0.031 A 
ATOM     55  C   UNL A   1      42.971  24.887  28.163  1.00  0.00     0.031 A 
ATOM     56  C   UNL A   1      45.082  30.582  30.603  1.00  0.00     0.049 A 
ATOM     57  C   UNL A   1      44.314  25.376  28.635  1.00  0.00     0.074 A 
ATOM     58  C   UNL A   1      46.361  30.904  31.022  1.00  0.00     0.029 A 
ATOM     59  N   UNL A   1      45.121  29.269  30.160  1.00  0.00    -0.354 N 
ATOM     60  N   UNL A   1      44.637  26.551  29.123  1.00  0.00    -0.248 NA
ATOM     61  C   UNL A   1      45.435  24.429  28.552  1.00  0.00     0.031 C 
ATOM     62  C   UNL A   1      47.180  29.790  30.809  1.00  0.00     0.029 A 
ATOM     63  C   UNL A   1      46.400  28.762  30.300  1.00  0.00     0.049 A 
ATOM     64  H   UNL A   1      44.352  28.771  29.798  1.00  0.00     0.167 HD
ATOM     65  C   UNL A   1      45.989  26.470  29.438  1.00  0.00     0.074 A 
ATOM     66  C   UNL A   1      46.422  25.132  29.091  1.00  0.00     0.031 C 
ATOM     67  C   UNL A   1      46.799  27.418  29.970  1.00  0.00     0.031 A 
BRANCH  54  68
ATOM     68  C   UNL A   1      44.011  32.825  31.096  1.00  0.00    -0.014 A 
ATOM     69  C   UNL A   1      44.411  33.849  30.216  1.00  0.00     0.010 A 
ATOM     70  C   UNL A   1      43.711  33.151  32.431  1.00  0.00     0.010 A 
ATOM     71  C   UNL A   1      44.569  35.157  30.676  1.00  0.00     0.020 A 
ATOM     72  C   UNL A   1      43.835  34.466  32.887  1.00  0.00     0.020 A 
ATOM     73  C   UNL A   1      44.288  35.456  32.012  1.00  0.00     0.054 A 
BRANCH  73  74
ATOM     74  S   UNL A   1      44.500  37.165  32.583  1.00  0.00     0.124 S 
ATOM     75  O   UNL A   1      45.954  37.306  32.567  1.00  0.00    -0.237 OA
ATOM     76  O   UNL A   1      43.784  37.934  31.569  1.00  0.00    -0.237 OA
ATOM     77  O   UNL A   1      43.889  37.165  33.909  1.00  0.00    -0.744 OA
ENDBRANCH  73  74
ENDBRANCH  54  68
BRANCH  55  78
ATOM     78  C   UNL A   1      42.810  23.511  27.616  1.00  0.00    -0.014 A 
ATOM     79  C   UNL A   1      42.442  22.452  28.466  1.00  0.00     0.010 A 
ATOM     80  C   UNL A   1      43.011  23.248  26.249  1.00  0.00     0.010 A 
ATOM     81  C   UNL A   1      42.299  21.154  27.966  1.00  0.00     0.020 A 
ATOM     82  C   UNL A   1      42.845  21.955  25.739  1.00  0.00     0.020 A 
ATOM     83  C   UNL A   1      42.501  20.915  26.605  1.00  0.00     0.054 A 
BRANCH  83  84
ATOM     84  S   UNL A   1      42.263  19.231  25.970  1.00  0.00     0.124 S 
ATOM     85  O   UNL A   1      40.820  19.188  25.756  1.00  0.00    -0.237 OA
ATOM     86  O   UNL A   1      43.083  19.230  24.760  1.00  0.00    -0.237 OA
ATOM     87  O   UNL A   1      42.762  18.386  27.052  1.00  0.00    -0.744 OA
ENDBRANCH  83  84
ENDBRANCH  55  78
BRANCH  67  88
ATOM     88  C   UNL A   1      48.220  27.032  30.272  1.00  0.00    -0.014 A 
ATOM     89  C   UNL A   1      49.237  27.194  29.316  1.00  0.00     0.010 A 
ATOM     90  C   UNL A   1      48.551  26.586  31.565  1.00  0.00     0.010 A 
ATOM     91  C   UNL A   1      50.563  26.902  29.647  1.00  0.00     0.020 A 
ATOM     92  C   UNL A   1      49.877  26.316  31.905  1.00  0.00     0.020 A 
ATOM     93  C   UNL A   1      50.874  26.468  30.939  1.00  0.00     0.054 A 
BRANCH  93  94
ATOM     94  S   UNL A   1      52.611  26.165  31.366  1.00  0.00     0.124 S 
ATOM     95  O   UNL A   1      52.894  27.264  32.285  1.00  0.00    -0.237 OA
ATOM     96  O   UNL A   1      52.567  24.836  31.971  1.00  0.00    -0.237 OA
ATOM     97  O   UNL A   1      53.301  26.234  30.080  1.00  0.00    -0.744 OA
ENDBRANCH  93  94
ENDBRANCH  67  88
ENDBRANCH  41  42
ENDBRANCH  33  36
ENDBRANCH  31  32
ENDBRANCH  30  31
ENDBRANCH   1  30
TORSDOF 18
ENDMDL
MODEL 2
REMARK VINA RESULT:     -11.7      2.715      9.136
REMARK SMILES CC(=O)N1C[C@@H]2C[N@H+](CC(=O)NCc3ccccc3)C[C@]2(C(=O)NCCCNC(=O)c2ccc(-c3c4nc(c(-c5ccc(S(=O)(=O)[O-])cc5)c5ccc([nH]5)c(-c5ccc(S(=O)(=O)[O-])cc5)c5nc(c(-c6ccc(S(=O)(=O)[O-])cc6)c6ccc3[nH]6)C=C5)C=C4)cc2)C1
REMARK SMILES IDX 25 1 24 2 22 3 23 4 21 6 4 7 5 8 91 9 6 10 7 11 20 12 8 13
REMARK SMILES IDX 2 15 1 16 3 17 9 18 10 19 11 20 12 21 13 23 14 24 15 25
REMARK SMILES IDX 19 26 16 27 18 28 17 29 26 30 27 31 28 32 29 33 30 35 31 36
REMARK SMILES IDX 32 37 90 38 33 39 89 40 34 41 35 42 36 43 83 44 37 45 88 46
REMARK SMILES IDX 82 47 84 48 38 49 87 50 81 51 80 52 39 54 69 55 50 56 68 57
REMARK SMILES IDX 51 58 54 59 67 60 85 61 52 62 53 63 66 65 86 66 55 67 40 68
REMARK SMILES IDX 41 69 49 70 42 71 48 72 43 73 44 74 45 75 46 76 47 77 70 78
REMARK SMILES IDX 71 79 79 80 72 81 78 82 73 83 74 84 75 85 76 86 77 87 56 88
REMARK SMILES IDX 57 89 65 90 58 91 64 92 59 93 60 94 61 95 62 96 63 97
REMARK H PARENT 24 5 8 14 12 22 28 34 84 53 54 64
REMARK Flexibility Score: inf
ROOT
ATOM      1  C   UNL A   1      35.542  23.602  24.143  1.00  0.00     0.117 C 
ENDROOT
BRANCH   1   2
ATOM      2  N   UNL A   1      34.963  23.308  22.831  1.00  0.00    -0.355 N 
ATOM      3  C   UNL A   1      33.725  23.596  22.274  1.00  0.00     0.234 C 
ATOM      4  O   UNL A   1      33.501  23.110  21.163  1.00  0.00    -0.274 OA
ATOM      5  H   UNL A   1      35.566  22.813  22.230  1.00  0.00     0.163 HD
BRANCH   3   6
ATOM      6  C   UNL A   1      32.687  24.494  23.057  1.00  0.00     0.125 C 
ATOM      7  N   UNL A   1      32.465  27.001  22.760  1.00  0.00    -0.341 N 
ATOM      8  C   UNL A   1      31.124  26.618  22.938  1.00  0.00     0.130 C 
ATOM      9  C   UNL A   1      33.249  25.839  22.371  1.00  0.00     0.143 C 
ATOM     10  C   UNL A   1      31.164  25.132  22.663  1.00  0.00     0.087 C 
ATOM     11  C   UNL A   1      30.058  24.519  23.538  1.00  0.00     0.269 C 
ATOM     12  C   UNL A   1      31.827  23.217  23.311  1.00  0.00     0.282 C 
ATOM     13  N   UNL A   1      30.779  23.511  24.271  1.00  0.00    -0.326 N 
ATOM     14  H   UNL A   1      30.184  22.729  24.545  1.00  0.00     0.348 HD
BRANCH   7  15
ATOM     15  C   UNL A   1      32.840  28.284  23.061  1.00  0.00     0.219 C 
ATOM     16  C   UNL A   1      34.296  28.550  23.298  1.00  0.00     0.114 C 
ATOM     17  O   UNL A   1      32.051  29.229  23.007  1.00  0.00    -0.275 OA
ENDBRANCH   7  15
BRANCH  13  18
ATOM     18  C   UNL A   1      31.278  23.860  25.639  1.00  0.00     0.363 C 
BRANCH  18  19
ATOM     19  C   UNL A   1      30.698  25.112  26.316  1.00  0.00     0.275 C 
ATOM     20  O   UNL A   1      29.550  25.071  26.777  1.00  0.00    -0.268 OA
ATOM     21  N   UNL A   1      31.338  26.310  26.433  1.00  0.00    -0.347 N 
ATOM     22  H   UNL A   1      30.718  27.074  26.454  1.00  0.00     0.164 HD
BRANCH  21  23
ATOM     23  C   UNL A   1      32.738  26.713  26.536  1.00  0.00     0.151 C 
BRANCH  23  24
ATOM     24  C   UNL A   1      32.938  28.207  26.753  1.00  0.00    -0.029 A 
ATOM     25  C   UNL A   1      31.898  29.125  26.541  1.00  0.00     0.005 A 
ATOM     26  C   UNL A   1      34.183  28.746  27.102  1.00  0.00     0.005 A 
ATOM     27  C   UNL A   1      32.026  30.485  26.854  1.00  0.00     0.000 A 
ATOM     28  C   UNL A   1      34.336  30.119  27.349  1.00  0.00     0.000 A 
ATOM     29  C   UNL A   1      33.247  30.981  27.279  1.00  0.00     0.000 A 
ENDBRANCH  23  24
ENDBRANCH  21  23
ENDBRANCH  18  19
ENDBRANCH  13  18
ENDBRANCH   3   6
ENDBRANCH   1   2
BRANCH   1  30
ATOM     30  C   UNL A   1      35.986  22.394  24.965  1.00  0.00     0.042 C 
BRANCH  30  31
ATOM     31  C   UNL A   1      36.907  22.786  26.119  1.00  0.00     0.118 C 
BRANCH  31  32
ATOM     32  N   UNL A   1      38.248  22.198  26.092  1.00  0.00    -0.352 N 
ATOM     33  C   UNL A   1      39.441  22.785  26.477  1.00  0.00     0.251 C 
ATOM     34  H   UNL A   1      38.308  21.274  25.759  1.00  0.00     0.163 HD
ATOM     35  O   UNL A   1      40.498  22.166  26.391  1.00  0.00    -0.269 OA
BRANCH  33  36
ATOM     36  C   UNL A   1      39.422  24.189  26.940  1.00  0.00     0.039 A 
ATOM     37  C   UNL A   1      38.992  24.484  28.236  1.00  0.00     0.014 A 
ATOM     38  C   UNL A   1      39.991  25.179  26.141  1.00  0.00     0.014 A 
ATOM     39  C   UNL A   1      39.261  25.745  28.778  1.00  0.00     0.010 A 
ATOM     40  C   UNL A   1      40.369  26.378  26.724  1.00  0.00     0.010 A 
ATOM     41  C   UNL A   1      40.020  26.676  28.053  1.00  0.00    -0.014 A 
BRANCH  41  42
ATOM     42  C   UNL A   1      40.471  27.975  28.621  1.00  0.00     0.031 A 
ATOM     43  C   UNL A   1      41.866  28.078  29.182  1.00  0.00     0.074 A 
ATOM     44  C   UNL A   1      39.607  29.001  28.767  1.00  0.00     0.049 A 
ATOM     45  N   UNL A   1      42.387  29.002  29.946  1.00  0.00    -0.248 NA
ATOM     46  C   UNL A   1      42.773  26.950  28.900  1.00  0.00     0.031 C 
ATOM     47  C   UNL A   1      38.212  29.018  28.317  1.00  0.00     0.029 A 
ATOM     48  N   UNL A   1      39.774  30.230  29.359  1.00  0.00    -0.354 N 
ATOM     49  C   UNL A   1      43.650  28.534  30.288  1.00  0.00     0.074 A 
ATOM     50  C   UNL A   1      43.793  27.223  29.697  1.00  0.00     0.031 C 
ATOM     51  C   UNL A   1      37.664  30.208  28.619  1.00  0.00     0.029 A 
ATOM     52  C   UNL A   1      38.646  31.019  29.329  1.00  0.00     0.049 A 
ATOM     53  H   UNL A   1      40.623  30.519  29.766  1.00  0.00     0.167 HD
ATOM     54  C   UNL A   1      44.619  29.150  31.005  1.00  0.00     0.031 A 
ATOM     55  C   UNL A   1      38.427  32.252  29.827  1.00  0.00     0.031 A 
ATOM     56  C   UNL A   1      44.499  30.485  31.520  1.00  0.00     0.049 A 
ATOM     57  C   UNL A   1      39.542  32.950  30.560  1.00  0.00     0.074 A 
ATOM     58  C   UNL A   1      45.446  31.239  32.189  1.00  0.00     0.029 A 
ATOM     59  N   UNL A   1      43.367  31.277  31.395  1.00  0.00    -0.354 N 
ATOM     60  N   UNL A   1      40.744  32.506  30.845  1.00  0.00    -0.248 NA
ATOM     61  C   UNL A   1      39.278  34.319  31.028  1.00  0.00     0.031 C 
ATOM     62  C   UNL A   1      44.879  32.482  32.489  1.00  0.00     0.029 A 
ATOM     63  C   UNL A   1      43.594  32.515  31.968  1.00  0.00     0.049 A 
ATOM     64  H   UNL A   1      42.527  31.000  30.963  1.00  0.00     0.167 HD
ATOM     65  C   UNL A   1      41.389  33.554  31.494  1.00  0.00     0.074 A 
ATOM     66  C   UNL A   1      40.448  34.653  31.554  1.00  0.00     0.031 C 
ATOM     67  C   UNL A   1      42.649  33.602  31.993  1.00  0.00     0.031 A 
BRANCH  54  68
ATOM     68  C   UNL A   1      45.892  28.386  31.252  1.00  0.00    -0.014 A 
ATOM     69  C   UNL A   1      46.046  27.578  32.395  1.00  0.00     0.010 A 
ATOM     70  C   UNL A   1      46.952  28.473  30.331  1.00  0.00     0.010 A 
ATOM     71  C   UNL A   1      47.253  26.925  32.643  1.00  0.00     0.020 A 
ATOM     72  C   UNL A   1      48.151  27.792  30.559  1.00  0.00     0.020 A 
ATOM     73  C   UNL A   1      48.301  27.042  31.727  1.00  0.00     0.054 A 
BRANCH  73  74
ATOM     74  S   UNL A   1      49.860  26.180  32.074  1.00  0.00     0.124 S 
ATOM     75  O   UNL A   1      50.649  27.234  32.708  1.00  0.00    -0.237 OA
ATOM     76  O   UNL A   1      49.438  25.095  32.956  1.00  0.00    -0.237 OA
ATOM     77  O   UNL A   1      50.325  25.762  30.754  1.00  0.00    -0.744 OA
ENDBRANCH  73  74
ENDBRANCH  54  68
BRANCH  55  78
ATOM     78  C   UNL A   1      37.114  32.923  29.619  1.00  0.00    -0.014 A 
ATOM     79  C   UNL A   1      36.298  33.233  30.723  1.00  0.00     0.010 A 
ATOM     80  C   UNL A   1      36.674  33.267  28.329  1.00  0.00     0.010 A 
ATOM     81  C   UNL A   1      35.058  33.853  30.539  1.00  0.00     0.020 A 
ATOM     82  C   UNL A   1      35.445  33.911  28.142  1.00  0.00     0.020 A 
ATOM     83  C   UNL A   1      34.641  34.189  29.248  1.00  0.00     0.054 A 
BRANCH  83  84
ATOM     84  S   UNL A   1      33.049  35.037  29.039  1.00  0.00     0.124 S 
ATOM     85  O   UNL A   1      32.412  34.234  28.000  1.00  0.00    -0.237 OA
ATOM     86  O   UNL A   1      32.457  34.933  30.371  1.00  0.00    -0.237 OA
ATOM     87  O   UNL A   1      33.433  36.389  28.641  1.00  0.00    -0.744 OA
ENDBRANCH  83  84
ENDBRANCH  55  78
BRANCH  67  88
ATOM     88  C   UNL A   1      43.112  34.900  32.591  1.00  0.00    -0.014 A 
ATOM     89  C   UNL A   1      43.794  35.856  31.819  1.00  0.00     0.010 A 
ATOM     90  C   UNL A   1      42.776  35.200  33.924  1.00  0.00     0.010 A 
ATOM     91  C   UNL A   1      44.145  37.088  32.378  1.00  0.00     0.020 A 
ATOM     92  C   UNL A   1      43.104  36.438  34.478  1.00  0.00     0.020 A 
ATOM     93  C   UNL A   1      43.795  37.372  33.702  1.00  0.00     0.054 A 
BRANCH  93  94
ATOM     94  S   UNL A   1      44.197  39.005  34.382  1.00  0.00     0.124 S 
ATOM     95  O   UNL A   1      45.459  39.309  33.715  1.00  0.00    -0.237 OA
ATOM     96  O   UNL A   1      43.054  39.816  33.966  1.00  0.00    -0.237 OA
ATOM     97  O   UNL A   1      44.293  38.768  35.821  1.00  0.00    -0.744 OA
ENDBRANCH  93  94
ENDBRANCH  67  88
ENDBRANCH  41  42
ENDBRANCH  33  36
ENDBRANCH  31  32
ENDBRANCH  30  31
ENDBRANCH   1  30
TORSDOF 18
ENDMDL
MODEL 3
REMARK VINA RESULT:     -11.2      1.361      4.251
REMARK SMILES CC(=O)N1C[C@@H]2C[N@H+](CC(=O)NCc3ccccc3)C[C@]2(C(=O)NCCCNC(=O)c2ccc(-c3c4nc(c(-c5ccc(S(=O)(=O)[O-])cc5)c5ccc([nH]5)c(-c5ccc(S(=O)(=O)[O-])cc5)c5nc(c(-c6ccc(S(=O)(=O)[O-])cc6)c6ccc3[nH]6)C=C5)C=C4)cc2)C1
REMARK SMILES IDX 25 1 24 2 22 3 23 4 21 6 4 7 5 8 91 9 6 10 7 11 20 12 8 13
REMARK SMILES IDX 2 15 1 16 3 17 9 18 10 19 11 20 12 21 13 23 14 24 15 25
REMARK SMILES IDX 19 26 16 27 18 28 17 29 26 30 27 31 28 32 29 33 30 35 31 36
REMARK SMILES IDX 32 37 90 38 33 39 89 40 34 41 35 42 36 43 83 44 37 45 88 46
REMARK SMILES IDX 82 47 84 48 38 49 87 50 81 51 80 52 39 54 69 55 50 56 68 57
REMARK SMILES IDX 51 58 54 59 67 60 85 61 52 62 53 63 66 65 86 66 55 67 40 68
REMARK SMILES IDX 41 69 49 70 42 71 48 72 43 73 44 74 45 75 46 76 47 77 70 78
REMARK SMILES IDX 71 79 79 80 72 81 78 82 73 83 74 84 75 85 76 86 77 87 56 88
REMARK SMILES IDX 57 89 65 90 58 91 64 92 59 93 60 94 61 95 62 96 63 97
REMARK H PARENT 24 5 8 14 12 22 28 34 84 53 54 64
REMARK Flexibility Score: inf
ROOT
ATOM      1  C   UNL A   1      33.857  29.536  25.003  1.00  0.00     0.117 C 
ENDROOT
BRANCH   1   2
ATOM      2  N   UNL A   1      34.184  29.069  23.655  1.00  0.00    -0.355 N 
ATOM      3  C   UNL A   1      33.584  28.134  22.823  1.00  0.00     0.234 C 
ATOM      4  O   UNL A   1      34.173  27.886  21.768  1.00  0.00    -0.274 OA
ATOM      5  H   UNL A   1      34.979  29.499  23.265  1.00  0.00     0.163 HD
BRANCH   3   6
ATOM      6  C   UNL A   1      32.226  27.446  23.244  1.00  0.00     0.125 C 
ATOM      7  N   UNL A   1      29.933  28.426  22.793  1.00  0.00    -0.341 N 
ATOM      8  C   UNL A   1      29.696  27.053  22.603  1.00  0.00     0.130 C 
ATOM      9  C   UNL A   1      31.361  28.686  22.690  1.00  0.00     0.143 C 
ATOM     10  C   UNL A   1      31.090  26.499  22.411  1.00  0.00     0.087 C 
ATOM     11  C   UNL A   1      31.044  25.065  22.964  1.00  0.00     0.269 C 
ATOM     12  C   UNL A   1      32.977  26.079  23.298  1.00  0.00     0.282 C 
ATOM     13  N   UNL A   1      32.128  25.073  23.911  1.00  0.00    -0.326 N 
ATOM     14  H   UNL A   1      32.541  24.149  24.039  1.00  0.00     0.348 HD
BRANCH   7  15
ATOM     15  C   UNL A   1      28.889  29.244  23.135  1.00  0.00     0.219 C 
ATOM     16  C   UNL A   1      27.509  28.657  23.127  1.00  0.00     0.114 C 
ATOM     17  O   UNL A   1      29.061  30.384  23.572  1.00  0.00    -0.275 OA
ENDBRANCH   7  15
BRANCH  13  18
ATOM     18  C   UNL A   1      31.803  25.338  25.349  1.00  0.00     0.363 C 
BRANCH  18  19
ATOM     19  C   UNL A   1      31.675  24.128  26.288  1.00  0.00     0.275 C 
ATOM     20  O   UNL A   1      30.815  24.144  27.179  1.00  0.00    -0.268 OA
ATOM     21  N   UNL A   1      32.465  23.017  26.251  1.00  0.00    -0.347 N 
ATOM     22  H   UNL A   1      32.567  22.591  27.132  1.00  0.00     0.164 HD
BRANCH  21  23
ATOM     23  C   UNL A   1      33.193  22.317  25.195  1.00  0.00     0.151 C 
BRANCH  23  24
ATOM     24  C   UNL A   1      34.682  22.630  25.157  1.00  0.00    -0.029 A 
ATOM     25  C   UNL A   1      35.223  23.713  25.867  1.00  0.00     0.005 A 
ATOM     26  C   UNL A   1      35.573  21.902  24.359  1.00  0.00     0.005 A 
ATOM     27  C   UNL A   1      36.603  23.942  25.944  1.00  0.00     0.000 A 
ATOM     28  C   UNL A   1      36.951  22.172  24.377  1.00  0.00     0.000 A 
ATOM     29  C   UNL A   1      37.473  23.154  25.210  1.00  0.00     0.000 A 
ENDBRANCH  23  24
ENDBRANCH  21  23
ENDBRANCH  18  19
ENDBRANCH  13  18
ENDBRANCH   3   6
ENDBRANCH   1   2
BRANCH   1  30
ATOM     30  C   UNL A   1      33.927  28.486  26.110  1.00  0.00     0.042 C 
BRANCH  30  31
ATOM     31  C   UNL A   1      33.352  28.998  27.430  1.00  0.00     0.118 C 
BRANCH  31  32
ATOM     32  N   UNL A   1      33.586  30.414  27.720  1.00  0.00    -0.352 N 
ATOM     33  C   UNL A   1      34.772  31.018  28.101  1.00  0.00     0.251 C 
ATOM     34  H   UNL A   1      32.805  31.008  27.635  1.00  0.00     0.163 HD
ATOM     35  O   UNL A   1      34.816  32.226  28.319  1.00  0.00    -0.269 OA
BRANCH  33  36
ATOM     36  C   UNL A   1      35.969  30.171  28.293  1.00  0.00     0.039 A 
ATOM     37  C   UNL A   1      36.968  30.155  27.317  1.00  0.00     0.014 A 
ATOM     38  C   UNL A   1      36.162  29.532  29.516  1.00  0.00     0.014 A 
ATOM     39  C   UNL A   1      38.220  29.613  27.626  1.00  0.00     0.010 A 
ATOM     40  C   UNL A   1      37.438  29.114  29.860  1.00  0.00     0.010 A 
ATOM     41  C   UNL A   1      38.488  29.157  28.926  1.00  0.00    -0.014 A 
BRANCH  41  42
ATOM     42  C   UNL A   1      39.836  28.707  29.367  1.00  0.00     0.031 A 
ATOM     43  C   UNL A   1      40.717  29.675  30.115  1.00  0.00     0.074 A 
ATOM     44  C   UNL A   1      40.323  27.510  28.982  1.00  0.00     0.049 A 
ATOM     45  N   UNL A   1      41.997  29.605  30.369  1.00  0.00    -0.248 NA
ATOM     46  C   UNL A   1      40.080  30.922  30.577  1.00  0.00     0.031 C 
ATOM     47  C   UNL A   1      39.598  26.496  28.209  1.00  0.00     0.029 A 
ATOM     48  N   UNL A   1      41.563  26.948  29.174  1.00  0.00    -0.354 N 
ATOM     49  C   UNL A   1      42.327  30.822  30.955  1.00  0.00     0.074 A 
ATOM     50  C   UNL A   1      41.129  31.629  30.965  1.00  0.00     0.031 C 
ATOM     51  C   UNL A   1      40.393  25.428  28.024  1.00  0.00     0.029 A 
ATOM     52  C   UNL A   1      41.699  25.697  28.615  1.00  0.00     0.049 A 
ATOM     53  H   UNL A   1      42.286  27.399  29.667  1.00  0.00     0.167 HD
ATOM     54  C   UNL A   1      43.515  31.224  31.467  1.00  0.00     0.031 A 
ATOM     55  C   UNL A   1      42.759  24.866  28.576  1.00  0.00     0.031 A 
ATOM     56  C   UNL A   1      44.680  30.386  31.525  1.00  0.00     0.049 A 
ATOM     57  C   UNL A   1      44.051  25.303  29.215  1.00  0.00     0.074 A 
ATOM     58  C   UNL A   1      45.910  30.659  32.095  1.00  0.00     0.029 A 
ATOM     59  N   UNL A   1      44.746  29.096  31.020  1.00  0.00    -0.354 N 
ATOM     60  N   UNL A   1      44.336  26.445  29.796  1.00  0.00    -0.248 NA
ATOM     61  C   UNL A   1      45.160  24.338  29.204  1.00  0.00     0.031 C 
ATOM     62  C   UNL A   1      46.730  29.541  31.914  1.00  0.00     0.029 A 
ATOM     63  C   UNL A   1      45.995  28.557  31.270  1.00  0.00     0.049 A 
ATOM     64  H   UNL A   1      44.014  28.633  30.552  1.00  0.00     0.167 HD
ATOM     65  C   UNL A   1      45.645  26.320  30.250  1.00  0.00     0.074 A 
ATOM     66  C   UNL A   1      46.092  24.992  29.882  1.00  0.00     0.031 C 
ATOM     67  C   UNL A   1      46.407  27.223  30.915  1.00  0.00     0.031 A 
BRANCH  54  68
ATOM     68  C   UNL A   1      43.595  32.623  32.017  1.00  0.00    -0.014 A 
ATOM     69  C   UNL A   1      43.906  33.714  31.184  1.00  0.00     0.010 A 
ATOM     70  C   UNL A   1      43.357  32.853  33.383  1.00  0.00     0.010 A 
ATOM     71  C   UNL A   1      44.039  34.997  31.717  1.00  0.00     0.020 A 
ATOM     72  C   UNL A   1      43.455  34.142  33.915  1.00  0.00     0.020 A 
ATOM     73  C   UNL A   1      43.820  35.202  33.082  1.00  0.00     0.054 A 
BRANCH  73  74
ATOM     74  S   UNL A   1      43.998  36.879  33.748  1.00  0.00     0.124 S 
ATOM     75  O   UNL A   1      44.476  37.615  32.580  1.00  0.00    -0.237 OA
ATOM     76  O   UNL A   1      42.640  37.200  34.179  1.00  0.00    -0.237 OA
ATOM     77  O   UNL A   1      44.970  36.722  34.827  1.00  0.00    -0.744 OA
ENDBRANCH  73  74
ENDBRANCH  54  68
BRANCH  55  78
ATOM     78  C   UNL A   1      42.638  23.523  27.943  1.00  0.00    -0.014 A 
ATOM     79  C   UNL A   1      43.023  23.338  26.602  1.00  0.00     0.010 A 
ATOM     80  C   UNL A   1      42.150  22.422  28.670  1.00  0.00     0.010 A 
ATOM     81  C   UNL A   1      42.903  22.084  25.994  1.00  0.00     0.020 A 
ATOM     82  C   UNL A   1      42.053  21.160  28.073  1.00  0.00     0.020 A 
ATOM     83  C   UNL A   1      42.419  21.003  26.735  1.00  0.00     0.054 A 
BRANCH  83  84
ATOM     84  S   UNL A   1      42.318  19.375  25.939  1.00  0.00     0.124 S 
ATOM     85  O   UNL A   1      43.172  19.555  24.769  1.00  0.00    -0.237 OA
ATOM     86  O   UNL A   1      42.840  18.484  26.973  1.00  0.00    -0.237 OA
ATOM     87  O   UNL A   1      40.893  19.222  25.657  1.00  0.00    -0.744 OA
ENDBRANCH  83  84
ENDBRANCH  55  78
BRANCH  67  88
ATOM     88  C   UNL A   1      47.780  26.792  31.347  1.00  0.00    -0.014 A 
ATOM     89  C   UNL A   1      48.017  26.306  32.644  1.00  0.00     0.010 A 
ATOM     90  C   UNL A   1      48.827  26.790  30.407  1.00  0.00     0.010 A 
ATOM     91  C   UNL A   1      49.286  25.838  32.997  1.00  0.00     0.020 A 
ATOM     92  C   UNL A   1      50.088  26.302  30.749  1.00  0.00     0.020 A 
ATOM     93  C   UNL A   1      50.312  25.836  32.046  1.00  0.00     0.054 A 
BRANCH  93  94
ATOM     94  S   UNL A   1      51.929  25.156  32.506  1.00  0.00     0.124 S 
ATOM     95  O   UNL A   1      51.818  23.773  32.050  1.00  0.00    -0.237 OA
ATOM     96  O   UNL A   1      52.857  25.995  31.751  1.00  0.00    -0.237 OA
ATOM     97  O   UNL A   1      51.980  25.332  33.956  1.00  0.00    -0.744 OA
ENDBRANCH  93  94
ENDBRANCH  67  88
ENDBRANCH  41  42
ENDBRANCH  33  36
ENDBRANCH  31  32
ENDBRANCH  30  31
ENDBRANCH   1  30
TORSDOF 18
ENDMDL
