MODEL 1
REMARK VINA RESULT:     -13.4      0.000      0.000
REMARK SMILES Cc1cc([N+](=O)[O-])ccc1-c1ccc(/C=C/C(=O)Nc2ccc(O)c(C(=O)NCCCNC(=O)c3ccc(-c4c5nc(c(-c6ccc(S(=O)(=O)[O-])cc6)c6ccc([nH]6)c(-c6ccc(S(=O)(=O)[O-])cc6)c6nc(c(-c7ccc(S(=O)(=O)[O-])cc7)c7ccc4[nH]7)C=C6)C=C5)cc3)c2)o1
REMARK SMILES IDX 29 1 28 2 26 3 27 4 25 6 20 7 21 8 95 9 22 10 23 11 19 12
REMARK SMILES IDX 17 13 18 14 16 16 15 17 14 18 11 19 12 20 96 21 13 22 10 23
REMARK SMILES IDX 1 24 2 25 3 26 4 27 9 28 8 29 5 30 6 31 7 32 24 33 30 35
REMARK SMILES IDX 31 36 32 37 33 38 34 40 35 41 36 42 94 43 37 44 93 45 38 46
REMARK SMILES IDX 39 47 40 48 87 49 41 50 92 51 86 52 88 53 42 54 91 55 85 56
REMARK SMILES IDX 84 57 43 59 73 60 54 61 72 62 55 63 58 64 71 65 89 66 56 67
REMARK SMILES IDX 57 68 70 70 90 71 59 72 44 73 45 74 53 75 46 76 52 77 47 78
REMARK SMILES IDX 48 79 49 80 50 81 51 82 74 83 75 84 83 85 76 86 82 87 77 88
REMARK SMILES IDX 78 89 79 90 80 91 81 92 60 93 61 94 69 95 62 96 68 97 63 98
REMARK SMILES IDX 64 99 65 100 66 101 67 102
REMARK H PARENT 28 5 19 15 24 34 32 39 88 58 58 69
REMARK Flexibility Score: inf
ROOT
ATOM      1  C   UNL A   1      32.029  30.090  25.369  1.00  0.00     0.118 C 
ENDROOT
BRANCH   1   2
ATOM      2  N   UNL A   1      33.050  29.206  24.799  1.00  0.00    -0.352 N 
ATOM      3  C   UNL A   1      32.967  27.903  24.356  1.00  0.00     0.255 C 
ATOM      4  O   UNL A   1      33.982  27.308  24.004  1.00  0.00    -0.269 OA
ATOM      5  H   UNL A   1      33.944  29.611  24.718  1.00  0.00     0.163 HD
BRANCH   3   6
ATOM      6  C   UNL A   1      31.662  27.194  24.306  1.00  0.00     0.083 A 
ATOM      7  C   UNL A   1      29.854  26.071  25.426  1.00  0.00     0.042 A 
ATOM      8  C   UNL A   1      29.080  26.161  24.269  1.00  0.00     0.030 A 
ATOM      9  C   UNL A   1      31.074  26.746  25.498  1.00  0.00     0.043 A 
ATOM     10  C   UNL A   1      29.685  26.539  23.085  1.00  0.00     0.049 A 
ATOM     11  C   UNL A   1      31.029  26.872  23.107  1.00  0.00     0.128 A 
BRANCH   7  12
ATOM     12  N   UNL A   1      29.518  25.154  26.439  1.00  0.00    -0.322 N 
ATOM     13  C   UNL A   1      30.102  23.924  26.676  1.00  0.00     0.248 C 
ATOM     14  O   UNL A   1      29.622  23.150  27.503  1.00  0.00    -0.270 OA
ATOM     15  H   UNL A   1      28.787  25.416  27.044  1.00  0.00     0.170 HD
BRANCH  13  16
ATOM     16  C   UNL A   1      31.355  23.529  25.955  1.00  0.00     0.075 C 
ATOM     17  C   UNL A   1      32.561  23.640  26.536  1.00  0.00     0.053 C 
BRANCH  17  18
ATOM     18  C   UNL A   1      33.775  23.522  25.800  1.00  0.00     0.127 A 
ATOM     19  C   UNL A   1      35.890  23.127  25.268  1.00  0.00     0.135 A 
ATOM     20  C   UNL A   1      35.316  23.638  24.131  1.00  0.00     0.051 A 
ATOM     21  O   UNL A   1      34.956  22.967  26.252  1.00  0.00    -0.457 OA
ATOM     22  C   UNL A   1      34.006  23.971  24.504  1.00  0.00     0.051 A 
BRANCH  19  23
ATOM     23  C   UNL A   1      37.272  22.857  25.608  1.00  0.00     0.021 A 
ATOM     24  C   UNL A   1      37.026  20.404  24.873  1.00  0.00     0.045 C 
ATOM     25  C   UNL A   1      37.814  21.560  25.441  1.00  0.00    -0.033 A 
ATOM     26  C   UNL A   1      39.131  21.310  25.857  1.00  0.00     0.089 A 
ATOM     27  C   UNL A   1      39.901  22.341  26.409  1.00  0.00     0.269 A 
ATOM     28  C   UNL A   1      38.059  23.881  26.153  1.00  0.00     0.019 A 
ATOM     29  C   UNL A   1      39.373  23.628  26.556  1.00  0.00     0.086 A 
BRANCH  27  30
ATOM     30  N   UNL A   1      41.276  22.063  26.838  1.00  0.00     0.062 N 
ATOM     31  O   UNL A   1      42.176  22.141  25.989  1.00  0.00    -0.258 OA
ATOM     32  O   UNL A   1      41.462  21.767  28.027  1.00  0.00    -0.258 OA
ENDBRANCH  27  30
ENDBRANCH  19  23
ENDBRANCH  17  18
ENDBRANCH  13  16
ENDBRANCH   7  12
BRANCH  11  33
ATOM     33  O   UNL A   1      31.688  26.759  21.910  1.00  0.00    -0.507 OA
ATOM     34  H   UNL A   1      32.255  26.030  21.755  1.00  0.00     0.293 HD
ENDBRANCH  11  33
ENDBRANCH   3   6
ENDBRANCH   1   2
BRANCH   1  35
ATOM     35  C   UNL A   1      31.973  30.072  26.872  1.00  0.00     0.042 C 
BRANCH  35  36
ATOM     36  C   UNL A   1      33.354  29.932  27.470  1.00  0.00     0.118 C 
BRANCH  36  37
ATOM     37  N   UNL A   1      33.989  31.235  27.678  1.00  0.00    -0.352 N 
ATOM     38  C   UNL A   1      35.237  31.515  28.211  1.00  0.00     0.251 C 
ATOM     39  H   UNL A   1      33.458  32.017  27.402  1.00  0.00     0.163 HD
ATOM     40  O   UNL A   1      35.606  32.650  28.453  1.00  0.00    -0.269 OA
BRANCH  38  41
ATOM     41  C   UNL A   1      36.137  30.363  28.401  1.00  0.00     0.039 A 
ATOM     42  C   UNL A   1      36.202  29.822  29.687  1.00  0.00     0.014 A 
ATOM     43  C   UNL A   1      37.155  30.174  27.475  1.00  0.00     0.014 A 
ATOM     44  C   UNL A   1      37.404  29.284  30.130  1.00  0.00     0.010 A 
ATOM     45  C   UNL A   1      38.380  29.776  27.963  1.00  0.00     0.010 A 
ATOM     46  C   UNL A   1      38.515  29.372  29.304  1.00  0.00    -0.014 A 
BRANCH  46  47
ATOM     47  C   UNL A   1      39.882  29.102  29.732  1.00  0.00     0.031 A 
ATOM     48  C   UNL A   1      40.460  27.776  29.418  1.00  0.00     0.074 A 
ATOM     49  C   UNL A   1      40.646  30.067  30.292  1.00  0.00     0.049 A 
ATOM     50  N   UNL A   1      41.592  27.347  29.853  1.00  0.00    -0.248 NA
ATOM     51  C   UNL A   1      39.743  26.778  28.621  1.00  0.00     0.031 C 
ATOM     52  C   UNL A   1      42.103  30.092  30.412  1.00  0.00     0.029 A 
ATOM     53  N   UNL A   1      40.228  31.125  31.091  1.00  0.00    -0.354 N 
ATOM     54  C   UNL A   1      41.896  26.212  29.142  1.00  0.00     0.074 A 
ATOM     55  C   UNL A   1      40.674  25.834  28.486  1.00  0.00     0.031 C 
ATOM     56  C   UNL A   1      42.449  30.939  31.394  1.00  0.00     0.029 A 
ATOM     57  C   UNL A   1      41.226  31.362  32.052  1.00  0.00     0.049 A 
ATOM     58  H   UNL A   1      39.382  31.619  31.001  1.00  0.00     0.167 HD
ATOM     59  C   UNL A   1      43.197  25.824  29.066  1.00  0.00     0.031 A 
ATOM     60  C   UNL A   1      40.967  31.164  33.380  1.00  0.00     0.031 A 
ATOM     61  C   UNL A   1      43.984  26.440  30.136  1.00  0.00     0.049 A 
ATOM     62  C   UNL A   1      41.759  30.025  33.997  1.00  0.00     0.074 A 
ATOM     63  C   UNL A   1      44.941  27.438  30.190  1.00  0.00     0.029 A 
ATOM     64  N   UNL A   1      43.573  26.224  31.453  1.00  0.00    -0.354 N 
ATOM     65  N   UNL A   1      42.446  29.146  33.316  1.00  0.00    -0.248 NA
ATOM     66  C   UNL A   1      41.834  29.782  35.436  1.00  0.00     0.031 C 
ATOM     67  C   UNL A   1      44.993  27.916  31.536  1.00  0.00     0.029 A 
ATOM     68  C   UNL A   1      44.108  27.173  32.300  1.00  0.00     0.049 A 
ATOM     69  H   UNL A   1      42.980  25.491  31.738  1.00  0.00     0.167 HD
ATOM     70  C   UNL A   1      43.014  28.231  34.165  1.00  0.00     0.074 A 
ATOM     71  C   UNL A   1      42.624  28.694  35.487  1.00  0.00     0.031 C 
ATOM     72  C   UNL A   1      43.744  27.165  33.717  1.00  0.00     0.031 A 
BRANCH  59  73
ATOM     73  C   UNL A   1      43.764  25.090  27.865  1.00  0.00    -0.014 A 
ATOM     74  C   UNL A   1      44.570  23.949  28.053  1.00  0.00     0.010 A 
ATOM     75  C   UNL A   1      43.663  25.552  26.533  1.00  0.00     0.010 A 
ATOM     76  C   UNL A   1      45.252  23.334  26.984  1.00  0.00     0.020 A 
ATOM     77  C   UNL A   1      44.318  24.940  25.457  1.00  0.00     0.020 A 
ATOM     78  C   UNL A   1      45.126  23.841  25.690  1.00  0.00     0.054 A 
BRANCH  78  79
ATOM     79  S   UNL A   1      46.040  23.083  24.323  1.00  0.00     0.124 S 
ATOM     80  O   UNL A   1      46.600  21.887  24.947  1.00  0.00    -0.237 OA
ATOM     81  O   UNL A   1      44.995  22.850  23.332  1.00  0.00    -0.237 OA
ATOM     82  O   UNL A   1      47.024  24.101  23.955  1.00  0.00    -0.744 OA
ENDBRANCH  78  79
ENDBRANCH  59  73
BRANCH  60  83
ATOM     83  C   UNL A   1      39.597  31.614  33.775  1.00  0.00    -0.014 A 
ATOM     84  C   UNL A   1      39.372  33.010  33.775  1.00  0.00     0.010 A 
ATOM     85  C   UNL A   1      38.493  30.752  33.657  1.00  0.00     0.010 A 
ATOM     86  C   UNL A   1      38.119  33.528  33.436  1.00  0.00     0.020 A 
ATOM     87  C   UNL A   1      37.228  31.274  33.337  1.00  0.00     0.020 A 
ATOM     88  C   UNL A   1      37.078  32.650  33.143  1.00  0.00     0.054 A 
BRANCH  88  89
ATOM     89  S   UNL A   1      35.624  33.325  32.281  1.00  0.00     0.124 S 
ATOM     90  O   UNL A   1      35.001  32.128  31.726  1.00  0.00    -0.237 OA
ATOM     91  O   UNL A   1      34.894  33.959  33.381  1.00  0.00    -0.237 OA
ATOM     92  O   UNL A   1      36.201  34.243  31.305  1.00  0.00    -0.744 OA
ENDBRANCH  88  89
ENDBRANCH  60  83
BRANCH  72  93
ATOM     93  C   UNL A   1      44.232  26.008  34.567  1.00  0.00    -0.014 A 
ATOM     94  C   UNL A   1      43.634  24.738  34.602  1.00  0.00     0.010 A 
ATOM     95  C   UNL A   1      45.443  26.159  35.288  1.00  0.00     0.010 A 
ATOM     96  C   UNL A   1      44.176  23.695  35.370  1.00  0.00     0.020 A 
ATOM     97  C   UNL A   1      46.020  25.111  36.014  1.00  0.00     0.020 A 
ATOM     98  C   UNL A   1      45.363  23.889  36.074  1.00  0.00     0.054 A 
BRANCH  98  99
ATOM     99  S   UNL A   1      46.093  22.519  37.007  1.00  0.00     0.124 S 
ATOM    100  O   UNL A   1      45.462  21.360  36.381  1.00  0.00    -0.237 OA
ATOM    101  O   UNL A   1      47.524  22.668  36.748  1.00  0.00    -0.237 OA
ATOM    102  O   UNL A   1      45.687  22.790  38.383  1.00  0.00    -0.744 OA
ENDBRANCH  98  99
ENDBRANCH  72  93
ENDBRANCH  46  47
ENDBRANCH  38  41
ENDBRANCH  36  37
ENDBRANCH  35  36
ENDBRANCH   1  35
TORSDOF 19
ENDMDL
MODEL 2
REMARK VINA RESULT:     -12.2      1.771      2.272
REMARK SMILES Cc1cc([N+](=O)[O-])ccc1-c1ccc(/C=C/C(=O)Nc2ccc(O)c(C(=O)NCCCNC(=O)c3ccc(-c4c5nc(c(-c6ccc(S(=O)(=O)[O-])cc6)c6ccc([nH]6)c(-c6ccc(S(=O)(=O)[O-])cc6)c6nc(c(-c7ccc(S(=O)(=O)[O-])cc7)c7ccc4[nH]7)C=C6)C=C5)cc3)c2)o1
REMARK SMILES IDX 29 1 28 2 26 3 27 4 25 6 20 7 21 8 95 9 22 10 23 11 19 12
REMARK SMILES IDX 17 13 18 14 16 16 15 17 14 18 11 19 12 20 96 21 13 22 10 23
REMARK SMILES IDX 1 24 2 25 3 26 4 27 9 28 8 29 5 30 6 31 7 32 24 33 30 35
REMARK SMILES IDX 31 36 32 37 33 38 34 40 35 41 36 42 94 43 37 44 93 45 38 46
REMARK SMILES IDX 39 47 40 48 87 49 41 50 92 51 86 52 88 53 42 54 91 55 85 56
REMARK SMILES IDX 84 57 43 59 73 60 54 61 72 62 55 63 58 64 71 65 89 66 56 67
REMARK SMILES IDX 57 68 70 70 90 71 59 72 44 73 45 74 53 75 46 76 52 77 47 78
REMARK SMILES IDX 48 79 49 80 50 81 51 82 74 83 75 84 83 85 76 86 82 87 77 88
REMARK SMILES IDX 78 89 79 90 80 91 81 92 60 93 61 94 69 95 62 96 68 97 63 98
REMARK SMILES IDX 64 99 65 100 66 101 67 102
REMARK H PARENT 28 5 19 15 24 34 32 39 88 58 58 69
REMARK Flexibility Score: inf
ROOT
ATOM      1  C   UNL A   1      32.067  29.742  25.828  1.00  0.00     0.118 C 
ENDROOT
BRANCH   1   2
ATOM      2  N   UNL A   1      32.791  29.729  24.553  1.00  0.00    -0.352 N 
ATOM      3  C   UNL A   1      32.742  28.841  23.499  1.00  0.00     0.255 C 
ATOM      4  O   UNL A   1      33.519  28.964  22.556  1.00  0.00    -0.269 OA
ATOM      5  H   UNL A   1      33.416  30.479  24.429  1.00  0.00     0.163 HD
BRANCH   3   6
ATOM      6  C   UNL A   1      31.766  27.721  23.487  1.00  0.00     0.083 A 
ATOM      7  C   UNL A   1      31.267  25.391  23.157  1.00  0.00     0.042 A 
ATOM      8  C   UNL A   1      30.030  25.568  23.778  1.00  0.00     0.030 A 
ATOM      9  C   UNL A   1      32.204  26.427  23.175  1.00  0.00     0.043 A 
ATOM     10  C   UNL A   1      29.578  26.852  24.021  1.00  0.00     0.049 A 
ATOM     11  C   UNL A   1      30.401  27.915  23.690  1.00  0.00     0.128 A 
BRANCH   7  12
ATOM     12  N   UNL A   1      31.504  24.266  22.348  1.00  0.00    -0.322 N 
ATOM     13  C   UNL A   1      32.584  23.405  22.412  1.00  0.00     0.248 C 
ATOM     14  O   UNL A   1      32.750  22.542  21.552  1.00  0.00    -0.270 OA
ATOM     15  H   UNL A   1      30.828  24.070  21.660  1.00  0.00     0.170 HD
BRANCH  13  16
ATOM     16  C   UNL A   1      33.551  23.489  23.554  1.00  0.00     0.075 C 
ATOM     17  C   UNL A   1      34.872  23.611  23.343  1.00  0.00     0.053 C 
BRANCH  17  18
ATOM     18  C   UNL A   1      35.829  23.434  24.384  1.00  0.00     0.127 A 
ATOM     19  C   UNL A   1      37.577  22.720  25.543  1.00  0.00     0.135 A 
ATOM     20  C   UNL A   1      36.904  23.570  26.383  1.00  0.00     0.051 A 
ATOM     21  O   UNL A   1      36.994  22.696  24.308  1.00  0.00    -0.457 OA
ATOM     22  C   UNL A   1      35.752  23.943  25.675  1.00  0.00     0.051 A 
BRANCH  19  23
ATOM     23  C   UNL A   1      38.675  21.805  25.781  1.00  0.00     0.021 A 
ATOM     24  C   UNL A   1      37.383  19.885  24.657  1.00  0.00     0.045 C 
ATOM     25  C   UNL A   1      38.582  20.450  25.380  1.00  0.00    -0.033 A 
ATOM     26  C   UNL A   1      39.627  19.569  25.698  1.00  0.00     0.089 A 
ATOM     27  C   UNL A   1      40.755  20.035  26.384  1.00  0.00     0.269 A 
ATOM     28  C   UNL A   1      39.815  22.258  26.459  1.00  0.00     0.019 A 
ATOM     29  C   UNL A   1      40.856  21.378  26.764  1.00  0.00     0.086 A 
BRANCH  27  30
ATOM     30  N   UNL A   1      41.839  19.101  26.709  1.00  0.00     0.062 N 
ATOM     31  O   UNL A   1      42.119  18.227  25.876  1.00  0.00    -0.258 OA
ATOM     32  O   UNL A   1      42.415  19.240  27.797  1.00  0.00    -0.258 OA
ENDBRANCH  27  30
ENDBRANCH  19  23
ENDBRANCH  17  18
ENDBRANCH  13  16
ENDBRANCH   7  12
BRANCH  11  33
ATOM     33  O   UNL A   1      29.767  29.112  23.481  1.00  0.00    -0.507 OA
ATOM     34  H   UNL A   1      28.832  29.157  23.502  1.00  0.00     0.293 HD
ENDBRANCH  11  33
ENDBRANCH   3   6
ENDBRANCH   1   2
BRANCH   1  35
ATOM     35  C   UNL A   1      32.502  30.832  26.769  1.00  0.00     0.042 C 
BRANCH  35  36
ATOM     36  C   UNL A   1      33.888  30.568  27.309  1.00  0.00     0.118 C 
BRANCH  36  37
ATOM     37  N   UNL A   1      34.374  31.686  28.121  1.00  0.00    -0.352 N 
ATOM     38  C   UNL A   1      35.460  31.723  28.981  1.00  0.00     0.251 C 
ATOM     39  H   UNL A   1      33.860  32.522  28.046  1.00  0.00     0.163 HD
ATOM     40  O   UNL A   1      35.691  32.676  29.702  1.00  0.00    -0.269 OA
BRANCH  38  41
ATOM     41  C   UNL A   1      36.378  30.572  28.921  1.00  0.00     0.039 A 
ATOM     42  C   UNL A   1      36.449  29.765  30.060  1.00  0.00     0.014 A 
ATOM     43  C   UNL A   1      37.400  30.603  27.981  1.00  0.00     0.014 A 
ATOM     44  C   UNL A   1      37.659  29.162  30.382  1.00  0.00     0.010 A 
ATOM     45  C   UNL A   1      38.630  30.126  28.378  1.00  0.00     0.010 A 
ATOM     46  C   UNL A   1      38.770  29.444  29.599  1.00  0.00    -0.014 A 
BRANCH  46  47
ATOM     47  C   UNL A   1      40.141  29.108  29.966  1.00  0.00     0.031 A 
ATOM     48  C   UNL A   1      40.656  27.776  29.580  1.00  0.00     0.074 A 
ATOM     49  C   UNL A   1      40.960  30.022  30.533  1.00  0.00     0.049 A 
ATOM     50  N   UNL A   1      41.786  27.290  29.956  1.00  0.00    -0.248 NA
ATOM     51  C   UNL A   1      39.874  26.836  28.773  1.00  0.00     0.031 C 
ATOM     52  C   UNL A   1      42.420  29.990  30.599  1.00  0.00     0.029 A 
ATOM     53  N   UNL A   1      40.611  31.062  31.386  1.00  0.00    -0.354 N 
ATOM     54  C   UNL A   1      42.022  26.173  29.192  1.00  0.00     0.074 A 
ATOM     55  C   UNL A   1      40.763  25.865  28.567  1.00  0.00     0.031 C 
ATOM     56  C   UNL A   1      42.833  30.784  31.599  1.00  0.00     0.029 A 
ATOM     57  C   UNL A   1      41.651  31.226  32.317  1.00  0.00     0.049 A 
ATOM     58  H   UNL A   1      39.782  31.590  31.346  1.00  0.00     0.167 HD
ATOM     59  C   UNL A   1      43.304  25.741  29.051  1.00  0.00     0.031 A 
ATOM     60  C   UNL A   1      41.433  30.985  33.646  1.00  0.00     0.031 A 
ATOM     61  C   UNL A   1      44.152  26.285  30.114  1.00  0.00     0.049 A 
ATOM     62  C   UNL A   1      42.204  29.795  34.190  1.00  0.00     0.074 A 
ATOM     63  C   UNL A   1      45.146  27.245  30.170  1.00  0.00     0.029 A 
ATOM     64  N   UNL A   1      43.781  26.033  31.436  1.00  0.00    -0.354 N 
ATOM     65  N   UNL A   1      42.832  28.919  33.450  1.00  0.00    -0.248 NA
ATOM     66  C   UNL A   1      42.321  29.493  35.614  1.00  0.00     0.031 C 
ATOM     67  C   UNL A   1      45.265  27.668  31.530  1.00  0.00     0.029 A 
ATOM     68  C   UNL A   1      44.381  26.929  32.299  1.00  0.00     0.049 A 
ATOM     69  H   UNL A   1      43.171  25.312  31.715  1.00  0.00     0.167 HD
ATOM     70  C   UNL A   1      43.395  27.952  34.242  1.00  0.00     0.074 A 
ATOM     71  C   UNL A   1      43.070  28.375  35.594  1.00  0.00     0.031 C 
ATOM     72  C   UNL A   1      44.068  26.878  33.727  1.00  0.00     0.031 A 
BRANCH  59  73
ATOM     73  C   UNL A   1      43.799  25.035  27.804  1.00  0.00    -0.014 A 
ATOM     74  C   UNL A   1      43.447  23.691  27.568  1.00  0.00     0.010 A 
ATOM     75  C   UNL A   1      44.731  25.588  26.897  1.00  0.00     0.010 A 
ATOM     76  C   UNL A   1      44.013  22.945  26.515  1.00  0.00     0.020 A 
ATOM     77  C   UNL A   1      45.288  24.867  25.833  1.00  0.00     0.020 A 
ATOM     78  C   UNL A   1      44.939  23.539  25.657  1.00  0.00     0.054 A 
BRANCH  78  79
ATOM     79  S   UNL A   1      45.706  22.569  24.334  1.00  0.00     0.124 S 
ATOM     80  O   UNL A   1      46.470  21.573  25.079  1.00  0.00    -0.237 OA
ATOM     81  O   UNL A   1      44.551  22.064  23.599  1.00  0.00    -0.237 OA
ATOM     82  O   UNL A   1      46.516  23.549  23.609  1.00  0.00    -0.744 OA
ENDBRANCH  78  79
ENDBRANCH  59  73
BRANCH  60  83
ATOM     83  C   UNL A   1      40.096  31.468  34.109  1.00  0.00    -0.014 A 
ATOM     84  C   UNL A   1      39.219  30.486  34.624  1.00  0.00     0.010 A 
ATOM     85  C   UNL A   1      39.905  32.808  34.487  1.00  0.00     0.010 A 
ATOM     86  C   UNL A   1      38.331  30.796  35.657  1.00  0.00     0.020 A 
ATOM     87  C   UNL A   1      38.996  33.125  35.511  1.00  0.00     0.020 A 
ATOM     88  C   UNL A   1      38.285  32.101  36.144  1.00  0.00     0.054 A 
BRANCH  88  89
ATOM     89  S   UNL A   1      37.478  32.372  37.752  1.00  0.00     0.124 S 
ATOM     90  O   UNL A   1      37.257  31.011  38.230  1.00  0.00    -0.237 OA
ATOM     91  O   UNL A   1      38.501  33.131  38.474  1.00  0.00    -0.237 OA
ATOM     92  O   UNL A   1      36.274  33.120  37.408  1.00  0.00    -0.744 OA
ENDBRANCH  88  89
ENDBRANCH  60  83
BRANCH  72  93
ATOM     93  C   UNL A   1      44.543  25.672  34.514  1.00  0.00    -0.014 A 
ATOM     94  C   UNL A   1      43.828  24.469  34.635  1.00  0.00     0.010 A 
ATOM     95  C   UNL A   1      45.847  25.693  35.068  1.00  0.00     0.010 A 
ATOM     96  C   UNL A   1      44.356  23.371  35.333  1.00  0.00     0.020 A 
ATOM     97  C   UNL A   1      46.403  24.588  35.720  1.00  0.00     0.020 A 
ATOM     98  C   UNL A   1      45.639  23.438  35.874  1.00  0.00     0.054 A 
BRANCH  98  99
ATOM     99  S   UNL A   1      46.342  21.994  36.712  1.00  0.00     0.124 S 
ATOM    100  O   UNL A   1      47.773  22.185  36.490  1.00  0.00    -0.237 OA
ATOM    101  O   UNL A   1      45.895  22.165  38.093  1.00  0.00    -0.237 OA
ATOM    102  O   UNL A   1      45.741  20.866  36.006  1.00  0.00    -0.744 OA
ENDBRANCH  98  99
ENDBRANCH  72  93
ENDBRANCH  46  47
ENDBRANCH  38  41
ENDBRANCH  36  37
ENDBRANCH  35  36
ENDBRANCH   1  35
TORSDOF 19
ENDMDL
MODEL 3
REMARK VINA RESULT:     -11.9      3.785     10.253
REMARK SMILES Cc1cc([N+](=O)[O-])ccc1-c1ccc(/C=C/C(=O)Nc2ccc(O)c(C(=O)NCCCNC(=O)c3ccc(-c4c5nc(c(-c6ccc(S(=O)(=O)[O-])cc6)c6ccc([nH]6)c(-c6ccc(S(=O)(=O)[O-])cc6)c6nc(c(-c7ccc(S(=O)(=O)[O-])cc7)c7ccc4[nH]7)C=C6)C=C5)cc3)c2)o1
REMARK SMILES IDX 29 1 28 2 26 3 27 4 25 6 20 7 21 8 95 9 22 10 23 11 19 12
REMARK SMILES IDX 17 13 18 14 16 16 15 17 14 18 11 19 12 20 96 21 13 22 10 23
REMARK SMILES IDX 1 24 2 25 3 26 4 27 9 28 8 29 5 30 6 31 7 32 24 33 30 35
REMARK SMILES IDX 31 36 32 37 33 38 34 40 35 41 36 42 94 43 37 44 93 45 38 46
REMARK SMILES IDX 39 47 40 48 87 49 41 50 92 51 86 52 88 53 42 54 91 55 85 56
REMARK SMILES IDX 84 57 43 59 73 60 54 61 72 62 55 63 58 64 71 65 89 66 56 67
REMARK SMILES IDX 57 68 70 70 90 71 59 72 44 73 45 74 53 75 46 76 52 77 47 78
REMARK SMILES IDX 48 79 49 80 50 81 51 82 74 83 75 84 83 85 76 86 82 87 77 88
REMARK SMILES IDX 78 89 79 90 80 91 81 92 60 93 61 94 69 95 62 96 68 97 63 98
REMARK SMILES IDX 64 99 65 100 66 101 67 102
REMARK H PARENT 28 5 19 15 24 34 32 39 88 58 58 69
REMARK Flexibility Score: inf
ROOT
ATOM      1  C   UNL A   1      38.732  24.192  26.760  1.00  0.00     0.118 C 
ENDROOT
BRANCH   1   2
ATOM      2  N   UNL A   1      38.764  22.848  26.174  1.00  0.00    -0.352 N 
ATOM      3  C   UNL A   1      37.806  22.150  25.470  1.00  0.00     0.255 C 
ATOM      4  O   UNL A   1      38.006  20.980  25.153  1.00  0.00    -0.269 OA
ATOM      5  H   UNL A   1      39.611  22.364  26.305  1.00  0.00     0.163 HD
BRANCH   3   6
ATOM      6  C   UNL A   1      36.518  22.788  25.094  1.00  0.00     0.083 A 
ATOM      7  C   UNL A   1      34.262  23.417  25.642  1.00  0.00     0.042 A 
ATOM      8  C   UNL A   1      34.225  24.257  24.529  1.00  0.00     0.030 A 
ATOM      9  C   UNL A   1      35.468  22.824  26.022  1.00  0.00     0.043 A 
ATOM     10  C   UNL A   1      35.231  24.165  23.585  1.00  0.00     0.049 A 
ATOM     11  C   UNL A   1      36.271  23.281  23.813  1.00  0.00     0.128 A 
BRANCH   7  12
ATOM     12  N   UNL A   1      33.069  23.004  26.264  1.00  0.00    -0.322 N 
ATOM     13  C   UNL A   1      32.088  23.813  26.806  1.00  0.00     0.248 C 
ATOM     14  O   UNL A   1      31.161  23.328  27.452  1.00  0.00    -0.270 OA
ATOM     15  H   UNL A   1      32.917  22.033  26.320  1.00  0.00     0.170 HD
BRANCH  13  16
ATOM     16  C   UNL A   1      32.120  25.295  26.581  1.00  0.00     0.075 C 
ATOM     17  C   UNL A   1      31.128  25.924  25.929  1.00  0.00     0.053 C 
BRANCH  17  18
ATOM     18  C   UNL A   1      31.248  27.269  25.477  1.00  0.00     0.127 A 
ATOM     19  C   UNL A   1      30.834  29.204  24.477  1.00  0.00     0.135 A 
ATOM     20  C   UNL A   1      32.066  29.350  25.063  1.00  0.00     0.051 A 
ATOM     21  O   UNL A   1      30.290  27.991  24.792  1.00  0.00    -0.457 OA
ATOM     22  C   UNL A   1      32.359  28.094  25.612  1.00  0.00     0.051 A 
BRANCH  19  23
ATOM     23  C   UNL A   1      30.114  30.036  23.536  1.00  0.00     0.021 A 
ATOM     24  C   UNL A   1      30.060  31.981  25.218  1.00  0.00     0.045 C 
ATOM     25  C   UNL A   1      29.725  31.351  23.888  1.00  0.00    -0.033 A 
ATOM     26  C   UNL A   1      28.956  32.103  22.986  1.00  0.00     0.089 A 
ATOM     27  C   UNL A   1      28.600  31.561  21.745  1.00  0.00     0.269 A 
ATOM     28  C   UNL A   1      29.758  29.511  22.286  1.00  0.00     0.019 A 
ATOM     29  C   UNL A   1      29.000  30.268  21.388  1.00  0.00     0.086 A 
BRANCH  27  30
ATOM     30  N   UNL A   1      27.797  32.359  20.813  1.00  0.00     0.062 N 
ATOM     31  O   UNL A   1      27.544  33.533  21.123  1.00  0.00    -0.258 OA
ATOM     32  O   UNL A   1      27.417  31.816  19.765  1.00  0.00    -0.258 OA
ENDBRANCH  27  30
ENDBRANCH  19  23
ENDBRANCH  17  18
ENDBRANCH  13  16
ENDBRANCH   7  12
BRANCH  11  33
ATOM     33  O   UNL A   1      36.950  22.862  22.698  1.00  0.00    -0.507 OA
ATOM     34  H   UNL A   1      37.804  22.488  22.783  1.00  0.00     0.293 HD
ENDBRANCH  11  33
ENDBRANCH   3   6
ENDBRANCH   1   2
BRANCH   1  35
ATOM     35  C   UNL A   1      40.021  24.606  27.415  1.00  0.00     0.042 C 
BRANCH  35  36
ATOM     36  C   UNL A   1      40.258  26.091  27.268  1.00  0.00     0.118 C 
BRANCH  36  37
ATOM     37  N   UNL A   1      41.180  26.386  26.169  1.00  0.00    -0.352 N 
ATOM     38  C   UNL A   1      41.614  27.619  25.710  1.00  0.00     0.251 C 
ATOM     39  H   UNL A   1      41.540  25.603  25.693  1.00  0.00     0.163 HD
ATOM     40  O   UNL A   1      42.285  27.744  24.702  1.00  0.00    -0.269 OA
BRANCH  38  41
ATOM     41  C   UNL A   1      41.284  28.781  26.556  1.00  0.00     0.039 A 
ATOM     42  C   UNL A   1      42.312  29.286  27.357  1.00  0.00     0.014 A 
ATOM     43  C   UNL A   1      39.946  29.015  26.847  1.00  0.00     0.014 A 
ATOM     44  C   UNL A   1      41.993  29.832  28.594  1.00  0.00     0.010 A 
ATOM     45  C   UNL A   1      39.647  29.420  28.130  1.00  0.00     0.010 A 
ATOM     46  C   UNL A   1      40.672  29.787  29.019  1.00  0.00    -0.014 A 
BRANCH  46  47
ATOM     47  C   UNL A   1      40.237  30.069  30.382  1.00  0.00     0.031 A 
ATOM     48  C   UNL A   1      39.663  31.403  30.666  1.00  0.00     0.074 A 
ATOM     49  C   UNL A   1      40.241  29.108  31.333  1.00  0.00     0.049 A 
ATOM     50  N   UNL A   1      39.370  31.841  31.840  1.00  0.00    -0.248 NA
ATOM     51  C   UNL A   1      39.438  32.400  29.616  1.00  0.00     0.031 C 
ATOM     52  C   UNL A   1      39.498  29.098  32.592  1.00  0.00     0.029 A 
ATOM     53  N   UNL A   1      41.122  28.040  31.457  1.00  0.00    -0.354 N 
ATOM     54  C   UNL A   1      38.628  32.985  31.673  1.00  0.00     0.074 A 
ATOM     55  C   UNL A   1      38.802  33.355  30.294  1.00  0.00     0.031 C 
ATOM     56  C   UNL A   1      40.090  28.247  33.445  1.00  0.00     0.029 A 
ATOM     57  C   UNL A   1      41.328  27.806  32.827  1.00  0.00     0.049 A 
ATOM     58  H   UNL A   1      41.530  27.537  30.716  1.00  0.00     0.167 HD
ATOM     59  C   UNL A   1      37.820  33.387  32.689  1.00  0.00     0.031 A 
ATOM     60  C   UNL A   1      42.565  27.991  33.382  1.00  0.00     0.031 A 
ATOM     61  C   UNL A   1      38.232  32.772  33.953  1.00  0.00     0.049 A 
ATOM     62  C   UNL A   1      42.625  29.134  34.380  1.00  0.00     0.074 A 
ATOM     63  C   UNL A   1      37.712  31.784  34.770  1.00  0.00     0.029 A 
ATOM     64  N   UNL A   1      39.547  32.974  34.376  1.00  0.00    -0.354 N 
ATOM     65  N   UNL A   1      41.684  30.025  34.544  1.00  0.00    -0.248 NA
ATOM     66  C   UNL A   1      43.760  29.367  35.270  1.00  0.00     0.031 C 
ATOM     67  C   UNL A   1      38.775  31.296  35.591  1.00  0.00     0.029 A 
ATOM     68  C   UNL A   1      39.919  32.023  35.306  1.00  0.00     0.049 A 
ATOM     69  H   UNL A   1      40.131  33.697  34.053  1.00  0.00     0.167 HD
ATOM     70  C   UNL A   1      42.061  30.940  35.493  1.00  0.00     0.074 A 
ATOM     71  C   UNL A   1      43.359  30.464  35.939  1.00  0.00     0.031 C 
ATOM     72  C   UNL A   1      41.286  32.017  35.826  1.00  0.00     0.031 A 
BRANCH  59  73
ATOM     73  C   UNL A   1      36.521  34.136  32.456  1.00  0.00    -0.014 A 
ATOM     74  C   UNL A   1      36.081  35.091  33.394  1.00  0.00     0.010 A 
ATOM     75  C   UNL A   1      35.615  33.846  31.412  1.00  0.00     0.010 A 
ATOM     76  C   UNL A   1      34.808  35.690  33.307  1.00  0.00     0.020 A 
ATOM     77  C   UNL A   1      34.355  34.446  31.299  1.00  0.00     0.020 A 
ATOM     78  C   UNL A   1      33.948  35.356  32.260  1.00  0.00     0.054 A 
BRANCH  78  79
ATOM     79  S   UNL A   1      32.294  36.086  32.174  1.00  0.00     0.124 S 
ATOM     80  O   UNL A   1      31.440  34.977  32.591  1.00  0.00    -0.237 OA
ATOM     81  O   UNL A   1      32.388  37.200  33.111  1.00  0.00    -0.237 OA
ATOM     82  O   UNL A   1      32.156  36.472  30.769  1.00  0.00    -0.744 OA
ENDBRANCH  78  79
ENDBRANCH  59  73
BRANCH  60  83
ATOM     83  C   UNL A   1      43.672  27.524  32.493  1.00  0.00    -0.014 A 
ATOM     84  C   UNL A   1      43.998  26.150  32.567  1.00  0.00     0.010 A 
ATOM     85  C   UNL A   1      44.012  28.236  31.330  1.00  0.00     0.010 A 
ATOM     86  C   UNL A   1      44.436  25.460  31.434  1.00  0.00     0.020 A 
ATOM     87  C   UNL A   1      44.474  27.546  30.195  1.00  0.00     0.020 A 
ATOM     88  C   UNL A   1      44.595  26.154  30.236  1.00  0.00     0.054 A 
BRANCH  88  89
ATOM     89  S   UNL A   1      44.719  25.176  28.706  1.00  0.00     0.124 S 
ATOM     90  O   UNL A   1      44.370  23.834  29.159  1.00  0.00    -0.237 OA
ATOM     91  O   UNL A   1      43.723  25.829  27.855  1.00  0.00    -0.237 OA
ATOM     92  O   UNL A   1      46.107  25.360  28.295  1.00  0.00    -0.744 OA
ENDBRANCH  88  89
ENDBRANCH  60  83
BRANCH  72  93
ATOM     93  C   UNL A   1      41.714  33.173  36.710  1.00  0.00    -0.014 A 
ATOM     94  C   UNL A   1      41.566  33.204  38.106  1.00  0.00     0.010 A 
ATOM     95  C   UNL A   1      42.425  34.250  36.124  1.00  0.00     0.010 A 
ATOM     96  C   UNL A   1      42.038  34.285  38.868  1.00  0.00     0.020 A 
ATOM     97  C   UNL A   1      42.945  35.305  36.879  1.00  0.00     0.020 A 
ATOM     98  C   UNL A   1      42.722  35.330  38.249  1.00  0.00     0.054 A 
BRANCH  98  99
ATOM     99  S   UNL A   1      43.390  36.687  39.247  1.00  0.00     0.124 S 
ATOM    100  O   UNL A   1      43.070  37.850  38.423  1.00  0.00    -0.237 OA
ATOM    101  O   UNL A   1      42.638  36.579  40.496  1.00  0.00    -0.237 OA
ATOM    102  O   UNL A   1      44.809  36.363  39.354  1.00  0.00    -0.744 OA
ENDBRANCH  98  99
ENDBRANCH  72  93
ENDBRANCH  46  47
ENDBRANCH  38  41
ENDBRANCH  36  37
ENDBRANCH  35  36
ENDBRANCH   1  35
TORSDOF 19
ENDMDL
