MODEL 1
REMARK VINA RESULT:     -10.6      0.000      0.000
REMARK SMILES CC[NH2+][C@@]1(C(=O)NCCCNC(=O)c2ccc(-c3c4nc(c(-c5ccc(S(=O)(=O)[O-])cc5)c5ccc([nH]5)c(-c5ccc(S(=O)(=O)[O-])cc5)c5nc(c(-c6ccc(S(=O)(=O)[O-])cc6)c6ccc3[nH]6)C=C5)C=C4)cc2)CCC[C@H]1CCN1C(=O)CCC1=O
REMARK SMILES IDX 9 1 8 2 7 3 5 4 6 5 4 7 74 8 77 9 75 10 76 11 3 12 2 15 1 16
REMARK SMILES IDX 78 17 79 18 80 19 81 20 85 21 82 22 83 23 84 24 86 25 10 26
REMARK SMILES IDX 11 27 12 28 13 30 14 31 15 32 73 33 16 34 72 35 17 36 18 37
REMARK SMILES IDX 19 38 66 39 20 40 71 41 65 42 67 43 21 44 70 45 64 46 63 47
REMARK SMILES IDX 22 49 52 50 33 51 51 52 34 53 37 54 50 55 68 56 35 57 36 58
REMARK SMILES IDX 49 60 69 61 38 62 23 63 24 64 32 65 25 66 31 67 26 68 27 69
REMARK SMILES IDX 28 70 29 71 30 72 53 73 54 74 62 75 55 76 61 77 56 78 57 79
REMARK SMILES IDX 58 80 59 81 60 82 39 83 40 84 48 85 41 86 47 87 42 88 43 89
REMARK SMILES IDX 44 90 45 91 46 92
REMARK H PARENT 7 6 3 13 3 14 11 29 67 48 37 59
REMARK Flexibility Score: inf
ROOT
ATOM      1  C   UNL A   1      33.266  27.742  26.647  1.00  0.00     0.042 C 
ENDROOT
BRANCH   1   2
ATOM      2  C   UNL A   1      33.492  26.431  25.922  1.00  0.00     0.118 C 
BRANCH   2   3
ATOM      3  N   UNL A   1      32.378  25.524  26.054  1.00  0.00    -0.351 N 
ATOM      4  C   UNL A   1      32.435  24.214  26.397  1.00  0.00     0.281 C 
ATOM      5  O   UNL A   1      31.693  23.906  27.344  1.00  0.00    -0.268 OA
ATOM      6  H   UNL A   1      31.484  25.895  25.878  1.00  0.00     0.163 HD
BRANCH   4   7
ATOM      7  C   UNL A   1      33.336  23.105  25.686  1.00  0.00     0.178 C 
ATOM      8  C   UNL A   1      33.653  23.612  24.263  1.00  0.00     0.079 C 
ATOM      9  C   UNL A   1      32.772  21.668  25.441  1.00  0.00     0.062 C 
ATOM     10  C   UNL A   1      32.689  22.924  23.306  1.00  0.00     0.008 C 
ATOM     11  C   UNL A   1      32.069  21.754  24.059  1.00  0.00     0.011 C 
BRANCH   7  12
ATOM     12  N   UNL A   1      34.632  23.091  26.443  1.00  0.00    -0.334 N 
ATOM     13  H   UNL A   1      34.476  23.541  27.345  1.00  0.00     0.347 HD
ATOM     14  H   UNL A   1      34.905  22.111  26.520  1.00  0.00     0.347 HD
BRANCH  12  15
ATOM     15  C   UNL A   1      35.752  23.774  25.779  1.00  0.00     0.257 C 
ATOM     16  C   UNL A   1      36.943  22.827  25.705  1.00  0.00     0.071 C 
ENDBRANCH  12  15
ENDBRANCH   7  12
BRANCH   9  17
ATOM     17  C   UNL A   1      33.770  20.481  25.258  1.00  0.00     0.033 C 
BRANCH  17  18
ATOM     18  C   UNL A   1      33.563  19.395  24.204  1.00  0.00     0.129 C 
BRANCH  18  19
ATOM     19  N   UNL A   1      33.861  18.019  24.563  1.00  0.00    -0.283 N 
ATOM     20  C   UNL A   1      35.098  17.486  24.774  1.00  0.00     0.229 C 
ATOM     21  C   UNL A   1      32.869  17.162  24.952  1.00  0.00     0.229 C 
ATOM     22  O   UNL A   1      36.173  18.059  24.726  1.00  0.00    -0.274 OA
ATOM     23  C   UNL A   1      34.950  16.025  25.088  1.00  0.00     0.110 C 
ATOM     24  C   UNL A   1      33.458  15.816  25.230  1.00  0.00     0.110 C 
ATOM     25  O   UNL A   1      31.680  17.420  25.081  1.00  0.00    -0.274 OA
ENDBRANCH  18  19
ENDBRANCH  17  18
ENDBRANCH   9  17
ENDBRANCH   4   7
ENDBRANCH   2   3
ENDBRANCH   1   2
BRANCH   1  26
ATOM     26  C   UNL A   1      34.047  28.887  26.019  1.00  0.00     0.118 C 
BRANCH  26  27
ATOM     27  N   UNL A   1      33.859  30.141  26.746  1.00  0.00    -0.352 N 
ATOM     28  C   UNL A   1      34.580  30.681  27.781  1.00  0.00     0.251 C 
ATOM     29  H   UNL A   1      33.095  30.684  26.445  1.00  0.00     0.163 HD
ATOM     30  O   UNL A   1      34.106  31.603  28.438  1.00  0.00    -0.269 OA
BRANCH  28  31
ATOM     31  C   UNL A   1      35.919  30.149  28.091  1.00  0.00     0.039 A 
ATOM     32  C   UNL A   1      36.940  30.254  27.145  1.00  0.00     0.014 A 
ATOM     33  C   UNL A   1      36.158  29.538  29.324  1.00  0.00     0.014 A 
ATOM     34  C   UNL A   1      38.220  29.802  27.467  1.00  0.00     0.010 A 
ATOM     35  C   UNL A   1      37.452  29.200  29.685  1.00  0.00     0.010 A 
ATOM     36  C   UNL A   1      38.493  29.308  28.754  1.00  0.00    -0.014 A 
BRANCH  36  37
ATOM     37  C   UNL A   1      39.853  28.873  29.149  1.00  0.00     0.031 A 
ATOM     38  C   UNL A   1      40.751  29.817  29.902  1.00  0.00     0.074 A 
ATOM     39  C   UNL A   1      40.302  27.663  28.763  1.00  0.00     0.049 A 
ATOM     40  N   UNL A   1      41.991  29.650  30.281  1.00  0.00    -0.248 NA
ATOM     41  C   UNL A   1      40.195  31.139  30.238  1.00  0.00     0.031 C 
ATOM     42  C   UNL A   1      39.538  26.682  27.989  1.00  0.00     0.029 A 
ATOM     43  N   UNL A   1      41.513  27.053  28.970  1.00  0.00    -0.354 N 
ATOM     44  C   UNL A   1      42.366  30.848  30.878  1.00  0.00     0.074 A 
ATOM     45  C   UNL A   1      41.250  31.756  30.746  1.00  0.00     0.031 C 
ATOM     46  C   UNL A   1      40.279  25.575  27.829  1.00  0.00     0.029 A 
ATOM     47  C   UNL A   1      41.587  25.786  28.442  1.00  0.00     0.049 A 
ATOM     48  H   UNL A   1      42.257  27.482  29.449  1.00  0.00     0.167 HD
ATOM     49  C   UNL A   1      43.527  31.157  31.504  1.00  0.00     0.031 A 
ATOM     50  C   UNL A   1      42.596  24.894  28.451  1.00  0.00     0.031 A 
ATOM     51  C   UNL A   1      44.629  30.243  31.634  1.00  0.00     0.049 A 
ATOM     52  C   UNL A   1      43.881  25.261  29.137  1.00  0.00     0.074 A 
ATOM     53  C   UNL A   1      45.829  30.428  32.295  1.00  0.00     0.029 A 
ATOM     54  N   UNL A   1      44.667  28.970  31.083  1.00  0.00    -0.354 N 
ATOM     55  N   UNL A   1      44.196  26.374  29.758  1.00  0.00    -0.248 NA
ATOM     56  C   UNL A   1      44.945  24.249  29.132  1.00  0.00     0.031 C 
ATOM     57  C   UNL A   1      46.618  29.291  32.090  1.00  0.00     0.029 A 
ATOM     58  C   UNL A   1      45.882  28.370  31.362  1.00  0.00     0.049 A 
ATOM     59  H   UNL A   1      43.937  28.555  30.568  1.00  0.00     0.167 HD
ATOM     60  C   UNL A   1      45.485  26.185  30.244  1.00  0.00     0.074 A 
ATOM     61  C   UNL A   1      45.884  24.847  29.854  1.00  0.00     0.031 C 
ATOM     62  C   UNL A   1      46.264  27.039  30.954  1.00  0.00     0.031 A 
BRANCH  49  63
ATOM     63  C   UNL A   1      43.654  32.548  32.073  1.00  0.00    -0.014 A 
ATOM     64  C   UNL A   1      44.237  33.593  31.331  1.00  0.00     0.010 A 
ATOM     65  C   UNL A   1      43.196  32.813  33.376  1.00  0.00     0.010 A 
ATOM     66  C   UNL A   1      44.423  34.854  31.905  1.00  0.00     0.020 A 
ATOM     67  C   UNL A   1      43.345  34.084  33.941  1.00  0.00     0.020 A 
ATOM     68  C   UNL A   1      43.984  35.089  33.210  1.00  0.00     0.054 A 
BRANCH  68  69
ATOM     69  S   UNL A   1      44.255  36.728  33.937  1.00  0.00     0.124 S 
ATOM     70  O   UNL A   1      43.229  36.768  34.976  1.00  0.00    -0.237 OA
ATOM     71  O   UNL A   1      45.632  36.641  34.417  1.00  0.00    -0.237 OA
ATOM     72  O   UNL A   1      44.044  37.643  32.818  1.00  0.00    -0.744 OA
ENDBRANCH  68  69
ENDBRANCH  49  63
BRANCH  50  73
ATOM     73  C   UNL A   1      42.401  23.556  27.831  1.00  0.00    -0.014 A 
ATOM     74  C   UNL A   1      42.833  23.315  26.515  1.00  0.00     0.010 A 
ATOM     75  C   UNL A   1      41.833  22.499  28.567  1.00  0.00     0.010 A 
ATOM     76  C   UNL A   1      42.700  22.046  25.946  1.00  0.00     0.020 A 
ATOM     77  C   UNL A   1      41.724  21.222  28.012  1.00  0.00     0.020 A 
ATOM     78  C   UNL A   1      42.155  21.004  26.702  1.00  0.00     0.054 A 
BRANCH  78  79
ATOM     79  S   UNL A   1      42.069  19.348  25.965  1.00  0.00     0.124 S 
ATOM     80  O   UNL A   1      40.636  19.190  25.736  1.00  0.00    -0.237 OA
ATOM     81  O   UNL A   1      42.891  19.495  24.768  1.00  0.00    -0.237 OA
ATOM     82  O   UNL A   1      42.637  18.485  26.999  1.00  0.00    -0.744 OA
ENDBRANCH  78  79
ENDBRANCH  50  73
BRANCH  62  83
ATOM     83  C   UNL A   1      47.620  26.542  31.382  1.00  0.00    -0.014 A 
ATOM     84  C   UNL A   1      47.799  25.850  32.592  1.00  0.00     0.010 A 
ATOM     85  C   UNL A   1      48.723  26.724  30.526  1.00  0.00     0.010 A 
ATOM     86  C   UNL A   1      49.062  25.376  32.953  1.00  0.00     0.020 A 
ATOM     87  C   UNL A   1      49.981  26.222  30.869  1.00  0.00     0.020 A 
ATOM     88  C   UNL A   1      50.145  25.563  32.088  1.00  0.00     0.054 A 
BRANCH  88  89
ATOM     89  S   UNL A   1      51.763  24.896  32.559  1.00  0.00     0.124 S 
ATOM     90  O   UNL A   1      51.927  25.423  33.911  1.00  0.00    -0.237 OA
ATOM     91  O   UNL A   1      51.554  23.454  32.468  1.00  0.00    -0.237 OA
ATOM     92  O   UNL A   1      52.673  25.453  31.561  1.00  0.00    -0.744 OA
ENDBRANCH  88  89
ENDBRANCH  62  83
ENDBRANCH  36  37
ENDBRANCH  28  31
ENDBRANCH  26  27
ENDBRANCH   1  26
TORSDOF 18
ENDMDL
MODEL 2
REMARK VINA RESULT:     -10.4      4.327      9.953
REMARK SMILES CC[NH2+][C@@]1(C(=O)NCCCNC(=O)c2ccc(-c3c4nc(c(-c5ccc(S(=O)(=O)[O-])cc5)c5ccc([nH]5)c(-c5ccc(S(=O)(=O)[O-])cc5)c5nc(c(-c6ccc(S(=O)(=O)[O-])cc6)c6ccc3[nH]6)C=C5)C=C4)cc2)CCC[C@H]1CCN1C(=O)CCC1=O
REMARK SMILES IDX 9 1 8 2 7 3 5 4 6 5 4 7 74 8 77 9 75 10 76 11 3 12 2 15 1 16
REMARK SMILES IDX 78 17 79 18 80 19 81 20 85 21 82 22 83 23 84 24 86 25 10 26
REMARK SMILES IDX 11 27 12 28 13 30 14 31 15 32 73 33 16 34 72 35 17 36 18 37
REMARK SMILES IDX 19 38 66 39 20 40 71 41 65 42 67 43 21 44 70 45 64 46 63 47
REMARK SMILES IDX 22 49 52 50 33 51 51 52 34 53 37 54 50 55 68 56 35 57 36 58
REMARK SMILES IDX 49 60 69 61 38 62 23 63 24 64 32 65 25 66 31 67 26 68 27 69
REMARK SMILES IDX 28 70 29 71 30 72 53 73 54 74 62 75 55 76 61 77 56 78 57 79
REMARK SMILES IDX 58 80 59 81 60 82 39 83 40 84 48 85 41 86 47 87 42 88 43 89
REMARK SMILES IDX 44 90 45 91 46 92
REMARK H PARENT 7 6 3 13 3 14 11 29 67 48 37 59
REMARK Flexibility Score: inf
ROOT
ATOM      1  C   UNL A   1      38.618  22.775  26.422  1.00  0.00     0.042 C 
ENDROOT
BRANCH   1   2
ATOM      2  C   UNL A   1      37.586  23.477  25.562  1.00  0.00     0.118 C 
BRANCH   2   3
ATOM      3  N   UNL A   1      37.320  22.778  24.330  1.00  0.00    -0.351 N 
ATOM      4  C   UNL A   1      36.210  22.883  23.560  1.00  0.00     0.281 C 
ATOM      5  O   UNL A   1      36.444  23.138  22.367  1.00  0.00    -0.268 OA
ATOM      6  H   UNL A   1      38.019  22.160  24.014  1.00  0.00     0.163 HD
BRANCH   4   7
ATOM      7  C   UNL A   1      34.708  22.695  24.064  1.00  0.00     0.178 C 
ATOM      8  C   UNL A   1      34.460  23.738  25.174  1.00  0.00     0.079 C 
ATOM      9  C   UNL A   1      34.260  21.351  24.724  1.00  0.00     0.062 C 
ATOM     10  C   UNL A   1      34.617  23.029  26.512  1.00  0.00     0.008 C 
ATOM     11  C   UNL A   1      34.574  21.532  26.233  1.00  0.00     0.011 C 
BRANCH   7  12
ATOM     12  N   UNL A   1      33.840  23.081  22.901  1.00  0.00    -0.334 N 
ATOM     13  H   UNL A   1      34.447  23.281  22.107  1.00  0.00     0.347 HD
ATOM     14  H   UNL A   1      33.211  22.293  22.744  1.00  0.00     0.347 HD
BRANCH  12  15
ATOM     15  C   UNL A   1      32.980  24.252  23.125  1.00  0.00     0.257 C 
ATOM     16  C   UNL A   1      33.261  25.292  22.047  1.00  0.00     0.071 C 
ENDBRANCH  12  15
ENDBRANCH   7  12
BRANCH   9  17
ATOM     17  C   UNL A   1      32.744  20.972  24.720  1.00  0.00     0.033 C 
BRANCH  17  18
ATOM     18  C   UNL A   1      32.199  19.798  23.909  1.00  0.00     0.129 C 
BRANCH  18  19
ATOM     19  N   UNL A   1      32.769  18.481  24.132  1.00  0.00    -0.283 N 
ATOM     20  C   UNL A   1      32.883  17.840  25.330  1.00  0.00     0.229 C 
ATOM     21  C   UNL A   1      33.046  17.646  23.085  1.00  0.00     0.229 C 
ATOM     22  O   UNL A   1      32.514  18.233  26.423  1.00  0.00    -0.274 OA
ATOM     23  C   UNL A   1      33.560  16.517  25.110  1.00  0.00     0.110 C 
ATOM     24  C   UNL A   1      33.647  16.379  23.605  1.00  0.00     0.110 C 
ATOM     25  O   UNL A   1      32.837  17.858  21.898  1.00  0.00    -0.274 OA
ENDBRANCH  18  19
ENDBRANCH  17  18
ENDBRANCH   9  17
ENDBRANCH   4   7
ENDBRANCH   2   3
ENDBRANCH   1   2
BRANCH   1  26
ATOM     26  C   UNL A   1      39.588  23.753  27.067  1.00  0.00     0.118 C 
BRANCH  26  27
ATOM     27  N   UNL A   1      40.564  24.269  26.107  1.00  0.00    -0.352 N 
ATOM     28  C   UNL A   1      41.173  25.496  26.038  1.00  0.00     0.251 C 
ATOM     29  H   UNL A   1      40.824  23.636  25.401  1.00  0.00     0.163 HD
ATOM     30  O   UNL A   1      41.748  25.834  25.008  1.00  0.00    -0.269 OA
BRANCH  28  31
ATOM     31  C   UNL A   1      41.132  26.397  27.205  1.00  0.00     0.039 A 
ATOM     32  C   UNL A   1      41.826  27.608  27.166  1.00  0.00     0.014 A 
ATOM     33  C   UNL A   1      40.408  26.033  28.341  1.00  0.00     0.014 A 
ATOM     34  C   UNL A   1      41.735  28.482  28.249  1.00  0.00     0.010 A 
ATOM     35  C   UNL A   1      40.222  26.951  29.362  1.00  0.00     0.010 A 
ATOM     36  C   UNL A   1      40.901  28.176  29.338  1.00  0.00    -0.014 A 
BRANCH  36  37
ATOM     37  C   UNL A   1      40.736  29.107  30.479  1.00  0.00     0.031 A 
ATOM     38  C   UNL A   1      41.642  28.992  31.675  1.00  0.00     0.074 A 
ATOM     39  C   UNL A   1      39.725  29.997  30.469  1.00  0.00     0.049 A 
ATOM     40  N   UNL A   1      41.618  29.666  32.796  1.00  0.00    -0.248 NA
ATOM     41  C   UNL A   1      42.687  27.956  31.621  1.00  0.00     0.031 C 
ATOM     42  C   UNL A   1      38.755  30.167  29.385  1.00  0.00     0.029 A 
ATOM     43  N   UNL A   1      39.346  30.927  31.403  1.00  0.00    -0.354 N 
ATOM     44  C   UNL A   1      42.627  29.121  33.583  1.00  0.00     0.074 A 
ATOM     45  C   UNL A   1      43.193  28.017  32.843  1.00  0.00     0.031 C 
ATOM     46  C   UNL A   1      37.923  31.174  29.694  1.00  0.00     0.029 A 
ATOM     47  C   UNL A   1      38.267  31.685  31.017  1.00  0.00     0.049 A 
ATOM     48  H   UNL A   1      39.802  31.039  32.268  1.00  0.00     0.167 HD
ATOM     49  C   UNL A   1      43.060  29.522  34.802  1.00  0.00     0.031 A 
ATOM     50  C   UNL A   1      37.627  32.682  31.657  1.00  0.00     0.031 A 
ATOM     51  C   UNL A   1      42.492  30.626  35.526  1.00  0.00     0.049 A 
ATOM     52  C   UNL A   1      38.113  33.102  33.015  1.00  0.00     0.074 A 
ATOM     53  C   UNL A   1      42.887  31.155  36.740  1.00  0.00     0.029 A 
ATOM     54  N   UNL A   1      41.397  31.367  35.102  1.00  0.00    -0.354 N 
ATOM     55  N   UNL A   1      39.114  32.623  33.717  1.00  0.00    -0.248 NA
ATOM     56  C   UNL A   1      37.391  34.203  33.665  1.00  0.00     0.031 C 
ATOM     57  C   UNL A   1      41.993  32.175  37.082  1.00  0.00     0.029 A 
ATOM     58  C   UNL A   1      41.084  32.329  36.046  1.00  0.00     0.049 A 
ATOM     59  H   UNL A   1      40.915  31.229  34.255  1.00  0.00     0.167 HD
ATOM     60  C   UNL A   1      39.160  33.383  34.879  1.00  0.00     0.074 A 
ATOM     61  C   UNL A   1      38.093  34.361  34.779  1.00  0.00     0.031 C 
ATOM     62  C   UNL A   1      40.010  33.287  35.932  1.00  0.00     0.031 A 
BRANCH  49  63
ATOM     63  C   UNL A   1      44.192  28.740  35.422  1.00  0.00    -0.014 A 
ATOM     64  C   UNL A   1      43.948  27.627  36.249  1.00  0.00     0.010 A 
ATOM     65  C   UNL A   1      45.522  29.132  35.185  1.00  0.00     0.010 A 
ATOM     66  C   UNL A   1      45.004  26.967  36.881  1.00  0.00     0.020 A 
ATOM     67  C   UNL A   1      46.585  28.450  35.786  1.00  0.00     0.020 A 
ATOM     68  C   UNL A   1      46.316  27.388  36.653  1.00  0.00     0.054 A 
BRANCH  68  69
ATOM     69  S   UNL A   1      47.666  26.526  37.502  1.00  0.00     0.124 S 
ATOM     70  O   UNL A   1      47.948  27.432  38.613  1.00  0.00    -0.237 OA
ATOM     71  O   UNL A   1      47.051  25.253  37.872  1.00  0.00    -0.237 OA
ATOM     72  O   UNL A   1      48.714  26.438  36.489  1.00  0.00    -0.744 OA
ENDBRANCH  68  69
ENDBRANCH  49  63
BRANCH  50  73
ATOM     73  C   UNL A   1      36.492  33.376  30.990  1.00  0.00    -0.014 A 
ATOM     74  C   UNL A   1      35.283  33.581  31.678  1.00  0.00     0.010 A 
ATOM     75  C   UNL A   1      36.629  33.884  29.684  1.00  0.00     0.010 A 
ATOM     76  C   UNL A   1      34.233  34.277  31.074  1.00  0.00     0.020 A 
ATOM     77  C   UNL A   1      35.591  34.605  29.088  1.00  0.00     0.020 A 
ATOM     78  C   UNL A   1      34.397  34.793  29.786  1.00  0.00     0.054 A 
BRANCH  78  79
ATOM     79  S   UNL A   1      33.046  35.763  29.059  1.00  0.00     0.124 S 
ATOM     80  O   UNL A   1      33.772  36.822  28.363  1.00  0.00    -0.237 OA
ATOM     81  O   UNL A   1      32.381  34.783  28.206  1.00  0.00    -0.237 OA
ATOM     82  O   UNL A   1      32.272  36.195  30.221  1.00  0.00    -0.744 OA
ENDBRANCH  78  79
ENDBRANCH  50  73
BRANCH  62  83
ATOM     83  C   UNL A   1      39.843  34.282  37.049  1.00  0.00    -0.014 A 
ATOM     84  C   UNL A   1      40.437  35.555  36.992  1.00  0.00     0.010 A 
ATOM     85  C   UNL A   1      39.028  33.955  38.149  1.00  0.00     0.010 A 
ATOM     86  C   UNL A   1      40.244  36.471  38.029  1.00  0.00     0.020 A 
ATOM     87  C   UNL A   1      38.806  34.879  39.172  1.00  0.00     0.020 A 
ATOM     88  C   UNL A   1      39.428  36.127  39.112  1.00  0.00     0.054 A 
BRANCH  88  89
ATOM     89  S   UNL A   1      39.156  37.351  40.421  1.00  0.00     0.124 S 
ATOM     90  O   UNL A   1      38.202  38.261  39.793  1.00  0.00    -0.237 OA
ATOM     91  O   UNL A   1      38.626  36.539  41.513  1.00  0.00    -0.237 OA
ATOM     92  O   UNL A   1      40.486  37.910  40.655  1.00  0.00    -0.744 OA
ENDBRANCH  88  89
ENDBRANCH  62  83
ENDBRANCH  36  37
ENDBRANCH  28  31
ENDBRANCH  26  27
ENDBRANCH   1  26
TORSDOF 18
ENDMDL
MODEL 3
REMARK VINA RESULT:     -10.4      4.282      9.839
REMARK SMILES CC[NH2+][C@@]1(C(=O)NCCCNC(=O)c2ccc(-c3c4nc(c(-c5ccc(S(=O)(=O)[O-])cc5)c5ccc([nH]5)c(-c5ccc(S(=O)(=O)[O-])cc5)c5nc(c(-c6ccc(S(=O)(=O)[O-])cc6)c6ccc3[nH]6)C=C5)C=C4)cc2)CCC[C@H]1CCN1C(=O)CCC1=O
REMARK SMILES IDX 9 1 8 2 7 3 5 4 6 5 4 7 74 8 77 9 75 10 76 11 3 12 2 15 1 16
REMARK SMILES IDX 78 17 79 18 80 19 81 20 85 21 82 22 83 23 84 24 86 25 10 26
REMARK SMILES IDX 11 27 12 28 13 30 14 31 15 32 73 33 16 34 72 35 17 36 18 37
REMARK SMILES IDX 19 38 66 39 20 40 71 41 65 42 67 43 21 44 70 45 64 46 63 47
REMARK SMILES IDX 22 49 52 50 33 51 51 52 34 53 37 54 50 55 68 56 35 57 36 58
REMARK SMILES IDX 49 60 69 61 38 62 23 63 24 64 32 65 25 66 31 67 26 68 27 69
REMARK SMILES IDX 28 70 29 71 30 72 53 73 54 74 62 75 55 76 61 77 56 78 57 79
REMARK SMILES IDX 58 80 59 81 60 82 39 83 40 84 48 85 41 86 47 87 42 88 43 89
REMARK SMILES IDX 44 90 45 91 46 92
REMARK H PARENT 7 6 3 13 3 14 11 29 67 48 37 59
REMARK Flexibility Score: inf
ROOT
ATOM      1  C   UNL A   1      31.514  32.160  26.858  1.00  0.00     0.042 C 
ENDROOT
BRANCH   1   2
ATOM      2  C   UNL A   1      31.807  30.841  26.172  1.00  0.00     0.118 C 
BRANCH   2   3
ATOM      3  N   UNL A   1      32.334  29.849  27.076  1.00  0.00    -0.351 N 
ATOM      4  C   UNL A   1      33.289  28.927  26.803  1.00  0.00     0.281 C 
ATOM      5  O   UNL A   1      34.234  28.924  27.609  1.00  0.00    -0.268 OA
ATOM      6  H   UNL A   1      31.961  29.841  27.987  1.00  0.00     0.163 HD
BRANCH   4   7
ATOM      7  C   UNL A   1      33.265  27.897  25.586  1.00  0.00     0.178 C 
ATOM      8  C   UNL A   1      31.802  27.780  25.109  1.00  0.00     0.079 C 
ATOM      9  C   UNL A   1      33.695  26.410  25.802  1.00  0.00     0.062 C 
ATOM     10  C   UNL A   1      31.220  26.513  25.722  1.00  0.00     0.008 C 
ATOM     11  C   UNL A   1      32.392  25.684  26.233  1.00  0.00     0.011 C 
BRANCH   7  12
ATOM     12  N   UNL A   1      34.032  28.560  24.479  1.00  0.00    -0.334 N 
ATOM     13  H   UNL A   1      34.433  29.423  24.846  1.00  0.00     0.347 HD
ATOM     14  H   UNL A   1      34.732  27.883  24.174  1.00  0.00     0.347 HD
BRANCH  12  15
ATOM     15  C   UNL A   1      33.243  28.895  23.285  1.00  0.00     0.257 C 
ATOM     16  C   UNL A   1      33.883  28.246  22.064  1.00  0.00     0.071 C 
ENDBRANCH  12  15
ENDBRANCH   7  12
BRANCH   9  17
ATOM     17  C   UNL A   1      34.178  25.572  24.575  1.00  0.00     0.033 C 
BRANCH  17  18
ATOM     18  C   UNL A   1      33.962  24.063  24.482  1.00  0.00     0.129 C 
BRANCH  18  19
ATOM     19  N   UNL A   1      35.094  23.187  24.729  1.00  0.00    -0.283 N 
ATOM     20  C   UNL A   1      35.305  22.430  25.844  1.00  0.00     0.229 C 
ATOM     21  C   UNL A   1      35.968  22.865  23.728  1.00  0.00     0.229 C 
ATOM     22  O   UNL A   1      34.584  22.327  26.821  1.00  0.00    -0.274 OA
ATOM     23  C   UNL A   1      36.613  21.705  25.698  1.00  0.00     0.110 C 
ATOM     24  C   UNL A   1      37.042  21.979  24.273  1.00  0.00     0.110 C 
ATOM     25  O   UNL A   1      35.907  23.213  22.556  1.00  0.00    -0.274 OA
ENDBRANCH  18  19
ENDBRANCH  17  18
ENDBRANCH   9  17
ENDBRANCH   4   7
ENDBRANCH   2   3
ENDBRANCH   1   2
BRANCH   1  26
ATOM     26  C   UNL A   1      32.750  32.749  27.521  1.00  0.00     0.118 C 
BRANCH  26  27
ATOM     27  N   UNL A   1      32.621  34.189  27.739  1.00  0.00    -0.352 N 
ATOM     28  C   UNL A   1      33.172  34.990  28.707  1.00  0.00     0.251 C 
ATOM     29  H   UNL A   1      32.048  34.657  27.090  1.00  0.00     0.163 HD
ATOM     30  O   UNL A   1      32.727  36.119  28.890  1.00  0.00    -0.269 OA
BRANCH  28  31
ATOM     31  C   UNL A   1      34.296  34.486  29.517  1.00  0.00     0.039 A 
ATOM     32  C   UNL A   1      34.042  33.877  30.748  1.00  0.00     0.014 A 
ATOM     33  C   UNL A   1      35.606  34.624  29.055  1.00  0.00     0.014 A 
ATOM     34  C   UNL A   1      35.104  33.349  31.482  1.00  0.00     0.010 A 
ATOM     35  C   UNL A   1      36.642  33.996  29.726  1.00  0.00     0.010 A 
ATOM     36  C   UNL A   1      36.407  33.371  30.957  1.00  0.00    -0.014 A 
BRANCH  36  37
ATOM     37  C   UNL A   1      37.550  32.770  31.682  1.00  0.00     0.031 A 
ATOM     38  C   UNL A   1      38.241  31.559  31.116  1.00  0.00     0.074 A 
ATOM     39  C   UNL A   1      37.910  33.264  32.882  1.00  0.00     0.049 A 
ATOM     40  N   UNL A   1      39.215  30.850  31.627  1.00  0.00    -0.248 NA
ATOM     41  C   UNL A   1      37.748  31.055  29.823  1.00  0.00     0.031 C 
ATOM     42  C   UNL A   1      37.281  34.404  33.553  1.00  0.00     0.029 A 
ATOM     43  N   UNL A   1      38.894  32.868  33.752  1.00  0.00    -0.354 N 
ATOM     44  C   UNL A   1      39.432  29.810  30.730  1.00  0.00     0.074 A 
ATOM     45  C   UNL A   1      38.444  29.937  29.684  1.00  0.00     0.031 C 
ATOM     46  C   UNL A   1      37.926  34.646  34.705  1.00  0.00     0.029 A 
ATOM     47  C   UNL A   1      38.978  33.650  34.879  1.00  0.00     0.049 A 
ATOM     48  H   UNL A   1      39.483  32.098  33.584  1.00  0.00     0.167 HD
ATOM     49  C   UNL A   1      40.386  28.849  30.762  1.00  0.00     0.031 A 
ATOM     50  C   UNL A   1      39.810  33.573  35.935  1.00  0.00     0.031 A 
ATOM     51  C   UNL A   1      41.368  28.736  31.806  1.00  0.00     0.049 A 
ATOM     52  C   UNL A   1      40.852  32.490  35.959  1.00  0.00     0.074 A 
ATOM     53  C   UNL A   1      42.414  27.838  31.911  1.00  0.00     0.029 A 
ATOM     54  N   UNL A   1      41.418  29.544  32.933  1.00  0.00    -0.354 N 
ATOM     55  N   UNL A   1      41.090  31.555  35.069  1.00  0.00    -0.248 NA
ATOM     56  C   UNL A   1      41.744  32.457  37.125  1.00  0.00     0.031 C 
ATOM     57  C   UNL A   1      43.059  28.064  33.133  1.00  0.00     0.029 A 
ATOM     58  C   UNL A   1      42.458  29.147  33.755  1.00  0.00     0.049 A 
ATOM     59  H   UNL A   1      40.803  30.291  33.120  1.00  0.00     0.167 HD
ATOM     60  C   UNL A   1      42.179  30.840  35.553  1.00  0.00     0.074 A 
ATOM     61  C   UNL A   1      42.559  31.459  36.808  1.00  0.00     0.031 C 
ATOM     62  C   UNL A   1      42.812  29.771  35.007  1.00  0.00     0.031 A 
BRANCH  49  63
ATOM     63  C   UNL A   1      40.389  27.843  29.638  1.00  0.00    -0.014 A 
ATOM     64  C   UNL A   1      39.456  26.789  29.594  1.00  0.00     0.010 A 
ATOM     65  C   UNL A   1      41.348  27.944  28.613  1.00  0.00     0.010 A 
ATOM     66  C   UNL A   1      39.527  25.819  28.591  1.00  0.00     0.020 A 
ATOM     67  C   UNL A   1      41.399  26.997  27.586  1.00  0.00     0.020 A 
ATOM     68  C   UNL A   1      40.503  25.924  27.598  1.00  0.00     0.054 A 
BRANCH  68  69
ATOM     69  S   UNL A   1      40.585  24.641  26.319  1.00  0.00     0.124 S 
ATOM     70  O   UNL A   1      40.937  25.420  25.135  1.00  0.00    -0.237 OA
ATOM     71  O   UNL A   1      41.632  23.754  26.821  1.00  0.00    -0.237 OA
ATOM     72  O   UNL A   1      39.240  24.072  26.312  1.00  0.00    -0.744 OA
ENDBRANCH  68  69
ENDBRANCH  49  63
BRANCH  50  73
ATOM     73  C   UNL A   1      39.714  34.583  37.023  1.00  0.00    -0.014 A 
ATOM     74  C   UNL A   1      38.937  34.322  38.165  1.00  0.00     0.010 A 
ATOM     75  C   UNL A   1      40.442  35.786  36.952  1.00  0.00     0.010 A 
ATOM     76  C   UNL A   1      38.885  35.245  39.213  1.00  0.00     0.020 A 
ATOM     77  C   UNL A   1      40.415  36.698  38.010  1.00  0.00     0.020 A 
ATOM     78  C   UNL A   1      39.632  36.424  39.133  1.00  0.00     0.054 A 
BRANCH  78  79
ATOM     79  S   UNL A   1      39.610  37.565  40.543  1.00  0.00     0.124 S 
ATOM     80  O   UNL A   1      39.554  36.648  41.677  1.00  0.00    -0.237 OA
ATOM     81  O   UNL A   1      40.866  38.292  40.377  1.00  0.00    -0.237 OA
ATOM     82  O   UNL A   1      38.405  38.361  40.321  1.00  0.00    -0.744 OA
ENDBRANCH  78  79
ENDBRANCH  50  73
BRANCH  62  83
ATOM     83  C   UNL A   1      44.001  29.219  35.748  1.00  0.00    -0.014 A 
ATOM     84  C   UNL A   1      45.291  29.747  35.563  1.00  0.00     0.010 A 
ATOM     85  C   UNL A   1      43.810  28.191  36.690  1.00  0.00     0.010 A 
ATOM     86  C   UNL A   1      46.372  29.235  36.282  1.00  0.00     0.020 A 
ATOM     87  C   UNL A   1      44.884  27.699  37.435  1.00  0.00     0.020 A 
ATOM     88  C   UNL A   1      46.162  28.215  37.217  1.00  0.00     0.054 A 
BRANCH  88  89
ATOM     89  S   UNL A   1      47.575  27.602  38.171  1.00  0.00     0.124 S 
ATOM     90  O   UNL A   1      48.237  26.728  37.207  1.00  0.00    -0.237 OA
ATOM     91  O   UNL A   1      48.293  28.830  38.503  1.00  0.00    -0.237 OA
ATOM     92  O   UNL A   1      46.958  26.921  39.307  1.00  0.00    -0.744 OA
ENDBRANCH  88  89
ENDBRANCH  62  83
ENDBRANCH  36  37
ENDBRANCH  28  31
ENDBRANCH  26  27
ENDBRANCH   1  26
TORSDOF 18
ENDMDL
