MODEL 1
REMARK VINA RESULT:     -11.1      0.000      0.000
REMARK SMILES Cc1oc(C[N@H+]2C[C@@H](C)[C@@H](C)C2)cc1C(=O)NCCCNC(=O)c1ccc(-c2c3nc(c(-c4ccc(S(=O)(=O)[O-])cc4)c4ccc([nH]4)c(-c4ccc(S(=O)(=O)[O-])cc4)c4nc(c(-c5ccc(S(=O)(=O)[O-])cc5)c5ccc2[nH]5)C=C4)C=C3)cc1
REMARK SMILES IDX 19 1 18 2 17 3 15 4 16 5 14 7 1 8 2 9 3 10 4 11 13 12 5 13
REMARK SMILES IDX 6 14 7 15 12 16 8 18 10 19 9 20 11 21 20 22 21 23 22 24
REMARK SMILES IDX 23 26 24 27 25 28 83 29 26 30 82 31 27 32 28 33 29 34 76 35
REMARK SMILES IDX 30 36 81 37 75 38 77 39 31 40 80 41 74 42 73 43 32 45 62 46
REMARK SMILES IDX 43 47 61 48 44 49 47 50 60 51 78 52 45 53 46 54 59 56 79 57
REMARK SMILES IDX 48 58 33 59 34 60 42 61 35 62 41 63 36 64 37 65 38 66 39 67
REMARK SMILES IDX 40 68 63 69 64 70 72 71 65 72 71 73 66 74 67 75 68 76 69 77
REMARK SMILES IDX 70 78 49 79 50 80 58 81 51 82 57 83 52 84 53 85 54 86 55 87
REMARK SMILES IDX 56 88
REMARK H PARENT 17 6 6 17 21 25 77 44 47 55
REMARK Flexibility Score: inf
ROOT
ATOM      1  C   UNL A   1      35.535  23.795  25.743  1.00  0.00     0.042 C 
ENDROOT
BRANCH   1   2
ATOM      2  C   UNL A   1      34.507  24.804  25.231  1.00  0.00     0.118 C 
BRANCH   2   3
ATOM      3  N   UNL A   1      33.271  24.693  25.960  1.00  0.00    -0.352 N 
ATOM      4  C   UNL A   1      32.214  25.533  26.141  1.00  0.00     0.254 C 
ATOM      5  O   UNL A   1      31.287  25.050  26.804  1.00  0.00    -0.269 OA
ATOM      6  H   UNL A   1      33.168  23.830  26.424  1.00  0.00     0.163 HD
BRANCH   4   7
ATOM      7  C   UNL A   1      32.087  26.888  25.604  1.00  0.00     0.081 A 
ATOM      8  C   UNL A   1      31.656  28.847  27.414  1.00  0.00     0.088 C 
ATOM      9  C   UNL A   1      31.884  28.165  26.124  1.00  0.00     0.114 A 
ATOM     10  O   UNL A   1      31.815  29.075  25.112  1.00  0.00    -0.460 OA
ATOM     11  C   UNL A   1      31.828  28.417  23.933  1.00  0.00     0.159 A 
ATOM     12  C   UNL A   1      32.071  27.089  24.171  1.00  0.00     0.066 A 
BRANCH  11  13
ATOM     13  C   UNL A   1      31.491  29.210  22.716  1.00  0.00     0.338 C 
BRANCH  13  14
ATOM     14  N   UNL A   1      30.108  29.047  22.242  1.00  0.00    -0.328 N 
ATOM     15  C   UNL A   1      29.239  28.294  23.147  1.00  0.00     0.266 C 
ATOM     16  C   UNL A   1      29.427  30.297  21.882  1.00  0.00     0.266 C 
ATOM     17  H   UNL A   1      30.252  28.499  21.392  1.00  0.00     0.348 HD
ATOM     18  C   UNL A   1      27.839  28.662  22.667  1.00  0.00     0.049 C 
ATOM     19  C   UNL A   1      27.967  30.156  22.342  1.00  0.00     0.049 C 
ATOM     20  C   UNL A   1      26.760  28.279  23.670  1.00  0.00     0.014 C 
ATOM     21  C   UNL A   1      27.658  31.088  23.515  1.00  0.00     0.014 C 
ENDBRANCH  13  14
ENDBRANCH  11  13
ENDBRANCH   4   7
ENDBRANCH   2   3
ENDBRANCH   1   2
BRANCH   1  22
ATOM     22  C   UNL A   1      36.878  23.886  25.031  1.00  0.00     0.118 C 
BRANCH  22  23
ATOM     23  N   UNL A   1      37.777  22.828  25.474  1.00  0.00    -0.352 N 
ATOM     24  C   UNL A   1      38.967  22.909  26.144  1.00  0.00     0.251 C 
ATOM     25  H   UNL A   1      37.482  21.914  25.258  1.00  0.00     0.163 HD
ATOM     26  O   UNL A   1      39.704  21.919  26.174  1.00  0.00    -0.269 OA
BRANCH  24  27
ATOM     27  C   UNL A   1      39.372  24.157  26.821  1.00  0.00     0.039 A 
ATOM     28  C   UNL A   1      38.908  24.403  28.117  1.00  0.00     0.014 A 
ATOM     29  C   UNL A   1      40.161  25.107  26.167  1.00  0.00     0.014 A 
ATOM     30  C   UNL A   1      39.272  25.582  28.769  1.00  0.00     0.010 A 
ATOM     31  C   UNL A   1      40.590  26.241  26.849  1.00  0.00     0.010 A 
ATOM     32  C   UNL A   1      40.138  26.497  28.151  1.00  0.00    -0.014 A 
BRANCH  32  33
ATOM     33  C   UNL A   1      40.573  27.733  28.845  1.00  0.00     0.031 A 
ATOM     34  C   UNL A   1      41.935  27.802  29.485  1.00  0.00     0.074 A 
ATOM     35  C   UNL A   1      39.719  28.769  28.949  1.00  0.00     0.049 A 
ATOM     36  N   UNL A   1      42.470  28.771  30.179  1.00  0.00    -0.248 NA
ATOM     37  C   UNL A   1      42.797  26.615  29.348  1.00  0.00     0.031 C 
ATOM     38  C   UNL A   1      38.358  28.802  28.406  1.00  0.00     0.029 A 
ATOM     39  N   UNL A   1      39.865  29.993  29.550  1.00  0.00    -0.354 N 
ATOM     40  C   UNL A   1      43.719  28.308  30.577  1.00  0.00     0.074 A 
ATOM     41  C   UNL A   1      43.841  26.951  30.091  1.00  0.00     0.031 C 
ATOM     42  C   UNL A   1      37.807  29.997  28.673  1.00  0.00     0.029 A 
ATOM     43  C   UNL A   1      38.753  30.796  29.443  1.00  0.00     0.049 A 
ATOM     44  H   UNL A   1      40.687  30.271  30.015  1.00  0.00     0.167 HD
ATOM     45  C   UNL A   1      44.685  28.960  31.267  1.00  0.00     0.031 A 
ATOM     46  C   UNL A   1      38.520  32.035  29.917  1.00  0.00     0.031 A 
ATOM     47  C   UNL A   1      44.559  30.313  31.737  1.00  0.00     0.049 A 
ATOM     48  C   UNL A   1      39.606  32.736  30.685  1.00  0.00     0.074 A 
ATOM     49  C   UNL A   1      45.498  31.086  32.398  1.00  0.00     0.029 A 
ATOM     50  N   UNL A   1      43.422  31.097  31.598  1.00  0.00    -0.354 N 
ATOM     51  N   UNL A   1      40.806  32.305  30.995  1.00  0.00    -0.248 NA
ATOM     52  C   UNL A   1      39.312  34.096  31.155  1.00  0.00     0.031 C 
ATOM     53  C   UNL A   1      44.910  32.317  32.706  1.00  0.00     0.029 A 
ATOM     54  C   UNL A   1      43.627  32.335  32.182  1.00  0.00     0.049 A 
ATOM     55  H   UNL A   1      42.592  30.813  31.151  1.00  0.00     0.167 HD
ATOM     56  C   UNL A   1      41.420  33.351  31.673  1.00  0.00     0.074 A 
ATOM     57  C   UNL A   1      40.465  34.440  31.713  1.00  0.00     0.031 C 
ATOM     58  C   UNL A   1      42.663  33.407  32.214  1.00  0.00     0.031 A 
BRANCH  45  59
ATOM     59  C   UNL A   1      45.961  28.211  31.560  1.00  0.00    -0.014 A 
ATOM     60  C   UNL A   1      46.067  27.363  32.679  1.00  0.00     0.010 A 
ATOM     61  C   UNL A   1      47.057  28.326  30.687  1.00  0.00     0.010 A 
ATOM     62  C   UNL A   1      47.257  26.681  32.941  1.00  0.00     0.020 A 
ATOM     63  C   UNL A   1      48.239  27.621  30.928  1.00  0.00     0.020 A 
ATOM     64  C   UNL A   1      48.337  26.817  32.065  1.00  0.00     0.054 A 
BRANCH  64  65
ATOM     65  S   UNL A   1      49.863  25.902  32.420  1.00  0.00     0.124 S 
ATOM     66  O   UNL A   1      49.618  25.422  33.777  1.00  0.00    -0.237 OA
ATOM     67  O   UNL A   1      49.868  24.874  31.382  1.00  0.00    -0.237 OA
ATOM     68  O   UNL A   1      50.911  26.912  32.297  1.00  0.00    -0.744 OA
ENDBRANCH  64  65
ENDBRANCH  45  59
BRANCH  46  69
ATOM     69  C   UNL A   1      37.209  32.692  29.662  1.00  0.00    -0.014 A 
ATOM     70  C   UNL A   1      36.190  32.650  30.628  1.00  0.00     0.010 A 
ATOM     71  C   UNL A   1      36.980  33.380  28.456  1.00  0.00     0.010 A 
ATOM     72  C   UNL A   1      34.958  33.268  30.387  1.00  0.00     0.020 A 
ATOM     73  C   UNL A   1      35.762  34.024  28.223  1.00  0.00     0.020 A 
ATOM     74  C   UNL A   1      34.754  33.954  29.187  1.00  0.00     0.054 A 
BRANCH  74  75
ATOM     75  S   UNL A   1      33.167  34.791  28.917  1.00  0.00     0.124 S 
ATOM     76  O   UNL A   1      32.597  34.800  30.260  1.00  0.00    -0.237 OA
ATOM     77  O   UNL A   1      33.582  36.091  28.396  1.00  0.00    -0.237 OA
ATOM     78  O   UNL A   1      32.486  33.930  27.952  1.00  0.00    -0.744 OA
ENDBRANCH  74  75
ENDBRANCH  46  69
BRANCH  58  79
ATOM     79  C   UNL A   1      43.076  34.700  32.864  1.00  0.00    -0.014 A 
ATOM     80  C   UNL A   1      42.936  34.898  34.249  1.00  0.00     0.010 A 
ATOM     81  C   UNL A   1      43.663  35.711  32.081  1.00  0.00     0.010 A 
ATOM     82  C   UNL A   1      43.344  36.100  34.834  1.00  0.00     0.020 A 
ATOM     83  C   UNL A   1      44.100  36.901  32.667  1.00  0.00     0.020 A 
ATOM     84  C   UNL A   1      43.923  37.094  34.038  1.00  0.00     0.054 A 
BRANCH  84  85
ATOM     85  S   UNL A   1      44.483  38.627  34.828  1.00  0.00     0.124 S 
ATOM     86  O   UNL A   1      44.027  38.444  36.204  1.00  0.00    -0.237 OA
ATOM     87  O   UNL A   1      45.930  38.579  34.633  1.00  0.00    -0.237 OA
ATOM     88  O   UNL A   1      43.793  39.675  34.078  1.00  0.00    -0.744 OA
ENDBRANCH  84  85
ENDBRANCH  58  79
ENDBRANCH  32  33
ENDBRANCH  24  27
ENDBRANCH  22  23
ENDBRANCH   1  22
TORSDOF 15
ENDMDL
MODEL 2
REMARK VINA RESULT:     -11.1      4.137      7.233
REMARK SMILES Cc1oc(C[N@H+]2C[C@@H](C)[C@@H](C)C2)cc1C(=O)NCCCNC(=O)c1ccc(-c2c3nc(c(-c4ccc(S(=O)(=O)[O-])cc4)c4ccc([nH]4)c(-c4ccc(S(=O)(=O)[O-])cc4)c4nc(c(-c5ccc(S(=O)(=O)[O-])cc5)c5ccc2[nH]5)C=C4)C=C3)cc1
REMARK SMILES IDX 19 1 18 2 17 3 15 4 16 5 14 7 1 8 2 9 3 10 4 11 13 12 5 13
REMARK SMILES IDX 6 14 7 15 12 16 8 18 10 19 9 20 11 21 20 22 21 23 22 24
REMARK SMILES IDX 23 26 24 27 25 28 83 29 26 30 82 31 27 32 28 33 29 34 76 35
REMARK SMILES IDX 30 36 81 37 75 38 77 39 31 40 80 41 74 42 73 43 32 45 62 46
REMARK SMILES IDX 43 47 61 48 44 49 47 50 60 51 78 52 45 53 46 54 59 56 79 57
REMARK SMILES IDX 48 58 33 59 34 60 42 61 35 62 41 63 36 64 37 65 38 66 39 67
REMARK SMILES IDX 40 68 63 69 64 70 72 71 65 72 71 73 66 74 67 75 68 76 69 77
REMARK SMILES IDX 70 78 49 79 50 80 58 81 51 82 57 83 52 84 53 85 54 86 55 87
REMARK SMILES IDX 56 88
REMARK H PARENT 17 6 6 17 21 25 77 44 47 55
REMARK Flexibility Score: inf
ROOT
ATOM      1  C   UNL A   1      42.084  22.300  25.729  1.00  0.00     0.042 C 
ENDROOT
BRANCH   1   2
ATOM      2  C   UNL A   1      43.387  21.543  25.983  1.00  0.00     0.118 C 
BRANCH   2   3
ATOM      3  N   UNL A   1      44.044  22.036  27.165  1.00  0.00    -0.352 N 
ATOM      4  C   UNL A   1      44.763  23.162  27.434  1.00  0.00     0.254 C 
ATOM      5  O   UNL A   1      45.130  23.263  28.612  1.00  0.00    -0.269 OA
ATOM      6  H   UNL A   1      43.956  21.435  27.940  1.00  0.00     0.163 HD
BRANCH   4   7
ATOM      7  C   UNL A   1      45.086  24.226  26.483  1.00  0.00     0.081 A 
ATOM      8  C   UNL A   1      46.413  23.463  24.256  1.00  0.00     0.088 C 
ATOM      9  C   UNL A   1      45.718  24.313  25.244  1.00  0.00     0.114 A 
ATOM     10  O   UNL A   1      45.763  25.613  24.834  1.00  0.00    -0.460 OA
ATOM     11  C   UNL A   1      45.304  26.399  25.830  1.00  0.00     0.159 A 
ATOM     12  C   UNL A   1      44.806  25.603  26.829  1.00  0.00     0.066 A 
BRANCH  11  13
ATOM     13  C   UNL A   1      45.523  27.867  25.685  1.00  0.00     0.338 C 
BRANCH  13  14
ATOM     14  N   UNL A   1      45.283  28.647  26.908  1.00  0.00    -0.328 N 
ATOM     15  C   UNL A   1      46.359  29.575  27.260  1.00  0.00     0.266 C 
ATOM     16  C   UNL A   1      44.013  29.385  26.931  1.00  0.00     0.266 C 
ATOM     17  H   UNL A   1      45.242  27.908  27.611  1.00  0.00     0.348 HD
ATOM     18  C   UNL A   1      45.684  30.533  28.236  1.00  0.00     0.049 C 
ATOM     19  C   UNL A   1      44.293  30.732  27.618  1.00  0.00     0.049 C 
ATOM     20  C   UNL A   1      46.504  31.793  28.473  1.00  0.00     0.014 C 
ATOM     21  C   UNL A   1      44.201  31.894  26.629  1.00  0.00     0.014 C 
ENDBRANCH  13  14
ENDBRANCH  11  13
ENDBRANCH   4   7
ENDBRANCH   2   3
ENDBRANCH   1   2
BRANCH   1  22
ATOM     22  C   UNL A   1      40.912  21.781  26.551  1.00  0.00     0.118 C 
BRANCH  22  23
ATOM     23  N   UNL A   1      39.643  22.088  25.905  1.00  0.00    -0.352 N 
ATOM     24  C   UNL A   1      38.796  23.146  26.090  1.00  0.00     0.251 C 
ATOM     25  H   UNL A   1      39.349  21.433  25.232  1.00  0.00     0.163 HD
ATOM     26  O   UNL A   1      37.644  23.074  25.651  1.00  0.00    -0.269 OA
BRANCH  24  27
ATOM     27  C   UNL A   1      39.243  24.359  26.803  1.00  0.00     0.039 A 
ATOM     28  C   UNL A   1      38.858  24.540  28.135  1.00  0.00     0.014 A 
ATOM     29  C   UNL A   1      39.994  25.341  26.152  1.00  0.00     0.014 A 
ATOM     30  C   UNL A   1      39.262  25.685  28.823  1.00  0.00     0.010 A 
ATOM     31  C   UNL A   1      40.465  26.440  26.863  1.00  0.00     0.010 A 
ATOM     32  C   UNL A   1      40.092  26.631  28.200  1.00  0.00    -0.014 A 
BRANCH  32  33
ATOM     33  C   UNL A   1      40.570  27.831  28.928  1.00  0.00     0.031 A 
ATOM     34  C   UNL A   1      41.941  27.842  29.550  1.00  0.00     0.074 A 
ATOM     35  C   UNL A   1      39.746  28.886  29.077  1.00  0.00     0.049 A 
ATOM     36  N   UNL A   1      42.512  28.773  30.268  1.00  0.00    -0.248 NA
ATOM     37  C   UNL A   1      42.768  26.637  29.363  1.00  0.00     0.031 C 
ATOM     38  C   UNL A   1      38.379  28.974  28.555  1.00  0.00     0.029 A 
ATOM     39  N   UNL A   1      39.933  30.085  29.716  1.00  0.00    -0.354 N 
ATOM     40  C   UNL A   1      43.753  28.263  30.633  1.00  0.00     0.074 A 
ATOM     41  C   UNL A   1      43.831  26.920  30.102  1.00  0.00     0.031 C 
ATOM     42  C   UNL A   1      37.864  30.173  28.869  1.00  0.00     0.029 A 
ATOM     43  C   UNL A   1      38.843  30.921  29.650  1.00  0.00     0.049 A 
ATOM     44  H   UNL A   1      40.769  30.325  30.178  1.00  0.00     0.167 HD
ATOM     45  C   UNL A   1      44.745  28.866  31.330  1.00  0.00     0.031 A 
ATOM     46  C   UNL A   1      38.651  32.149  30.167  1.00  0.00     0.031 A 
ATOM     47  C   UNL A   1      44.663  30.206  31.845  1.00  0.00     0.049 A 
ATOM     48  C   UNL A   1      39.765  32.795  30.943  1.00  0.00     0.074 A 
ATOM     49  C   UNL A   1      45.631  30.931  32.518  1.00  0.00     0.029 A 
ATOM     50  N   UNL A   1      43.547  31.024  31.748  1.00  0.00    -0.354 N 
ATOM     51  N   UNL A   1      40.957  32.322  31.221  1.00  0.00    -0.248 NA
ATOM     52  C   UNL A   1      39.515  34.147  31.461  1.00  0.00     0.031 C 
ATOM     53  C   UNL A   1      45.082  32.166  32.874  1.00  0.00     0.029 A 
ATOM     54  C   UNL A   1      43.793  32.237  32.369  1.00  0.00     0.049 A 
ATOM     55  H   UNL A   1      42.703  30.778  31.304  1.00  0.00     0.167 HD
ATOM     56  C   UNL A   1      41.608  33.328  31.925  1.00  0.00     0.074 A 
ATOM     57  C   UNL A   1      40.684  34.441  32.013  1.00  0.00     0.031 C 
ATOM     58  C   UNL A   1      42.859  33.332  32.449  1.00  0.00     0.031 A 
BRANCH  45  59
ATOM     59  C   UNL A   1      46.004  28.074  31.581  1.00  0.00    -0.014 A 
ATOM     60  C   UNL A   1      46.153  27.293  32.742  1.00  0.00     0.010 A 
ATOM     61  C   UNL A   1      47.037  28.079  30.626  1.00  0.00     0.010 A 
ATOM     62  C   UNL A   1      47.328  26.569  32.964  1.00  0.00     0.020 A 
ATOM     63  C   UNL A   1      48.200  27.332  30.829  1.00  0.00     0.020 A 
ATOM     64  C   UNL A   1      48.345  26.596  32.006  1.00  0.00     0.054 A 
BRANCH  64  65
ATOM     65  S   UNL A   1      49.850  25.629  32.311  1.00  0.00     0.124 S 
ATOM     66  O   UNL A   1      50.225  25.222  30.960  1.00  0.00    -0.237 OA
ATOM     67  O   UNL A   1      50.735  26.606  32.941  1.00  0.00    -0.237 OA
ATOM     68  O   UNL A   1      49.398  24.549  33.185  1.00  0.00    -0.744 OA
ENDBRANCH  64  65
ENDBRANCH  45  59
BRANCH  46  69
ATOM     69  C   UNL A   1      37.354  32.850  29.953  1.00  0.00    -0.014 A 
ATOM     70  C   UNL A   1      37.124  33.579  28.774  1.00  0.00     0.010 A 
ATOM     71  C   UNL A   1      36.336  32.774  30.920  1.00  0.00     0.010 A 
ATOM     72  C   UNL A   1      35.906  34.236  28.573  1.00  0.00     0.020 A 
ATOM     73  C   UNL A   1      35.106  33.404  30.711  1.00  0.00     0.020 A 
ATOM     74  C   UNL A   1      34.903  34.141  29.542  1.00  0.00     0.054 A 
BRANCH  74  75
ATOM     75  S   UNL A   1      33.313  34.959  29.238  1.00  0.00     0.124 S 
ATOM     76  O   UNL A   1      32.697  34.071  28.257  1.00  0.00    -0.237 OA
ATOM     77  O   UNL A   1      32.700  34.959  30.565  1.00  0.00    -0.237 OA
ATOM     78  O   UNL A   1      33.696  36.278  28.738  1.00  0.00    -0.744 OA
ENDBRANCH  74  75
ENDBRANCH  46  69
BRANCH  58  79
ATOM     79  C   UNL A   1      43.316  34.592  33.136  1.00  0.00    -0.014 A 
ATOM     80  C   UNL A   1      43.791  35.693  32.402  1.00  0.00     0.010 A 
ATOM     81  C   UNL A   1      43.219  34.690  34.536  1.00  0.00     0.010 A 
ATOM     82  C   UNL A   1      44.192  36.858  33.059  1.00  0.00     0.020 A 
ATOM     83  C   UNL A   1      43.590  35.865  35.194  1.00  0.00     0.020 A 
ATOM     84  C   UNL A   1      44.089  36.936  34.452  1.00  0.00     0.054 A 
BRANCH  84  85
ATOM     85  S   UNL A   1      44.577  38.475  35.278  1.00  0.00     0.124 S 
ATOM     86  O   UNL A   1      46.032  38.356  35.308  1.00  0.00    -0.237 OA
ATOM     87  O   UNL A   1      44.048  39.501  34.382  1.00  0.00    -0.237 OA
ATOM     88  O   UNL A   1      43.919  38.393  36.581  1.00  0.00    -0.744 OA
ENDBRANCH  84  85
ENDBRANCH  58  79
ENDBRANCH  32  33
ENDBRANCH  24  27
ENDBRANCH  22  23
ENDBRANCH   1  22
TORSDOF 15
ENDMDL
MODEL 3
REMARK VINA RESULT:     -11.0      4.244      5.976
REMARK SMILES Cc1oc(C[N@H+]2C[C@@H](C)[C@@H](C)C2)cc1C(=O)NCCCNC(=O)c1ccc(-c2c3nc(c(-c4ccc(S(=O)(=O)[O-])cc4)c4ccc([nH]4)c(-c4ccc(S(=O)(=O)[O-])cc4)c4nc(c(-c5ccc(S(=O)(=O)[O-])cc5)c5ccc2[nH]5)C=C4)C=C3)cc1
REMARK SMILES IDX 19 1 18 2 17 3 15 4 16 5 14 7 1 8 2 9 3 10 4 11 13 12 5 13
REMARK SMILES IDX 6 14 7 15 12 16 8 18 10 19 9 20 11 21 20 22 21 23 22 24
REMARK SMILES IDX 23 26 24 27 25 28 83 29 26 30 82 31 27 32 28 33 29 34 76 35
REMARK SMILES IDX 30 36 81 37 75 38 77 39 31 40 80 41 74 42 73 43 32 45 62 46
REMARK SMILES IDX 43 47 61 48 44 49 47 50 60 51 78 52 45 53 46 54 59 56 79 57
REMARK SMILES IDX 48 58 33 59 34 60 42 61 35 62 41 63 36 64 37 65 38 66 39 67
REMARK SMILES IDX 40 68 63 69 64 70 72 71 65 72 71 73 66 74 67 75 68 76 69 77
REMARK SMILES IDX 70 78 49 79 50 80 58 81 51 82 57 83 52 84 53 85 54 86 55 87
REMARK SMILES IDX 56 88
REMARK H PARENT 17 6 6 17 21 25 77 44 47 55
REMARK Flexibility Score: inf
ROOT
ATOM      1  C   UNL A   1      39.443  22.253  26.317  1.00  0.00     0.042 C 
ENDROOT
BRANCH   1   2
ATOM      2  C   UNL A   1      38.034  22.807  26.108  1.00  0.00     0.118 C 
BRANCH   2   3
ATOM      3  N   UNL A   1      37.779  23.046  24.712  1.00  0.00    -0.352 N 
ATOM      4  C   UNL A   1      36.651  23.010  23.949  1.00  0.00     0.254 C 
ATOM      5  O   UNL A   1      36.824  23.337  22.768  1.00  0.00    -0.269 OA
ATOM      6  H   UNL A   1      38.587  23.284  24.202  1.00  0.00     0.163 HD
BRANCH   4   7
ATOM      7  C   UNL A   1      35.307  22.663  24.412  1.00  0.00     0.081 A 
ATOM      8  C   UNL A   1      33.962  24.611  25.715  1.00  0.00     0.088 C 
ATOM      9  C   UNL A   1      34.274  23.312  25.086  1.00  0.00     0.114 A 
ATOM     10  O   UNL A   1      33.234  22.452  25.283  1.00  0.00    -0.460 OA
ATOM     11  C   UNL A   1      33.607  21.218  24.882  1.00  0.00     0.159 A 
ATOM     12  C   UNL A   1      34.831  21.303  24.271  1.00  0.00     0.066 A 
BRANCH  11  13
ATOM     13  C   UNL A   1      32.712  20.087  25.261  1.00  0.00     0.338 C 
BRANCH  13  14
ATOM     14  N   UNL A   1      33.411  18.833  25.580  1.00  0.00    -0.328 N 
ATOM     15  C   UNL A   1      32.537  17.667  25.714  1.00  0.00     0.266 C 
ATOM     16  C   UNL A   1      34.505  18.486  24.663  1.00  0.00     0.266 C 
ATOM     17  H   UNL A   1      33.810  19.053  26.493  1.00  0.00     0.348 HD
ATOM     18  C   UNL A   1      33.503  16.494  25.581  1.00  0.00     0.049 C 
ATOM     19  C   UNL A   1      34.461  16.960  24.476  1.00  0.00     0.049 C 
ATOM     20  C   UNL A   1      32.785  15.174  25.339  1.00  0.00     0.014 C 
ATOM     21  C   UNL A   1      34.025  16.582  23.060  1.00  0.00     0.014 C 
ENDBRANCH  13  14
ENDBRANCH  11  13
ENDBRANCH   4   7
ENDBRANCH   2   3
ENDBRANCH   1   2
BRANCH   1  22
ATOM     22  C   UNL A   1      40.376  23.224  27.028  1.00  0.00     0.118 C 
BRANCH  22  23
ATOM     23  N   UNL A   1      41.278  23.870  26.083  1.00  0.00    -0.352 N 
ATOM     24  C   UNL A   1      41.675  25.176  26.000  1.00  0.00     0.251 C 
ATOM     25  H   UNL A   1      41.660  23.274  25.399  1.00  0.00     0.163 HD
ATOM     26  O   UNL A   1      42.217  25.571  24.963  1.00  0.00    -0.269 OA
BRANCH  24  27
ATOM     27  C   UNL A   1      41.462  26.107  27.126  1.00  0.00     0.039 A 
ATOM     28  C   UNL A   1      40.332  25.944  27.932  1.00  0.00     0.014 A 
ATOM     29  C   UNL A   1      42.342  27.167  27.359  1.00  0.00     0.014 A 
ATOM     30  C   UNL A   1      40.107  26.820  28.995  1.00  0.00     0.010 A 
ATOM     31  C   UNL A   1      42.161  27.988  28.467  1.00  0.00     0.010 A 
ATOM     32  C   UNL A   1      41.035  27.832  29.287  1.00  0.00    -0.014 A 
BRANCH  32  33
ATOM     33  C   UNL A   1      40.839  28.744  30.440  1.00  0.00     0.031 A 
ATOM     34  C   UNL A   1      41.677  28.586  31.681  1.00  0.00     0.074 A 
ATOM     35  C   UNL A   1      39.865  29.674  30.389  1.00  0.00     0.049 A 
ATOM     36  N   UNL A   1      41.616  29.250  32.806  1.00  0.00    -0.248 NA
ATOM     37  C   UNL A   1      42.701  27.527  31.664  1.00  0.00     0.031 C 
ATOM     38  C   UNL A   1      38.962  29.893  29.257  1.00  0.00     0.029 A 
ATOM     39  N   UNL A   1      39.470  30.607  31.313  1.00  0.00    -0.354 N 
ATOM     40  C   UNL A   1      42.575  28.679  33.635  1.00  0.00     0.074 A 
ATOM     41  C   UNL A   1      43.168  27.581  32.902  1.00  0.00     0.031 C 
ATOM     42  C   UNL A   1      38.138  30.915  29.542  1.00  0.00     0.029 A 
ATOM     43  C   UNL A   1      38.423  31.393  30.890  1.00  0.00     0.049 A 
ATOM     44  H   UNL A   1      39.894  30.705  32.196  1.00  0.00     0.167 HD
ATOM     45  C   UNL A   1      42.943  29.048  34.885  1.00  0.00     0.031 A 
ATOM     46  C   UNL A   1      37.763  32.384  31.520  1.00  0.00     0.031 A 
ATOM     47  C   UNL A   1      42.355  30.148  35.601  1.00  0.00     0.049 A 
ATOM     48  C   UNL A   1      38.186  32.771  32.909  1.00  0.00     0.074 A 
ATOM     49  C   UNL A   1      42.691  30.639  36.850  1.00  0.00     0.029 A 
ATOM     50  N   UNL A   1      41.306  30.926  35.134  1.00  0.00    -0.354 N 
ATOM     51  N   UNL A   1      39.141  32.262  33.652  1.00  0.00    -0.248 NA
ATOM     52  C   UNL A   1      37.453  33.876  33.541  1.00  0.00     0.031 C 
ATOM     53  C   UNL A   1      41.810  31.680  37.160  1.00  0.00     0.029 A 
ATOM     54  C   UNL A   1      40.966  31.879  36.079  1.00  0.00     0.049 A 
ATOM     55  H   UNL A   1      40.867  30.816  34.259  1.00  0.00     0.167 HD
ATOM     56  C   UNL A   1      39.140  33.002  34.828  1.00  0.00     0.074 A 
ATOM     57  C   UNL A   1      38.102  34.005  34.690  1.00  0.00     0.031 C 
ATOM     58  C   UNL A   1      39.928  32.867  35.924  1.00  0.00     0.031 A 
BRANCH  45  59
ATOM     59  C   UNL A   1      44.029  28.248  35.558  1.00  0.00    -0.014 A 
ATOM     60  C   UNL A   1      43.720  27.148  36.381  1.00  0.00     0.010 A 
ATOM     61  C   UNL A   1      45.379  28.574  35.338  1.00  0.00     0.010 A 
ATOM     62  C   UNL A   1      44.737  26.420  37.004  1.00  0.00     0.020 A 
ATOM     63  C   UNL A   1      46.401  27.829  35.933  1.00  0.00     0.020 A 
ATOM     64  C   UNL A   1      46.071  26.767  36.778  1.00  0.00     0.054 A 
BRANCH  64  65
ATOM     65  S   UNL A   1      47.371  25.791  37.583  1.00  0.00     0.124 S 
ATOM     66  O   UNL A   1      48.242  26.833  38.120  1.00  0.00    -0.237 OA
ATOM     67  O   UNL A   1      46.624  25.023  38.576  1.00  0.00    -0.237 OA
ATOM     68  O   UNL A   1      47.941  25.004  36.492  1.00  0.00    -0.744 OA
ENDBRANCH  64  65
ENDBRANCH  45  59
BRANCH  46  69
ATOM     69  C   UNL A   1      36.645  33.084  30.830  1.00  0.00    -0.014 A 
ATOM     70  C   UNL A   1      35.338  33.017  31.341  1.00  0.00     0.010 A 
ATOM     71  C   UNL A   1      36.888  33.839  29.668  1.00  0.00     0.010 A 
ATOM     72  C   UNL A   1      34.289  33.676  30.693  1.00  0.00     0.020 A 
ATOM     73  C   UNL A   1      35.847  34.524  29.033  1.00  0.00     0.020 A 
ATOM     74  C   UNL A   1      34.551  34.428  29.544  1.00  0.00     0.054 A 
BRANCH  74  75
ATOM     75  S   UNL A   1      33.184  35.316  28.749  1.00  0.00     0.124 S 
ATOM     76  O   UNL A   1      33.892  36.314  27.953  1.00  0.00    -0.237 OA
ATOM     77  O   UNL A   1      32.519  34.258  27.992  1.00  0.00    -0.237 OA
ATOM     78  O   UNL A   1      32.416  35.842  29.876  1.00  0.00    -0.744 OA
ENDBRANCH  74  75
ENDBRANCH  46  69
BRANCH  58  79
ATOM     79  C   UNL A   1      39.723  33.848  37.048  1.00  0.00    -0.014 A 
ATOM     80  C   UNL A   1      38.951  33.517  38.175  1.00  0.00     0.010 A 
ATOM     81  C   UNL A   1      40.360  35.102  36.995  1.00  0.00     0.010 A 
ATOM     82  C   UNL A   1      38.790  34.437  39.214  1.00  0.00     0.020 A 
ATOM     83  C   UNL A   1      40.227  36.012  38.046  1.00  0.00     0.020 A 
ATOM     84  C   UNL A   1      39.430  35.679  39.142  1.00  0.00     0.054 A 
BRANCH  84  85
ATOM     85  S   UNL A   1      39.240  36.838  40.523  1.00  0.00     0.124 S 
ATOM     86  O   UNL A   1      40.629  37.108  40.887  1.00  0.00    -0.237 OA
ATOM     87  O   UNL A   1      38.523  37.954  39.910  1.00  0.00    -0.237 OA
ATOM     88  O   UNL A   1      38.474  36.080  41.510  1.00  0.00    -0.744 OA
ENDBRANCH  84  85
ENDBRANCH  58  79
ENDBRANCH  32  33
ENDBRANCH  24  27
ENDBRANCH  22  23
ENDBRANCH   1  22
TORSDOF 15
ENDMDL
