MODEL 1
REMARK VINA RESULT:     -10.1      0.000      0.000
REMARK SMILES Cc1cnc(S[C@H]2CC[C@@]([NH2+]C(C)C)(C(=O)NCCCNC(=O)c3ccc(-c4c5nc(c(-c6ccc(S(=O)(=O)[O-])cc6)c6ccc([nH]6)c(-c6ccc(S(=O)(=O)[O-])cc6)c6nc(c(-c7ccc(S(=O)(=O)[O-])cc7)c7ccc4[nH]7)C=C6)C=C5)cc3)C2)nc1
REMARK SMILES IDX 19 1 18 2 17 3 15 4 16 5 10 7 7 8 8 9 84 10 9 11 6 12 5 13
REMARK SMILES IDX 1 14 2 15 3 16 86 17 4 18 85 19 11 20 12 23 13 24 14 25
REMARK SMILES IDX 20 26 21 27 22 28 23 30 24 31 25 32 83 33 26 34 82 35 27 36
REMARK SMILES IDX 28 37 29 38 76 39 30 40 81 41 75 42 77 43 31 44 80 45 74 46
REMARK SMILES IDX 73 47 32 49 62 50 43 51 61 52 44 53 47 54 60 55 78 56 45 57
REMARK SMILES IDX 46 58 59 60 79 61 48 62 33 63 34 64 42 65 35 66 41 67 36 68
REMARK SMILES IDX 37 69 38 70 39 71 40 72 63 73 64 74 72 75 65 76 71 77 66 78
REMARK SMILES IDX 67 79 68 80 69 81 70 82 49 83 50 84 58 85 51 86 57 87 52 88
REMARK SMILES IDX 53 89 54 90 55 91 56 92
REMARK H PARENT 17 6 11 21 11 22 21 29 77 48 47 59
REMARK Flexibility Score: inf
ROOT
ATOM      1  C   UNL A   1      35.688  23.999  26.057  1.00  0.00     0.042 C 
ENDROOT
BRANCH   1   2
ATOM      2  C   UNL A   1      34.649  25.060  25.708  1.00  0.00     0.118 C 
BRANCH   2   3
ATOM      3  N   UNL A   1      34.318  25.078  24.294  1.00  0.00    -0.351 N 
ATOM      4  C   UNL A   1      33.096  25.031  23.678  1.00  0.00     0.281 C 
ATOM      5  O   UNL A   1      33.067  25.355  22.487  1.00  0.00    -0.268 OA
ATOM      6  H   UNL A   1      35.090  25.133  23.685  1.00  0.00     0.163 HD
BRANCH   4   7
ATOM      7  C   UNL A   1      31.793  24.715  24.493  1.00  0.00     0.176 C 
ATOM      8  C   UNL A   1      30.457  26.795  24.671  1.00  0.00     0.062 C 
ATOM      9  C   UNL A   1      29.626  25.793  23.883  1.00  0.00     0.022 C 
ATOM     10  C   UNL A   1      31.386  25.859  25.462  1.00  0.00     0.094 C 
ATOM     11  C   UNL A   1      30.567  24.638  23.538  1.00  0.00     0.080 C 
BRANCH   8  12
ATOM     12  S   UNL A   1      31.486  27.919  23.663  1.00  0.00    -0.083 SA
BRANCH  12  13
ATOM     13  C   UNL A   1      32.471  28.795  24.832  1.00  0.00     0.187 A 
ATOM     14  C   UNL A   1      34.448  30.811  27.938  1.00  0.00     0.048 C 
ATOM     15  C   UNL A   1      33.759  30.115  26.816  1.00  0.00    -0.014 A 
ATOM     16  C   UNL A   1      34.317  29.046  26.144  1.00  0.00     0.119 A 
ATOM     17  C   UNL A   1      32.504  30.476  26.387  1.00  0.00     0.119 A 
ATOM     18  N   UNL A   1      33.704  28.373  25.147  1.00  0.00    -0.231 NA
ATOM     19  N   UNL A   1      31.848  29.840  25.405  1.00  0.00    -0.231 NA
ENDBRANCH  12  13
ENDBRANCH   8  12
BRANCH   7  20
ATOM     20  N   UNL A   1      31.992  23.426  25.217  1.00  0.00    -0.332 N 
ATOM     21  H   UNL A   1      32.993  23.233  25.237  1.00  0.00     0.347 HD
ATOM     22  H   UNL A   1      31.439  22.740  24.703  1.00  0.00     0.347 HD
BRANCH  20  23
ATOM     23  C   UNL A   1      31.495  23.366  26.603  1.00  0.00     0.176 C 
ATOM     24  C   UNL A   1      30.133  22.688  26.741  1.00  0.00     0.075 C 
ATOM     25  C   UNL A   1      32.531  22.603  27.433  1.00  0.00     0.075 C 
ENDBRANCH  20  23
ENDBRANCH   7  20
ENDBRANCH   4   7
ENDBRANCH   2   3
ENDBRANCH   1   2
BRANCH   1  26
ATOM     26  C   UNL A   1      36.755  23.793  24.991  1.00  0.00     0.118 C 
BRANCH  26  27
ATOM     27  N   UNL A   1      37.726  22.770  25.358  1.00  0.00    -0.352 N 
ATOM     28  C   UNL A   1      38.910  22.884  26.043  1.00  0.00     0.251 C 
ATOM     29  H   UNL A   1      37.496  21.857  25.072  1.00  0.00     0.163 HD
ATOM     30  O   UNL A   1      39.676  21.923  26.093  1.00  0.00    -0.269 OA
BRANCH  28  31
ATOM     31  C   UNL A   1      39.281  24.160  26.695  1.00  0.00     0.039 A 
ATOM     32  C   UNL A   1      38.882  24.385  28.015  1.00  0.00     0.014 A 
ATOM     33  C   UNL A   1      40.011  25.136  26.011  1.00  0.00     0.014 A 
ATOM     34  C   UNL A   1      39.275  25.556  28.669  1.00  0.00     0.010 A 
ATOM     35  C   UNL A   1      40.474  26.260  26.690  1.00  0.00     0.010 A 
ATOM     36  C   UNL A   1      40.109  26.485  28.025  1.00  0.00    -0.014 A 
BRANCH  36  37
ATOM     37  C   UNL A   1      40.613  27.691  28.733  1.00  0.00     0.031 A 
ATOM     38  C   UNL A   1      42.008  27.711  29.301  1.00  0.00     0.074 A 
ATOM     39  C   UNL A   1      39.795  28.747  28.918  1.00  0.00     0.049 A 
ATOM     40  N   UNL A   1      42.600  28.648  29.998  1.00  0.00    -0.248 NA
ATOM     41  C   UNL A   1      42.836  26.515  29.081  1.00  0.00     0.031 C 
ATOM     42  C   UNL A   1      38.409  28.838  28.449  1.00  0.00     0.029 A 
ATOM     43  N   UNL A   1      40.006  29.945  29.555  1.00  0.00    -0.354 N 
ATOM     44  C   UNL A   1      43.859  28.149  30.309  1.00  0.00     0.074 A 
ATOM     45  C   UNL A   1      43.927  26.808  29.773  1.00  0.00     0.031 C 
ATOM     46  C   UNL A   1      37.907  30.036  28.788  1.00  0.00     0.029 A 
ATOM     47  C   UNL A   1      38.913  30.780  29.539  1.00  0.00     0.049 A 
ATOM     48  H   UNL A   1      40.859  30.184  29.982  1.00  0.00     0.167 HD
ATOM     49  C   UNL A   1      44.876  28.759  30.966  1.00  0.00     0.031 A 
ATOM     50  C   UNL A   1      38.734  32.003  30.076  1.00  0.00     0.031 A 
ATOM     51  C   UNL A   1      44.807  30.096  31.494  1.00  0.00     0.049 A 
ATOM     52  C   UNL A   1      39.869  32.649  30.822  1.00  0.00     0.074 A 
ATOM     53  C   UNL A   1      45.801  30.821  32.128  1.00  0.00     0.029 A 
ATOM     54  N   UNL A   1      43.683  30.908  31.455  1.00  0.00    -0.354 N 
ATOM     55  N   UNL A   1      41.076  32.187  31.048  1.00  0.00    -0.248 NA
ATOM     56  C   UNL A   1      39.623  33.988  31.374  1.00  0.00     0.031 C 
ATOM     57  C   UNL A   1      45.259  32.047  32.529  1.00  0.00     0.029 A 
ATOM     58  C   UNL A   1      43.950  32.114  32.081  1.00  0.00     0.049 A 
ATOM     59  H   UNL A   1      42.823  30.662  31.045  1.00  0.00     0.167 HD
ATOM     60  C   UNL A   1      41.741  33.191  31.743  1.00  0.00     0.074 A 
ATOM     61  C   UNL A   1      40.809  34.289  31.885  1.00  0.00     0.031 C 
ATOM     62  C   UNL A   1      43.012  33.201  32.218  1.00  0.00     0.031 A 
BRANCH  49  63
ATOM     63  C   UNL A   1      46.151  27.978  31.159  1.00  0.00    -0.014 A 
ATOM     64  C   UNL A   1      46.355  27.185  32.304  1.00  0.00     0.010 A 
ATOM     65  C   UNL A   1      47.141  27.999  30.160  1.00  0.00     0.010 A 
ATOM     66  C   UNL A   1      47.542  26.465  32.466  1.00  0.00     0.020 A 
ATOM     67  C   UNL A   1      48.316  27.253  30.303  1.00  0.00     0.020 A 
ATOM     68  C   UNL A   1      48.515  26.504  31.464  1.00  0.00     0.054 A 
BRANCH  68  69
ATOM     69  S   UNL A   1      50.032  25.538  31.690  1.00  0.00     0.124 S 
ATOM     70  O   UNL A   1      50.984  26.564  32.109  1.00  0.00    -0.237 OA
ATOM     71  O   UNL A   1      49.650  24.577  32.722  1.00  0.00    -0.237 OA
ATOM     72  O   UNL A   1      50.280  24.964  30.370  1.00  0.00    -0.744 OA
ENDBRANCH  68  69
ENDBRANCH  49  63
BRANCH  50  73
ATOM     73  C   UNL A   1      37.426  32.700  29.921  1.00  0.00    -0.014 A 
ATOM     74  C   UNL A   1      36.431  32.583  30.907  1.00  0.00     0.010 A 
ATOM     75  C   UNL A   1      37.171  33.493  28.786  1.00  0.00     0.010 A 
ATOM     76  C   UNL A   1      35.200  33.229  30.754  1.00  0.00     0.020 A 
ATOM     77  C   UNL A   1      35.955  34.166  28.645  1.00  0.00     0.020 A 
ATOM     78  C   UNL A   1      34.971  34.019  29.624  1.00  0.00     0.054 A 
BRANCH  78  79
ATOM     79  S   UNL A   1      33.385  34.887  29.470  1.00  0.00     0.124 S 
ATOM     80  O   UNL A   1      33.791  36.158  28.880  1.00  0.00    -0.237 OA
ATOM     81  O   UNL A   1      32.623  33.998  28.596  1.00  0.00    -0.237 OA
ATOM     82  O   UNL A   1      32.900  34.961  30.846  1.00  0.00    -0.744 OA
ENDBRANCH  78  79
ENDBRANCH  50  73
BRANCH  62  83
ATOM     83  C   UNL A   1      43.487  34.455  32.905  1.00  0.00    -0.014 A 
ATOM     84  C   UNL A   1      43.440  34.588  34.304  1.00  0.00     0.010 A 
ATOM     85  C   UNL A   1      44.045  35.495  32.138  1.00  0.00     0.010 A 
ATOM     86  C   UNL A   1      43.912  35.751  34.920  1.00  0.00     0.020 A 
ATOM     87  C   UNL A   1      44.548  36.645  32.751  1.00  0.00     0.020 A 
ATOM     88  C   UNL A   1      44.465  36.771  34.138  1.00  0.00     0.054 A 
BRANCH  88  89
ATOM     89  S   UNL A   1      45.112  38.249  34.966  1.00  0.00     0.124 S 
ATOM     90  O   UNL A   1      43.899  39.030  35.187  1.00  0.00    -0.237 OA
ATOM     91  O   UNL A   1      45.731  37.696  36.169  1.00  0.00    -0.237 OA
ATOM     92  O   UNL A   1      46.046  38.811  33.993  1.00  0.00    -0.744 OA
ENDBRANCH  88  89
ENDBRANCH  62  83
ENDBRANCH  36  37
ENDBRANCH  28  31
ENDBRANCH  26  27
ENDBRANCH   1  26
TORSDOF 17
ENDMDL
MODEL 2
REMARK VINA RESULT:      -9.9      2.577      9.182
REMARK SMILES Cc1cnc(S[C@H]2CC[C@@]([NH2+]C(C)C)(C(=O)NCCCNC(=O)c3ccc(-c4c5nc(c(-c6ccc(S(=O)(=O)[O-])cc6)c6ccc([nH]6)c(-c6ccc(S(=O)(=O)[O-])cc6)c6nc(c(-c7ccc(S(=O)(=O)[O-])cc7)c7ccc4[nH]7)C=C6)C=C5)cc3)C2)nc1
REMARK SMILES IDX 19 1 18 2 17 3 15 4 16 5 10 7 7 8 8 9 84 10 9 11 6 12 5 13
REMARK SMILES IDX 1 14 2 15 3 16 86 17 4 18 85 19 11 20 12 23 13 24 14 25
REMARK SMILES IDX 20 26 21 27 22 28 23 30 24 31 25 32 83 33 26 34 82 35 27 36
REMARK SMILES IDX 28 37 29 38 76 39 30 40 81 41 75 42 77 43 31 44 80 45 74 46
REMARK SMILES IDX 73 47 32 49 62 50 43 51 61 52 44 53 47 54 60 55 78 56 45 57
REMARK SMILES IDX 46 58 59 60 79 61 48 62 33 63 34 64 42 65 35 66 41 67 36 68
REMARK SMILES IDX 37 69 38 70 39 71 40 72 63 73 64 74 72 75 65 76 71 77 66 78
REMARK SMILES IDX 67 79 68 80 69 81 70 82 49 83 50 84 58 85 51 86 57 87 52 88
REMARK SMILES IDX 53 89 54 90 55 91 56 92
REMARK H PARENT 17 6 11 21 11 22 21 29 77 48 47 59
REMARK Flexibility Score: inf
ROOT
ATOM      1  C   UNL A   1      32.227  27.795  27.022  1.00  0.00     0.042 C 
ENDROOT
BRANCH   1   2
ATOM      2  C   UNL A   1      32.212  26.467  26.274  1.00  0.00     0.118 C 
BRANCH   2   3
ATOM      3  N   UNL A   1      30.993  26.267  25.509  1.00  0.00    -0.351 N 
ATOM      4  C   UNL A   1      30.781  26.351  24.159  1.00  0.00     0.281 C 
ATOM      5  O   UNL A   1      29.734  25.853  23.734  1.00  0.00    -0.268 OA
ATOM      6  H   UNL A   1      30.198  26.036  26.043  1.00  0.00     0.163 HD
BRANCH   4   7
ATOM      7  C   UNL A   1      31.883  26.928  23.203  1.00  0.00     0.176 C 
ATOM      8  C   UNL A   1      33.485  25.114  22.671  1.00  0.00     0.062 C 
ATOM      9  C   UNL A   1      32.823  25.526  21.365  1.00  0.00     0.022 C 
ATOM     10  C   UNL A   1      33.306  26.387  23.514  1.00  0.00     0.094 C 
ATOM     11  C   UNL A   1      31.649  26.428  21.748  1.00  0.00     0.080 C 
BRANCH   8  12
ATOM     12  S   UNL A   1      32.688  23.721  23.544  1.00  0.00    -0.083 SA
BRANCH  12  13
ATOM     13  C   UNL A   1      34.004  22.607  23.908  1.00  0.00     0.187 A 
ATOM     14  C   UNL A   1      37.354  20.332  25.010  1.00  0.00     0.048 C 
ATOM     15  C   UNL A   1      36.164  21.124  24.593  1.00  0.00    -0.014 A 
ATOM     16  C   UNL A   1      34.872  20.752  24.906  1.00  0.00     0.119 A 
ATOM     17  C   UNL A   1      36.273  22.297  23.885  1.00  0.00     0.119 A 
ATOM     18  N   UNL A   1      33.775  21.465  24.572  1.00  0.00    -0.231 NA
ATOM     19  N   UNL A   1      35.218  23.046  23.532  1.00  0.00    -0.231 NA
ENDBRANCH  12  13
ENDBRANCH   8  12
BRANCH   7  20
ATOM     20  N   UNL A   1      31.833  28.417  23.273  1.00  0.00    -0.332 N 
ATOM     21  H   UNL A   1      32.068  28.779  22.349  1.00  0.00     0.347 HD
ATOM     22  H   UNL A   1      32.490  28.675  24.009  1.00  0.00     0.347 HD
BRANCH  20  23
ATOM     23  C   UNL A   1      30.545  29.013  23.674  1.00  0.00     0.176 C 
ATOM     24  C   UNL A   1      30.680  30.136  24.701  1.00  0.00     0.075 C 
ATOM     25  C   UNL A   1      29.874  29.556  22.409  1.00  0.00     0.075 C 
ENDBRANCH  20  23
ENDBRANCH   7  20
ENDBRANCH   4   7
ENDBRANCH   2   3
ENDBRANCH   1   2
BRANCH   1  26
ATOM     26  C   UNL A   1      33.605  28.433  27.140  1.00  0.00     0.118 C 
BRANCH  26  27
ATOM     27  N   UNL A   1      33.543  29.845  27.491  1.00  0.00    -0.352 N 
ATOM     28  C   UNL A   1      34.467  30.637  28.125  1.00  0.00     0.251 C 
ATOM     29  H   UNL A   1      32.710  30.302  27.233  1.00  0.00     0.163 HD
ATOM     30  O   UNL A   1      34.147  31.768  28.491  1.00  0.00    -0.269 OA
BRANCH  28  31
ATOM     31  C   UNL A   1      35.832  30.131  28.395  1.00  0.00     0.039 A 
ATOM     32  C   UNL A   1      36.783  30.177  27.373  1.00  0.00     0.014 A 
ATOM     33  C   UNL A   1      36.174  29.606  29.644  1.00  0.00     0.014 A 
ATOM     34  C   UNL A   1      38.093  29.761  27.626  1.00  0.00     0.010 A 
ATOM     35  C   UNL A   1      37.498  29.275  29.919  1.00  0.00     0.010 A 
ATOM     36  C   UNL A   1      38.472  29.345  28.913  1.00  0.00    -0.014 A 
BRANCH  36  37
ATOM     37  C   UNL A   1      39.881  28.987  29.226  1.00  0.00     0.031 A 
ATOM     38  C   UNL A   1      40.798  29.997  29.865  1.00  0.00     0.074 A 
ATOM     39  C   UNL A   1      40.352  27.772  28.879  1.00  0.00     0.049 A 
ATOM     40  N   UNL A   1      42.069  29.886  30.158  1.00  0.00    -0.248 NA
ATOM     41  C   UNL A   1      40.220  31.310  30.193  1.00  0.00     0.031 C 
ATOM     42  C   UNL A   1      39.577  26.717  28.221  1.00  0.00     0.029 A 
ATOM     43  N   UNL A   1      41.601  27.220  29.026  1.00  0.00    -0.354 N 
ATOM     44  C   UNL A   1      42.443  31.114  30.689  1.00  0.00     0.074 A 
ATOM     45  C   UNL A   1      41.281  31.972  30.629  1.00  0.00     0.031 C 
ATOM     46  C   UNL A   1      40.358  25.639  28.050  1.00  0.00     0.029 A 
ATOM     47  C   UNL A   1      41.700  25.937  28.538  1.00  0.00     0.049 A 
ATOM     48  H   UNL A   1      42.355  27.696  29.442  1.00  0.00     0.167 HD
ATOM     49  C   UNL A   1      43.641  31.489  31.200  1.00  0.00     0.031 A 
ATOM     50  C   UNL A   1      42.752  25.097  28.480  1.00  0.00     0.031 A 
ATOM     51  C   UNL A   1      44.794  30.631  31.263  1.00  0.00     0.049 A 
ATOM     52  C   UNL A   1      44.078  25.546  29.030  1.00  0.00     0.074 A 
ATOM     53  C   UNL A   1      46.037  30.900  31.809  1.00  0.00     0.029 A 
ATOM     54  N   UNL A   1      44.851  29.339  30.759  1.00  0.00    -0.354 N 
ATOM     55  N   UNL A   1      44.394  26.689  29.591  1.00  0.00    -0.248 NA
ATOM     56  C   UNL A   1      45.187  24.585  28.953  1.00  0.00     0.031 C 
ATOM     57  C   UNL A   1      46.864  29.796  31.580  1.00  0.00     0.029 A 
ATOM     58  C   UNL A   1      46.116  28.811  30.955  1.00  0.00     0.049 A 
ATOM     59  H   UNL A   1      44.103  28.869  30.326  1.00  0.00     0.167 HD
ATOM     60  C   UNL A   1      45.730  26.573  29.959  1.00  0.00     0.074 A 
ATOM     61  C   UNL A   1      46.156  25.244  29.572  1.00  0.00     0.031 C 
ATOM     62  C   UNL A   1      46.530  27.486  30.565  1.00  0.00     0.031 A 
BRANCH  49  63
ATOM     63  C   UNL A   1      43.767  32.897  31.724  1.00  0.00    -0.014 A 
ATOM     64  C   UNL A   1      43.480  33.205  33.067  1.00  0.00     0.010 A 
ATOM     65  C   UNL A   1      44.224  33.921  30.873  1.00  0.00     0.010 A 
ATOM     66  C   UNL A   1      43.605  34.515  33.537  1.00  0.00     0.020 A 
ATOM     67  C   UNL A   1      44.382  35.226  31.348  1.00  0.00     0.020 A 
ATOM     68  C   UNL A   1      44.055  35.518  32.674  1.00  0.00     0.054 A 
BRANCH  68  69
ATOM     69  S   UNL A   1      44.232  37.203  33.319  1.00  0.00     0.124 S 
ATOM     70  O   UNL A   1      45.524  37.132  33.997  1.00  0.00    -0.237 OA
ATOM     71  O   UNL A   1      44.204  38.015  32.106  1.00  0.00    -0.237 OA
ATOM     72  O   UNL A   1      43.077  37.362  34.199  1.00  0.00    -0.744 OA
ENDBRANCH  68  69
ENDBRANCH  49  63
BRANCH  50  73
ATOM     73  C   UNL A   1      42.591  23.743  27.880  1.00  0.00    -0.014 A 
ATOM     74  C   UNL A   1      42.234  22.644  28.681  1.00  0.00     0.010 A 
ATOM     75  C   UNL A   1      42.785  23.547  26.500  1.00  0.00     0.010 A 
ATOM     76  C   UNL A   1      42.093  21.371  28.117  1.00  0.00     0.020 A 
ATOM     77  C   UNL A   1      42.615  22.284  25.928  1.00  0.00     0.020 A 
ATOM     78  C   UNL A   1      42.282  21.200  26.743  1.00  0.00     0.054 A 
BRANCH  78  79
ATOM     79  S   UNL A   1      42.048  19.550  26.026  1.00  0.00     0.124 S 
ATOM     80  O   UNL A   1      42.950  19.586  24.880  1.00  0.00    -0.237 OA
ATOM     81  O   UNL A   1      42.450  18.671  27.121  1.00  0.00    -0.237 OA
ATOM     82  O   UNL A   1      40.624  19.517  25.702  1.00  0.00    -0.744 OA
ENDBRANCH  78  79
ENDBRANCH  50  73
BRANCH  62  83
ATOM     83  C   UNL A   1      47.942  27.069  30.886  1.00  0.00    -0.014 A 
ATOM     84  C   UNL A   1      48.241  26.308  32.030  1.00  0.00     0.010 A 
ATOM     85  C   UNL A   1      48.979  27.396  29.991  1.00  0.00     0.010 A 
ATOM     86  C   UNL A   1      49.556  25.911  32.290  1.00  0.00     0.020 A 
ATOM     87  C   UNL A   1      50.288  26.973  30.230  1.00  0.00     0.020 A 
ATOM     88  C   UNL A   1      50.570  26.244  31.387  1.00  0.00     0.054 A 
BRANCH  88  89
ATOM     89  S   UNL A   1      52.259  25.676  31.724  1.00  0.00     0.124 S 
ATOM     90  O   UNL A   1      52.034  24.308  32.182  1.00  0.00    -0.237 OA
ATOM     91  O   UNL A   1      52.906  25.804  30.421  1.00  0.00    -0.237 OA
ATOM     92  O   UNL A   1      52.740  26.603  32.746  1.00  0.00    -0.744 OA
ENDBRANCH  88  89
ENDBRANCH  62  83
ENDBRANCH  36  37
ENDBRANCH  28  31
ENDBRANCH  26  27
ENDBRANCH   1  26
TORSDOF 17
ENDMDL
MODEL 3
REMARK VINA RESULT:      -9.8      1.418      1.908
REMARK SMILES Cc1cnc(S[C@H]2CC[C@@]([NH2+]C(C)C)(C(=O)NCCCNC(=O)c3ccc(-c4c5nc(c(-c6ccc(S(=O)(=O)[O-])cc6)c6ccc([nH]6)c(-c6ccc(S(=O)(=O)[O-])cc6)c6nc(c(-c7ccc(S(=O)(=O)[O-])cc7)c7ccc4[nH]7)C=C6)C=C5)cc3)C2)nc1
REMARK SMILES IDX 19 1 18 2 17 3 15 4 16 5 10 7 7 8 8 9 84 10 9 11 6 12 5 13
REMARK SMILES IDX 1 14 2 15 3 16 86 17 4 18 85 19 11 20 12 23 13 24 14 25
REMARK SMILES IDX 20 26 21 27 22 28 23 30 24 31 25 32 83 33 26 34 82 35 27 36
REMARK SMILES IDX 28 37 29 38 76 39 30 40 81 41 75 42 77 43 31 44 80 45 74 46
REMARK SMILES IDX 73 47 32 49 62 50 43 51 61 52 44 53 47 54 60 55 78 56 45 57
REMARK SMILES IDX 46 58 59 60 79 61 48 62 33 63 34 64 42 65 35 66 41 67 36 68
REMARK SMILES IDX 37 69 38 70 39 71 40 72 63 73 64 74 72 75 65 76 71 77 66 78
REMARK SMILES IDX 67 79 68 80 69 81 70 82 49 83 50 84 58 85 51 86 57 87 52 88
REMARK SMILES IDX 53 89 54 90 55 91 56 92
REMARK H PARENT 17 6 11 21 11 22 21 29 77 48 47 59
REMARK Flexibility Score: inf
ROOT
ATOM      1  C   UNL A   1      35.813  23.802  25.904  1.00  0.00     0.042 C 
ENDROOT
BRANCH   1   2
ATOM      2  C   UNL A   1      34.774  24.829  25.468  1.00  0.00     0.118 C 
BRANCH   2   3
ATOM      3  N   UNL A   1      34.534  24.811  24.035  1.00  0.00    -0.351 N 
ATOM      4  C   UNL A   1      33.364  24.646  23.345  1.00  0.00     0.281 C 
ATOM      5  O   UNL A   1      33.380  24.962  22.151  1.00  0.00    -0.268 OA
ATOM      6  H   UNL A   1      35.334  24.937  23.476  1.00  0.00     0.163 HD
BRANCH   4   7
ATOM      7  C   UNL A   1      32.047  24.210  24.079  1.00  0.00     0.176 C 
ATOM      8  C   UNL A   1      30.763  26.248  24.659  1.00  0.00     0.062 C 
ATOM      9  C   UNL A   1      29.913  25.443  23.688  1.00  0.00     0.022 C 
ATOM     10  C   UNL A   1      31.662  25.151  25.253  1.00  0.00     0.094 C 
ATOM     11  C   UNL A   1      30.826  24.353  23.124  1.00  0.00     0.080 C 
BRANCH   8  12
ATOM     12  S   UNL A   1      31.826  27.521  23.895  1.00  0.00    -0.083 SA
BRANCH  12  13
ATOM     13  C   UNL A   1      30.708  28.760  23.328  1.00  0.00     0.187 A 
ATOM     14  C   UNL A   1      28.385  32.039  22.119  1.00  0.00     0.048 C 
ATOM     15  C   UNL A   1      29.184  30.861  22.555  1.00  0.00    -0.014 A 
ATOM     16  C   UNL A   1      29.522  29.829  21.703  1.00  0.00     0.119 A 
ATOM     17  C   UNL A   1      29.662  30.732  23.838  1.00  0.00     0.119 A 
ATOM     18  N   UNL A   1      30.273  28.765  22.060  1.00  0.00    -0.231 NA
ATOM     19  N   UNL A   1      30.415  29.699  24.244  1.00  0.00    -0.231 NA
ENDBRANCH  12  13
ENDBRANCH   8  12
BRANCH   7  20
ATOM     20  N   UNL A   1      32.209  22.799  24.534  1.00  0.00    -0.332 N 
ATOM     21  H   UNL A   1      31.282  22.376  24.571  1.00  0.00     0.347 HD
ATOM     22  H   UNL A   1      32.683  22.859  25.435  1.00  0.00     0.347 HD
BRANCH  20  23
ATOM     23  C   UNL A   1      33.064  21.933  23.701  1.00  0.00     0.176 C 
ATOM     24  C   UNL A   1      33.950  20.985  24.507  1.00  0.00     0.075 C 
ATOM     25  C   UNL A   1      32.145  21.119  22.786  1.00  0.00     0.075 C 
ENDBRANCH  20  23
ENDBRANCH   7  20
ENDBRANCH   4   7
ENDBRANCH   2   3
ENDBRANCH   1   2
BRANCH   1  26
ATOM     26  C   UNL A   1      37.059  23.760  25.029  1.00  0.00     0.118 C 
BRANCH  26  27
ATOM     27  N   UNL A   1      38.034  22.779  25.486  1.00  0.00    -0.352 N 
ATOM     28  C   UNL A   1      39.176  22.951  26.227  1.00  0.00     0.251 C 
ATOM     29  H   UNL A   1      37.843  21.849  25.225  1.00  0.00     0.163 HD
ATOM     30  O   UNL A   1      39.963  22.013  26.355  1.00  0.00    -0.269 OA
BRANCH  28  31
ATOM     31  C   UNL A   1      39.480  24.260  26.848  1.00  0.00     0.039 A 
ATOM     32  C   UNL A   1      39.056  24.502  28.157  1.00  0.00     0.014 A 
ATOM     33  C   UNL A   1      40.170  25.251  26.145  1.00  0.00     0.014 A 
ATOM     34  C   UNL A   1      39.385  25.707  28.782  1.00  0.00     0.010 A 
ATOM     35  C   UNL A   1      40.572  26.413  26.797  1.00  0.00     0.010 A 
ATOM     36  C   UNL A   1      40.182  26.656  28.122  1.00  0.00    -0.014 A 
BRANCH  36  37
ATOM     37  C   UNL A   1      40.621  27.904  28.801  1.00  0.00     0.031 A 
ATOM     38  C   UNL A   1      41.993  27.993  29.415  1.00  0.00     0.074 A 
ATOM     39  C   UNL A   1      39.761  28.937  28.918  1.00  0.00     0.049 A 
ATOM     40  N   UNL A   1      42.529  28.974  30.096  1.00  0.00    -0.248 NA
ATOM     41  C   UNL A   1      42.867  26.818  29.268  1.00  0.00     0.031 C 
ATOM     42  C   UNL A   1      38.391  28.964  28.400  1.00  0.00     0.029 A 
ATOM     43  N   UNL A   1      39.911  30.164  29.517  1.00  0.00    -0.354 N 
ATOM     44  C   UNL A   1      43.792  28.530  30.469  1.00  0.00     0.074 A 
ATOM     45  C   UNL A   1      43.922  27.174  29.986  1.00  0.00     0.031 C 
ATOM     46  C   UNL A   1      37.839  30.155  28.677  1.00  0.00     0.029 A 
ATOM     47  C   UNL A   1      38.792  30.960  29.433  1.00  0.00     0.049 A 
ATOM     48  H   UNL A   1      40.740  30.447  29.964  1.00  0.00     0.167 HD
ATOM     49  C   UNL A   1      44.764  29.198  31.137  1.00  0.00     0.031 A 
ATOM     50  C   UNL A   1      38.553  32.195  29.918  1.00  0.00     0.031 A 
ATOM     51  C   UNL A   1      44.632  30.549  31.612  1.00  0.00     0.049 A 
ATOM     52  C   UNL A   1      39.640  32.906  30.677  1.00  0.00     0.074 A 
ATOM     53  C   UNL A   1      45.578  31.330  32.253  1.00  0.00     0.029 A 
ATOM     54  N   UNL A   1      43.484  31.320  31.505  1.00  0.00    -0.354 N 
ATOM     55  N   UNL A   1      40.852  32.493  30.961  1.00  0.00    -0.248 NA
ATOM     56  C   UNL A   1      39.330  34.255  31.171  1.00  0.00     0.031 C 
ATOM     57  C   UNL A   1      44.983  32.551  32.589  1.00  0.00     0.029 A 
ATOM     58  C   UNL A   1      43.689  32.557  32.094  1.00  0.00     0.049 A 
ATOM     59  H   UNL A   1      42.647  31.030  31.075  1.00  0.00     0.167 HD
ATOM     60  C   UNL A   1      41.459  33.544  31.641  1.00  0.00     0.074 A 
ATOM     61  C   UNL A   1      40.486  34.615  31.711  1.00  0.00     0.031 C 
ATOM     62  C   UNL A   1      42.712  33.615  32.158  1.00  0.00     0.031 A 
BRANCH  49  63
ATOM     63  C   UNL A   1      46.056  28.468  31.403  1.00  0.00    -0.014 A 
ATOM     64  C   UNL A   1      46.238  27.708  32.573  1.00  0.00     0.010 A 
ATOM     65  C   UNL A   1      47.088  28.504  30.447  1.00  0.00     0.010 A 
ATOM     66  C   UNL A   1      47.442  27.035  32.802  1.00  0.00     0.020 A 
ATOM     67  C   UNL A   1      48.281  27.805  30.657  1.00  0.00     0.020 A 
ATOM     68  C   UNL A   1      48.456  27.088  31.842  1.00  0.00     0.054 A 
BRANCH  68  69
ATOM     69  S   UNL A   1      49.996  26.184  32.156  1.00  0.00     0.124 S 
ATOM     70  O   UNL A   1      50.438  26.770  33.418  1.00  0.00    -0.237 OA
ATOM     71  O   UNL A   1      49.543  24.798  32.231  1.00  0.00    -0.237 OA
ATOM     72  O   UNL A   1      50.828  26.502  30.998  1.00  0.00    -0.744 OA
ENDBRANCH  68  69
ENDBRANCH  49  63
BRANCH  50  73
ATOM     73  C   UNL A   1      37.230  32.840  29.692  1.00  0.00    -0.014 A 
ATOM     74  C   UNL A   1      36.257  32.852  30.707  1.00  0.00     0.010 A 
ATOM     75  C   UNL A   1      36.937  33.455  28.460  1.00  0.00     0.010 A 
ATOM     76  C   UNL A   1      35.011  33.449  30.489  1.00  0.00     0.020 A 
ATOM     77  C   UNL A   1      35.705  34.080  28.250  1.00  0.00     0.020 A 
ATOM     78  C   UNL A   1      34.744  34.062  29.262  1.00  0.00     0.054 A 
BRANCH  78  79
ATOM     79  S   UNL A   1      33.139  34.872  29.018  1.00  0.00     0.124 S 
ATOM     80  O   UNL A   1      32.524  34.027  28.000  1.00  0.00    -0.237 OA
ATOM     81  O   UNL A   1      32.543  34.796  30.350  1.00  0.00    -0.237 OA
ATOM     82  O   UNL A   1      33.498  36.219  28.581  1.00  0.00    -0.744 OA
ENDBRANCH  78  79
ENDBRANCH  50  73
BRANCH  62  83
ATOM     83  C   UNL A   1      43.120  34.909  32.815  1.00  0.00    -0.014 A 
ATOM     84  C   UNL A   1      42.840  35.165  34.169  1.00  0.00     0.010 A 
ATOM     85  C   UNL A   1      43.850  35.858  32.075  1.00  0.00     0.010 A 
ATOM     86  C   UNL A   1      43.255  36.362  34.761  1.00  0.00     0.020 A 
ATOM     87  C   UNL A   1      44.293  37.041  32.672  1.00  0.00     0.020 A 
ATOM     88  C   UNL A   1      43.980  37.290  34.008  1.00  0.00     0.054 A 
BRANCH  88  89
ATOM     89  S   UNL A   1      44.545  38.814  34.814  1.00  0.00     0.124 S 
ATOM     90  O   UNL A   1      44.424  38.473  36.229  1.00  0.00    -0.237 OA
ATOM     91  O   UNL A   1      45.911  38.951  34.316  1.00  0.00    -0.237 OA
ATOM     92  O   UNL A   1      43.608  39.828  34.336  1.00  0.00    -0.744 OA
ENDBRANCH  88  89
ENDBRANCH  62  83
ENDBRANCH  36  37
ENDBRANCH  28  31
ENDBRANCH  26  27
ENDBRANCH   1  26
TORSDOF 17
ENDMDL
