MODEL 1
REMARK VINA RESULT:     -14.3      0.000      0.000
REMARK SMILES Cc1cccc(-n2c(C)cc(/C=N\c3ccc(O)c(C(=O)NCCCNC(=O)c4ccc(-c5c6nc(c(-c7ccc(S(=O)(=O)[O-])cc7)c7ccc([nH]7)c(-c7ccc(S(=O)(=O)[O-])cc7)c7nc(c(-c8ccc(S(=O)(=O)[O-])cc8)c8ccc5[nH]8)C=C7)C=C6)cc4)c3)c2C)c1
REMARK SMILES IDX 24 1 23 2 22 3 20 4 21 5 19 7 14 8 15 9 89 10 16 11 17 12
REMARK SMILES IDX 13 13 12 14 11 15 7 16 8 17 90 18 9 19 10 20 91 21 6 22 1 23
REMARK SMILES IDX 2 24 3 25 92 26 4 27 5 28 18 29 25 31 26 32 27 33 28 35
REMARK SMILES IDX 29 36 30 37 88 38 31 39 87 40 32 41 33 42 34 43 81 44 35 45
REMARK SMILES IDX 86 46 80 47 82 48 36 49 85 50 79 51 78 52 37 54 67 55 48 56
REMARK SMILES IDX 66 57 49 58 52 59 65 60 83 61 50 62 51 63 64 65 84 66 53 67
REMARK SMILES IDX 38 68 39 69 47 70 40 71 46 72 41 73 42 74 43 75 44 76 45 77
REMARK SMILES IDX 68 78 69 79 77 80 70 81 76 82 71 83 72 84 73 85 74 86 75 87
REMARK SMILES IDX 54 88 55 89 63 90 56 91 62 92 57 93 58 94 59 95 60 96 61 97
REMARK H PARENT 22 6 18 30 26 34 82 53 52 64
REMARK Flexibility Score: inf
ROOT
ATOM      1  C   UNL A   1      37.735  22.274  25.067  1.00  0.00     0.042 C 
ENDROOT
BRANCH   1   2
ATOM      2  C   UNL A   1      36.666  21.441  25.765  1.00  0.00     0.118 C 
BRANCH   2   3
ATOM      3  N   UNL A   1      35.612  22.255  26.357  1.00  0.00    -0.352 N 
ATOM      4  C   UNL A   1      34.320  22.601  26.063  1.00  0.00     0.255 C 
ATOM      5  O   UNL A   1      33.762  23.275  26.939  1.00  0.00    -0.269 OA
ATOM      6  H   UNL A   1      35.910  22.667  27.199  1.00  0.00     0.163 HD
BRANCH   4   7
ATOM      7  C   UNL A   1      33.516  22.265  24.839  1.00  0.00     0.083 A 
ATOM      8  C   UNL A   1      33.188  22.873  22.469  1.00  0.00     0.064 A 
ATOM      9  C   UNL A   1      32.195  21.914  22.340  1.00  0.00     0.032 A 
ATOM     10  C   UNL A   1      33.922  22.939  23.664  1.00  0.00     0.046 A 
ATOM     11  C   UNL A   1      31.793  21.203  23.462  1.00  0.00     0.049 A 
ATOM     12  C   UNL A   1      32.386  21.454  24.707  1.00  0.00     0.128 A 
BRANCH   8  13
ATOM     13  N   UNL A   1      33.445  23.800  21.457  1.00  0.00    -0.256 NA
ATOM     14  C   UNL A   1      33.272  25.082  21.616  1.00  0.00     0.121 C 
BRANCH  14  15
ATOM     15  C   UNL A   1      32.801  25.855  22.771  1.00  0.00     0.014 A 
ATOM     16  N   UNL A   1      32.473  27.366  24.428  1.00  0.00    -0.318 N 
ATOM     17  C   UNL A   1      31.568  26.336  24.633  1.00  0.00     0.021 A 
ATOM     18  C   UNL A   1      33.091  27.155  23.190  1.00  0.00     0.029 A 
ATOM     19  C   UNL A   1      30.518  26.360  25.691  1.00  0.00     0.065 C 
ATOM     20  C   UNL A   1      31.783  25.388  23.654  1.00  0.00     0.033 A 
ATOM     21  C   UNL A   1      33.953  28.189  22.557  1.00  0.00     0.065 C 
BRANCH  16  22
ATOM     22  C   UNL A   1      32.779  28.405  25.359  1.00  0.00     0.046 A 
ATOM     23  C   UNL A   1      31.280  31.734  26.471  1.00  0.00     0.044 C 
ATOM     24  C   UNL A   1      32.156  30.518  26.389  1.00  0.00    -0.049 A 
ATOM     25  C   UNL A   1      33.128  30.308  27.375  1.00  0.00     0.003 A 
ATOM     26  C   UNL A   1      31.985  29.562  25.376  1.00  0.00     0.030 A 
ATOM     27  C   UNL A   1      33.950  29.184  27.328  1.00  0.00     0.002 A 
ATOM     28  C   UNL A   1      33.786  28.242  26.313  1.00  0.00     0.026 A 
ENDBRANCH  16  22
ENDBRANCH  14  15
ENDBRANCH   8  13
BRANCH  12  29
ATOM     29  O   UNL A   1      31.641  20.990  25.744  1.00  0.00    -0.507 OA
ATOM     30  H   UNL A   1      31.154  20.196  25.651  1.00  0.00     0.293 HD
ENDBRANCH  12  29
ENDBRANCH   4   7
ENDBRANCH   2   3
ENDBRANCH   1   2
BRANCH   1  31
ATOM     31  C   UNL A   1      38.216  23.420  25.939  1.00  0.00     0.118 C 
BRANCH  31  32
ATOM     32  N   UNL A   1      39.307  23.078  26.850  1.00  0.00    -0.352 N 
ATOM     33  C   UNL A   1      40.085  23.934  27.614  1.00  0.00     0.251 C 
ATOM     34  H   UNL A   1      39.516  22.120  26.930  1.00  0.00     0.163 HD
ATOM     35  O   UNL A   1      41.106  23.542  28.170  1.00  0.00    -0.269 OA
BRANCH  33  36
ATOM     36  C   UNL A   1      39.603  25.318  27.809  1.00  0.00     0.039 A 
ATOM     37  C   UNL A   1      40.056  26.310  26.932  1.00  0.00     0.014 A 
ATOM     38  C   UNL A   1      38.983  25.655  29.005  1.00  0.00     0.014 A 
ATOM     39  C   UNL A   1      40.086  27.638  27.360  1.00  0.00     0.010 A 
ATOM     40  C   UNL A   1      39.168  26.930  29.486  1.00  0.00     0.010 A 
ATOM     41  C   UNL A   1      39.745  27.921  28.679  1.00  0.00    -0.014 A 
BRANCH  41  42
ATOM     42  C   UNL A   1      39.967  29.198  29.350  1.00  0.00     0.031 A 
ATOM     43  C   UNL A   1      38.949  30.268  29.218  1.00  0.00     0.074 A 
ATOM     44  C   UNL A   1      40.975  29.346  30.239  1.00  0.00     0.049 A 
ATOM     45  N   UNL A   1      39.140  31.505  29.532  1.00  0.00    -0.248 NA
ATOM     46  C   UNL A   1      37.617  30.024  28.671  1.00  0.00     0.031 C 
ATOM     47  C   UNL A   1      41.084  30.378  31.270  1.00  0.00     0.029 A 
ATOM     48  N   UNL A   1      42.217  28.714  30.277  1.00  0.00    -0.354 N 
ATOM     49  C   UNL A   1      37.904  32.114  29.570  1.00  0.00     0.074 A 
ATOM     50  C   UNL A   1      37.010  31.183  28.928  1.00  0.00     0.031 C 
ATOM     51  C   UNL A   1      42.375  30.514  31.606  1.00  0.00     0.029 A 
ATOM     52  C   UNL A   1      43.143  29.691  30.691  1.00  0.00     0.049 A 
ATOM     53  H   UNL A   1      42.409  27.773  30.058  1.00  0.00     0.167 HD
ATOM     54  C   UNL A   1      37.753  33.276  30.268  1.00  0.00     0.031 A 
ATOM     55  C   UNL A   1      44.176  30.131  29.910  1.00  0.00     0.031 A 
ATOM     56  C   UNL A   1      39.037  33.799  30.746  1.00  0.00     0.049 A 
ATOM     57  C   UNL A   1      44.105  31.616  29.588  1.00  0.00     0.074 A 
ATOM     58  C   UNL A   1      39.649  33.913  31.984  1.00  0.00     0.029 A 
ATOM     59  N   UNL A   1      40.023  34.072  29.812  1.00  0.00    -0.354 N 
ATOM     60  N   UNL A   1      43.193  32.431  30.042  1.00  0.00    -0.248 NA
ATOM     61  C   UNL A   1      45.000  32.275  28.632  1.00  0.00     0.031 C 
ATOM     62  C   UNL A   1      41.020  34.250  31.773  1.00  0.00     0.029 A 
ATOM     63  C   UNL A   1      41.234  34.356  30.412  1.00  0.00     0.049 A 
ATOM     64  H   UNL A   1      39.879  34.066  28.838  1.00  0.00     0.167 HD
ATOM     65  C   UNL A   1      43.293  33.637  29.402  1.00  0.00     0.074 A 
ATOM     66  C   UNL A   1      44.459  33.503  28.549  1.00  0.00     0.031 C 
ATOM     67  C   UNL A   1      42.380  34.637  29.563  1.00  0.00     0.031 A 
BRANCH  54  68
ATOM     68  C   UNL A   1      36.413  33.836  30.705  1.00  0.00    -0.014 A 
ATOM     69  C   UNL A   1      35.430  34.125  29.735  1.00  0.00     0.010 A 
ATOM     70  C   UNL A   1      36.069  34.155  32.032  1.00  0.00     0.010 A 
ATOM     71  C   UNL A   1      34.227  34.773  30.059  1.00  0.00     0.020 A 
ATOM     72  C   UNL A   1      34.885  34.827  32.369  1.00  0.00     0.020 A 
ATOM     73  C   UNL A   1      33.973  35.145  31.375  1.00  0.00     0.054 A 
BRANCH  73  74
ATOM     74  S   UNL A   1      32.452  36.042  31.773  1.00  0.00     0.124 S 
ATOM     75  O   UNL A   1      31.678  35.041  32.502  1.00  0.00    -0.237 OA
ATOM     76  O   UNL A   1      32.947  37.161  32.568  1.00  0.00    -0.237 OA
ATOM     77  O   UNL A   1      31.910  36.404  30.464  1.00  0.00    -0.744 OA
ENDBRANCH  73  74
ENDBRANCH  54  68
BRANCH  55  78
ATOM     78  C   UNL A   1      44.725  29.082  29.004  1.00  0.00    -0.014 A 
ATOM     79  C   UNL A   1      44.005  28.826  27.817  1.00  0.00     0.010 A 
ATOM     80  C   UNL A   1      46.087  28.740  29.066  1.00  0.00     0.010 A 
ATOM     81  C   UNL A   1      44.676  28.444  26.655  1.00  0.00     0.020 A 
ATOM     82  C   UNL A   1      46.759  28.346  27.902  1.00  0.00     0.020 A 
ATOM     83  C   UNL A   1      46.061  28.285  26.691  1.00  0.00     0.054 A 
BRANCH  83  84
ATOM     84  S   UNL A   1      46.955  28.241  25.108  1.00  0.00     0.124 S 
ATOM     85  O   UNL A   1      46.453  27.015  24.495  1.00  0.00    -0.237 OA
ATOM     86  O   UNL A   1      46.508  29.487  24.487  1.00  0.00    -0.237 OA
ATOM     87  O   UNL A   1      48.356  28.214  25.517  1.00  0.00    -0.744 OA
ENDBRANCH  83  84
ENDBRANCH  55  78
BRANCH  67  88
ATOM     88  C   UNL A   1      42.477  35.972  28.877  1.00  0.00    -0.014 A 
ATOM     89  C   UNL A   1      41.896  36.209  27.620  1.00  0.00     0.010 A 
ATOM     90  C   UNL A   1      43.280  36.998  29.423  1.00  0.00     0.010 A 
ATOM     91  C   UNL A   1      42.069  37.436  26.964  1.00  0.00     0.020 A 
ATOM     92  C   UNL A   1      43.476  38.216  28.768  1.00  0.00     0.020 A 
ATOM     93  C   UNL A   1      42.853  38.435  27.547  1.00  0.00     0.054 A 
BRANCH  93  94
ATOM     94  S   UNL A   1      43.101  39.998  26.667  1.00  0.00     0.124 S 
ATOM     95  O   UNL A   1      44.318  39.745  25.898  1.00  0.00    -0.237 OA
ATOM     96  O   UNL A   1      41.874  40.100  25.882  1.00  0.00    -0.237 OA
ATOM     97  O   UNL A   1      43.242  40.983  27.737  1.00  0.00    -0.744 OA
ENDBRANCH  93  94
ENDBRANCH  67  88
ENDBRANCH  41  42
ENDBRANCH  33  36
ENDBRANCH  31  32
ENDBRANCH   1  31
TORSDOF 17
ENDMDL
MODEL 2
REMARK VINA RESULT:     -13.7      4.643     11.098
REMARK SMILES Cc1cccc(-n2c(C)cc(/C=N\c3ccc(O)c(C(=O)NCCCNC(=O)c4ccc(-c5c6nc(c(-c7ccc(S(=O)(=O)[O-])cc7)c7ccc([nH]7)c(-c7ccc(S(=O)(=O)[O-])cc7)c7nc(c(-c8ccc(S(=O)(=O)[O-])cc8)c8ccc5[nH]8)C=C7)C=C6)cc4)c3)c2C)c1
REMARK SMILES IDX 24 1 23 2 22 3 20 4 21 5 19 7 14 8 15 9 89 10 16 11 17 12
REMARK SMILES IDX 13 13 12 14 11 15 7 16 8 17 90 18 9 19 10 20 91 21 6 22 1 23
REMARK SMILES IDX 2 24 3 25 92 26 4 27 5 28 18 29 25 31 26 32 27 33 28 35
REMARK SMILES IDX 29 36 30 37 88 38 31 39 87 40 32 41 33 42 34 43 81 44 35 45
REMARK SMILES IDX 86 46 80 47 82 48 36 49 85 50 79 51 78 52 37 54 67 55 48 56
REMARK SMILES IDX 66 57 49 58 52 59 65 60 83 61 50 62 51 63 64 65 84 66 53 67
REMARK SMILES IDX 38 68 39 69 47 70 40 71 46 72 41 73 42 74 43 75 44 76 45 77
REMARK SMILES IDX 68 78 69 79 77 80 70 81 76 82 71 83 72 84 73 85 74 86 75 87
REMARK SMILES IDX 54 88 55 89 63 90 56 91 62 92 57 93 58 94 59 95 60 96 61 97
REMARK H PARENT 22 6 18 30 26 34 82 53 52 64
REMARK Flexibility Score: inf
ROOT
ATOM      1  C   UNL A   1      33.797  29.359  27.546  1.00  0.00     0.042 C 
ENDROOT
BRANCH   1   2
ATOM      2  C   UNL A   1      33.416  28.035  26.893  1.00  0.00     0.118 C 
BRANCH   2   3
ATOM      3  N   UNL A   1      33.571  28.054  25.444  1.00  0.00    -0.352 N 
ATOM      4  C   UNL A   1      32.792  27.817  24.344  1.00  0.00     0.255 C 
ATOM      5  O   UNL A   1      33.351  28.050  23.264  1.00  0.00    -0.269 OA
ATOM      6  H   UNL A   1      34.487  28.306  25.187  1.00  0.00     0.163 HD
BRANCH   4   7
ATOM      7  C   UNL A   1      31.372  27.328  24.290  1.00  0.00     0.083 A 
ATOM      8  C   UNL A   1      29.716  25.952  25.497  1.00  0.00     0.064 A 
ATOM      9  C   UNL A   1      28.762  26.211  24.524  1.00  0.00     0.032 A 
ATOM     10  C   UNL A   1      30.949  26.619  25.439  1.00  0.00     0.046 A 
ATOM     11  C   UNL A   1      29.126  26.935  23.399  1.00  0.00     0.049 A 
ATOM     12  C   UNL A   1      30.442  27.397  23.250  1.00  0.00     0.128 A 
BRANCH   8  13
ATOM     13  N   UNL A   1      29.493  25.013  26.507  1.00  0.00    -0.256 NA
ATOM     14  C   UNL A   1      30.183  23.912  26.608  1.00  0.00     0.121 C 
BRANCH  14  15
ATOM     15  C   UNL A   1      31.272  23.378  25.783  1.00  0.00     0.014 A 
ATOM     16  N   UNL A   1      33.232  22.598  24.953  1.00  0.00    -0.318 N 
ATOM     17  C   UNL A   1      32.344  22.676  23.891  1.00  0.00     0.021 A 
ATOM     18  C   UNL A   1      32.518  22.849  26.130  1.00  0.00     0.029 A 
ATOM     19  C   UNL A   1      32.658  22.191  22.518  1.00  0.00     0.065 C 
ATOM     20  C   UNL A   1      31.158  23.188  24.375  1.00  0.00     0.033 A 
ATOM     21  C   UNL A   1      33.115  22.625  27.474  1.00  0.00     0.065 C 
BRANCH  16  22
ATOM     22  C   UNL A   1      34.640  22.385  24.849  1.00  0.00     0.046 A 
ATOM     23  C   UNL A   1      37.065  19.438  24.893  1.00  0.00     0.044 C 
ATOM     24  C   UNL A   1      36.504  20.823  24.768  1.00  0.00    -0.049 A 
ATOM     25  C   UNL A   1      37.335  21.861  24.327  1.00  0.00     0.003 A 
ATOM     26  C   UNL A   1      35.151  21.091  25.032  1.00  0.00     0.030 A 
ATOM     27  C   UNL A   1      36.839  23.155  24.194  1.00  0.00     0.002 A 
ATOM     28  C   UNL A   1      35.498  23.421  24.469  1.00  0.00     0.026 A 
ENDBRANCH  16  22
ENDBRANCH  14  15
ENDBRANCH   8  13
BRANCH  12  29
ATOM     29  O   UNL A   1      30.738  27.725  21.967  1.00  0.00    -0.507 OA
ATOM     30  H   UNL A   1      31.569  27.490  21.603  1.00  0.00     0.293 HD
ENDBRANCH  12  29
ENDBRANCH   4   7
ENDBRANCH   2   3
ENDBRANCH   1   2
BRANCH   1  31
ATOM     31  C   UNL A   1      34.964  30.023  26.837  1.00  0.00     0.118 C 
BRANCH  31  32
ATOM     32  N   UNL A   1      35.584  31.121  27.577  1.00  0.00    -0.352 N 
ATOM     33  C   UNL A   1      36.652  31.066  28.459  1.00  0.00     0.251 C 
ATOM     34  H   UNL A   1      35.192  32.012  27.431  1.00  0.00     0.163 HD
ATOM     35  O   UNL A   1      36.936  32.019  29.177  1.00  0.00    -0.269 OA
BRANCH  33  36
ATOM     36  C   UNL A   1      37.492  29.849  28.451  1.00  0.00     0.039 A 
ATOM     37  C   UNL A   1      37.532  29.061  29.606  1.00  0.00     0.014 A 
ATOM     38  C   UNL A   1      38.437  29.689  27.447  1.00  0.00     0.014 A 
ATOM     39  C   UNL A   1      38.652  28.266  29.851  1.00  0.00     0.010 A 
ATOM     40  C   UNL A   1      39.608  29.041  27.765  1.00  0.00     0.010 A 
ATOM     41  C   UNL A   1      39.734  28.350  28.979  1.00  0.00    -0.014 A 
BRANCH  41  42
ATOM     42  C   UNL A   1      41.060  27.793  29.225  1.00  0.00     0.031 A 
ATOM     43  C   UNL A   1      41.332  26.385  28.845  1.00  0.00     0.074 A 
ATOM     44  C   UNL A   1      42.085  28.588  29.606  1.00  0.00     0.049 A 
ATOM     45  N   UNL A   1      42.353  25.703  29.240  1.00  0.00    -0.248 NA
ATOM     46  C   UNL A   1      40.428  25.610  28.000  1.00  0.00     0.031 C 
ATOM     47  C   UNL A   1      43.511  28.285  29.496  1.00  0.00     0.029 A 
ATOM     48  N   UNL A   1      42.058  29.762  30.357  1.00  0.00    -0.354 N 
ATOM     49  C   UNL A   1      42.427  24.578  28.448  1.00  0.00     0.074 A 
ATOM     50  C   UNL A   1      41.155  24.516  27.770  1.00  0.00     0.031 C 
ATOM     51  C   UNL A   1      44.180  29.035  30.383  1.00  0.00     0.029 A 
ATOM     52  C   UNL A   1      43.190  29.721  31.193  1.00  0.00     0.049 A 
ATOM     53  H   UNL A   1      41.383  30.478  30.312  1.00  0.00     0.167 HD
ATOM     54  C   UNL A   1      43.609  23.906  28.349  1.00  0.00     0.031 A 
ATOM     55  C   UNL A   1      43.119  29.677  32.558  1.00  0.00     0.031 A 
ATOM     56  C   UNL A   1      44.613  24.424  29.284  1.00  0.00     0.049 A 
ATOM     57  C   UNL A   1      43.735  28.424  33.159  1.00  0.00     0.074 A 
ATOM     58  C   UNL A   1      45.783  25.155  29.160  1.00  0.00     0.029 A 
ATOM     59  N   UNL A   1      44.315  24.417  30.637  1.00  0.00    -0.354 N 
ATOM     60  N   UNL A   1      44.331  27.487  32.473  1.00  0.00    -0.248 NA
ATOM     61  C   UNL A   1      43.625  28.075  34.579  1.00  0.00     0.031 C 
ATOM     62  C   UNL A   1      46.174  25.594  30.460  1.00  0.00     0.029 A 
ATOM     63  C   UNL A   1      45.251  25.116  31.371  1.00  0.00     0.049 A 
ATOM     64  H   UNL A   1      43.530  23.969  31.027  1.00  0.00     0.167 HD
ATOM     65  C   UNL A   1      44.582  26.412  33.282  1.00  0.00     0.074 A 
ATOM     66  C   UNL A   1      44.151  26.838  34.601  1.00  0.00     0.031 C 
ATOM     67  C   UNL A   1      45.064  25.227  32.809  1.00  0.00     0.031 A 
BRANCH  54  68
ATOM     68  C   UNL A   1      43.931  22.911  27.250  1.00  0.00    -0.014 A 
ATOM     69  C   UNL A   1      42.997  21.904  26.928  1.00  0.00     0.010 A 
ATOM     70  C   UNL A   1      45.142  22.867  26.534  1.00  0.00     0.010 A 
ATOM     71  C   UNL A   1      43.291  20.871  26.023  1.00  0.00     0.020 A 
ATOM     72  C   UNL A   1      45.463  21.829  25.648  1.00  0.00     0.020 A 
ATOM     73  C   UNL A   1      44.537  20.825  25.406  1.00  0.00     0.054 A 
BRANCH  73  74
ATOM     74  S   UNL A   1      44.935  19.454  24.294  1.00  0.00     0.124 S 
ATOM     75  O   UNL A   1      44.189  18.345  24.882  1.00  0.00    -0.237 OA
ATOM     76  O   UNL A   1      44.440  19.939  23.009  1.00  0.00    -0.237 OA
ATOM     77  O   UNL A   1      46.390  19.338  24.393  1.00  0.00    -0.744 OA
ENDBRANCH  73  74
ENDBRANCH  54  68
BRANCH  55  78
ATOM     78  C   UNL A   1      41.947  30.410  33.116  1.00  0.00    -0.014 A 
ATOM     79  C   UNL A   1      42.132  31.779  33.405  1.00  0.00     0.010 A 
ATOM     80  C   UNL A   1      40.645  29.926  32.900  1.00  0.00     0.010 A 
ATOM     81  C   UNL A   1      41.073  32.678  33.266  1.00  0.00     0.020 A 
ATOM     82  C   UNL A   1      39.581  30.826  32.770  1.00  0.00     0.020 A 
ATOM     83  C   UNL A   1      39.825  32.200  32.871  1.00  0.00     0.054 A 
BRANCH  83  84
ATOM     84  S   UNL A   1      38.607  33.404  32.260  1.00  0.00     0.124 S 
ATOM     85  O   UNL A   1      39.094  33.693  30.915  1.00  0.00    -0.237 OA
ATOM     86  O   UNL A   1      37.369  32.629  32.330  1.00  0.00    -0.237 OA
ATOM     87  O   UNL A   1      38.712  34.501  33.217  1.00  0.00    -0.744 OA
ENDBRANCH  83  84
ENDBRANCH  55  78
BRANCH  67  88
ATOM     88  C   UNL A   1      45.355  24.037  33.683  1.00  0.00    -0.014 A 
ATOM     89  C   UNL A   1      46.630  23.800  34.220  1.00  0.00     0.010 A 
ATOM     90  C   UNL A   1      44.374  23.039  33.877  1.00  0.00     0.010 A 
ATOM     91  C   UNL A   1      46.897  22.642  34.964  1.00  0.00     0.020 A 
ATOM     92  C   UNL A   1      44.635  21.872  34.599  1.00  0.00     0.020 A 
ATOM     93  C   UNL A   1      45.894  21.688  35.155  1.00  0.00     0.054 A 
BRANCH  93  94
ATOM     94  S   UNL A   1      46.267  20.177  36.081  1.00  0.00     0.124 S 
ATOM     95  O   UNL A   1      45.753  20.482  37.414  1.00  0.00    -0.237 OA
ATOM     96  O   UNL A   1      45.514  19.173  35.334  1.00  0.00    -0.237 OA
ATOM     97  O   UNL A   1      47.721  20.062  35.991  1.00  0.00    -0.744 OA
ENDBRANCH  93  94
ENDBRANCH  67  88
ENDBRANCH  41  42
ENDBRANCH  33  36
ENDBRANCH  31  32
ENDBRANCH   1  31
TORSDOF 17
ENDMDL
MODEL 3
REMARK VINA RESULT:     -13.2      2.087      2.772
REMARK SMILES Cc1cccc(-n2c(C)cc(/C=N\c3ccc(O)c(C(=O)NCCCNC(=O)c4ccc(-c5c6nc(c(-c7ccc(S(=O)(=O)[O-])cc7)c7ccc([nH]7)c(-c7ccc(S(=O)(=O)[O-])cc7)c7nc(c(-c8ccc(S(=O)(=O)[O-])cc8)c8ccc5[nH]8)C=C7)C=C6)cc4)c3)c2C)c1
REMARK SMILES IDX 24 1 23 2 22 3 20 4 21 5 19 7 14 8 15 9 89 10 16 11 17 12
REMARK SMILES IDX 13 13 12 14 11 15 7 16 8 17 90 18 9 19 10 20 91 21 6 22 1 23
REMARK SMILES IDX 2 24 3 25 92 26 4 27 5 28 18 29 25 31 26 32 27 33 28 35
REMARK SMILES IDX 29 36 30 37 88 38 31 39 87 40 32 41 33 42 34 43 81 44 35 45
REMARK SMILES IDX 86 46 80 47 82 48 36 49 85 50 79 51 78 52 37 54 67 55 48 56
REMARK SMILES IDX 66 57 49 58 52 59 65 60 83 61 50 62 51 63 64 65 84 66 53 67
REMARK SMILES IDX 38 68 39 69 47 70 40 71 46 72 41 73 42 74 43 75 44 76 45 77
REMARK SMILES IDX 68 78 69 79 77 80 70 81 76 82 71 83 72 84 73 85 74 86 75 87
REMARK SMILES IDX 54 88 55 89 63 90 56 91 62 92 57 93 58 94 59 95 60 96 61 97
REMARK H PARENT 22 6 18 30 26 34 82 53 52 64
REMARK Flexibility Score: inf
ROOT
ATOM      1  C   UNL A   1      36.386  21.818  24.967  1.00  0.00     0.042 C 
ENDROOT
BRANCH   1   2
ATOM      2  C   UNL A   1      35.615  21.618  26.267  1.00  0.00     0.118 C 
BRANCH   2   3
ATOM      3  N   UNL A   1      34.629  20.548  26.181  1.00  0.00    -0.352 N 
ATOM      4  C   UNL A   1      33.381  20.368  25.647  1.00  0.00     0.255 C 
ATOM      5  O   UNL A   1      32.946  19.214  25.748  1.00  0.00    -0.269 OA
ATOM      6  H   UNL A   1      34.948  19.732  26.629  1.00  0.00     0.163 HD
BRANCH   4   7
ATOM      7  C   UNL A   1      32.502  21.376  24.962  1.00  0.00     0.083 A 
ATOM      8  C   UNL A   1      32.252  22.680  22.881  1.00  0.00     0.064 A 
ATOM      9  C   UNL A   1      31.091  23.266  23.364  1.00  0.00     0.032 A 
ATOM     10  C   UNL A   1      32.857  21.651  23.620  1.00  0.00     0.046 A 
ATOM     11  C   UNL A   1      30.688  22.993  24.663  1.00  0.00     0.049 A 
ATOM     12  C   UNL A   1      31.446  22.134  25.472  1.00  0.00     0.128 A 
BRANCH   8  13
ATOM     13  N   UNL A   1      32.854  23.117  21.698  1.00  0.00    -0.256 NA
ATOM     14  C   UNL A   1      33.138  24.369  21.476  1.00  0.00     0.121 C 
BRANCH  14  15
ATOM     15  C   UNL A   1      32.931  25.566  22.298  1.00  0.00     0.014 A 
ATOM     16  N   UNL A   1      32.831  27.121  23.944  1.00  0.00    -0.318 N 
ATOM     17  C   UNL A   1      32.181  27.655  22.841  1.00  0.00     0.021 A 
ATOM     18  C   UNL A   1      33.444  25.928  23.545  1.00  0.00     0.029 A 
ATOM     19  C   UNL A   1      31.660  29.050  22.788  1.00  0.00     0.065 C 
ATOM     20  C   UNL A   1      32.199  26.702  21.844  1.00  0.00     0.033 A 
ATOM     21  C   UNL A   1      34.411  25.212  24.421  1.00  0.00     0.065 C 
BRANCH  16  22
ATOM     22  C   UNL A   1      32.801  27.655  25.268  1.00  0.00     0.046 A 
ATOM     23  C   UNL A   1      34.776  30.176  27.345  1.00  0.00     0.044 C 
ATOM     24  C   UNL A   1      33.730  29.194  26.907  1.00  0.00    -0.049 A 
ATOM     25  C   UNL A   1      32.610  28.980  27.721  1.00  0.00     0.003 A 
ATOM     26  C   UNL A   1      33.825  28.523  25.678  1.00  0.00     0.030 A 
ATOM     27  C   UNL A   1      31.619  28.080  27.336  1.00  0.00     0.002 A 
ATOM     28  C   UNL A   1      31.722  27.406  26.120  1.00  0.00     0.026 A 
ENDBRANCH  16  22
ENDBRANCH  14  15
ENDBRANCH   8  13
BRANCH  12  29
ATOM     29  O   UNL A   1      31.161  22.274  26.792  1.00  0.00    -0.507 OA
ATOM     30  H   UNL A   1      31.027  21.515  27.326  1.00  0.00     0.293 HD
ENDBRANCH  12  29
ENDBRANCH   4   7
ENDBRANCH   2   3
ENDBRANCH   1   2
BRANCH   1  31
ATOM     31  C   UNL A   1      37.575  22.743  25.152  1.00  0.00     0.118 C 
BRANCH  31  32
ATOM     32  N   UNL A   1      38.707  22.150  25.863  1.00  0.00    -0.352 N 
ATOM     33  C   UNL A   1      39.755  22.797  26.498  1.00  0.00     0.251 C 
ATOM     34  H   UNL A   1      38.726  21.167  25.893  1.00  0.00     0.163 HD
ATOM     35  O   UNL A   1      40.751  22.185  26.869  1.00  0.00    -0.269 OA
BRANCH  33  36
ATOM     36  C   UNL A   1      39.602  24.238  26.790  1.00  0.00     0.039 A 
ATOM     37  C   UNL A   1      40.369  25.151  26.057  1.00  0.00     0.014 A 
ATOM     38  C   UNL A   1      38.958  24.626  27.958  1.00  0.00     0.014 A 
ATOM     39  C   UNL A   1      40.672  26.392  26.618  1.00  0.00     0.010 A 
ATOM     40  C   UNL A   1      39.392  25.774  28.579  1.00  0.00     0.010 A 
ATOM     41  C   UNL A   1      40.271  26.649  27.926  1.00  0.00    -0.014 A 
BRANCH  41  42
ATOM     42  C   UNL A   1      40.721  27.775  28.738  1.00  0.00     0.031 A 
ATOM     43  C   UNL A   1      39.880  28.993  28.812  1.00  0.00     0.074 A 
ATOM     44  C   UNL A   1      41.780  27.648  29.570  1.00  0.00     0.049 A 
ATOM     45  N   UNL A   1      40.276  30.133  29.267  1.00  0.00    -0.248 NA
ATOM     46  C   UNL A   1      38.502  29.028  28.327  1.00  0.00     0.031 C 
ATOM     47  C   UNL A   1      42.097  28.502  30.715  1.00  0.00     0.029 A 
ATOM     48  N   UNL A   1      42.909  26.839  29.445  1.00  0.00    -0.354 N 
ATOM     49  C   UNL A   1      39.155  30.910  29.464  1.00  0.00     0.074 A 
ATOM     50  C   UNL A   1      38.097  30.219  28.769  1.00  0.00     0.031 C 
ATOM     51  C   UNL A   1      43.407  28.397  30.979  1.00  0.00     0.029 A 
ATOM     52  C   UNL A   1      43.994  27.601  29.918  1.00  0.00     0.049 A 
ATOM     53  H   UNL A   1      42.940  25.918  29.096  1.00  0.00     0.167 HD
ATOM     54  C   UNL A   1      39.220  31.975  30.313  1.00  0.00     0.031 A 
ATOM     55  C   UNL A   1      45.046  27.984  29.133  1.00  0.00     0.031 A 
ATOM     56  C   UNL A   1      40.591  32.230  30.768  1.00  0.00     0.049 A 
ATOM     57  C   UNL A   1      45.195  29.492  29.008  1.00  0.00     0.074 A 
ATOM     58  C   UNL A   1      41.269  32.082  31.967  1.00  0.00     0.029 A 
ATOM     59  N   UNL A   1      41.564  32.478  29.813  1.00  0.00    -0.354 N 
ATOM     60  N   UNL A   1      44.444  30.365  29.622  1.00  0.00    -0.248 NA
ATOM     61  C   UNL A   1      46.137  30.134  28.087  1.00  0.00     0.031 C 
ATOM     62  C   UNL A   1      42.664  32.235  31.711  1.00  0.00     0.029 A 
ATOM     63  C   UNL A   1      42.830  32.492  30.363  1.00  0.00     0.049 A 
ATOM     64  H   UNL A   1      41.375  32.625  28.859  1.00  0.00     0.167 HD
ATOM     65  C   UNL A   1      44.702  31.618  29.136  1.00  0.00     0.074 A 
ATOM     66  C   UNL A   1      45.793  31.429  28.198  1.00  0.00     0.031 C 
ATOM     67  C   UNL A   1      43.966  32.712  29.483  1.00  0.00     0.031 A 
BRANCH  54  68
ATOM     68  C   UNL A   1      38.005  32.664  30.906  1.00  0.00    -0.014 A 
ATOM     69  C   UNL A   1      37.725  32.518  32.281  1.00  0.00     0.010 A 
ATOM     70  C   UNL A   1      37.069  33.415  30.172  1.00  0.00     0.010 A 
ATOM     71  C   UNL A   1      36.545  33.011  32.861  1.00  0.00     0.020 A 
ATOM     72  C   UNL A   1      35.872  33.890  30.728  1.00  0.00     0.020 A 
ATOM     73  C   UNL A   1      35.610  33.673  32.072  1.00  0.00     0.054 A 
BRANCH  73  74
ATOM     74  S   UNL A   1      34.059  34.244  32.811  1.00  0.00     0.124 S 
ATOM     75  O   UNL A   1      34.525  35.060  33.928  1.00  0.00    -0.237 OA
ATOM     76  O   UNL A   1      33.437  34.973  31.710  1.00  0.00    -0.237 OA
ATOM     77  O   UNL A   1      33.382  33.005  33.195  1.00  0.00    -0.744 OA
ENDBRANCH  73  74
ENDBRANCH  54  68
BRANCH  55  78
ATOM     78  C   UNL A   1      45.382  26.997  28.067  1.00  0.00    -0.014 A 
ATOM     79  C   UNL A   1      46.059  25.827  28.473  1.00  0.00     0.010 A 
ATOM     80  C   UNL A   1      44.654  26.984  26.864  1.00  0.00     0.010 A 
ATOM     81  C   UNL A   1      45.836  24.618  27.813  1.00  0.00     0.020 A 
ATOM     82  C   UNL A   1      44.438  25.773  26.195  1.00  0.00     0.020 A 
ATOM     83  C   UNL A   1      44.963  24.590  26.726  1.00  0.00     0.054 A 
BRANCH  83  84
ATOM     84  S   UNL A   1      44.338  22.972  26.179  1.00  0.00     0.124 S 
ATOM     85  O   UNL A   1      43.743  22.433  27.398  1.00  0.00    -0.237 OA
ATOM     86  O   UNL A   1      43.393  23.362  25.134  1.00  0.00    -0.237 OA
ATOM     87  O   UNL A   1      45.541  22.291  25.711  1.00  0.00    -0.744 OA
ENDBRANCH  83  84
ENDBRANCH  55  78
BRANCH  67  88
ATOM     88  C   UNL A   1      44.239  34.099  28.968  1.00  0.00    -0.014 A 
ATOM     89  C   UNL A   1      43.902  34.490  27.662  1.00  0.00     0.010 A 
ATOM     90  C   UNL A   1      44.976  35.017  29.749  1.00  0.00     0.010 A 
ATOM     91  C   UNL A   1      44.240  35.761  27.178  1.00  0.00     0.020 A 
ATOM     92  C   UNL A   1      45.336  36.279  29.270  1.00  0.00     0.020 A 
ATOM     93  C   UNL A   1      44.949  36.651  27.989  1.00  0.00     0.054 A 
BRANCH  93  94
ATOM     94  S   UNL A   1      45.416  38.274  27.334  1.00  0.00     0.124 S 
ATOM     95  O   UNL A   1      44.194  38.715  26.666  1.00  0.00    -0.237 OA
ATOM     96  O   UNL A   1      45.762  39.001  28.552  1.00  0.00    -0.237 OA
ATOM     97  O   UNL A   1      46.535  37.981  26.441  1.00  0.00    -0.744 OA
ENDBRANCH  93  94
ENDBRANCH  67  88
ENDBRANCH  41  42
ENDBRANCH  33  36
ENDBRANCH  31  32
ENDBRANCH   1  31
TORSDOF 17
ENDMDL
