MODEL 1
REMARK VINA RESULT:     -12.5      0.000      0.000
REMARK SMILES CS(=O)(=O)c1ccc(/C=C(/C(=O)NCCCNC(=O)c2ccc(-c3c4nc(c(-c5ccc(S(=O)(=O)[O-])cc5)c5ccc([nH]5)c(-c5ccc(S(=O)(=O)[O-])cc5)c5nc(c(-c6ccc(S(=O)(=O)[O-])cc6)c6ccc3[nH]6)C=C5)C=C4)cc2)c2ccc(-c3ccc(F)cc3F)cc2)cc1
REMARK SMILES IDX 15 1 14 2 13 3 11 4 12 5 10 7 9 8 8 9 5 10 6 11 95 12 7 13
REMARK SMILES IDX 94 14 2 15 1 16 3 17 4 18 80 19 81 20 93 21 82 22 92 23
REMARK SMILES IDX 83 24 84 25 85 26 90 27 86 28 89 29 91 30 87 31 88 32 16 33
REMARK SMILES IDX 17 34 18 35 19 37 20 38 21 39 79 40 22 41 78 42 23 43 24 44
REMARK SMILES IDX 25 45 72 46 26 47 77 48 71 49 73 50 27 51 76 52 70 53 69 54
REMARK SMILES IDX 28 56 58 57 39 58 57 59 40 60 43 61 56 62 74 63 41 64 42 65
REMARK SMILES IDX 55 67 75 68 44 69 29 70 30 71 38 72 31 73 37 74 32 75 33 76
REMARK SMILES IDX 34 77 35 78 36 79 59 80 60 81 68 82 61 83 67 84 62 85 63 86
REMARK SMILES IDX 64 87 65 88 66 89 45 90 46 91 54 92 47 93 53 94 48 95 49 96
REMARK SMILES IDX 50 97 51 98 52 99
REMARK H PARENT 13 6 17 36 73 55 43 66
REMARK Flexibility Score: inf
ROOT
ATOM      1  C   UNL A   1      35.272  23.206  26.457  1.00  0.00     0.042 C 
ENDROOT
BRANCH   1   2
ATOM      2  C   UNL A   1      34.055  23.647  25.644  1.00  0.00     0.118 C 
BRANCH   2   3
ATOM      3  N   UNL A   1      32.826  23.330  26.347  1.00  0.00    -0.352 N 
ATOM      4  C   UNL A   1      31.651  23.979  26.544  1.00  0.00     0.251 C 
ATOM      5  O   UNL A   1      30.830  23.388  27.251  1.00  0.00    -0.269 OA
ATOM      6  H   UNL A   1      32.851  22.445  26.778  1.00  0.00     0.163 HD
BRANCH   4   7
ATOM      7  C   UNL A   1      31.294  25.296  25.888  1.00  0.00     0.047 C 
ATOM      8  C   UNL A   1      30.531  25.357  24.772  1.00  0.00     0.022 C 
BRANCH   8   9
ATOM      9  C   UNL A   1      30.004  26.534  24.046  1.00  0.00    -0.025 A 
ATOM     10  C   UNL A   1      28.859  28.801  22.834  1.00  0.00     0.067 A 
ATOM     11  C   UNL A   1      30.238  28.607  22.780  1.00  0.00     0.021 A 
ATOM     12  C   UNL A   1      28.040  27.849  23.446  1.00  0.00     0.021 A 
ATOM     13  C   UNL A   1      30.799  27.463  23.362  1.00  0.00     0.009 A 
ATOM     14  C   UNL A   1      28.613  26.723  24.044  1.00  0.00     0.009 A 
BRANCH  10  15
ATOM     15  S   UNL A   1      28.084  30.258  22.177  1.00  0.00     0.175 S 
ATOM     16  C   UNL A   1      29.194  31.609  22.452  1.00  0.00     0.163 C 
ATOM     17  O   UNL A   1      26.913  30.510  22.993  1.00  0.00    -0.224 OA
ATOM     18  O   UNL A   1      27.976  30.062  20.743  1.00  0.00    -0.224 OA
ENDBRANCH  10  15
ENDBRANCH   8   9
BRANCH   7  19
ATOM     19  C   UNL A   1      31.985  26.502  26.409  1.00  0.00    -0.013 A 
ATOM     20  C   UNL A   1      33.286  26.763  25.959  1.00  0.00     0.009 A 
ATOM     21  C   UNL A   1      31.381  27.424  27.268  1.00  0.00     0.009 A 
ATOM     22  C   UNL A   1      33.955  27.928  26.332  1.00  0.00     0.009 A 
ATOM     23  C   UNL A   1      32.046  28.611  27.616  1.00  0.00     0.009 A 
ATOM     24  C   UNL A   1      33.342  28.895  27.143  1.00  0.00    -0.015 A 
BRANCH  24  25
ATOM     25  C   UNL A   1      34.049  30.157  27.451  1.00  0.00     0.018 A 
ATOM     26  C   UNL A   1      33.338  31.377  27.513  1.00  0.00     0.015 A 
ATOM     27  C   UNL A   1      35.437  30.219  27.666  1.00  0.00     0.133 A 
ATOM     28  C   UNL A   1      33.989  32.590  27.746  1.00  0.00     0.040 A 
ATOM     29  C   UNL A   1      36.093  31.424  27.908  1.00  0.00     0.079 A 
ATOM     30  F   UNL A   1      36.182  29.103  27.627  1.00  0.00    -0.206 F 
ATOM     31  C   UNL A   1      35.363  32.601  27.938  1.00  0.00     0.126 A 
ATOM     32  F   UNL A   1      35.990  33.764  28.153  1.00  0.00    -0.207 F 
ENDBRANCH  24  25
ENDBRANCH   7  19
ENDBRANCH   4   7
ENDBRANCH   2   3
ENDBRANCH   1   2
BRANCH   1  33
ATOM     33  C   UNL A   1      36.608  23.614  25.832  1.00  0.00     0.118 C 
BRANCH  33  34
ATOM     34  N   UNL A   1      37.606  22.561  25.938  1.00  0.00    -0.352 N 
ATOM     35  C   UNL A   1      38.951  22.645  26.194  1.00  0.00     0.251 C 
ATOM     36  H   UNL A   1      37.264  21.648  25.805  1.00  0.00     0.163 HD
ATOM     37  O   UNL A   1      39.662  21.661  26.001  1.00  0.00    -0.269 OA
BRANCH  35  38
ATOM     38  C   UNL A   1      39.549  23.903  26.692  1.00  0.00     0.039 A 
ATOM     39  C   UNL A   1      39.677  24.089  28.072  1.00  0.00     0.014 A 
ATOM     40  C   UNL A   1      39.933  24.919  25.812  1.00  0.00     0.014 A 
ATOM     41  C   UNL A   1      40.235  25.270  28.565  1.00  0.00     0.010 A 
ATOM     42  C   UNL A   1      40.550  26.067  26.302  1.00  0.00     0.010 A 
ATOM     43  C   UNL A   1      40.702  26.258  27.684  1.00  0.00    -0.014 A 
BRANCH  43  44
ATOM     44  C   UNL A   1      41.357  27.492  28.190  1.00  0.00     0.031 A 
ATOM     45  C   UNL A   1      42.848  27.665  28.081  1.00  0.00     0.074 A 
ATOM     46  C   UNL A   1      40.615  28.423  28.821  1.00  0.00     0.049 A 
ATOM     47  N   UNL A   1      43.598  28.646  28.515  1.00  0.00    -0.248 NA
ATOM     48  C   UNL A   1      43.596  26.581  27.423  1.00  0.00     0.031 C 
ATOM     49  C   UNL A   1      39.170  28.343  29.044  1.00  0.00     0.029 A 
ATOM     50  N   UNL A   1      40.977  29.610  29.406  1.00  0.00    -0.354 N 
ATOM     51  C   UNL A   1      44.905  28.286  28.209  1.00  0.00     0.074 A 
ATOM     52  C   UNL A   1      44.849  26.980  27.589  1.00  0.00     0.031 C 
ATOM     53  C   UNL A   1      38.766  29.438  29.706  1.00  0.00     0.029 A 
ATOM     54  C   UNL A   1      39.925  30.280  29.986  1.00  0.00     0.049 A 
ATOM     55  H   UNL A   1      41.901  29.950  29.410  1.00  0.00     0.167 HD
ATOM     56  C   UNL A   1      46.049  28.985  28.415  1.00  0.00     0.031 A 
ATOM     57  C   UNL A   1      39.895  31.437  30.676  1.00  0.00     0.031 A 
ATOM     58  C   UNL A   1      46.096  30.290  29.022  1.00  0.00     0.049 A 
ATOM     59  C   UNL A   1      41.168  32.210  30.868  1.00  0.00     0.074 A 
ATOM     60  C   UNL A   1      47.192  31.116  29.200  1.00  0.00     0.029 A 
ATOM     61  N   UNL A   1      45.004  30.953  29.560  1.00  0.00    -0.354 N 
ATOM     62  N   UNL A   1      42.384  31.898  30.488  1.00  0.00    -0.248 NA
ATOM     63  C   UNL A   1      41.063  33.499  31.565  1.00  0.00     0.031 C 
ATOM     64  C   UNL A   1      46.771  32.256  29.895  1.00  0.00     0.029 A 
ATOM     65  C   UNL A   1      45.403  32.166  30.099  1.00  0.00     0.049 A 
ATOM     66  H   UNL A   1      44.081  30.613  29.560  1.00  0.00     0.167 HD
ATOM     67  C   UNL A   1      43.188  32.960  30.886  1.00  0.00     0.074 A 
ATOM     68  C   UNL A   1      42.317  33.930  31.519  1.00  0.00     0.031 C 
ATOM     69  C   UNL A   1      44.527  33.117  30.738  1.00  0.00     0.031 A 
BRANCH  56  70
ATOM     70  C   UNL A   1      47.343  28.336  27.998  1.00  0.00    -0.014 A 
ATOM     71  C   UNL A   1      47.818  28.429  26.676  1.00  0.00     0.010 A 
ATOM     72  C   UNL A   1      48.105  27.630  28.947  1.00  0.00     0.010 A 
ATOM     73  C   UNL A   1      48.995  27.777  26.298  1.00  0.00     0.020 A 
ATOM     74  C   UNL A   1      49.300  27.003  28.579  1.00  0.00     0.020 A 
ATOM     75  C   UNL A   1      49.724  27.060  27.251  1.00  0.00     0.054 A 
BRANCH  75  76
ATOM     76  S   UNL A   1      51.243  26.216  26.732  1.00  0.00     0.124 S 
ATOM     77  O   UNL A   1      50.930  24.821  27.039  1.00  0.00    -0.237 OA
ATOM     78  O   UNL A   1      51.324  26.542  25.312  1.00  0.00    -0.237 OA
ATOM     79  O   UNL A   1      52.278  26.819  27.567  1.00  0.00    -0.744 OA
ENDBRANCH  75  76
ENDBRANCH  56  70
BRANCH  57  80
ATOM     80  C   UNL A   1      38.599  31.925  31.220  1.00  0.00    -0.014 A 
ATOM     81  C   UNL A   1      38.011  31.306  32.336  1.00  0.00     0.010 A 
ATOM     82  C   UNL A   1      37.980  33.058  30.659  1.00  0.00     0.010 A 
ATOM     83  C   UNL A   1      36.828  31.810  32.883  1.00  0.00     0.020 A 
ATOM     84  C   UNL A   1      36.811  33.581  31.219  1.00  0.00     0.020 A 
ATOM     85  C   UNL A   1      36.240  32.951  32.326  1.00  0.00     0.054 A 
BRANCH  85  86
ATOM     86  S   UNL A   1      34.756  33.642  33.109  1.00  0.00     0.124 S 
ATOM     87  O   UNL A   1      33.699  32.807  32.549  1.00  0.00    -0.237 OA
ATOM     88  O   UNL A   1      35.032  33.449  34.531  1.00  0.00    -0.237 OA
ATOM     89  O   UNL A   1      34.756  35.035  32.667  1.00  0.00    -0.744 OA
ENDBRANCH  85  86
ENDBRANCH  57  80
BRANCH  69  90
ATOM     90  C   UNL A   1      45.136  34.393  31.256  1.00  0.00    -0.014 A 
ATOM     91  C   UNL A   1      45.191  35.549  30.459  1.00  0.00     0.010 A 
ATOM     92  C   UNL A   1      45.610  34.448  32.579  1.00  0.00     0.010 A 
ATOM     93  C   UNL A   1      45.738  36.730  30.967  1.00  0.00     0.020 A 
ATOM     94  C   UNL A   1      46.133  35.635  33.100  1.00  0.00     0.020 A 
ATOM     95  C   UNL A   1      46.206  36.766  32.284  1.00  0.00     0.054 A 
BRANCH  95  96
ATOM     96  S   UNL A   1      46.871  38.324  32.934  1.00  0.00     0.124 S 
ATOM     97  O   UNL A   1      47.271  39.016  31.712  1.00  0.00    -0.237 OA
ATOM     98  O   UNL A   1      45.724  38.896  33.634  1.00  0.00    -0.237 OA
ATOM     99  O   UNL A   1      47.970  37.897  33.796  1.00  0.00    -0.744 OA
ENDBRANCH  95  96
ENDBRANCH  69  90
ENDBRANCH  43  44
ENDBRANCH  35  38
ENDBRANCH  33  34
ENDBRANCH   1  33
TORSDOF 17
ENDMDL
MODEL 2
REMARK VINA RESULT:     -11.3      5.581     14.772
REMARK SMILES CS(=O)(=O)c1ccc(/C=C(/C(=O)NCCCNC(=O)c2ccc(-c3c4nc(c(-c5ccc(S(=O)(=O)[O-])cc5)c5ccc([nH]5)c(-c5ccc(S(=O)(=O)[O-])cc5)c5nc(c(-c6ccc(S(=O)(=O)[O-])cc6)c6ccc3[nH]6)C=C5)C=C4)cc2)c2ccc(-c3ccc(F)cc3F)cc2)cc1
REMARK SMILES IDX 15 1 14 2 13 3 11 4 12 5 10 7 9 8 8 9 5 10 6 11 95 12 7 13
REMARK SMILES IDX 94 14 2 15 1 16 3 17 4 18 80 19 81 20 93 21 82 22 92 23
REMARK SMILES IDX 83 24 84 25 85 26 90 27 86 28 89 29 91 30 87 31 88 32 16 33
REMARK SMILES IDX 17 34 18 35 19 37 20 38 21 39 79 40 22 41 78 42 23 43 24 44
REMARK SMILES IDX 25 45 72 46 26 47 77 48 71 49 73 50 27 51 76 52 70 53 69 54
REMARK SMILES IDX 28 56 58 57 39 58 57 59 40 60 43 61 56 62 74 63 41 64 42 65
REMARK SMILES IDX 55 67 75 68 44 69 29 70 30 71 38 72 31 73 37 74 32 75 33 76
REMARK SMILES IDX 34 77 35 78 36 79 59 80 60 81 68 82 61 83 67 84 62 85 63 86
REMARK SMILES IDX 64 87 65 88 66 89 45 90 46 91 54 92 47 93 53 94 48 95 49 96
REMARK SMILES IDX 50 97 51 98 52 99
REMARK H PARENT 13 6 17 36 73 55 43 66
REMARK Flexibility Score: inf
ROOT
ATOM      1  C   UNL A   1      43.941  41.656  31.801  1.00  0.00     0.042 C 
ENDROOT
BRANCH   1   2
ATOM      2  C   UNL A   1      43.405  42.138  30.452  1.00  0.00     0.118 C 
BRANCH   2   3
ATOM      3  N   UNL A   1      41.991  41.838  30.326  1.00  0.00    -0.352 N 
ATOM      4  C   UNL A   1      41.263  41.020  29.526  1.00  0.00     0.251 C 
ATOM      5  O   UNL A   1      40.041  41.063  29.693  1.00  0.00    -0.269 OA
ATOM      6  H   UNL A   1      41.436  42.341  30.964  1.00  0.00     0.163 HD
BRANCH   4   7
ATOM      7  C   UNL A   1      41.870  40.038  28.546  1.00  0.00     0.047 C 
ATOM      8  C   UNL A   1      42.285  38.808  28.928  1.00  0.00     0.022 C 
BRANCH   8   9
ATOM      9  C   UNL A   1      42.810  37.689  28.114  1.00  0.00    -0.025 A 
ATOM     10  C   UNL A   1      44.009  35.605  26.652  1.00  0.00     0.067 A 
ATOM     11  C   UNL A   1      42.755  35.415  27.230  1.00  0.00     0.021 A 
ATOM     12  C   UNL A   1      44.651  36.841  26.756  1.00  0.00     0.021 A 
ATOM     13  C   UNL A   1      42.152  36.466  27.933  1.00  0.00     0.009 A 
ATOM     14  C   UNL A   1      44.050  37.874  27.481  1.00  0.00     0.009 A 
BRANCH  10  15
ATOM     15  S   UNL A   1      44.864  34.300  25.802  1.00  0.00     0.175 S 
ATOM     16  C   UNL A   1      43.943  33.942  24.333  1.00  0.00     0.163 C 
ATOM     17  O   UNL A   1      44.772  33.125  26.646  1.00  0.00    -0.224 OA
ATOM     18  O   UNL A   1      46.149  34.838  25.396  1.00  0.00    -0.224 OA
ENDBRANCH  10  15
ENDBRANCH   8   9
BRANCH   7  19
ATOM     19  C   UNL A   1      42.172  40.561  27.190  1.00  0.00    -0.013 A 
ATOM     20  C   UNL A   1      41.160  40.511  26.223  1.00  0.00     0.009 A 
ATOM     21  C   UNL A   1      43.387  41.162  26.850  1.00  0.00     0.009 A 
ATOM     22  C   UNL A   1      41.344  41.072  24.960  1.00  0.00     0.009 A 
ATOM     23  C   UNL A   1      43.557  41.755  25.588  1.00  0.00     0.009 A 
ATOM     24  C   UNL A   1      42.533  41.735  24.621  1.00  0.00    -0.015 A 
BRANCH  24  25
ATOM     25  C   UNL A   1      42.664  42.391  23.302  1.00  0.00     0.018 A 
ATOM     26  C   UNL A   1      41.526  42.592  22.489  1.00  0.00     0.015 A 
ATOM     27  C   UNL A   1      43.900  42.817  22.784  1.00  0.00     0.133 A 
ATOM     28  C   UNL A   1      41.630  43.158  21.216  1.00  0.00     0.040 A 
ATOM     29  C   UNL A   1      44.010  43.391  21.518  1.00  0.00     0.079 A 
ATOM     30  F   UNL A   1      45.026  42.664  23.497  1.00  0.00    -0.206 F 
ATOM     31  C   UNL A   1      42.873  43.548  20.743  1.00  0.00     0.126 A 
ATOM     32  F   UNL A   1      42.975  44.083  19.519  1.00  0.00    -0.207 F 
ENDBRANCH  24  25
ENDBRANCH   7  19
ENDBRANCH   4   7
ENDBRANCH   2   3
ENDBRANCH   1   2
BRANCH   1  33
ATOM     33  C   UNL A   1      44.338  40.178  31.810  1.00  0.00     0.118 C 
BRANCH  33  34
ATOM     34  N   UNL A   1      45.737  39.989  32.159  1.00  0.00    -0.352 N 
ATOM     35  C   UNL A   1      46.460  38.833  32.310  1.00  0.00     0.251 C 
ATOM     36  H   UNL A   1      46.244  40.819  32.311  1.00  0.00     0.163 HD
ATOM     37  O   UNL A   1      47.565  38.880  32.845  1.00  0.00    -0.269 OA
BRANCH  35  38
ATOM     38  C   UNL A   1      45.919  37.538  31.841  1.00  0.00     0.039 A 
ATOM     39  C   UNL A   1      46.001  37.226  30.481  1.00  0.00     0.014 A 
ATOM     40  C   UNL A   1      45.287  36.657  32.724  1.00  0.00     0.014 A 
ATOM     41  C   UNL A   1      45.495  36.010  30.015  1.00  0.00     0.010 A 
ATOM     42  C   UNL A   1      44.843  35.418  32.269  1.00  0.00     0.010 A 
ATOM     43  C   UNL A   1      44.936  35.083  30.910  1.00  0.00    -0.014 A 
BRANCH  43  44
ATOM     44  C   UNL A   1      44.452  33.759  30.441  1.00  0.00     0.031 A 
ATOM     45  C   UNL A   1      42.982  33.441  30.438  1.00  0.00     0.074 A 
ATOM     46  C   UNL A   1      45.347  32.814  30.092  1.00  0.00     0.049 A 
ATOM     47  N   UNL A   1      42.380  32.323  30.117  1.00  0.00    -0.248 NA
ATOM     48  C   UNL A   1      42.070  34.508  30.881  1.00  0.00     0.031 C 
ATOM     49  C   UNL A   1      46.802  32.980  30.109  1.00  0.00     0.029 A 
ATOM     50  N   UNL A   1      45.165  31.521  29.671  1.00  0.00    -0.354 N 
ATOM     51  C   UNL A   1      41.027  32.543  30.345  1.00  0.00     0.074 A 
ATOM     52  C   UNL A   1      40.900  33.885  30.869  1.00  0.00     0.031 C 
ATOM     53  C   UNL A   1      47.379  31.838  29.706  1.00  0.00     0.029 A 
ATOM     54  C   UNL A   1      46.341  30.849  29.436  1.00  0.00     0.049 A 
ATOM     55  H   UNL A   1      44.277  31.114  29.548  1.00  0.00     0.167 HD
ATOM     56  C   UNL A   1      39.982  31.706  30.127  1.00  0.00     0.031 A 
ATOM     57  C   UNL A   1      46.563  29.575  29.057  1.00  0.00     0.031 A 
ATOM     58  C   UNL A   1      40.115  30.375  29.594  1.00  0.00     0.049 A 
ATOM     59  C   UNL A   1      45.392  28.673  28.792  1.00  0.00     0.074 A 
ATOM     60  C   UNL A   1      39.115  29.480  29.259  1.00  0.00     0.029 A 
ATOM     61  N   UNL A   1      41.321  29.744  29.330  1.00  0.00    -0.354 N 
ATOM     62  N   UNL A   1      44.112  28.929  28.923  1.00  0.00    -0.248 NA
ATOM     63  C   UNL A   1      45.693  27.318  28.311  1.00  0.00     0.031 C 
ATOM     64  C   UNL A   1      39.718  28.287  28.843  1.00  0.00     0.029 A 
ATOM     65  C   UNL A   1      41.093  28.459  28.865  1.00  0.00     0.049 A 
ATOM     66  H   UNL A   1      42.209  30.149  29.456  1.00  0.00     0.167 HD
ATOM     67  C   UNL A   1      43.452  27.772  28.526  1.00  0.00     0.074 A 
ATOM     68  C   UNL A   1      44.475  26.822  28.133  1.00  0.00     0.031 C 
ATOM     69  C   UNL A   1      42.121  27.519  28.489  1.00  0.00     0.031 A 
BRANCH  56  70
ATOM     70  C   UNL A   1      38.607  32.205  30.488  1.00  0.00    -0.014 A 
ATOM     71  C   UNL A   1      37.826  32.933  29.571  1.00  0.00     0.010 A 
ATOM     72  C   UNL A   1      38.081  31.931  31.764  1.00  0.00     0.010 A 
ATOM     73  C   UNL A   1      36.574  33.430  29.943  1.00  0.00     0.020 A 
ATOM     74  C   UNL A   1      36.815  32.400  32.130  1.00  0.00     0.020 A 
ATOM     75  C   UNL A   1      36.080  33.167  31.225  1.00  0.00     0.054 A 
BRANCH  75  76
ATOM     76  S   UNL A   1      34.457  33.832  31.686  1.00  0.00     0.124 S 
ATOM     77  O   UNL A   1      33.888  32.727  32.455  1.00  0.00    -0.237 OA
ATOM     78  O   UNL A   1      34.803  35.021  32.459  1.00  0.00    -0.237 OA
ATOM     79  O   UNL A   1      33.811  34.093  30.402  1.00  0.00    -0.744 OA
ENDBRANCH  75  76
ENDBRANCH  56  70
BRANCH  57  80
ATOM     80  C   UNL A   1      47.963  29.097  28.897  1.00  0.00    -0.014 A 
ATOM     81  C   UNL A   1      48.618  29.197  27.658  1.00  0.00     0.010 A 
ATOM     82  C   UNL A   1      48.669  28.597  30.007  1.00  0.00     0.010 A 
ATOM     83  C   UNL A   1      49.954  28.807  27.530  1.00  0.00     0.020 A 
ATOM     84  C   UNL A   1      50.013  28.230  29.889  1.00  0.00     0.020 A 
ATOM     85  C   UNL A   1      50.646  28.335  28.650  1.00  0.00     0.054 A 
BRANCH  85  86
ATOM     86  S   UNL A   1      52.405  27.922  28.483  1.00  0.00     0.124 S 
ATOM     87  O   UNL A   1      52.352  26.622  27.824  1.00  0.00    -0.237 OA
ATOM     88  O   UNL A   1      52.910  29.026  27.669  1.00  0.00    -0.237 OA
ATOM     89  O   UNL A   1      52.884  27.907  29.863  1.00  0.00    -0.744 OA
ENDBRANCH  85  86
ENDBRANCH  57  80
BRANCH  69  90
ATOM     90  C   UNL A   1      41.685  26.167  27.992  1.00  0.00    -0.014 A 
ATOM     91  C   UNL A   1      41.227  25.988  26.674  1.00  0.00     0.010 A 
ATOM     92  C   UNL A   1      41.789  25.049  28.840  1.00  0.00     0.010 A 
ATOM     93  C   UNL A   1      40.851  24.720  26.225  1.00  0.00     0.020 A 
ATOM     94  C   UNL A   1      41.440  23.775  28.384  1.00  0.00     0.020 A 
ATOM     95  C   UNL A   1      40.959  23.621  27.082  1.00  0.00     0.054 A 
BRANCH  95  96
ATOM     96  S   UNL A   1      40.506  21.978  26.460  1.00  0.00     0.124 S 
ATOM     97  O   UNL A   1      41.582  21.706  25.511  1.00  0.00    -0.237 OA
ATOM     98  O   UNL A   1      40.515  21.162  27.671  1.00  0.00    -0.237 OA
ATOM     99  O   UNL A   1      39.188  22.186  25.865  1.00  0.00    -0.744 OA
ENDBRANCH  95  96
ENDBRANCH  69  90
ENDBRANCH  43  44
ENDBRANCH  35  38
ENDBRANCH  33  34
ENDBRANCH   1  33
TORSDOF 17
ENDMDL
MODEL 3
REMARK VINA RESULT:     -11.1      5.578     12.583
REMARK SMILES CS(=O)(=O)c1ccc(/C=C(/C(=O)NCCCNC(=O)c2ccc(-c3c4nc(c(-c5ccc(S(=O)(=O)[O-])cc5)c5ccc([nH]5)c(-c5ccc(S(=O)(=O)[O-])cc5)c5nc(c(-c6ccc(S(=O)(=O)[O-])cc6)c6ccc3[nH]6)C=C5)C=C4)cc2)c2ccc(-c3ccc(F)cc3F)cc2)cc1
REMARK SMILES IDX 15 1 14 2 13 3 11 4 12 5 10 7 9 8 8 9 5 10 6 11 95 12 7 13
REMARK SMILES IDX 94 14 2 15 1 16 3 17 4 18 80 19 81 20 93 21 82 22 92 23
REMARK SMILES IDX 83 24 84 25 85 26 90 27 86 28 89 29 91 30 87 31 88 32 16 33
REMARK SMILES IDX 17 34 18 35 19 37 20 38 21 39 79 40 22 41 78 42 23 43 24 44
REMARK SMILES IDX 25 45 72 46 26 47 77 48 71 49 73 50 27 51 76 52 70 53 69 54
REMARK SMILES IDX 28 56 58 57 39 58 57 59 40 60 43 61 56 62 74 63 41 64 42 65
REMARK SMILES IDX 55 67 75 68 44 69 29 70 30 71 38 72 31 73 37 74 32 75 33 76
REMARK SMILES IDX 34 77 35 78 36 79 59 80 60 81 68 82 61 83 67 84 62 85 63 86
REMARK SMILES IDX 64 87 65 88 66 89 45 90 46 91 54 92 47 93 53 94 48 95 49 96
REMARK SMILES IDX 50 97 51 98 52 99
REMARK H PARENT 13 6 17 36 73 55 43 66
REMARK Flexibility Score: inf
ROOT
ATOM      1  C   UNL A   1      43.897  40.884  31.931  1.00  0.00     0.042 C 
ENDROOT
BRANCH   1   2
ATOM      2  C   UNL A   1      43.352  41.891  30.916  1.00  0.00     0.118 C 
BRANCH   2   3
ATOM      3  N   UNL A   1      41.949  41.638  30.648  1.00  0.00    -0.352 N 
ATOM      4  C   UNL A   1      41.277  40.897  29.732  1.00  0.00     0.251 C 
ATOM      5  O   UNL A   1      40.046  40.961  29.795  1.00  0.00    -0.269 OA
ATOM      6  H   UNL A   1      41.350  42.111  31.270  1.00  0.00     0.163 HD
BRANCH   4   7
ATOM      7  C   UNL A   1      41.947  39.968  28.742  1.00  0.00     0.047 C 
ATOM      8  C   UNL A   1      42.412  38.750  29.102  1.00  0.00     0.022 C 
BRANCH   8   9
ATOM      9  C   UNL A   1      43.004  37.676  28.274  1.00  0.00    -0.025 A 
ATOM     10  C   UNL A   1      43.924  35.583  26.633  1.00  0.00     0.067 A 
ATOM     11  C   UNL A   1      44.628  36.784  26.686  1.00  0.00     0.021 A 
ATOM     12  C   UNL A   1      42.791  35.399  27.428  1.00  0.00     0.021 A 
ATOM     13  C   UNL A   1      44.180  37.813  27.525  1.00  0.00     0.009 A 
ATOM     14  C   UNL A   1      42.339  36.440  28.244  1.00  0.00     0.009 A 
BRANCH  10  15
ATOM     15  S   UNL A   1      44.394  34.260  25.545  1.00  0.00     0.175 S 
ATOM     16  C   UNL A   1      44.458  32.781  26.516  1.00  0.00     0.163 C 
ATOM     17  O   UNL A   1      45.753  34.536  25.119  1.00  0.00    -0.224 OA
ATOM     18  O   UNL A   1      43.319  34.109  24.582  1.00  0.00    -0.224 OA
ENDBRANCH  10  15
ENDBRANCH   8   9
BRANCH   7  19
ATOM     19  C   UNL A   1      42.250  40.538  27.404  1.00  0.00    -0.013 A 
ATOM     20  C   UNL A   1      41.252  40.484  26.423  1.00  0.00     0.009 A 
ATOM     21  C   UNL A   1      43.451  41.184  27.097  1.00  0.00     0.009 A 
ATOM     22  C   UNL A   1      41.434  41.085  25.179  1.00  0.00     0.009 A 
ATOM     23  C   UNL A   1      43.618  41.816  25.854  1.00  0.00     0.009 A 
ATOM     24  C   UNL A   1      42.607  41.793  24.874  1.00  0.00    -0.015 A 
BRANCH  24  25
ATOM     25  C   UNL A   1      42.734  42.489  23.575  1.00  0.00     0.018 A 
ATOM     26  C   UNL A   1      41.788  42.267  22.550  1.00  0.00     0.015 A 
ATOM     27  C   UNL A   1      43.793  43.368  23.284  1.00  0.00     0.133 A 
ATOM     28  C   UNL A   1      41.916  42.868  21.296  1.00  0.00     0.040 A 
ATOM     29  C   UNL A   1      43.923  43.979  22.038  1.00  0.00     0.079 A 
ATOM     30  F   UNL A   1      44.731  43.633  24.206  1.00  0.00    -0.206 F 
ATOM     31  C   UNL A   1      42.986  43.716  21.052  1.00  0.00     0.126 A 
ATOM     32  F   UNL A   1      43.114  44.286  19.847  1.00  0.00    -0.207 F 
ENDBRANCH  24  25
ENDBRANCH   7  19
ENDBRANCH   4   7
ENDBRANCH   2   3
ENDBRANCH   1   2
BRANCH   1  33
ATOM     33  C   UNL A   1      44.680  39.735  31.293  1.00  0.00     0.118 C 
BRANCH  33  34
ATOM     34  N   UNL A   1      46.020  39.612  31.846  1.00  0.00    -0.352 N 
ATOM     35  C   UNL A   1      46.735  38.491  32.185  1.00  0.00     0.251 C 
ATOM     36  H   UNL A   1      46.486  40.465  32.001  1.00  0.00     0.163 HD
ATOM     37  O   UNL A   1      47.753  38.609  32.862  1.00  0.00    -0.269 OA
BRANCH  35  38
ATOM     38  C   UNL A   1      46.288  37.150  31.748  1.00  0.00     0.039 A 
ATOM     39  C   UNL A   1      46.048  36.171  32.716  1.00  0.00     0.014 A 
ATOM     40  C   UNL A   1      46.157  36.839  30.391  1.00  0.00     0.014 A 
ATOM     41  C   UNL A   1      45.628  34.897  32.327  1.00  0.00     0.010 A 
ATOM     42  C   UNL A   1      45.675  35.590  30.008  1.00  0.00     0.010 A 
ATOM     43  C   UNL A   1      45.412  34.603  30.971  1.00  0.00    -0.014 A 
BRANCH  43  44
ATOM     44  C   UNL A   1      44.904  33.274  30.544  1.00  0.00     0.031 A 
ATOM     45  C   UNL A   1      45.846  32.235  30.000  1.00  0.00     0.074 A 
ATOM     46  C   UNL A   1      43.578  33.032  30.574  1.00  0.00     0.049 A 
ATOM     47  N   UNL A   1      45.577  31.043  29.529  1.00  0.00    -0.248 NA
ATOM     48  C   UNL A   1      47.273  32.592  29.952  1.00  0.00     0.031 C 
ATOM     49  C   UNL A   1      42.557  33.980  31.024  1.00  0.00     0.029 A 
ATOM     50  N   UNL A   1      42.862  31.922  30.203  1.00  0.00    -0.354 N 
ATOM     51  C   UNL A   1      46.793  30.521  29.104  1.00  0.00     0.074 A 
ATOM     52  C   UNL A   1      47.793  31.540  29.337  1.00  0.00     0.031 C 
ATOM     53  C   UNL A   1      41.348  33.408  30.913  1.00  0.00     0.029 A 
ATOM     54  C   UNL A   1      41.504  32.069  30.354  1.00  0.00     0.049 A 
ATOM     55  H   UNL A   1      43.282  31.099  29.862  1.00  0.00     0.167 HD
ATOM     56  C   UNL A   1      47.055  29.298  28.579  1.00  0.00     0.031 A 
ATOM     57  C   UNL A   1      40.492  31.227  30.064  1.00  0.00     0.031 A 
ATOM     58  C   UNL A   1      46.056  28.285  28.361  1.00  0.00     0.049 A 
ATOM     59  C   UNL A   1      40.806  29.867  29.510  1.00  0.00     0.074 A 
ATOM     60  C   UNL A   1      46.231  26.988  27.913  1.00  0.00     0.029 A 
ATOM     61  N   UNL A   1      44.695  28.457  28.565  1.00  0.00    -0.354 N 
ATOM     62  N   UNL A   1      41.973  29.354  29.202  1.00  0.00    -0.248 NA
ATOM     63  C   UNL A   1      39.669  28.965  29.282  1.00  0.00     0.031 C 
ATOM     64  C   UNL A   1      44.969  26.393  27.794  1.00  0.00     0.029 A 
ATOM     65  C   UNL A   1      44.014  27.300  28.223  1.00  0.00     0.049 A 
ATOM     66  H   UNL A   1      44.275  29.281  28.902  1.00  0.00     0.167 HD
ATOM     67  C   UNL A   1      41.714  28.063  28.758  1.00  0.00     0.074 A 
ATOM     68  C   UNL A   1      40.281  27.867  28.855  1.00  0.00     0.031 C 
ATOM     69  C   UNL A   1      42.585  27.124  28.311  1.00  0.00     0.031 A 
BRANCH  56  70
ATOM     70  C   UNL A   1      48.479  29.004  28.184  1.00  0.00    -0.014 A 
ATOM     71  C   UNL A   1      48.984  29.379  26.925  1.00  0.00     0.010 A 
ATOM     72  C   UNL A   1      49.332  28.350  29.093  1.00  0.00     0.010 A 
ATOM     73  C   UNL A   1      50.294  29.053  26.560  1.00  0.00     0.020 A 
ATOM     74  C   UNL A   1      50.652  28.050  28.743  1.00  0.00     0.020 A 
ATOM     75  C   UNL A   1      51.116  28.381  27.469  1.00  0.00     0.054 A 
BRANCH  75  76
ATOM     76  S   UNL A   1      52.807  27.960  26.967  1.00  0.00     0.124 S 
ATOM     77  O   UNL A   1      52.854  26.526  27.242  1.00  0.00    -0.237 OA
ATOM     78  O   UNL A   1      52.825  28.329  25.554  1.00  0.00    -0.237 OA
ATOM     79  O   UNL A   1      53.643  28.787  27.834  1.00  0.00    -0.744 OA
ENDBRANCH  75  76
ENDBRANCH  56  70
BRANCH  57  80
ATOM     80  C   UNL A   1      39.091  31.661  30.312  1.00  0.00    -0.014 A 
ATOM     81  C   UNL A   1      38.530  31.574  31.597  1.00  0.00     0.010 A 
ATOM     82  C   UNL A   1      38.331  32.224  29.269  1.00  0.00     0.010 A 
ATOM     83  C   UNL A   1      37.236  32.043  31.837  1.00  0.00     0.020 A 
ATOM     84  C   UNL A   1      37.047  32.718  29.511  1.00  0.00     0.020 A 
ATOM     85  C   UNL A   1      36.505  32.622  30.794  1.00  0.00     0.054 A 
BRANCH  85  86
ATOM     86  S   UNL A   1      34.864  33.309  31.150  1.00  0.00     0.124 S 
ATOM     87  O   UNL A   1      34.309  32.315  32.062  1.00  0.00    -0.237 OA
ATOM     88  O   UNL A   1      35.188  34.605  31.743  1.00  0.00    -0.237 OA
ATOM     89  O   UNL A   1      34.231  33.376  29.834  1.00  0.00    -0.744 OA
ENDBRANCH  85  86
ENDBRANCH  57  80
BRANCH  69  90
ATOM     90  C   UNL A   1      42.017  25.790  27.907  1.00  0.00    -0.014 A 
ATOM     91  C   UNL A   1      41.536  25.568  26.604  1.00  0.00     0.010 A 
ATOM     92  C   UNL A   1      42.016  24.728  28.829  1.00  0.00     0.010 A 
ATOM     93  C   UNL A   1      41.036  24.315  26.241  1.00  0.00     0.020 A 
ATOM     94  C   UNL A   1      41.542  23.465  28.461  1.00  0.00     0.020 A 
ATOM     95  C   UNL A   1      41.041  23.271  27.172  1.00  0.00     0.054 A 
BRANCH  95  96
ATOM     96  S   UNL A   1      40.427  21.642  26.663  1.00  0.00     0.124 S 
ATOM     97  O   UNL A   1      41.269  21.348  25.507  1.00  0.00    -0.237 OA
ATOM     98  O   UNL A   1      40.674  20.821  27.845  1.00  0.00    -0.237 OA
ATOM     99  O   UNL A   1      39.018  21.883  26.362  1.00  0.00    -0.744 OA
ENDBRANCH  95  96
ENDBRANCH  69  90
ENDBRANCH  43  44
ENDBRANCH  35  38
ENDBRANCH  33  34
ENDBRANCH   1  33
TORSDOF 17
ENDMDL
