MODEL 1
REMARK VINA RESULT:     -11.9      0.000      0.000
REMARK SMILES O=C(NCCCNC(=O)[C@@H](c1ccccc1)[C@H](C(=O)c1ccccc1)c1ccccc1)c1ccc(-c2c3nc(c(-c4ccc(S(=O)(=O)[O-])cc4)c4ccc([nH]4)c(-c4ccc(S(=O)(=O)[O-])cc4)c4nc(c(-c5ccc(S(=O)(=O)[O-])cc5)c5ccc2[nH]5)C=C4)C=C3)cc1
REMARK SMILES IDX 5 1 4 2 3 3 1 4 2 5 32 7 33 8 91 9 34 10 90 11 35 12 36 13
REMARK SMILES IDX 37 14 84 15 38 16 89 17 83 18 85 19 39 20 88 21 82 22 81 23
REMARK SMILES IDX 40 25 70 26 51 27 69 28 52 29 55 30 68 31 86 32 53 33 54 34
REMARK SMILES IDX 67 36 87 37 56 38 41 39 42 40 50 41 43 42 49 43 44 44 45 45
REMARK SMILES IDX 46 46 47 47 48 48 71 49 72 50 80 51 73 52 79 53 74 54 75 55
REMARK SMILES IDX 76 56 77 57 78 58 57 59 58 60 66 61 59 62 65 63 60 64 61 65
REMARK SMILES IDX 62 66 63 67 64 68 6 69 7 70 8 71 9 73 10 74 11 75 12 76
REMARK SMILES IDX 16 77 13 78 15 79 14 80 17 81 26 82 27 83 31 84 28 85 30 86
REMARK SMILES IDX 29 87 18 88 19 89 20 90 21 91 25 92 22 93 24 94 23 95
REMARK H PARENT 3 6 85 24 55 35 7 72
REMARK Flexibility Score: inf
ROOT
ATOM      1  C   UNL A   1      33.251  27.265  25.892  1.00  0.00     0.042 C 
ENDROOT
BRANCH   1   2
ATOM      2  C   UNL A   1      34.337  28.128  26.505  1.00  0.00     0.118 C 
BRANCH   2   3
ATOM      3  N   UNL A   1      33.857  29.462  26.859  1.00  0.00    -0.352 N 
ATOM      4  O   UNL A   1      33.810  31.386  28.044  1.00  0.00    -0.269 OA
ATOM      5  C   UNL A   1      34.430  30.400  27.691  1.00  0.00     0.251 C 
ATOM      6  H   UNL A   1      33.003  29.728  26.446  1.00  0.00     0.163 HD
BRANCH   5   7
ATOM      7  C   UNL A   1      35.810  30.157  28.157  1.00  0.00     0.039 A 
ATOM      8  C   UNL A   1      36.873  30.424  27.297  1.00  0.00     0.014 A 
ATOM      9  C   UNL A   1      36.036  29.594  29.414  1.00  0.00     0.014 A 
ATOM     10  C   UNL A   1      38.123  29.916  27.588  1.00  0.00     0.010 A 
ATOM     11  C   UNL A   1      37.337  29.236  29.776  1.00  0.00     0.010 A 
ATOM     12  C   UNL A   1      38.385  29.364  28.850  1.00  0.00    -0.014 A 
BRANCH  12  13
ATOM     13  C   UNL A   1      39.789  29.033  29.193  1.00  0.00     0.031 A 
ATOM     14  C   UNL A   1      40.656  29.983  29.969  1.00  0.00     0.074 A 
ATOM     15  C   UNL A   1      40.252  27.822  28.821  1.00  0.00     0.049 A 
ATOM     16  N   UNL A   1      41.907  29.837  30.326  1.00  0.00    -0.248 NA
ATOM     17  C   UNL A   1      40.058  31.261  30.387  1.00  0.00     0.031 C 
ATOM     18  C   UNL A   1      39.485  26.822  28.065  1.00  0.00     0.029 A 
ATOM     19  N   UNL A   1      41.450  27.205  29.054  1.00  0.00    -0.354 N 
ATOM     20  C   UNL A   1      42.259  31.016  30.972  1.00  0.00     0.074 A 
ATOM     21  C   UNL A   1      41.092  31.871  30.956  1.00  0.00     0.031 C 
ATOM     22  C   UNL A   1      40.198  25.694  27.974  1.00  0.00     0.029 A 
ATOM     23  C   UNL A   1      41.508  25.922  28.564  1.00  0.00     0.049 A 
ATOM     24  H   UNL A   1      42.198  27.636  29.527  1.00  0.00     0.167 HD
ATOM     25  C   UNL A   1      43.454  31.350  31.519  1.00  0.00     0.031 A 
ATOM     26  C   UNL A   1      42.515  25.032  28.553  1.00  0.00     0.031 A 
ATOM     27  C   UNL A   1      44.600  30.478  31.535  1.00  0.00     0.049 A 
ATOM     28  C   UNL A   1      43.824  25.433  29.154  1.00  0.00     0.074 A 
ATOM     29  C   UNL A   1      45.853  30.711  32.073  1.00  0.00     0.029 A 
ATOM     30  N   UNL A   1      44.632  29.202  30.989  1.00  0.00    -0.354 N 
ATOM     31  N   UNL A   1      44.141  26.559  29.747  1.00  0.00    -0.248 NA
ATOM     32  C   UNL A   1      44.914  24.456  29.073  1.00  0.00     0.031 C 
ATOM     33  C   UNL A   1      46.656  29.594  31.816  1.00  0.00     0.029 A 
ATOM     34  C   UNL A   1      45.888  28.643  31.162  1.00  0.00     0.049 A 
ATOM     35  H   UNL A   1      43.874  28.758  30.544  1.00  0.00     0.167 HD
ATOM     36  C   UNL A   1      45.471  26.428  30.113  1.00  0.00     0.074 A 
ATOM     37  C   UNL A   1      45.888  25.100  29.700  1.00  0.00     0.031 C 
ATOM     38  C   UNL A   1      46.278  27.325  30.730  1.00  0.00     0.031 A 
BRANCH  25  39
ATOM     39  C   UNL A   1      43.595  32.730  32.109  1.00  0.00    -0.014 A 
ATOM     40  C   UNL A   1      43.304  32.984  33.461  1.00  0.00     0.010 A 
ATOM     41  C   UNL A   1      44.073  33.781  31.304  1.00  0.00     0.010 A 
ATOM     42  C   UNL A   1      43.453  34.273  33.987  1.00  0.00     0.020 A 
ATOM     43  C   UNL A   1      44.246  35.065  31.832  1.00  0.00     0.020 A 
ATOM     44  C   UNL A   1      43.919  35.306  33.167  1.00  0.00     0.054 A 
BRANCH  44  45
ATOM     45  S   UNL A   1      44.120  36.963  33.879  1.00  0.00     0.124 S 
ATOM     46  O   UNL A   1      43.209  36.913  35.019  1.00  0.00    -0.237 OA
ATOM     47  O   UNL A   1      45.542  36.999  34.214  1.00  0.00    -0.237 OA
ATOM     48  O   UNL A   1      43.715  37.857  32.798  1.00  0.00    -0.744 OA
ENDBRANCH  44  45
ENDBRANCH  25  39
BRANCH  26  49
ATOM     49  C   UNL A   1      42.312  23.705  27.913  1.00  0.00    -0.014 A 
ATOM     50  C   UNL A   1      42.710  23.482  26.585  1.00  0.00     0.010 A 
ATOM     51  C   UNL A   1      41.777  22.637  28.658  1.00  0.00     0.010 A 
ATOM     52  C   UNL A   1      42.572  22.214  26.011  1.00  0.00     0.020 A 
ATOM     53  C   UNL A   1      41.669  21.363  28.100  1.00  0.00     0.020 A 
ATOM     54  C   UNL A   1      42.057  21.161  26.775  1.00  0.00     0.054 A 
BRANCH  54  55
ATOM     55  S   UNL A   1      41.957  19.507  26.038  1.00  0.00     0.124 S 
ATOM     56  O   UNL A   1      40.534  19.399  25.732  1.00  0.00    -0.237 OA
ATOM     57  O   UNL A   1      42.847  19.618  24.884  1.00  0.00    -0.237 OA
ATOM     58  O   UNL A   1      42.439  18.630  27.102  1.00  0.00    -0.744 OA
ENDBRANCH  54  55
ENDBRANCH  26  49
BRANCH  38  59
ATOM     59  C   UNL A   1      47.686  26.883  31.008  1.00  0.00    -0.014 A 
ATOM     60  C   UNL A   1      48.725  27.167  30.104  1.00  0.00     0.010 A 
ATOM     61  C   UNL A   1      47.975  26.197  32.201  1.00  0.00     0.010 A 
ATOM     62  C   UNL A   1      50.026  26.742  30.374  1.00  0.00     0.020 A 
ATOM     63  C   UNL A   1      49.280  25.793  32.486  1.00  0.00     0.020 A 
ATOM     64  C   UNL A   1      50.295  26.055  31.562  1.00  0.00     0.054 A 
BRANCH  64  65
ATOM     65  S   UNL A   1      51.999  25.542  31.910  1.00  0.00     0.124 S 
ATOM     66  O   UNL A   1      52.337  26.380  33.058  1.00  0.00    -0.237 OA
ATOM     67  O   UNL A   1      51.854  24.116  32.194  1.00  0.00    -0.237 OA
ATOM     68  O   UNL A   1      52.713  25.856  30.676  1.00  0.00    -0.744 OA
ENDBRANCH  64  65
ENDBRANCH  38  59
ENDBRANCH  12  13
ENDBRANCH   5   7
ENDBRANCH   2   3
ENDBRANCH   1   2
BRANCH   1  69
ATOM     69  C   UNL A   1      33.682  25.821  25.861  1.00  0.00     0.117 C 
BRANCH  69  70
ATOM     70  N   UNL A   1      32.775  24.992  26.637  1.00  0.00    -0.355 N 
ATOM     71  C   UNL A   1      31.909  24.021  26.258  1.00  0.00     0.228 C 
ATOM     72  H   UNL A   1      32.791  25.165  27.606  1.00  0.00     0.163 HD
ATOM     73  O   UNL A   1      31.225  23.489  27.139  1.00  0.00    -0.274 OA
BRANCH  71  74
ATOM     74  C   UNL A   1      31.762  23.587  24.798  1.00  0.00     0.124 C 
BRANCH  74  75
ATOM     75  C   UNL A   1      31.321  24.835  24.016  1.00  0.00    -0.035 A 
ATOM     76  C   UNL A   1      30.236  25.646  24.392  1.00  0.00     0.004 A 
ATOM     77  C   UNL A   1      31.982  25.166  22.814  1.00  0.00     0.004 A 
ATOM     78  C   UNL A   1      29.820  26.726  23.607  1.00  0.00     0.000 A 
ATOM     79  C   UNL A   1      31.581  26.262  22.041  1.00  0.00     0.000 A 
ATOM     80  C   UNL A   1      30.495  27.036  22.433  1.00  0.00     0.000 A 
ENDBRANCH  74  75
BRANCH  74  81
ATOM     81  C   UNL A   1      32.736  22.424  24.272  1.00  0.00     0.108 C 
BRANCH  81  82
ATOM     82  C   UNL A   1      34.287  22.621  24.393  1.00  0.00    -0.036 A 
ATOM     83  C   UNL A   1      35.032  23.061  23.277  1.00  0.00     0.004 A 
ATOM     84  C   UNL A   1      35.040  22.421  25.559  1.00  0.00     0.004 A 
ATOM     85  C   UNL A   1      36.434  23.104  23.276  1.00  0.00     0.000 A 
ATOM     86  C   UNL A   1      36.442  22.442  25.568  1.00  0.00     0.000 A 
ATOM     87  C   UNL A   1      37.142  22.756  24.417  1.00  0.00     0.000 A 
ENDBRANCH  81  82
BRANCH  81  88
ATOM     88  C   UNL A   1      32.325  20.934  24.646  1.00  0.00     0.171 C 
ATOM     89  O   UNL A   1      31.466  20.702  25.506  1.00  0.00    -0.293 OA
BRANCH  88  90
ATOM     90  C   UNL A   1      32.857  19.692  23.968  1.00  0.00     0.018 A 
ATOM     91  C   UNL A   1      33.906  19.020  24.638  1.00  0.00     0.012 A 
ATOM     92  C   UNL A   1      32.273  19.074  22.864  1.00  0.00     0.012 A 
ATOM     93  C   UNL A   1      34.240  17.701  24.332  1.00  0.00     0.001 A 
ATOM     94  C   UNL A   1      32.615  17.745  22.556  1.00  0.00     0.001 A 
ATOM     95  C   UNL A   1      33.567  17.052  23.308  1.00  0.00     0.000 A 
ENDBRANCH  88  90
ENDBRANCH  81  88
ENDBRANCH  74  81
ENDBRANCH  71  74
ENDBRANCH  69  70
ENDBRANCH   1  69
TORSDOF 18
ENDMDL
MODEL 2
REMARK VINA RESULT:     -11.9      4.279      9.871
REMARK SMILES O=C(NCCCNC(=O)[C@@H](c1ccccc1)[C@H](C(=O)c1ccccc1)c1ccccc1)c1ccc(-c2c3nc(c(-c4ccc(S(=O)(=O)[O-])cc4)c4ccc([nH]4)c(-c4ccc(S(=O)(=O)[O-])cc4)c4nc(c(-c5ccc(S(=O)(=O)[O-])cc5)c5ccc2[nH]5)C=C4)C=C3)cc1
REMARK SMILES IDX 5 1 4 2 3 3 1 4 2 5 32 7 33 8 91 9 34 10 90 11 35 12 36 13
REMARK SMILES IDX 37 14 84 15 38 16 89 17 83 18 85 19 39 20 88 21 82 22 81 23
REMARK SMILES IDX 40 25 70 26 51 27 69 28 52 29 55 30 68 31 86 32 53 33 54 34
REMARK SMILES IDX 67 36 87 37 56 38 41 39 42 40 50 41 43 42 49 43 44 44 45 45
REMARK SMILES IDX 46 46 47 47 48 48 71 49 72 50 80 51 73 52 79 53 74 54 75 55
REMARK SMILES IDX 76 56 77 57 78 58 57 59 58 60 66 61 59 62 65 63 60 64 61 65
REMARK SMILES IDX 62 66 63 67 64 68 6 69 7 70 8 71 9 73 10 74 11 75 12 76
REMARK SMILES IDX 16 77 13 78 15 79 14 80 17 81 26 82 27 83 31 84 28 85 30 86
REMARK SMILES IDX 29 87 18 88 19 89 20 90 21 91 25 92 22 93 24 94 23 95
REMARK H PARENT 3 6 85 24 55 35 7 72
REMARK Flexibility Score: inf
ROOT
ATOM      1  C   UNL A   1      37.847  22.987  26.066  1.00  0.00     0.042 C 
ENDROOT
BRANCH   1   2
ATOM      2  C   UNL A   1      38.547  24.217  26.613  1.00  0.00     0.118 C 
BRANCH   2   3
ATOM      3  N   UNL A   1      39.805  24.496  25.924  1.00  0.00    -0.352 N 
ATOM      4  O   UNL A   1      41.580  25.750  25.307  1.00  0.00    -0.269 OA
ATOM      5  C   UNL A   1      40.675  25.551  26.095  1.00  0.00     0.251 C 
ATOM      6  H   UNL A   1      40.068  23.836  25.241  1.00  0.00     0.163 HD
BRANCH   5   7
ATOM      7  C   UNL A   1      40.457  26.444  27.251  1.00  0.00     0.039 A 
ATOM      8  C   UNL A   1      41.057  27.701  27.259  1.00  0.00     0.014 A 
ATOM      9  C   UNL A   1      39.724  25.999  28.352  1.00  0.00     0.014 A 
ATOM     10  C   UNL A   1      41.127  28.411  28.441  1.00  0.00     0.010 A 
ATOM     11  C   UNL A   1      39.654  26.801  29.493  1.00  0.00     0.010 A 
ATOM     12  C   UNL A   1      40.385  27.998  29.557  1.00  0.00    -0.014 A 
BRANCH  12  13
ATOM     13  C   UNL A   1      40.319  28.905  30.729  1.00  0.00     0.031 A 
ATOM     14  C   UNL A   1      41.300  28.804  31.861  1.00  0.00     0.074 A 
ATOM     15  C   UNL A   1      39.369  29.863  30.721  1.00  0.00     0.049 A 
ATOM     16  N   UNL A   1      41.355  29.516  32.957  1.00  0.00    -0.248 NA
ATOM     17  C   UNL A   1      42.343  27.769  31.766  1.00  0.00     0.031 C 
ATOM     18  C   UNL A   1      38.367  30.048  29.663  1.00  0.00     0.029 A 
ATOM     19  N   UNL A   1      39.107  30.880  31.598  1.00  0.00    -0.354 N 
ATOM     20  C   UNL A   1      42.406  28.994  33.701  1.00  0.00     0.074 A 
ATOM     21  C   UNL A   1      42.961  27.899  32.934  1.00  0.00     0.031 C 
ATOM     22  C   UNL A   1      37.662  31.158  29.910  1.00  0.00     0.029 A 
ATOM     23  C   UNL A   1      38.082  31.700  31.193  1.00  0.00     0.049 A 
ATOM     24  H   UNL A   1      39.604  31.011  32.438  1.00  0.00     0.167 HD
ATOM     25  C   UNL A   1      42.855  29.391  34.917  1.00  0.00     0.031 A 
ATOM     26  C   UNL A   1      37.511  32.756  31.798  1.00  0.00     0.031 A 
ATOM     27  C   UNL A   1      42.295  30.491  35.658  1.00  0.00     0.049 A 
ATOM     28  C   UNL A   1      38.021  33.163  33.144  1.00  0.00     0.074 A 
ATOM     29  C   UNL A   1      42.681  30.986  36.891  1.00  0.00     0.029 A 
ATOM     30  N   UNL A   1      41.228  31.272  35.232  1.00  0.00    -0.354 N 
ATOM     31  N   UNL A   1      39.007  32.645  33.836  1.00  0.00    -0.248 NA
ATOM     32  C   UNL A   1      37.336  34.282  33.796  1.00  0.00     0.031 C 
ATOM     33  C   UNL A   1      41.822  32.037  37.231  1.00  0.00     0.029 A 
ATOM     34  C   UNL A   1      40.932  32.231  36.186  1.00  0.00     0.049 A 
ATOM     35  H   UNL A   1      40.751  31.160  34.378  1.00  0.00     0.167 HD
ATOM     36  C   UNL A   1      39.064  33.377  35.012  1.00  0.00     0.074 A 
ATOM     37  C   UNL A   1      38.031  34.393  34.920  1.00  0.00     0.031 C 
ATOM     38  C   UNL A   1      39.891  33.222  36.074  1.00  0.00     0.031 A 
BRANCH  25  39
ATOM     39  C   UNL A   1      43.980  28.606  35.541  1.00  0.00    -0.014 A 
ATOM     40  C   UNL A   1      45.325  28.970  35.346  1.00  0.00     0.010 A 
ATOM     41  C   UNL A   1      43.683  27.512  36.375  1.00  0.00     0.010 A 
ATOM     42  C   UNL A   1      46.352  28.231  35.945  1.00  0.00     0.020 A 
ATOM     43  C   UNL A   1      44.705  26.786  36.994  1.00  0.00     0.020 A 
ATOM     44  C   UNL A   1      46.036  27.140  36.762  1.00  0.00     0.054 A 
BRANCH  44  45
ATOM     45  S   UNL A   1      47.386  26.210  37.540  1.00  0.00     0.124 S 
ATOM     46  O   UNL A   1      46.960  26.175  38.937  1.00  0.00    -0.237 OA
ATOM     47  O   UNL A   1      47.340  24.929  36.838  1.00  0.00    -0.237 OA
ATOM     48  O   UNL A   1      48.568  27.023  37.269  1.00  0.00    -0.744 OA
ENDBRANCH  44  45
ENDBRANCH  25  39
BRANCH  26  49
ATOM     49  C   UNL A   1      36.376  33.452  31.138  1.00  0.00    -0.014 A 
ATOM     50  C   UNL A   1      35.228  33.801  31.868  1.00  0.00     0.010 A 
ATOM     51  C   UNL A   1      36.469  33.828  29.785  1.00  0.00     0.010 A 
ATOM     52  C   UNL A   1      34.191  34.511  31.255  1.00  0.00     0.020 A 
ATOM     53  C   UNL A   1      35.451  34.566  29.178  1.00  0.00     0.020 A 
ATOM     54  C   UNL A   1      34.312  34.893  29.915  1.00  0.00     0.054 A 
BRANCH  54  55
ATOM     55  S   UNL A   1      32.990  35.878  29.158  1.00  0.00     0.124 S 
ATOM     56  O   UNL A   1      33.740  36.974  28.552  1.00  0.00    -0.237 OA
ATOM     57  O   UNL A   1      32.383  34.933  28.224  1.00  0.00    -0.237 OA
ATOM     58  O   UNL A   1      32.147  36.246  30.294  1.00  0.00    -0.744 OA
ENDBRANCH  54  55
ENDBRANCH  26  49
BRANCH  38  59
ATOM     59  C   UNL A   1      39.716  34.189  37.209  1.00  0.00    -0.014 A 
ATOM     60  C   UNL A   1      39.043  33.812  38.384  1.00  0.00     0.010 A 
ATOM     61  C   UNL A   1      40.257  35.483  37.106  1.00  0.00     0.010 A 
ATOM     62  C   UNL A   1      38.883  34.726  39.426  1.00  0.00     0.020 A 
ATOM     63  C   UNL A   1      40.120  36.392  38.157  1.00  0.00     0.020 A 
ATOM     64  C   UNL A   1      39.420  36.011  39.304  1.00  0.00     0.054 A 
BRANCH  64  65
ATOM     65  S   UNL A   1      39.232  37.173  40.684  1.00  0.00     0.124 S 
ATOM     66  O   UNL A   1      38.350  38.185  40.108  1.00  0.00    -0.237 OA
ATOM     67  O   UNL A   1      38.635  36.340  41.727  1.00  0.00    -0.237 OA
ATOM     68  O   UNL A   1      40.598  37.614  40.953  1.00  0.00    -0.744 OA
ENDBRANCH  64  65
ENDBRANCH  38  59
ENDBRANCH  12  13
ENDBRANCH   5   7
ENDBRANCH   2   3
ENDBRANCH   1   2
BRANCH   1  69
ATOM     69  C   UNL A   1      36.401  23.295  25.768  1.00  0.00     0.117 C 
BRANCH  69  70
ATOM     70  N   UNL A   1      35.549  22.918  26.883  1.00  0.00    -0.355 N 
ATOM     71  C   UNL A   1      34.200  22.866  26.997  1.00  0.00     0.228 C 
ATOM     72  H   UNL A   1      36.035  22.655  27.698  1.00  0.00     0.163 HD
ATOM     73  O   UNL A   1      33.731  22.533  28.091  1.00  0.00    -0.274 OA
BRANCH  71  74
ATOM     74  C   UNL A   1      33.271  23.208  25.831  1.00  0.00     0.124 C 
BRANCH  74  75
ATOM     75  C   UNL A   1      33.020  24.724  25.905  1.00  0.00    -0.035 A 
ATOM     76  C   UNL A   1      33.989  25.689  25.582  1.00  0.00     0.004 A 
ATOM     77  C   UNL A   1      31.781  25.196  26.387  1.00  0.00     0.004 A 
ATOM     78  C   UNL A   1      33.745  27.056  25.741  1.00  0.00     0.000 A 
ATOM     79  C   UNL A   1      31.527  26.566  26.523  1.00  0.00     0.000 A 
ATOM     80  C   UNL A   1      32.513  27.495  26.208  1.00  0.00     0.000 A 
ENDBRANCH  74  75
BRANCH  74  81
ATOM     81  C   UNL A   1      33.406  22.326  24.495  1.00  0.00     0.108 C 
BRANCH  81  82
ATOM     82  C   UNL A   1      33.505  20.766  24.623  1.00  0.00    -0.036 A 
ATOM     83  C   UNL A   1      34.771  20.140  24.651  1.00  0.00     0.004 A 
ATOM     84  C   UNL A   1      32.415  19.893  24.743  1.00  0.00     0.004 A 
ATOM     85  C   UNL A   1      34.922  18.747  24.604  1.00  0.00     0.000 A 
ATOM     86  C   UNL A   1      32.552  18.499  24.678  1.00  0.00     0.000 A 
ATOM     87  C   UNL A   1      33.807  17.924  24.580  1.00  0.00     0.000 A 
ENDBRANCH  81  82
BRANCH  81  88
ATOM     88  C   UNL A   1      32.465  22.735  23.280  1.00  0.00     0.171 C 
ATOM     89  O   UNL A   1      31.716  21.910  22.742  1.00  0.00    -0.293 OA
BRANCH  88  90
ATOM     90  C   UNL A   1      32.328  24.133  22.723  1.00  0.00     0.018 A 
ATOM     91  C   UNL A   1      31.096  24.783  22.974  1.00  0.00     0.012 A 
ATOM     92  C   UNL A   1      33.366  24.876  22.166  1.00  0.00     0.012 A 
ATOM     93  C   UNL A   1      30.961  26.165  22.843  1.00  0.00     0.001 A 
ATOM     94  C   UNL A   1      33.226  26.269  22.034  1.00  0.00     0.001 A 
ATOM     95  C   UNL A   1      32.042  26.913  22.403  1.00  0.00     0.000 A 
ENDBRANCH  88  90
ENDBRANCH  81  88
ENDBRANCH  74  81
ENDBRANCH  71  74
ENDBRANCH  69  70
ENDBRANCH   1  69
TORSDOF 18
ENDMDL
MODEL 3
REMARK VINA RESULT:     -11.9      2.693      9.333
REMARK SMILES O=C(NCCCNC(=O)[C@@H](c1ccccc1)[C@H](C(=O)c1ccccc1)c1ccccc1)c1ccc(-c2c3nc(c(-c4ccc(S(=O)(=O)[O-])cc4)c4ccc([nH]4)c(-c4ccc(S(=O)(=O)[O-])cc4)c4nc(c(-c5ccc(S(=O)(=O)[O-])cc5)c5ccc2[nH]5)C=C4)C=C3)cc1
REMARK SMILES IDX 5 1 4 2 3 3 1 4 2 5 32 7 33 8 91 9 34 10 90 11 35 12 36 13
REMARK SMILES IDX 37 14 84 15 38 16 89 17 83 18 85 19 39 20 88 21 82 22 81 23
REMARK SMILES IDX 40 25 70 26 51 27 69 28 52 29 55 30 68 31 86 32 53 33 54 34
REMARK SMILES IDX 67 36 87 37 56 38 41 39 42 40 50 41 43 42 49 43 44 44 45 45
REMARK SMILES IDX 46 46 47 47 48 48 71 49 72 50 80 51 73 52 79 53 74 54 75 55
REMARK SMILES IDX 76 56 77 57 78 58 57 59 58 60 66 61 59 62 65 63 60 64 61 65
REMARK SMILES IDX 62 66 63 67 64 68 6 69 7 70 8 71 9 73 10 74 11 75 12 76
REMARK SMILES IDX 16 77 13 78 15 79 14 80 17 81 26 82 27 83 31 84 28 85 30 86
REMARK SMILES IDX 29 87 18 88 19 89 20 90 21 91 25 92 22 93 24 94 23 95
REMARK H PARENT 3 6 85 24 55 35 7 72
REMARK Flexibility Score: inf
ROOT
ATOM      1  C   UNL A   1      35.396  23.676  25.595  1.00  0.00     0.042 C 
ENDROOT
BRANCH   1   2
ATOM      2  C   UNL A   1      36.812  23.958  25.128  1.00  0.00     0.118 C 
BRANCH   2   3
ATOM      3  N   UNL A   1      37.743  22.894  25.496  1.00  0.00    -0.352 N 
ATOM      4  O   UNL A   1      39.693  22.033  26.247  1.00  0.00    -0.269 OA
ATOM      5  C   UNL A   1      38.929  22.979  26.194  1.00  0.00     0.251 C 
ATOM      6  H   UNL A   1      37.488  21.989  25.203  1.00  0.00     0.163 HD
BRANCH   5   7
ATOM      7  C   UNL A   1      39.251  24.260  26.853  1.00  0.00     0.039 A 
ATOM      8  C   UNL A   1      40.017  25.201  26.168  1.00  0.00     0.014 A 
ATOM      9  C   UNL A   1      38.856  24.488  28.172  1.00  0.00     0.014 A 
ATOM     10  C   UNL A   1      40.586  26.247  26.865  1.00  0.00     0.010 A 
ATOM     11  C   UNL A   1      39.297  25.642  28.825  1.00  0.00     0.010 A 
ATOM     12  C   UNL A   1      40.194  26.513  28.186  1.00  0.00    -0.014 A 
BRANCH  12  13
ATOM     13  C   UNL A   1      40.664  27.769  28.817  1.00  0.00     0.031 A 
ATOM     14  C   UNL A   1      42.085  27.938  29.273  1.00  0.00     0.074 A 
ATOM     15  C   UNL A   1      39.778  28.780  28.928  1.00  0.00     0.049 A 
ATOM     16  N   UNL A   1      42.635  28.973  29.857  1.00  0.00    -0.248 NA
ATOM     17  C   UNL A   1      43.005  26.809  29.064  1.00  0.00     0.031 C 
ATOM     18  C   UNL A   1      38.370  28.716  28.511  1.00  0.00     0.029 A 
ATOM     19  N   UNL A   1      39.925  30.062  29.382  1.00  0.00    -0.354 N 
ATOM     20  C   UNL A   1      43.950  28.607  30.122  1.00  0.00     0.074 A 
ATOM     21  C   UNL A   1      44.116  27.253  29.640  1.00  0.00     0.031 C 
ATOM     22  C   UNL A   1      37.813  29.925  28.648  1.00  0.00     0.029 A 
ATOM     23  C   UNL A   1      38.784  30.817  29.263  1.00  0.00     0.049 A 
ATOM     24  H   UNL A   1      40.767  30.410  29.757  1.00  0.00     0.167 HD
ATOM     25  C   UNL A   1      44.920  29.338  30.723  1.00  0.00     0.031 A 
ATOM     26  C   UNL A   1      38.525  32.082  29.639  1.00  0.00     0.031 A 
ATOM     27  C   UNL A   1      44.736  30.690  31.185  1.00  0.00     0.049 A 
ATOM     28  C   UNL A   1      39.613  32.859  30.309  1.00  0.00     0.074 A 
ATOM     29  C   UNL A   1      45.656  31.525  31.795  1.00  0.00     0.029 A 
ATOM     30  N   UNL A   1      43.551  31.406  31.085  1.00  0.00    -0.354 N 
ATOM     31  N   UNL A   1      40.844  32.489  30.565  1.00  0.00    -0.248 NA
ATOM     32  C   UNL A   1      39.276  34.214  30.755  1.00  0.00     0.031 C 
ATOM     33  C   UNL A   1      45.015  32.731  32.102  1.00  0.00     0.029 A 
ATOM     34  C   UNL A   1      43.711  32.666  31.638  1.00  0.00     0.049 A 
ATOM     35  H   UNL A   1      42.719  31.069  30.681  1.00  0.00     0.167 HD
ATOM     36  C   UNL A   1      41.435  33.569  31.203  1.00  0.00     0.074 A 
ATOM     37  C   UNL A   1      40.431  34.615  31.267  1.00  0.00     0.031 C 
ATOM     38  C   UNL A   1      42.691  33.683  31.698  1.00  0.00     0.031 A 
BRANCH  25  39
ATOM     39  C   UNL A   1      46.256  28.679  30.953  1.00  0.00    -0.014 A 
ATOM     40  C   UNL A   1      47.298  28.783  30.013  1.00  0.00     0.010 A 
ATOM     41  C   UNL A   1      46.486  27.979  32.152  1.00  0.00     0.010 A 
ATOM     42  C   UNL A   1      48.533  28.170  30.255  1.00  0.00     0.020 A 
ATOM     43  C   UNL A   1      47.726  27.385  32.408  1.00  0.00     0.020 A 
ATOM     44  C   UNL A   1      48.737  27.470  31.449  1.00  0.00     0.054 A 
BRANCH  44  45
ATOM     45  S   UNL A   1      50.353  26.699  31.744  1.00  0.00     0.124 S 
ATOM     46  O   UNL A   1      51.083  27.057  30.531  1.00  0.00    -0.237 OA
ATOM     47  O   UNL A   1      50.806  27.361  32.966  1.00  0.00    -0.237 OA
ATOM     48  O   UNL A   1      50.040  25.280  31.886  1.00  0.00    -0.744 OA
ENDBRANCH  44  45
ENDBRANCH  25  39
BRANCH  26  49
ATOM     49  C   UNL A   1      37.168  32.648  29.418  1.00  0.00    -0.014 A 
ATOM     50  C   UNL A   1      36.230  32.687  30.462  1.00  0.00     0.010 A 
ATOM     51  C   UNL A   1      36.835  33.215  28.174  1.00  0.00     0.010 A 
ATOM     52  C   UNL A   1      34.978  33.278  30.263  1.00  0.00     0.020 A 
ATOM     53  C   UNL A   1      35.599  33.835  27.981  1.00  0.00     0.020 A 
ATOM     54  C   UNL A   1      34.673  33.853  29.024  1.00  0.00     0.054 A 
BRANCH  54  55
ATOM     55  S   UNL A   1      33.074  34.681  28.809  1.00  0.00     0.124 S 
ATOM     56  O   UNL A   1      32.556  34.696  30.173  1.00  0.00    -0.237 OA
ATOM     57  O   UNL A   1      33.460  35.980  28.263  1.00  0.00    -0.237 OA
ATOM     58  O   UNL A   1      32.362  33.810  27.875  1.00  0.00    -0.744 OA
ENDBRANCH  54  55
ENDBRANCH  26  49
BRANCH  38  59
ATOM     59  C   UNL A   1      43.047  34.998  32.332  1.00  0.00    -0.014 A 
ATOM     60  C   UNL A   1      42.762  35.248  33.686  1.00  0.00     0.010 A 
ATOM     61  C   UNL A   1      43.696  35.983  31.568  1.00  0.00     0.010 A 
ATOM     62  C   UNL A   1      43.092  36.478  34.257  1.00  0.00     0.020 A 
ATOM     63  C   UNL A   1      44.050  37.205  32.143  1.00  0.00     0.020 A 
ATOM     64  C   UNL A   1      43.731  37.449  33.481  1.00  0.00     0.054 A 
BRANCH  64  65
ATOM     65  S   UNL A   1      44.183  39.027  34.252  1.00  0.00     0.124 S 
ATOM     66  O   UNL A   1      45.438  39.344  33.576  1.00  0.00    -0.237 OA
ATOM     67  O   UNL A   1      43.051  39.887  33.911  1.00  0.00    -0.237 OA
ATOM     68  O   UNL A   1      44.302  38.697  35.669  1.00  0.00    -0.744 OA
ENDBRANCH  64  65
ENDBRANCH  38  59
ENDBRANCH  12  13
ENDBRANCH   5   7
ENDBRANCH   2   3
ENDBRANCH   1   2
BRANCH   1  69
ATOM     69  C   UNL A   1      34.514  24.874  25.350  1.00  0.00     0.117 C 
BRANCH  69  70
ATOM     70  N   UNL A   1      34.545  25.264  23.950  1.00  0.00    -0.355 N 
ATOM     71  C   UNL A   1      33.553  25.382  23.036  1.00  0.00     0.228 C 
ATOM     72  H   UNL A   1      35.442  25.480  23.607  1.00  0.00     0.163 HD
ATOM     73  O   UNL A   1      33.870  25.710  21.887  1.00  0.00    -0.274 OA
BRANCH  71  74
ATOM     74  C   UNL A   1      32.087  25.120  23.386  1.00  0.00     0.124 C 
BRANCH  74  75
ATOM     75  C   UNL A   1      32.013  23.667  23.885  1.00  0.00    -0.035 A 
ATOM     76  C   UNL A   1      31.463  23.297  25.125  1.00  0.00     0.004 A 
ATOM     77  C   UNL A   1      32.582  22.638  23.104  1.00  0.00     0.004 A 
ATOM     78  C   UNL A   1      31.490  21.973  25.573  1.00  0.00     0.000 A 
ATOM     79  C   UNL A   1      32.586  21.309  23.542  1.00  0.00     0.000 A 
ATOM     80  C   UNL A   1      32.047  20.979  24.781  1.00  0.00     0.000 A 
ENDBRANCH  74  75
BRANCH  74  81
ATOM     81  C   UNL A   1      31.223  26.361  23.928  1.00  0.00     0.108 C 
BRANCH  81  82
ATOM     82  C   UNL A   1      31.785  27.214  25.118  1.00  0.00    -0.036 A 
ATOM     83  C   UNL A   1      31.325  26.978  26.432  1.00  0.00     0.004 A 
ATOM     84  C   UNL A   1      32.760  28.214  25.008  1.00  0.00     0.004 A 
ATOM     85  C   UNL A   1      31.668  27.808  27.510  1.00  0.00     0.000 A 
ATOM     86  C   UNL A   1      33.098  29.062  26.072  1.00  0.00     0.000 A 
ATOM     87  C   UNL A   1      32.529  28.877  27.320  1.00  0.00     0.000 A 
ENDBRANCH  81  82
BRANCH  81  88
ATOM     88  C   UNL A   1      30.562  27.297  22.825  1.00  0.00     0.171 C 
ATOM     89  O   UNL A   1      30.858  27.187  21.628  1.00  0.00    -0.293 OA
BRANCH  88  90
ATOM     90  C   UNL A   1      29.489  28.327  23.092  1.00  0.00     0.018 A 
ATOM     91  C   UNL A   1      29.900  29.680  23.040  1.00  0.00     0.012 A 
ATOM     92  C   UNL A   1      28.126  28.052  23.190  1.00  0.00     0.012 A 
ATOM     93  C   UNL A   1      28.978  30.718  22.908  1.00  0.00     0.001 A 
ATOM     94  C   UNL A   1      27.200  29.101  23.059  1.00  0.00     0.001 A 
ATOM     95  C   UNL A   1      27.623  30.422  22.884  1.00  0.00     0.000 A 
ENDBRANCH  88  90
ENDBRANCH  81  88
ENDBRANCH  74  81
ENDBRANCH  71  74
ENDBRANCH  69  70
ENDBRANCH   1  69
TORSDOF 18
ENDMDL
