MODEL 1
REMARK VINA RESULT:     -10.1      0.000      0.000
REMARK SMILES CC[N@H+](CC(C)(C)C(=O)NCCCNC(=O)c1ccc(-c2c3nc(c(-c4ccc(S(=O)(=O)[O-])cc4)c4ccc([nH]4)c(-c4ccc(S(=O)(=O)[O-])cc4)c4nc(c(-c5ccc(S(=O)(=O)[O-])cc5)c5ccc2[nH]5)C=C4)C=C3)cc1)[C@H]1CCC[NH2+]C1
REMARK SMILES IDX 12 1 11 2 10 3 8 4 9 5 5 7 6 8 7 9 4 10 3 11 2 13 1 14 77 15
REMARK SMILES IDX 78 16 82 17 79 18 81 19 80 20 13 23 14 24 15 25 16 27 17 28
REMARK SMILES IDX 18 29 76 30 19 31 75 32 20 33 21 34 22 35 69 36 23 37 74 38
REMARK SMILES IDX 68 39 70 40 24 41 73 42 67 43 66 44 25 46 55 47 36 48 54 49
REMARK SMILES IDX 37 50 40 51 53 52 71 53 38 54 39 55 52 57 72 58 41 59 26 60
REMARK SMILES IDX 27 61 35 62 28 63 34 64 29 65 30 66 31 67 32 68 33 69 56 70
REMARK SMILES IDX 57 71 65 72 58 73 64 74 59 75 60 76 61 77 62 78 63 79 42 80
REMARK SMILES IDX 43 81 51 82 44 83 50 84 45 85 46 86 47 87 48 88 49 89
REMARK H PARENT 10 6 3 12 81 21 81 22 14 26 70 45 40 56
REMARK Flexibility Score: inf
ROOT
ATOM      1  C   UNL A   1      33.789  28.109  25.521  1.00  0.00     0.042 C 
ENDROOT
BRANCH   1   2
ATOM      2  C   UNL A   1      32.549  27.560  24.826  1.00  0.00     0.117 C 
BRANCH   2   3
ATOM      3  N   UNL A   1      32.893  27.018  23.527  1.00  0.00    -0.355 N 
ATOM      4  C   UNL A   1      33.122  25.738  23.147  1.00  0.00     0.231 C 
ATOM      5  O   UNL A   1      33.987  25.594  22.276  1.00  0.00    -0.274 OA
ATOM      6  H   UNL A   1      32.973  27.685  22.807  1.00  0.00     0.163 HD
BRANCH   4   7
ATOM      7  C   UNL A   1      32.384  24.539  23.768  1.00  0.00     0.092 C 
ATOM      8  C   UNL A   1      30.885  24.446  23.431  1.00  0.00     0.027 C 
ATOM      9  C   UNL A   1      32.585  24.643  25.293  1.00  0.00     0.027 C 
BRANCH   7  10
ATOM     10  C   UNL A   1      33.067  23.209  23.278  1.00  0.00     0.279 C 
BRANCH  10  11
ATOM     11  N   UNL A   1      33.215  22.078  24.257  1.00  0.00    -0.327 N 
ATOM     12  H   UNL A   1      32.820  22.322  25.165  1.00  0.00     0.348 HD
BRANCH  11  13
ATOM     13  C   UNL A   1      32.434  20.901  23.810  1.00  0.00     0.259 C 
ATOM     14  C   UNL A   1      32.919  19.504  24.180  1.00  0.00     0.071 C 
ENDBRANCH  11  13
BRANCH  11  15
ATOM     15  C   UNL A   1      34.667  21.822  24.490  1.00  0.00     0.239 C 
ATOM     16  C   UNL A   1      35.538  22.661  23.530  1.00  0.00     0.077 C 
ATOM     17  C   UNL A   1      35.138  21.904  25.969  1.00  0.00     0.326 C 
ATOM     18  C   UNL A   1      37.026  22.559  23.857  1.00  0.00     0.068 C 
ATOM     19  N   UNL A   1      36.590  21.752  26.127  1.00  0.00    -0.341 N 
ATOM     20  C   UNL A   1      37.291  22.767  25.345  1.00  0.00     0.260 C 
ATOM     21  H   UNL A   1      36.834  21.857  27.112  1.00  0.00     0.346 HD
ATOM     22  H   UNL A   1      36.865  20.827  25.796  1.00  0.00     0.346 HD
ENDBRANCH  11  15
ENDBRANCH  10  11
ENDBRANCH   7  10
ENDBRANCH   4   7
ENDBRANCH   2   3
ENDBRANCH   1   2
BRANCH   1  23
ATOM     23  C   UNL A   1      33.608  28.324  27.018  1.00  0.00     0.118 C 
BRANCH  23  24
ATOM     24  N   UNL A   1      33.546  29.736  27.373  1.00  0.00    -0.352 N 
ATOM     25  C   UNL A   1      34.466  30.511  28.034  1.00  0.00     0.251 C 
ATOM     26  H   UNL A   1      32.724  30.202  27.099  1.00  0.00     0.163 HD
ATOM     27  O   UNL A   1      34.144  31.622  28.447  1.00  0.00    -0.269 OA
BRANCH  25  28
ATOM     28  C   UNL A   1      35.831  29.996  28.264  1.00  0.00     0.039 A 
ATOM     29  C   UNL A   1      36.782  30.109  27.248  1.00  0.00     0.014 A 
ATOM     30  C   UNL A   1      36.174  29.410  29.485  1.00  0.00     0.014 A 
ATOM     31  C   UNL A   1      38.094  29.699  27.485  1.00  0.00     0.010 A 
ATOM     32  C   UNL A   1      37.500  29.091  29.751  1.00  0.00     0.010 A 
ATOM     33  C   UNL A   1      38.475  29.227  28.752  1.00  0.00    -0.014 A 
BRANCH  33  34
ATOM     34  C   UNL A   1      39.886  28.876  29.055  1.00  0.00     0.031 A 
ATOM     35  C   UNL A   1      40.805  29.898  29.667  1.00  0.00     0.074 A 
ATOM     36  C   UNL A   1      40.354  27.658  28.719  1.00  0.00     0.049 A 
ATOM     37  N   UNL A   1      42.077  29.794  29.957  1.00  0.00    -0.248 NA
ATOM     38  C   UNL A   1      40.229  31.219  29.972  1.00  0.00     0.031 C 
ATOM     39  C   UNL A   1      39.573  26.596  28.077  1.00  0.00     0.029 A 
ATOM     40  N   UNL A   1      41.603  27.106  28.865  1.00  0.00    -0.354 N 
ATOM     41  C   UNL A   1      42.454  31.033  30.462  1.00  0.00     0.074 A 
ATOM     42  C   UNL A   1      41.293  31.891  30.386  1.00  0.00     0.031 C 
ATOM     43  C   UNL A   1      40.351  25.513  27.917  1.00  0.00     0.029 A 
ATOM     44  C   UNL A   1      41.695  25.816  28.397  1.00  0.00     0.049 A 
ATOM     45  H   UNL A   1      42.361  27.590  29.266  1.00  0.00     0.167 HD
ATOM     46  C   UNL A   1      43.653  31.416  30.961  1.00  0.00     0.031 A 
ATOM     47  C   UNL A   1      42.745  24.973  28.351  1.00  0.00     0.031 A 
ATOM     48  C   UNL A   1      44.803  30.556  31.037  1.00  0.00     0.049 A 
ATOM     49  C   UNL A   1      44.071  25.429  28.894  1.00  0.00     0.074 A 
ATOM     50  C   UNL A   1      46.047  30.831  31.578  1.00  0.00     0.029 A 
ATOM     51  N   UNL A   1      44.855  29.256  30.555  1.00  0.00    -0.354 N 
ATOM     52  N   UNL A   1      44.388  26.582  29.435  1.00  0.00    -0.248 NA
ATOM     53  C   UNL A   1      45.179  24.467  28.830  1.00  0.00     0.031 C 
ATOM     54  C   UNL A   1      46.870  29.720  31.364  1.00  0.00     0.029 A 
ATOM     55  C   UNL A   1      46.119  28.728  30.756  1.00  0.00     0.049 A 
ATOM     56  H   UNL A   1      44.105  28.780  30.132  1.00  0.00     0.167 HD
ATOM     57  C   UNL A   1      45.726  26.473  29.799  1.00  0.00     0.074 A 
ATOM     58  C   UNL A   1      46.150  25.137  29.436  1.00  0.00     0.031 C 
ATOM     59  C   UNL A   1      46.529  27.396  30.384  1.00  0.00     0.031 A 
BRANCH  46  60
ATOM     60  C   UNL A   1      43.781  32.834  31.458  1.00  0.00    -0.014 A 
ATOM     61  C   UNL A   1      44.302  33.850  30.637  1.00  0.00     0.010 A 
ATOM     62  C   UNL A   1      43.335  33.164  32.751  1.00  0.00     0.010 A 
ATOM     63  C   UNL A   1      44.412  35.160  31.112  1.00  0.00     0.020 A 
ATOM     64  C   UNL A   1      43.413  34.478  33.220  1.00  0.00     0.020 A 
ATOM     65  C   UNL A   1      43.968  35.465  32.402  1.00  0.00     0.054 A 
BRANCH  65  66
ATOM     66  S   UNL A   1      44.100  37.178  32.983  1.00  0.00     0.124 S 
ATOM     67  O   UNL A   1      45.498  37.248  33.400  1.00  0.00    -0.237 OA
ATOM     68  O   UNL A   1      43.763  37.947  31.786  1.00  0.00    -0.237 OA
ATOM     69  O   UNL A   1      43.122  37.256  34.065  1.00  0.00    -0.744 OA
ENDBRANCH  65  66
ENDBRANCH  46  60
BRANCH  47  70
ATOM     70  C   UNL A   1      42.578  23.608  27.777  1.00  0.00    -0.014 A 
ATOM     71  C   UNL A   1      42.935  23.345  26.442  1.00  0.00     0.010 A 
ATOM     72  C   UNL A   1      42.073  22.560  28.568  1.00  0.00     0.010 A 
ATOM     73  C   UNL A   1      42.771  22.065  25.905  1.00  0.00     0.020 A 
ATOM     74  C   UNL A   1      41.939  21.272  28.044  1.00  0.00     0.020 A 
ATOM     75  C   UNL A   1      42.278  21.035  26.711  1.00  0.00     0.054 A 
BRANCH  75  76
ATOM     76  S   UNL A   1      42.123  19.370  26.005  1.00  0.00     0.124 S 
ATOM     77  O   UNL A   1      42.630  18.533  27.087  1.00  0.00    -0.237 OA
ATOM     78  O   UNL A   1      40.688  19.272  25.746  1.00  0.00    -0.237 OA
ATOM     79  O   UNL A   1      42.961  19.427  24.809  1.00  0.00    -0.744 OA
ENDBRANCH  75  76
ENDBRANCH  47  70
BRANCH  59  80
ATOM     80  C   UNL A   1      47.944  26.986  30.697  1.00  0.00    -0.014 A 
ATOM     81  C   UNL A   1      48.991  27.215  29.786  1.00  0.00     0.010 A 
ATOM     82  C   UNL A   1      48.237  26.409  31.947  1.00  0.00     0.010 A 
ATOM     83  C   UNL A   1      50.299  26.843  30.106  1.00  0.00     0.020 A 
ATOM     84  C   UNL A   1      49.548  26.068  32.284  1.00  0.00     0.020 A 
ATOM     85  C   UNL A   1      50.570  26.274  31.355  1.00  0.00     0.054 A 
BRANCH  85  86
ATOM     86  S   UNL A   1      52.284  25.843  31.763  1.00  0.00     0.124 S 
ATOM     87  O   UNL A   1      52.166  24.431  32.119  1.00  0.00    -0.237 OA
ATOM     88  O   UNL A   1      52.988  26.119  30.513  1.00  0.00    -0.237 OA
ATOM     89  O   UNL A   1      52.614  26.739  32.868  1.00  0.00    -0.744 OA
ENDBRANCH  85  86
ENDBRANCH  59  80
ENDBRANCH  33  34
ENDBRANCH  25  28
ENDBRANCH  23  24
ENDBRANCH   1  23
TORSDOF 17
ENDMDL
MODEL 2
REMARK VINA RESULT:     -10.1      2.692      9.416
REMARK SMILES CC[N@H+](CC(C)(C)C(=O)NCCCNC(=O)c1ccc(-c2c3nc(c(-c4ccc(S(=O)(=O)[O-])cc4)c4ccc([nH]4)c(-c4ccc(S(=O)(=O)[O-])cc4)c4nc(c(-c5ccc(S(=O)(=O)[O-])cc5)c5ccc2[nH]5)C=C4)C=C3)cc1)[C@H]1CCC[NH2+]C1
REMARK SMILES IDX 12 1 11 2 10 3 8 4 9 5 5 7 6 8 7 9 4 10 3 11 2 13 1 14 77 15
REMARK SMILES IDX 78 16 82 17 79 18 81 19 80 20 13 23 14 24 15 25 16 27 17 28
REMARK SMILES IDX 18 29 76 30 19 31 75 32 20 33 21 34 22 35 69 36 23 37 74 38
REMARK SMILES IDX 68 39 70 40 24 41 73 42 67 43 66 44 25 46 55 47 36 48 54 49
REMARK SMILES IDX 37 50 40 51 53 52 71 53 38 54 39 55 52 57 72 58 41 59 26 60
REMARK SMILES IDX 27 61 35 62 28 63 34 64 29 65 30 66 31 67 32 68 33 69 56 70
REMARK SMILES IDX 57 71 65 72 58 73 64 74 59 75 60 76 61 77 62 78 63 79 42 80
REMARK SMILES IDX 43 81 51 82 44 83 50 84 45 85 46 86 47 87 48 88 49 89
REMARK H PARENT 10 6 3 12 81 21 81 22 14 26 70 45 40 56
REMARK Flexibility Score: inf
ROOT
ATOM      1  C   UNL A   1      35.706  23.719  25.935  1.00  0.00     0.042 C 
ENDROOT
BRANCH   1   2
ATOM      2  C   UNL A   1      34.455  24.343  25.331  1.00  0.00     0.117 C 
BRANCH   2   3
ATOM      3  N   UNL A   1      34.412  25.764  25.607  1.00  0.00    -0.355 N 
ATOM      4  C   UNL A   1      33.384  26.643  25.514  1.00  0.00     0.231 C 
ATOM      5  O   UNL A   1      33.697  27.783  25.152  1.00  0.00    -0.274 OA
ATOM      6  H   UNL A   1      35.264  26.154  25.909  1.00  0.00     0.163 HD
BRANCH   4   7
ATOM      7  C   UNL A   1      31.926  26.253  25.810  1.00  0.00     0.092 C 
ATOM      8  C   UNL A   1      31.117  27.293  26.605  1.00  0.00     0.027 C 
ATOM      9  C   UNL A   1      31.976  24.915  26.574  1.00  0.00     0.027 C 
BRANCH   7  10
ATOM     10  C   UNL A   1      31.177  26.006  24.448  1.00  0.00     0.279 C 
BRANCH  10  11
ATOM     11  N   UNL A   1      31.833  26.467  23.177  1.00  0.00    -0.327 N 
ATOM     12  H   UNL A   1      32.740  26.895  23.364  1.00  0.00     0.348 HD
BRANCH  11  13
ATOM     13  C   UNL A   1      32.134  25.310  22.301  1.00  0.00     0.259 C 
ATOM     14  C   UNL A   1      32.633  25.562  20.883  1.00  0.00     0.071 C 
ENDBRANCH  11  13
BRANCH  11  15
ATOM     15  C   UNL A   1      30.992  27.530  22.551  1.00  0.00     0.239 C 
ATOM     16  C   UNL A   1      29.600  27.596  23.215  1.00  0.00     0.077 C 
ATOM     17  C   UNL A   1      31.665  28.924  22.408  1.00  0.00     0.326 C 
ATOM     18  C   UNL A   1      28.777  28.785  22.723  1.00  0.00     0.068 C 
ATOM     19  N   UNL A   1      30.759  29.956  21.888  1.00  0.00    -0.341 N 
ATOM     20  C   UNL A   1      29.586  30.078  22.750  1.00  0.00     0.260 C 
ATOM     21  H   UNL A   1      31.249  30.851  21.858  1.00  0.00     0.346 HD
ATOM     22  H   UNL A   1      30.456  29.692  20.950  1.00  0.00     0.346 HD
ENDBRANCH  11  15
ENDBRANCH  10  11
ENDBRANCH   7  10
ENDBRANCH   4   7
ENDBRANCH   2   3
ENDBRANCH   1   2
BRANCH   1  23
ATOM     23  C   UNL A   1      36.908  23.723  24.999  1.00  0.00     0.118 C 
BRANCH  23  24
ATOM     24  N   UNL A   1      37.902  22.724  25.366  1.00  0.00    -0.352 N 
ATOM     25  C   UNL A   1      39.091  22.880  26.034  1.00  0.00     0.251 C 
ATOM     26  H   UNL A   1      37.691  21.802  25.094  1.00  0.00     0.163 HD
ATOM     27  O   UNL A   1      39.907  21.961  26.051  1.00  0.00    -0.269 OA
BRANCH  25  28
ATOM     28  C   UNL A   1      39.391  24.157  26.713  1.00  0.00     0.039 A 
ATOM     29  C   UNL A   1      38.932  24.361  28.015  1.00  0.00     0.014 A 
ATOM     30  C   UNL A   1      40.132  25.149  26.065  1.00  0.00     0.014 A 
ATOM     31  C   UNL A   1      39.280  25.530  28.693  1.00  0.00     0.010 A 
ATOM     32  C   UNL A   1      40.556  26.267  26.773  1.00  0.00     0.010 A 
ATOM     33  C   UNL A   1      40.130  26.474  28.093  1.00  0.00    -0.014 A 
BRANCH  33  34
ATOM     34  C   UNL A   1      40.590  27.679  28.830  1.00  0.00     0.031 A 
ATOM     35  C   UNL A   1      41.949  27.697  29.477  1.00  0.00     0.074 A 
ATOM     36  C   UNL A   1      39.758  28.730  28.969  1.00  0.00     0.049 A 
ATOM     37  N   UNL A   1      42.504  28.635  30.201  1.00  0.00    -0.248 NA
ATOM     38  C   UNL A   1      42.785  26.496  29.310  1.00  0.00     0.031 C 
ATOM     39  C   UNL A   1      38.398  28.813  28.428  1.00  0.00     0.029 A 
ATOM     40  N   UNL A   1      39.930  29.929  29.614  1.00  0.00    -0.354 N 
ATOM     41  C   UNL A   1      43.741  28.134  30.587  1.00  0.00     0.074 A 
ATOM     42  C   UNL A   1      43.833  26.788  30.065  1.00  0.00     0.031 C 
ATOM     43  C   UNL A   1      37.876  30.012  28.734  1.00  0.00     0.029 A 
ATOM     44  C   UNL A   1      38.839  30.762  29.533  1.00  0.00     0.049 A 
ATOM     45  H   UNL A   1      40.758  30.170  30.090  1.00  0.00     0.167 HD
ATOM     46  C   UNL A   1      44.721  28.745  31.294  1.00  0.00     0.031 A 
ATOM     47  C   UNL A   1      38.632  31.989  30.050  1.00  0.00     0.031 A 
ATOM     48  C   UNL A   1      44.624  30.086  31.806  1.00  0.00     0.049 A 
ATOM     49  C   UNL A   1      39.727  32.639  30.849  1.00  0.00     0.074 A 
ATOM     50  C   UNL A   1      45.583  30.817  32.487  1.00  0.00     0.029 A 
ATOM     51  N   UNL A   1      43.503  30.896  31.701  1.00  0.00    -0.354 N 
ATOM     52  N   UNL A   1      40.920  32.176  31.141  1.00  0.00    -0.248 NA
ATOM     53  C   UNL A   1      39.453  33.981  31.380  1.00  0.00     0.031 C 
ATOM     54  C   UNL A   1      45.019  32.044  32.848  1.00  0.00     0.029 A 
ATOM     55  C   UNL A   1      43.735  32.107  32.332  1.00  0.00     0.049 A 
ATOM     56  H   UNL A   1      42.667  30.647  31.246  1.00  0.00     0.167 HD
ATOM     57  C   UNL A   1      41.548  33.182  31.867  1.00  0.00     0.074 A 
ATOM     58  C   UNL A   1      40.611  34.283  31.952  1.00  0.00     0.031 C 
ATOM     59  C   UNL A   1      42.789  33.193  32.413  1.00  0.00     0.031 A 
BRANCH  46  60
ATOM     60  C   UNL A   1      45.982  27.962  31.562  1.00  0.00    -0.014 A 
ATOM     61  C   UNL A   1      46.081  27.094  32.664  1.00  0.00     0.010 A 
ATOM     62  C   UNL A   1      47.068  28.064  30.674  1.00  0.00     0.010 A 
ATOM     63  C   UNL A   1      47.256  26.375  32.896  1.00  0.00     0.020 A 
ATOM     64  C   UNL A   1      48.234  27.322  30.884  1.00  0.00     0.020 A 
ATOM     65  C   UNL A   1      48.326  26.494  32.005  1.00  0.00     0.054 A 
BRANCH  65  66
ATOM     66  S   UNL A   1      49.829  25.528  32.318  1.00  0.00     0.124 S 
ATOM     67  O   UNL A   1      50.777  26.566  32.712  1.00  0.00    -0.237 OA
ATOM     68  O   UNL A   1      49.409  24.623  33.386  1.00  0.00    -0.237 OA
ATOM     69  O   UNL A   1      50.105  24.887  31.035  1.00  0.00    -0.744 OA
ENDBRANCH  65  66
ENDBRANCH  46  60
BRANCH  47  70
ATOM     70  C   UNL A   1      37.334  32.684  29.818  1.00  0.00    -0.014 A 
ATOM     71  C   UNL A   1      36.259  32.510  30.708  1.00  0.00     0.010 A 
ATOM     72  C   UNL A   1      37.172  33.536  28.710  1.00  0.00     0.010 A 
ATOM     73  C   UNL A   1      35.042  33.159  30.484  1.00  0.00     0.020 A 
ATOM     74  C   UNL A   1      35.966  34.212  28.501  1.00  0.00     0.020 A 
ATOM     75  C   UNL A   1      34.904  34.009  29.384  1.00  0.00     0.054 A 
BRANCH  75  76
ATOM     76  S   UNL A   1      33.331  34.880  29.142  1.00  0.00     0.124 S 
ATOM     77  O   UNL A   1      33.774  36.175  28.637  1.00  0.00    -0.237 OA
ATOM     78  O   UNL A   1      32.643  34.024  28.177  1.00  0.00    -0.237 OA
ATOM     79  O   UNL A   1      32.741  34.896  30.479  1.00  0.00    -0.744 OA
ENDBRANCH  75  76
ENDBRANCH  47  70
BRANCH  59  80
ATOM     80  C   UNL A   1      43.222  34.446  33.127  1.00  0.00    -0.014 A 
ATOM     81  C   UNL A   1      43.752  35.543  32.424  1.00  0.00     0.010 A 
ATOM     82  C   UNL A   1      43.044  34.547  34.520  1.00  0.00     0.010 A 
ATOM     83  C   UNL A   1      44.128  36.704  33.105  1.00  0.00     0.020 A 
ATOM     84  C   UNL A   1      43.387  35.717  35.200  1.00  0.00     0.020 A 
ATOM     85  C   UNL A   1      43.941  36.784  34.489  1.00  0.00     0.054 A 
BRANCH  85  86
ATOM     86  S   UNL A   1      44.395  38.319  35.342  1.00  0.00     0.124 S 
ATOM     87  O   UNL A   1      45.853  38.299  35.248  1.00  0.00    -0.237 OA
ATOM     88  O   UNL A   1      43.726  39.340  34.540  1.00  0.00    -0.237 OA
ATOM     89  O   UNL A   1      43.856  38.140  36.689  1.00  0.00    -0.744 OA
ENDBRANCH  85  86
ENDBRANCH  59  80
ENDBRANCH  33  34
ENDBRANCH  25  28
ENDBRANCH  23  24
ENDBRANCH   1  23
TORSDOF 17
ENDMDL
MODEL 3
REMARK VINA RESULT:      -9.9      3.428      6.401
REMARK SMILES CC[N@H+](CC(C)(C)C(=O)NCCCNC(=O)c1ccc(-c2c3nc(c(-c4ccc(S(=O)(=O)[O-])cc4)c4ccc([nH]4)c(-c4ccc(S(=O)(=O)[O-])cc4)c4nc(c(-c5ccc(S(=O)(=O)[O-])cc5)c5ccc2[nH]5)C=C4)C=C3)cc1)[C@H]1CCC[NH2+]C1
REMARK SMILES IDX 12 1 11 2 10 3 8 4 9 5 5 7 6 8 7 9 4 10 3 11 2 13 1 14 77 15
REMARK SMILES IDX 78 16 82 17 79 18 81 19 80 20 13 23 14 24 15 25 16 27 17 28
REMARK SMILES IDX 18 29 76 30 19 31 75 32 20 33 21 34 22 35 69 36 23 37 74 38
REMARK SMILES IDX 68 39 70 40 24 41 73 42 67 43 66 44 25 46 55 47 36 48 54 49
REMARK SMILES IDX 37 50 40 51 53 52 71 53 38 54 39 55 52 57 72 58 41 59 26 60
REMARK SMILES IDX 27 61 35 62 28 63 34 64 29 65 30 66 31 67 32 68 33 69 56 70
REMARK SMILES IDX 57 71 65 72 58 73 64 74 59 75 60 76 61 77 62 78 63 79 42 80
REMARK SMILES IDX 43 81 51 82 44 83 50 84 45 85 46 86 47 87 48 88 49 89
REMARK H PARENT 10 6 3 12 81 21 81 22 14 26 70 45 40 56
REMARK Flexibility Score: inf
ROOT
ATOM      1  C   UNL A   1      33.792  33.441  28.927  1.00  0.00     0.042 C 
ENDROOT
BRANCH   1   2
ATOM      2  C   UNL A   1      34.551  34.526  29.682  1.00  0.00     0.117 C 
BRANCH   2   3
ATOM      3  N   UNL A   1      34.144  34.557  31.072  1.00  0.00    -0.355 N 
ATOM      4  C   UNL A   1      34.475  33.737  32.098  1.00  0.00     0.231 C 
ATOM      5  O   UNL A   1      33.576  33.537  32.924  1.00  0.00    -0.274 OA
ATOM      6  H   UNL A   1      33.529  35.288  31.308  1.00  0.00     0.163 HD
BRANCH   4   7
ATOM      7  C   UNL A   1      35.859  33.075  32.224  1.00  0.00     0.092 C 
ATOM      8  C   UNL A   1      37.017  33.849  31.571  1.00  0.00     0.027 C 
ATOM      9  C   UNL A   1      35.732  31.672  31.599  1.00  0.00     0.027 C 
BRANCH   7  10
ATOM     10  C   UNL A   1      36.203  32.898  33.749  1.00  0.00     0.279 C 
BRANCH  10  11
ATOM     11  N   UNL A   1      37.644  32.979  34.171  1.00  0.00    -0.327 N 
ATOM     12  H   UNL A   1      38.230  33.339  33.417  1.00  0.00     0.348 HD
BRANCH  11  13
ATOM     13  C   UNL A   1      37.806  33.955  35.274  1.00  0.00     0.259 C 
ATOM     14  C   UNL A   1      38.982  34.925  35.241  1.00  0.00     0.071 C 
ENDBRANCH  11  13
BRANCH  11  15
ATOM     15  C   UNL A   1      38.144  31.604  34.465  1.00  0.00     0.239 C 
ATOM     16  C   UNL A   1      38.995  31.062  33.296  1.00  0.00     0.077 C 
ATOM     17  C   UNL A   1      38.823  31.417  35.852  1.00  0.00     0.326 C 
ATOM     18  C   UNL A   1      39.667  29.733  33.636  1.00  0.00     0.068 C 
ATOM     19  N   UNL A   1      39.391  30.076  36.044  1.00  0.00    -0.341 N 
ATOM     20  C   UNL A   1      40.362  29.785  34.992  1.00  0.00     0.260 C 
ATOM     21  H   UNL A   1      39.854  30.034  36.952  1.00  0.00     0.346 HD
ATOM     22  H   UNL A   1      38.639  29.387  36.004  1.00  0.00     0.346 HD
ENDBRANCH  11  15
ENDBRANCH  10  11
ENDBRANCH   7  10
ENDBRANCH   4   7
ENDBRANCH   2   3
ENDBRANCH   1   2
BRANCH   1  23
ATOM     23  C   UNL A   1      34.691  32.513  28.120  1.00  0.00     0.118 C 
BRANCH  23  24
ATOM     24  N   UNL A   1      34.054  31.236  27.831  1.00  0.00    -0.352 N 
ATOM     25  C   UNL A   1      34.615  29.990  27.703  1.00  0.00     0.251 C 
ATOM     26  H   UNL A   1      33.078  31.271  27.710  1.00  0.00     0.163 HD
ATOM     27  O   UNL A   1      33.954  29.068  27.230  1.00  0.00    -0.269 OA
BRANCH  25  28
ATOM     28  C   UNL A   1      36.017  29.769  28.114  1.00  0.00     0.039 A 
ATOM     29  C   UNL A   1      36.280  29.238  29.378  1.00  0.00     0.014 A 
ATOM     30  C   UNL A   1      37.069  30.078  27.248  1.00  0.00     0.014 A 
ATOM     31  C   UNL A   1      37.596  28.951  29.743  1.00  0.00     0.010 A 
ATOM     32  C   UNL A   1      38.366  29.704  27.575  1.00  0.00     0.010 A 
ATOM     33  C   UNL A   1      38.646  29.142  28.829  1.00  0.00    -0.014 A 
BRANCH  33  34
ATOM     34  C   UNL A   1      40.040  28.753  29.161  1.00  0.00     0.031 A 
ATOM     35  C   UNL A   1      40.961  29.736  29.832  1.00  0.00     0.074 A 
ATOM     36  C   UNL A   1      40.494  27.536  28.802  1.00  0.00     0.049 A 
ATOM     37  N   UNL A   1      42.221  29.597  30.155  1.00  0.00    -0.248 NA
ATOM     38  C   UNL A   1      40.403  31.058  30.162  1.00  0.00     0.031 C 
ATOM     39  C   UNL A   1      39.712  26.511  28.104  1.00  0.00     0.029 A 
ATOM     40  N   UNL A   1      41.727  26.954  28.966  1.00  0.00    -0.354 N 
ATOM     41  C   UNL A   1      42.608  30.811  30.709  1.00  0.00     0.074 A 
ATOM     42  C   UNL A   1      41.467  31.695  30.627  1.00  0.00     0.031 C 
ATOM     43  C   UNL A   1      40.472  25.417  27.934  1.00  0.00     0.029 A 
ATOM     44  C   UNL A   1      41.807  25.677  28.461  1.00  0.00     0.049 A 
ATOM     45  H   UNL A   1      42.482  27.409  29.404  1.00  0.00     0.167 HD
ATOM     46  C   UNL A   1      43.799  31.154  31.255  1.00  0.00     0.031 A 
ATOM     47  C   UNL A   1      42.841  24.814  28.420  1.00  0.00     0.031 A 
ATOM     48  C   UNL A   1      44.929  30.268  31.338  1.00  0.00     0.049 A 
ATOM     49  C   UNL A   1      44.159  25.225  29.014  1.00  0.00     0.074 A 
ATOM     50  C   UNL A   1      46.162  30.501  31.923  1.00  0.00     0.029 A 
ATOM     51  N   UNL A   1      44.969  28.983  30.816  1.00  0.00    -0.354 N 
ATOM     52  N   UNL A   1      44.483  26.355  29.600  1.00  0.00    -0.248 NA
ATOM     53  C   UNL A   1      45.249  24.243  28.953  1.00  0.00     0.031 C 
ATOM     54  C   UNL A   1      46.968  29.380  31.699  1.00  0.00     0.029 A 
ATOM     55  C   UNL A   1      46.216  28.423  31.038  1.00  0.00     0.049 A 
ATOM     56  H   UNL A   1      44.223  28.536  30.357  1.00  0.00     0.167 HD
ATOM     57  C   UNL A   1      45.806  26.207  30.000  1.00  0.00     0.074 A 
ATOM     58  C   UNL A   1      46.215  24.874  29.608  1.00  0.00     0.031 C 
ATOM     59  C   UNL A   1      46.610  27.095  30.636  1.00  0.00     0.031 A 
BRANCH  46  60
ATOM     60  C   UNL A   1      43.941  32.553  31.800  1.00  0.00    -0.014 A 
ATOM     61  C   UNL A   1      43.692  32.836  33.155  1.00  0.00     0.010 A 
ATOM     62  C   UNL A   1      44.370  33.592  30.953  1.00  0.00     0.010 A 
ATOM     63  C   UNL A   1      43.830  34.138  33.644  1.00  0.00     0.020 A 
ATOM     64  C   UNL A   1      44.541  34.889  31.445  1.00  0.00     0.020 A 
ATOM     65  C   UNL A   1      44.253  35.157  32.785  1.00  0.00     0.054 A 
BRANCH  65  66
ATOM     66  S   UNL A   1      44.447  36.831  33.454  1.00  0.00     0.124 S 
ATOM     67  O   UNL A   1      43.060  37.273  33.569  1.00  0.00    -0.237 OA
ATOM     68  O   UNL A   1      45.136  36.590  34.721  1.00  0.00    -0.237 OA
ATOM     69  O   UNL A   1      45.239  37.522  32.440  1.00  0.00    -0.744 OA
ENDBRANCH  65  66
ENDBRANCH  46  60
BRANCH  47  70
ATOM     70  C   UNL A   1      42.664  23.472  27.798  1.00  0.00    -0.014 A 
ATOM     71  C   UNL A   1      42.959  23.267  26.439  1.00  0.00     0.010 A 
ATOM     72  C   UNL A   1      42.212  22.385  28.569  1.00  0.00     0.010 A 
ATOM     73  C   UNL A   1      42.786  22.008  25.858  1.00  0.00     0.020 A 
ATOM     74  C   UNL A   1      42.069  21.117  27.999  1.00  0.00     0.020 A 
ATOM     75  C   UNL A   1      42.346  20.939  26.643  1.00  0.00     0.054 A 
BRANCH  75  76
ATOM     76  S   UNL A   1      42.179  19.303  25.878  1.00  0.00     0.124 S 
ATOM     77  O   UNL A   1      42.666  18.422  26.933  1.00  0.00    -0.237 OA
ATOM     78  O   UNL A   1      40.745  19.230  25.603  1.00  0.00    -0.237 OA
ATOM     79  O   UNL A   1      43.028  19.391  24.692  1.00  0.00    -0.744 OA
ENDBRANCH  75  76
ENDBRANCH  47  70
BRANCH  59  80
ATOM     80  C   UNL A   1      48.006  26.645  30.977  1.00  0.00    -0.014 A 
ATOM     81  C   UNL A   1      49.064  26.781  30.059  1.00  0.00     0.010 A 
ATOM     82  C   UNL A   1      48.274  26.128  32.259  1.00  0.00     0.010 A 
ATOM     83  C   UNL A   1      50.356  26.375  30.405  1.00  0.00     0.020 A 
ATOM     84  C   UNL A   1      49.570  25.754  32.620  1.00  0.00     0.020 A 
ATOM     85  C   UNL A   1      50.600  25.866  31.685  1.00  0.00     0.054 A 
BRANCH  85  86
ATOM     86  S   UNL A   1      52.295  25.389  32.123  1.00  0.00     0.124 S 
ATOM     87  O   UNL A   1      52.207  23.931  32.136  1.00  0.00    -0.237 OA
ATOM     88  O   UNL A   1      53.080  25.962  31.032  1.00  0.00    -0.237 OA
ATOM     89  O   UNL A   1      52.505  26.013  33.427  1.00  0.00    -0.744 OA
ENDBRANCH  85  86
ENDBRANCH  59  80
ENDBRANCH  33  34
ENDBRANCH  25  28
ENDBRANCH  23  24
ENDBRANCH   1  23
TORSDOF 17
ENDMDL
