MODEL 1
REMARK VINA RESULT:     -12.4      0.000      0.000
REMARK SMILES CCCc1cc(S(F)(F)(F)(F)F)cc2c1O[C@@H](C(F)(F)F)C(C(=O)NCCCNC(=O)c1ccc(-c3c4nc(c(-c5ccc(S(=O)(=O)[O-])cc5)c5ccc([nH]5)c(-c5ccc(S(=O)(=O)[O-])cc5)c5nc(c(-c6ccc(S(=O)(=O)[O-])cc6)c6ccc3[nH]6)C=C5)C=C4)cc1)=C2
REMARK SMILES IDX 27 1 26 2 25 3 23 4 24 5 22 7 4 8 5 9 15 10 6 11 14 12 16 13
REMARK SMILES IDX 13 14 92 15 17 16 3 17 2 18 1 19 7 20 8 21 9 22 10 23 11 24
REMARK SMILES IDX 12 25 18 26 19 27 20 28 21 29 28 30 29 31 30 32 31 34 32 35
REMARK SMILES IDX 33 36 91 37 34 38 90 39 35 40 36 41 37 42 84 43 38 44 89 45
REMARK SMILES IDX 83 46 85 47 39 48 88 49 82 50 81 51 40 53 70 54 51 55 69 56
REMARK SMILES IDX 52 57 55 58 68 59 86 60 53 61 54 62 67 64 87 65 56 66 41 67
REMARK SMILES IDX 42 68 50 69 43 70 49 71 44 72 45 73 46 74 47 75 48 76 71 77
REMARK SMILES IDX 72 78 80 79 73 80 79 81 74 82 75 83 76 84 77 85 78 86 57 87
REMARK SMILES IDX 58 88 66 89 59 90 65 91 60 92 61 93 62 94 63 95 64 96
REMARK H PARENT 25 6 29 33 85 52 55 63
REMARK Flexibility Score: inf
ROOT
ATOM      1  C   UNL A   1      34.764  30.661  27.449  1.00  0.00     0.042 C 
ENDROOT
BRANCH   1   2
ATOM      2  C   UNL A   1      33.906  29.720  26.619  1.00  0.00     0.118 C 
BRANCH   2   3
ATOM      3  N   UNL A   1      32.754  29.275  27.417  1.00  0.00    -0.352 N 
ATOM      4  C   UNL A   1      32.129  27.974  27.143  1.00  0.00     0.251 C 
ATOM      5  O   UNL A   1      31.134  27.588  27.833  1.00  0.00    -0.270 OA
ATOM      6  H   UNL A   1      32.401  29.850  28.135  1.00  0.00     0.163 HD
BRANCH   4   7
ATOM      7  C   UNL A   1      32.675  27.087  26.035  1.00  0.00     0.067 C 
ATOM      8  C   UNL A   1      33.735  24.388  23.029  1.00  0.00    -0.004 A 
ATOM      9  C   UNL A   1      34.775  23.500  23.234  1.00  0.00     0.032 A 
ATOM     10  C   UNL A   1      33.372  25.228  24.054  1.00  0.00     0.131 A 
ATOM     11  C   UNL A   1      35.433  23.450  24.435  1.00  0.00     0.108 A 
ATOM     12  C   UNL A   1      34.025  25.219  25.273  1.00  0.00     0.019 A 
ATOM     13  O   UNL A   1      32.267  26.023  23.874  1.00  0.00    -0.475 OA
ATOM     14  C   UNL A   1      35.064  24.311  25.447  1.00  0.00     0.036 A 
ATOM     15  C   UNL A   1      33.542  26.119  26.306  1.00  0.00     0.025 C 
ATOM     16  C   UNL A   1      32.238  27.289  24.590  1.00  0.00     0.314 C 
BRANCH   8  17
ATOM     17  C   UNL A   1      32.847  24.362  21.795  1.00  0.00     0.039 C 
BRANCH  17  18
ATOM     18  C   UNL A   1      32.913  25.709  21.095  1.00  0.00     0.001 C 
ATOM     19  C   UNL A   1      32.466  25.552  19.650  1.00  0.00     0.004 C 
ENDBRANCH  17  18
ENDBRANCH   8  17
BRANCH  11  20
ATOM     20  S   UNL A   1      36.776  22.265  24.691  1.00  0.00     0.310 S 
ATOM     21  F   UNL A   1      36.966  22.259  23.117  1.00  0.00    -0.094 F 
ATOM     22  F   UNL A   1      35.776  21.061  24.506  1.00  0.00    -0.094 F 
ATOM     23  F   UNL A   1      37.981  21.287  24.778  1.00  0.00    -0.094 F 
ATOM     24  F   UNL A   1      37.776  23.487  24.734  1.00  0.00    -0.094 F 
ATOM     25  F   UNL A   1      35.575  23.273  24.490  1.00  0.00    -0.094 F 
ENDBRANCH  11  20
BRANCH  16  26
ATOM     26  C   UNL A   1      30.820  27.837  24.573  1.00  0.00     0.429 C 
ATOM     27  F   UNL A   1      30.380  27.890  23.319  1.00  0.00    -0.167 F 
ATOM     28  F   UNL A   1      30.029  27.042  25.287  1.00  0.00    -0.167 F 
ATOM     29  F   UNL A   1      30.811  29.059  25.098  1.00  0.00    -0.167 F 
ENDBRANCH  16  26
ENDBRANCH   4   7
ENDBRANCH   2   3
ENDBRANCH   1   2
BRANCH   1  30
ATOM     30  C   UNL A   1      35.644  29.850  28.386  1.00  0.00     0.118 C 
BRANCH  30  31
ATOM     31  N   UNL A   1      35.438  30.305  29.768  1.00  0.00    -0.352 N 
ATOM     32  C   UNL A   1      36.578  30.386  30.694  1.00  0.00     0.251 C 
ATOM     33  H   UNL A   1      34.536  30.557  30.075  1.00  0.00     0.163 HD
ATOM     34  O   UNL A   1      36.399  30.780  31.890  1.00  0.00    -0.269 OA
BRANCH  32  35
ATOM     35  C   UNL A   1      37.969  29.998  30.222  1.00  0.00     0.039 A 
ATOM     36  C   UNL A   1      38.858  29.415  31.110  1.00  0.00     0.014 A 
ATOM     37  C   UNL A   1      38.309  30.230  28.959  1.00  0.00     0.014 A 
ATOM     38  C   UNL A   1      40.192  29.376  30.642  1.00  0.00     0.010 A 
ATOM     39  C   UNL A   1      39.602  30.041  28.537  1.00  0.00     0.010 A 
ATOM     40  C   UNL A   1      40.549  29.523  29.379  1.00  0.00    -0.014 A 
BRANCH  40  41
ATOM     41  C   UNL A   1      41.933  29.139  28.886  1.00  0.00     0.031 A 
ATOM     42  C   UNL A   1      42.140  27.809  28.513  1.00  0.00     0.074 A 
ATOM     43  C   UNL A   1      42.909  30.119  28.828  1.00  0.00     0.049 A 
ATOM     44  N   UNL A   1      43.254  27.266  28.020  1.00  0.00    -0.248 NA
ATOM     45  C   UNL A   1      41.115  26.759  28.605  1.00  0.00     0.031 C 
ATOM     46  C   UNL A   1      42.707  31.464  29.195  1.00  0.00     0.029 A 
ATOM     47  N   UNL A   1      44.218  29.986  28.420  1.00  0.00    -0.354 N 
ATOM     48  C   UNL A   1      43.062  25.970  27.764  1.00  0.00     0.074 A 
ATOM     49  C   UNL A   1      41.685  25.624  28.143  1.00  0.00     0.031 C 
ATOM     50  C   UNL A   1      43.879  32.129  29.022  1.00  0.00     0.029 A 
ATOM     51  C   UNL A   1      44.834  31.212  28.543  1.00  0.00     0.049 A 
ATOM     52  H   UNL A   1      44.640  29.157  28.096  1.00  0.00     0.167 HD
ATOM     53  C   UNL A   1      43.978  25.065  27.229  1.00  0.00     0.031 A 
ATOM     54  C   UNL A   1      46.153  31.531  28.261  1.00  0.00     0.031 A 
ATOM     55  C   UNL A   1      45.285  25.395  26.906  1.00  0.00     0.049 A 
ATOM     56  C   UNL A   1      47.087  30.611  27.779  1.00  0.00     0.074 A 
ATOM     57  C   UNL A   1      46.221  24.496  26.359  1.00  0.00     0.029 A 
ATOM     58  N   UNL A   1      45.907  26.615  27.052  1.00  0.00    -0.354 N 
ATOM     59  N   UNL A   1      46.882  29.326  27.487  1.00  0.00    -0.248 NA
ATOM     60  C   UNL A   1      48.495  30.931  27.507  1.00  0.00     0.031 C 
ATOM     61  C   UNL A   1      47.393  25.162  26.185  1.00  0.00     0.029 A 
ATOM     62  C   UNL A   1      47.210  26.487  26.622  1.00  0.00     0.049 A 
ATOM     63  H   UNL A   1      45.493  27.436  27.402  1.00  0.00     0.167 HD
ATOM     64  C   UNL A   1      48.009  28.774  27.034  1.00  0.00     0.074 A 
ATOM     65  C   UNL A   1      49.064  29.796  27.048  1.00  0.00     0.031 C 
ATOM     66  C   UNL A   1      48.199  27.459  26.606  1.00  0.00     0.031 A 
BRANCH  53  67
ATOM     67  C   UNL A   1      43.519  23.637  26.987  1.00  0.00    -0.014 A 
ATOM     68  C   UNL A   1      43.243  23.272  25.679  1.00  0.00     0.010 A 
ATOM     69  C   UNL A   1      43.401  22.767  27.984  1.00  0.00     0.010 A 
ATOM     70  C   UNL A   1      42.566  22.035  25.559  1.00  0.00     0.020 A 
ATOM     71  C   UNL A   1      42.854  21.524  27.768  1.00  0.00     0.020 A 
ATOM     72  C   UNL A   1      42.505  21.120  26.510  1.00  0.00     0.054 A 
BRANCH  72  73
ATOM     73  S   UNL A   1      41.984  19.421  26.165  1.00  0.00     0.124 S 
ATOM     74  O   UNL A   1      42.750  18.889  24.952  1.00  0.00    -0.237 OA
ATOM     75  O   UNL A   1      42.279  18.540  27.382  1.00  0.00    -0.237 OA
ATOM     76  O   UNL A   1      40.305  19.395  25.836  1.00  0.00    -0.744 OA
ENDBRANCH  72  73
ENDBRANCH  53  67
BRANCH  54  77
ATOM     77  C   UNL A   1      46.607  32.964  28.487  1.00  0.00    -0.014 A 
ATOM     78  C   UNL A   1      46.413  33.872  27.459  1.00  0.00     0.010 A 
ATOM     79  C   UNL A   1      47.207  33.320  29.616  1.00  0.00     0.010 A 
ATOM     80  C   UNL A   1      47.152  35.069  27.605  1.00  0.00     0.020 A 
ATOM     81  C   UNL A   1      47.790  34.559  29.738  1.00  0.00     0.020 A 
ATOM     82  C   UNL A   1      47.690  35.485  28.737  1.00  0.00     0.054 A 
BRANCH  82  83
ATOM     83  S   UNL A   1      48.262  37.188  28.953  1.00  0.00     0.124 S 
ATOM     84  O   UNL A   1      49.517  37.198  29.830  1.00  0.00    -0.237 OA
ATOM     85  O   UNL A   1      48.590  37.793  27.586  1.00  0.00    -0.237 OA
ATOM     86  O   UNL A   1      47.034  38.111  29.704  1.00  0.00    -0.744 OA
ENDBRANCH  82  83
ENDBRANCH  54  77
BRANCH  66  87
ATOM     87  C   UNL A   1      49.575  27.067  26.090  1.00  0.00    -0.014 A 
ATOM     88  C   UNL A   1      49.929  27.365  24.784  1.00  0.00     0.010 A 
ATOM     89  C   UNL A   1      50.414  26.438  26.904  1.00  0.00     0.010 A 
ATOM     90  C   UNL A   1      51.095  26.698  24.340  1.00  0.00     0.020 A 
ATOM     91  C   UNL A   1      51.600  25.930  26.431  1.00  0.00     0.020 A 
ATOM     92  C   UNL A   1      51.985  26.136  25.136  1.00  0.00     0.054 A 
BRANCH  92  93
ATOM     93  S   UNL A   1      53.630  25.664  24.545  1.00  0.00     0.124 S 
ATOM     94  O   UNL A   1      53.741  25.968  23.049  1.00  0.00    -0.237 OA
ATOM     95  O   UNL A   1      54.693  26.457  25.308  1.00  0.00    -0.237 OA
ATOM     96  O   UNL A   1      53.871  23.991  24.804  1.00  0.00    -0.744 OA
ENDBRANCH  92  93
ENDBRANCH  66  87
ENDBRANCH  40  41
ENDBRANCH  32  35
ENDBRANCH  30  31
ENDBRANCH   1  30
TORSDOF 17
ENDMDL
MODEL 2
REMARK VINA RESULT:     -12.2      0.539      7.973
REMARK SMILES CCCc1cc(S(F)(F)(F)(F)F)cc2c1O[C@@H](C(F)(F)F)C(C(=O)NCCCNC(=O)c1ccc(-c3c4nc(c(-c5ccc(S(=O)(=O)[O-])cc5)c5ccc([nH]5)c(-c5ccc(S(=O)(=O)[O-])cc5)c5nc(c(-c6ccc(S(=O)(=O)[O-])cc6)c6ccc3[nH]6)C=C5)C=C4)cc1)=C2
REMARK SMILES IDX 27 1 26 2 25 3 23 4 24 5 22 7 4 8 5 9 15 10 6 11 14 12 16 13
REMARK SMILES IDX 13 14 92 15 17 16 3 17 2 18 1 19 7 20 8 21 9 22 10 23 11 24
REMARK SMILES IDX 12 25 18 26 19 27 20 28 21 29 28 30 29 31 30 32 31 34 32 35
REMARK SMILES IDX 33 36 91 37 34 38 90 39 35 40 36 41 37 42 84 43 38 44 89 45
REMARK SMILES IDX 83 46 85 47 39 48 88 49 82 50 81 51 40 53 70 54 51 55 69 56
REMARK SMILES IDX 52 57 55 58 68 59 86 60 53 61 54 62 67 64 87 65 56 66 41 67
REMARK SMILES IDX 42 68 50 69 43 70 49 71 44 72 45 73 46 74 47 75 48 76 71 77
REMARK SMILES IDX 72 78 80 79 73 80 79 81 74 82 75 83 76 84 77 85 78 86 57 87
REMARK SMILES IDX 58 88 66 89 59 90 65 91 60 92 61 93 62 94 63 95 64 96
REMARK H PARENT 25 6 29 33 85 52 55 63
REMARK Flexibility Score: inf
ROOT
ATOM      1  C   UNL A   1      34.942  30.650  27.651  1.00  0.00     0.042 C 
ENDROOT
BRANCH   1   2
ATOM      2  C   UNL A   1      34.117  29.718  26.777  1.00  0.00     0.118 C 
BRANCH   2   3
ATOM      3  N   UNL A   1      32.913  29.299  27.508  1.00  0.00    -0.352 N 
ATOM      4  C   UNL A   1      32.269  28.017  27.187  1.00  0.00     0.251 C 
ATOM      5  O   UNL A   1      31.228  27.654  27.820  1.00  0.00    -0.270 OA
ATOM      6  H   UNL A   1      32.538  29.877  28.212  1.00  0.00     0.163 HD
BRANCH   4   7
ATOM      7  C   UNL A   1      32.849  27.125  26.101  1.00  0.00     0.067 C 
ATOM      8  C   UNL A   1      34.019  24.391  23.169  1.00  0.00    -0.004 A 
ATOM      9  C   UNL A   1      35.108  23.567  23.389  1.00  0.00     0.032 A 
ATOM     10  C   UNL A   1      33.623  25.243  24.172  1.00  0.00     0.131 A 
ATOM     11  C   UNL A   1      35.781  23.592  24.582  1.00  0.00     0.108 A 
ATOM     12  C   UNL A   1      34.289  25.309  25.382  1.00  0.00     0.019 A 
ATOM     13  O   UNL A   1      32.475  25.972  23.980  1.00  0.00    -0.475 OA
ATOM     14  C   UNL A   1      35.377  24.464  25.572  1.00  0.00     0.036 A 
ATOM     15  C   UNL A   1      33.769  26.215  26.392  1.00  0.00     0.025 C 
ATOM     16  C   UNL A   1      32.386  27.257  24.656  1.00  0.00     0.314 C 
BRANCH   8  17
ATOM     17  C   UNL A   1      33.120  24.278  21.948  1.00  0.00     0.039 C 
BRANCH  17  18
ATOM     18  C   UNL A   1      32.869  22.812  21.637  1.00  0.00     0.001 C 
ATOM     19  C   UNL A   1      32.045  22.191  22.754  1.00  0.00     0.004 C 
ENDBRANCH  17  18
ENDBRANCH   8  17
BRANCH  11  20
ATOM     20  S   UNL A   1      37.188  22.489  24.859  1.00  0.00     0.310 S 
ATOM     21  F   UNL A   1      36.592  22.217  26.303  1.00  0.00    -0.094 F 
ATOM     22  F   UNL A   1      38.015  23.669  25.497  1.00  0.00    -0.094 F 
ATOM     23  F   UNL A   1      38.317  21.476  25.203  1.00  0.00    -0.094 F 
ATOM     24  F   UNL A   1      36.288  21.297  24.343  1.00  0.00    -0.094 F 
ATOM     25  F   UNL A   1      35.988  23.486  24.607  1.00  0.00    -0.094 F 
ENDBRANCH  11  20
BRANCH  16  26
ATOM     26  C   UNL A   1      30.940  27.728  24.640  1.00  0.00     0.429 C 
ATOM     27  F   UNL A   1      30.476  27.692  23.395  1.00  0.00    -0.167 F 
ATOM     28  F   UNL A   1      30.206  26.929  25.410  1.00  0.00    -0.167 F 
ATOM     29  F   UNL A   1      30.874  28.973  25.103  1.00  0.00    -0.167 F 
ENDBRANCH  16  26
ENDBRANCH   4   7
ENDBRANCH   2   3
ENDBRANCH   1   2
BRANCH   1  30
ATOM     30  C   UNL A   1      35.686  29.837  28.698  1.00  0.00     0.118 C 
BRANCH  30  31
ATOM     31  N   UNL A   1      35.576  30.503  30.004  1.00  0.00    -0.352 N 
ATOM     32  C   UNL A   1      36.788  30.790  30.787  1.00  0.00     0.251 C 
ATOM     33  H   UNL A   1      34.692  30.757  30.355  1.00  0.00     0.163 HD
ATOM     34  O   UNL A   1      36.693  31.366  31.916  1.00  0.00    -0.269 OA
BRANCH  32  35
ATOM     35  C   UNL A   1      38.153  30.398  30.246  1.00  0.00     0.039 A 
ATOM     36  C   UNL A   1      38.449  30.612  28.910  1.00  0.00     0.014 A 
ATOM     37  C   UNL A   1      39.039  29.851  31.069  1.00  0.00     0.014 A 
ATOM     38  C   UNL A   1      39.616  29.945  28.467  1.00  0.00     0.010 A 
ATOM     39  C   UNL A   1      40.220  29.340  30.587  1.00  0.00     0.010 A 
ATOM     40  C   UNL A   1      40.552  29.463  29.265  1.00  0.00    -0.014 A 
BRANCH  40  41
ATOM     41  C   UNL A   1      41.923  29.068  28.744  1.00  0.00     0.031 A 
ATOM     42  C   UNL A   1      42.905  30.060  28.693  1.00  0.00     0.074 A 
ATOM     43  C   UNL A   1      42.129  27.756  28.355  1.00  0.00     0.049 A 
ATOM     44  N   UNL A   1      44.176  29.927  28.311  1.00  0.00    -0.248 NA
ATOM     45  C   UNL A   1      42.680  31.462  29.074  1.00  0.00     0.031 C 
ATOM     46  C   UNL A   1      41.146  26.747  28.411  1.00  0.00     0.029 A 
ATOM     47  N   UNL A   1      43.282  27.192  27.856  1.00  0.00    -0.354 N 
ATOM     48  C   UNL A   1      44.814  31.095  28.417  1.00  0.00     0.074 A 
ATOM     49  C   UNL A   1      43.858  32.101  28.903  1.00  0.00     0.031 C 
ATOM     50  C   UNL A   1      41.696  25.596  27.941  1.00  0.00     0.029 A 
ATOM     51  C   UNL A   1      43.031  25.865  27.585  1.00  0.00     0.049 A 
ATOM     52  H   UNL A   1      44.139  27.658  27.717  1.00  0.00     0.167 HD
ATOM     53  C   UNL A   1      46.153  31.361  28.130  1.00  0.00     0.031 A 
ATOM     54  C   UNL A   1      43.903  24.927  27.055  1.00  0.00     0.031 A 
ATOM     55  C   UNL A   1      47.036  30.412  27.641  1.00  0.00     0.049 A 
ATOM     56  C   UNL A   1      45.228  25.208  26.713  1.00  0.00     0.074 A 
ATOM     57  C   UNL A   1      48.392  30.661  27.351  1.00  0.00     0.029 A 
ATOM     58  N   UNL A   1      46.778  29.091  27.346  1.00  0.00    -0.354 N 
ATOM     59  N   UNL A   1      45.875  26.366  26.855  1.00  0.00    -0.248 NA
ATOM     60  C   UNL A   1      46.151  24.230  26.120  1.00  0.00     0.031 C 
ATOM     61  C   UNL A   1      48.941  29.510  26.882  1.00  0.00     0.029 A 
ATOM     62  C   UNL A   1      47.939  28.523  26.868  1.00  0.00     0.049 A 
ATOM     63  H   UNL A   1      45.915  28.633  27.459  1.00  0.00     0.167 HD
ATOM     64  C   UNL A   1      47.134  26.243  26.433  1.00  0.00     0.074 A 
ATOM     65  C   UNL A   1      47.328  24.869  25.948  1.00  0.00     0.031 C 
ATOM     66  C   UNL A   1      48.132  27.219  26.437  1.00  0.00     0.031 A 
BRANCH  53  67
ATOM     67  C   UNL A   1      46.671  32.770  28.366  1.00  0.00    -0.014 A 
ATOM     68  C   UNL A   1      46.605  33.656  27.304  1.00  0.00     0.010 A 
ATOM     69  C   UNL A   1      47.154  33.144  29.546  1.00  0.00     0.010 A 
ATOM     70  C   UNL A   1      47.344  34.847  27.502  1.00  0.00     0.020 A 
ATOM     71  C   UNL A   1      47.743  34.375  29.703  1.00  0.00     0.020 A 
ATOM     72  C   UNL A   1      47.764  35.280  28.678  1.00  0.00     0.054 A 
BRANCH  72  73
ATOM     73  S   UNL A   1      48.340  36.979  28.917  1.00  0.00     0.124 S 
ATOM     74  O   UNL A   1      47.219  37.954  28.551  1.00  0.00    -0.237 OA
ATOM     75  O   UNL A   1      48.734  37.182  30.382  1.00  0.00    -0.237 OA
ATOM     76  O   UNL A   1      49.697  37.268  27.917  1.00  0.00    -0.744 OA
ENDBRANCH  72  73
ENDBRANCH  53  67
BRANCH  54  77
ATOM     77  C   UNL A   1      43.388  23.514  26.835  1.00  0.00    -0.014 A 
ATOM     78  C   UNL A   1      43.209  22.713  27.951  1.00  0.00     0.010 A 
ATOM     79  C   UNL A   1      43.160  23.053  25.612  1.00  0.00     0.010 A 
ATOM     80  C   UNL A   1      43.061  21.338  27.651  1.00  0.00     0.020 A 
ATOM     81  C   UNL A   1      42.887  21.721  25.406  1.00  0.00     0.020 A 
ATOM     82  C   UNL A   1      42.755  20.860  26.459  1.00  0.00     0.054 A 
BRANCH  82  83
ATOM     83  S   UNL A   1      42.189  19.156  26.232  1.00  0.00     0.124 S 
ATOM     84  O   UNL A   1      40.721  19.159  25.798  1.00  0.00    -0.237 OA
ATOM     85  O   UNL A   1      43.038  18.476  25.155  1.00  0.00    -0.237 OA
ATOM     86  O   UNL A   1      42.346  18.302  27.705  1.00  0.00    -0.744 OA
ENDBRANCH  82  83
ENDBRANCH  54  77
BRANCH  66  87
ATOM     87  C   UNL A   1      49.515  26.830  25.939  1.00  0.00    -0.014 A 
ATOM     88  C   UNL A   1      50.427  26.265  26.816  1.00  0.00     0.010 A 
ATOM     89  C   UNL A   1      49.825  27.045  24.667  1.00  0.00     0.010 A 
ATOM     90  C   UNL A   1      51.751  26.225  26.318  1.00  0.00     0.020 A 
ATOM     91  C   UNL A   1      51.110  26.855  24.218  1.00  0.00     0.020 A 
ATOM     92  C   UNL A   1      52.077  26.356  25.046  1.00  0.00     0.054 A 
BRANCH  92  93
ATOM     93  S   UNL A   1      53.715  25.897  24.429  1.00  0.00     0.124 S 
ATOM     94  O   UNL A   1      53.731  25.991  22.902  1.00  0.00    -0.237 OA
ATOM     95  O   UNL A   1      54.764  26.849  25.010  1.00  0.00    -0.237 OA
ATOM     96  O   UNL A   1      54.075  24.294  24.904  1.00  0.00    -0.744 OA
ENDBRANCH  92  93
ENDBRANCH  66  87
ENDBRANCH  40  41
ENDBRANCH  32  35
ENDBRANCH  30  31
ENDBRANCH   1  30
TORSDOF 17
ENDMDL
MODEL 3
REMARK VINA RESULT:     -12.1      6.360     11.690
REMARK SMILES CCCc1cc(S(F)(F)(F)(F)F)cc2c1O[C@@H](C(F)(F)F)C(C(=O)NCCCNC(=O)c1ccc(-c3c4nc(c(-c5ccc(S(=O)(=O)[O-])cc5)c5ccc([nH]5)c(-c5ccc(S(=O)(=O)[O-])cc5)c5nc(c(-c6ccc(S(=O)(=O)[O-])cc6)c6ccc3[nH]6)C=C5)C=C4)cc1)=C2
REMARK SMILES IDX 27 1 26 2 25 3 23 4 24 5 22 7 4 8 5 9 15 10 6 11 14 12 16 13
REMARK SMILES IDX 13 14 92 15 17 16 3 17 2 18 1 19 7 20 8 21 9 22 10 23 11 24
REMARK SMILES IDX 12 25 18 26 19 27 20 28 21 29 28 30 29 31 30 32 31 34 32 35
REMARK SMILES IDX 33 36 91 37 34 38 90 39 35 40 36 41 37 42 84 43 38 44 89 45
REMARK SMILES IDX 83 46 85 47 39 48 88 49 82 50 81 51 40 53 70 54 51 55 69 56
REMARK SMILES IDX 52 57 55 58 68 59 86 60 53 61 54 62 67 64 87 65 56 66 41 67
REMARK SMILES IDX 42 68 50 69 43 70 49 71 44 72 45 73 46 74 47 75 48 76 71 77
REMARK SMILES IDX 72 78 80 79 73 80 79 81 74 82 75 83 76 84 77 85 78 86 57 87
REMARK SMILES IDX 58 88 66 89 59 90 65 91 60 92 61 93 62 94 63 95 64 96
REMARK H PARENT 25 6 29 33 85 52 55 63
REMARK Flexibility Score: inf
ROOT
ATOM      1  C   UNL A   1      38.079  23.204  26.180  1.00  0.00     0.042 C 
ENDROOT
BRANCH   1   2
ATOM      2  C   UNL A   1      36.824  23.607  25.423  1.00  0.00     0.118 C 
BRANCH   2   3
ATOM      3  N   UNL A   1      35.819  22.540  25.536  1.00  0.00    -0.352 N 
ATOM      4  C   UNL A   1      34.393  22.852  25.365  1.00  0.00     0.251 C 
ATOM      5  O   UNL A   1      33.524  21.930  25.462  1.00  0.00    -0.270 OA
ATOM      6  H   UNL A   1      36.102  21.616  25.728  1.00  0.00     0.163 HD
BRANCH   4   7
ATOM      7  C   UNL A   1      33.957  24.278  25.069  1.00  0.00     0.067 C 
ATOM      8  C   UNL A   1      33.154  28.215  23.930  1.00  0.00    -0.004 A 
ATOM      9  C   UNL A   1      33.312  29.244  24.841  1.00  0.00     0.032 A 
ATOM     10  C   UNL A   1      33.477  26.936  24.315  1.00  0.00     0.131 A 
ATOM     11  C   UNL A   1      33.785  29.000  26.103  1.00  0.00     0.108 A 
ATOM     12  C   UNL A   1      33.939  26.650  25.586  1.00  0.00     0.019 A 
ATOM     13  O   UNL A   1      33.421  25.945  23.365  1.00  0.00    -0.475 OA
ATOM     14  C   UNL A   1      34.091  27.707  26.476  1.00  0.00     0.036 A 
ATOM     15  C   UNL A   1      34.290  25.272  25.883  1.00  0.00     0.025 C 
ATOM     16  C   UNL A   1      33.130  24.598  23.831  1.00  0.00     0.314 C 
BRANCH   8  17
ATOM     17  C   UNL A   1      32.816  28.443  22.465  1.00  0.00     0.039 C 
BRANCH  17  18
ATOM     18  C   UNL A   1      31.395  28.969  22.348  1.00  0.00     0.001 C 
ATOM     19  C   UNL A   1      30.415  27.817  22.505  1.00  0.00     0.004 C 
ENDBRANCH  17  18
ENDBRANCH   8  17
BRANCH  11  20
ATOM     20  S   UNL A   1      34.008  30.362  27.273  1.00  0.00     0.310 S 
ATOM     21  F   UNL A   1      34.256  29.261  28.387  1.00  0.00    -0.094 F 
ATOM     22  F   UNL A   1      32.481  30.309  27.657  1.00  0.00    -0.094 F 
ATOM     23  F   UNL A   1      34.274  31.438  28.364  1.00  0.00    -0.094 F 
ATOM     24  F   UNL A   1      35.557  30.300  26.970  1.00  0.00    -0.094 F 
ATOM     25  F   UNL A   1      33.773  29.189  26.240  1.00  0.00    -0.094 F 
ENDBRANCH  11  20
BRANCH  16  26
ATOM     26  C   UNL A   1      33.478  23.607  22.732  1.00  0.00     0.429 C 
ATOM     27  F   UNL A   1      34.775  23.319  22.789  1.00  0.00    -0.167 F 
ATOM     28  F   UNL A   1      32.769  22.495  22.897  1.00  0.00    -0.167 F 
ATOM     29  F   UNL A   1      33.195  24.142  21.547  1.00  0.00    -0.167 F 
ENDBRANCH  16  26
ENDBRANCH   4   7
ENDBRANCH   2   3
ENDBRANCH   1   2
BRANCH   1  30
ATOM     30  C   UNL A   1      38.899  24.444  26.496  1.00  0.00     0.118 C 
BRANCH  30  31
ATOM     31  N   UNL A   1      40.180  24.379  25.779  1.00  0.00    -0.352 N 
ATOM     32  C   UNL A   1      41.311  25.213  26.215  1.00  0.00     0.251 C 
ATOM     33  H   UNL A   1      40.282  23.777  25.006  1.00  0.00     0.163 HD
ATOM     34  O   UNL A   1      42.419  25.157  25.594  1.00  0.00    -0.269 OA
BRANCH  32  35
ATOM     35  C   UNL A   1      41.154  26.141  27.408  1.00  0.00     0.039 A 
ATOM     36  C   UNL A   1      40.508  25.692  28.547  1.00  0.00     0.014 A 
ATOM     37  C   UNL A   1      41.640  27.375  27.331  1.00  0.00     0.014 A 
ATOM     38  C   UNL A   1      40.167  26.722  29.456  1.00  0.00     0.010 A 
ATOM     39  C   UNL A   1      41.381  28.291  28.322  1.00  0.00     0.010 A 
ATOM     40  C   UNL A   1      40.697  27.932  29.451  1.00  0.00    -0.014 A 
BRANCH  40  41
ATOM     41  C   UNL A   1      40.554  28.874  30.634  1.00  0.00     0.031 A 
ATOM     42  C   UNL A   1      39.599  29.889  30.540  1.00  0.00     0.074 A 
ATOM     43  C   UNL A   1      41.366  28.677  31.737  1.00  0.00     0.049 A 
ATOM     44  N   UNL A   1      39.281  30.795  31.466  1.00  0.00    -0.248 NA
ATOM     45  C   UNL A   1      38.759  30.122  29.356  1.00  0.00     0.031 C 
ATOM     46  C   UNL A   1      42.326  27.650  31.843  1.00  0.00     0.029 A 
ATOM     47  N   UNL A   1      41.402  29.409  32.903  1.00  0.00    -0.354 N 
ATOM     48  C   UNL A   1      38.306  31.589  31.018  1.00  0.00     0.074 A 
ATOM     49  C   UNL A   1      37.961  31.172  29.652  1.00  0.00     0.031 C 
ATOM     50  C   UNL A   1      42.939  27.770  33.050  1.00  0.00     0.029 A 
ATOM     51  C   UNL A   1      42.373  28.872  33.719  1.00  0.00     0.049 A 
ATOM     52  H   UNL A   1      40.832  30.183  33.116  1.00  0.00     0.167 HD
ATOM     53  C   UNL A   1      37.691  32.644  31.694  1.00  0.00     0.031 A 
ATOM     54  C   UNL A   1      42.759  29.306  34.978  1.00  0.00     0.031 A 
ATOM     55  C   UNL A   1      38.048  33.049  32.970  1.00  0.00     0.049 A 
ATOM     56  C   UNL A   1      42.183  30.397  35.632  1.00  0.00     0.074 A 
ATOM     57  C   UNL A   1      37.434  34.106  33.669  1.00  0.00     0.029 A 
ATOM     58  N   UNL A   1      39.035  32.528  33.776  1.00  0.00    -0.354 N 
ATOM     59  N   UNL A   1      41.183  31.166  35.199  1.00  0.00    -0.248 NA
ATOM     60  C   UNL A   1      42.606  30.886  36.951  1.00  0.00     0.031 C 
ATOM     61  C   UNL A   1      38.047  34.225  34.877  1.00  0.00     0.029 A 
ATOM     62  C   UNL A   1      39.056  33.247  34.951  1.00  0.00     0.049 A 
ATOM     63  H   UNL A   1      39.624  31.772  33.551  1.00  0.00     0.167 HD
ATOM     64  C   UNL A   1      40.894  32.098  36.108  1.00  0.00     0.074 A 
ATOM     65  C   UNL A   1      41.810  31.936  37.245  1.00  0.00     0.031 C 
ATOM     66  C   UNL A   1      39.900  33.076  36.038  1.00  0.00     0.031 A 
BRANCH  53  67
ATOM     67  C   UNL A   1      36.567  33.388  30.992  1.00  0.00    -0.014 A 
ATOM     68  C   UNL A   1      35.326  33.389  31.607  1.00  0.00     0.010 A 
ATOM     69  C   UNL A   1      36.768  34.026  29.844  1.00  0.00     0.010 A 
ATOM     70  C   UNL A   1      34.277  33.856  30.780  1.00  0.00     0.020 A 
ATOM     71  C   UNL A   1      35.714  34.576  29.156  1.00  0.00     0.020 A 
ATOM     72  C   UNL A   1      34.450  34.562  29.678  1.00  0.00     0.054 A 
BRANCH  72  73
ATOM     73  S   UNL A   1      33.087  35.461  28.897  1.00  0.00     0.124 S 
ATOM     74  O   UNL A   1      32.124  35.963  29.975  1.00  0.00    -0.237 OA
ATOM     75  O   UNL A   1      33.643  36.653  28.115  1.00  0.00    -0.237 OA
ATOM     76  O   UNL A   1      32.252  34.417  27.829  1.00  0.00    -0.744 OA
ENDBRANCH  72  73
ENDBRANCH  53  67
BRANCH  54  77
ATOM     77  C   UNL A   1      43.872  28.550  35.685  1.00  0.00    -0.014 A 
ATOM     78  C   UNL A   1      45.170  29.002  35.512  1.00  0.00     0.010 A 
ATOM     79  C   UNL A   1      43.610  27.467  36.408  1.00  0.00     0.010 A 
ATOM     80  C   UNL A   1      46.159  28.072  35.908  1.00  0.00     0.020 A 
ATOM     81  C   UNL A   1      44.632  26.677  36.879  1.00  0.00     0.020 A 
ATOM     82  C   UNL A   1      45.939  27.033  36.693  1.00  0.00     0.054 A 
BRANCH  82  83
ATOM     83  S   UNL A   1      47.294  26.129  37.481  1.00  0.00     0.124 S 
ATOM     84  O   UNL A   1      46.796  24.752  37.930  1.00  0.00    -0.237 OA
ATOM     85  O   UNL A   1      48.441  25.956  36.482  1.00  0.00    -0.237 OA
ATOM     86  O   UNL A   1      47.850  27.005  38.840  1.00  0.00    -0.744 OA
ENDBRANCH  82  83
ENDBRANCH  54  77
BRANCH  66  87
ATOM     87  C   UNL A   1      39.732  34.011  37.225  1.00  0.00    -0.014 A 
ATOM     88  C   UNL A   1      40.442  35.199  37.270  1.00  0.00     0.010 A 
ATOM     89  C   UNL A   1      38.906  33.665  38.205  1.00  0.00     0.010 A 
ATOM     90  C   UNL A   1      40.430  35.827  38.538  1.00  0.00     0.020 A 
ATOM     91  C   UNL A   1      38.846  34.402  39.364  1.00  0.00     0.020 A 
ATOM     92  C   UNL A   1      39.567  35.556  39.499  1.00  0.00     0.054 A 
BRANCH  92  93
ATOM     93  S   UNL A   1      39.347  36.655  40.921  1.00  0.00     0.124 S 
ATOM     94  O   UNL A   1      38.533  35.937  42.000  1.00  0.00    -0.237 OA
ATOM     95  O   UNL A   1      40.717  37.039  41.485  1.00  0.00    -0.237 OA
ATOM     96  O   UNL A   1      38.518  38.067  40.428  1.00  0.00    -0.744 OA
ENDBRANCH  92  93
ENDBRANCH  66  87
ENDBRANCH  40  41
ENDBRANCH  32  35
ENDBRANCH  30  31
ENDBRANCH   1  30
TORSDOF 17
ENDMDL
