MODEL 1
REMARK VINA RESULT:     -12.1      0.000      0.000
REMARK SMILES Cc1nnc(C[N@H+]2[C@@H]3CC[C@H]2C[C@H](CC(=O)NCCCNC(=O)c2ccc(-c4c5nc(c(-c6ccc(S(=O)(=O)[O-])cc6)c6ccc([nH]6)c(-c6ccc(S(=O)(=O)[O-])cc6)c6nc(c(-c7ccc(S(=O)(=O)[O-])cc7)c7ccc4[nH]7)C=C6)C=C5)cc2)C3)n1C
REMARK SMILES IDX 19 1 18 2 17 3 15 4 16 5 14 7 13 8 7 9 8 10 11 11 9 13 84 14
REMARK SMILES IDX 10 15 12 16 6 17 5 18 1 19 2 20 3 21 85 22 4 23 86 24 20 25
REMARK SMILES IDX 21 26 22 27 23 29 24 30 25 31 83 32 26 33 82 34 27 35 28 36
REMARK SMILES IDX 29 37 76 38 30 39 81 40 75 41 77 42 31 43 80 44 74 45 73 46
REMARK SMILES IDX 32 48 62 49 43 50 61 51 44 52 47 53 60 54 78 55 45 56 46 57
REMARK SMILES IDX 59 59 79 60 48 61 33 62 34 63 42 64 35 65 41 66 36 67 37 68
REMARK SMILES IDX 38 69 39 70 40 71 63 72 64 73 72 74 65 75 71 76 66 77 67 78
REMARK SMILES IDX 68 79 69 80 70 81 49 82 50 83 58 84 51 85 57 86 52 87 53 88
REMARK SMILES IDX 54 89 55 90 56 91
REMARK H PARENT 17 6 7 12 21 28 77 47 47 58
REMARK Flexibility Score: inf
ROOT
ATOM      1  C   UNL A   1      38.186  21.910  25.662  1.00  0.00     0.042 C 
ENDROOT
BRANCH   1   2
ATOM      2  C   UNL A   1      36.923  22.784  25.507  1.00  0.00     0.117 C 
BRANCH   2   3
ATOM      3  N   UNL A   1      35.823  22.465  26.422  1.00  0.00    -0.356 N 
ATOM      4  C   UNL A   1      34.475  22.698  26.352  1.00  0.00     0.220 C 
ATOM      5  O   UNL A   1      33.755  22.136  27.181  1.00  0.00    -0.275 OA
ATOM      6  H   UNL A   1      36.107  21.996  27.240  1.00  0.00     0.163 HD
BRANCH   4   7
ATOM      7  C   UNL A   1      33.845  23.625  25.314  1.00  0.00     0.104 C 
BRANCH   7   8
ATOM      8  C   UNL A   1      33.665  25.089  25.790  1.00  0.00     0.010 C 
ATOM      9  N   UNL A   1      31.726  27.190  24.897  1.00  0.00    -0.324 N 
ATOM     10  C   UNL A   1      31.722  26.743  26.282  1.00  0.00     0.185 C 
ATOM     11  C   UNL A   1      33.139  27.353  24.584  1.00  0.00     0.185 C 
ATOM     12  H   UNL A   1      31.182  28.051  24.839  1.00  0.00     0.348 HD
ATOM     13  C   UNL A   1      32.661  27.809  26.891  1.00  0.00     0.071 C 
ATOM     14  C   UNL A   1      32.309  25.326  26.488  1.00  0.00     0.069 C 
ATOM     15  C   UNL A   1      33.603  28.209  25.754  1.00  0.00     0.071 C 
ATOM     16  C   UNL A   1      33.854  26.014  24.597  1.00  0.00     0.069 C 
BRANCH   9  17
ATOM     17  C   UNL A   1      30.822  26.664  23.873  1.00  0.00     0.341 C 
BRANCH  17  18
ATOM     18  C   UNL A   1      29.574  27.407  23.518  1.00  0.00     0.187 A 
ATOM     19  C   UNL A   1      27.714  30.426  22.806  1.00  0.00     0.090 C 
ATOM     20  C   UNL A   1      28.213  29.040  22.968  1.00  0.00     0.129 A 
ATOM     21  N   UNL A   1      27.483  28.003  23.324  1.00  0.00    -0.135 NA
ATOM     22  N   UNL A   1      29.518  28.627  22.881  1.00  0.00    -0.314 N 
ATOM     23  N   UNL A   1      28.334  26.975  23.649  1.00  0.00    -0.129 NA
ATOM     24  C   UNL A   1      30.616  29.285  22.229  1.00  0.00     0.153 C 
ENDBRANCH  17  18
ENDBRANCH   9  17
ENDBRANCH   7   8
ENDBRANCH   4   7
ENDBRANCH   2   3
ENDBRANCH   1   2
BRANCH   1  25
ATOM     25  C   UNL A   1      39.336  22.584  26.365  1.00  0.00     0.118 C 
BRANCH  25  26
ATOM     26  N   UNL A   1      40.635  22.012  26.028  1.00  0.00    -0.352 N 
ATOM     27  C   UNL A   1      41.800  22.717  25.809  1.00  0.00     0.251 C 
ATOM     28  H   UNL A   1      40.685  21.031  25.949  1.00  0.00     0.163 HD
ATOM     29  O   UNL A   1      42.729  22.222  25.161  1.00  0.00    -0.269 OA
BRANCH  27  30
ATOM     30  C   UNL A   1      41.894  24.087  26.340  1.00  0.00     0.039 A 
ATOM     31  C   UNL A   1      41.313  25.176  25.687  1.00  0.00     0.014 A 
ATOM     32  C   UNL A   1      42.506  24.250  27.579  1.00  0.00     0.014 A 
ATOM     33  C   UNL A   1      41.288  26.412  26.334  1.00  0.00     0.010 A 
ATOM     34  C   UNL A   1      42.287  25.399  28.293  1.00  0.00     0.010 A 
ATOM     35  C   UNL A   1      41.758  26.514  27.653  1.00  0.00    -0.014 A 
BRANCH  35  36
ATOM     36  C   UNL A   1      41.683  27.769  28.393  1.00  0.00     0.031 A 
ATOM     37  C   UNL A   1      42.774  28.753  28.151  1.00  0.00     0.074 A 
ATOM     38  C   UNL A   1      40.591  28.132  29.102  1.00  0.00     0.049 A 
ATOM     39  N   UNL A   1      43.667  29.163  28.990  1.00  0.00    -0.248 NA
ATOM     40  C   UNL A   1      42.950  29.283  26.790  1.00  0.00     0.031 C 
ATOM     41  C   UNL A   1      39.293  27.452  29.204  1.00  0.00     0.029 A 
ATOM     42  N   UNL A   1      40.367  29.293  29.772  1.00  0.00    -0.354 N 
ATOM     43  C   UNL A   1      44.405  30.143  28.333  1.00  0.00     0.074 A 
ATOM     44  C   UNL A   1      44.022  30.066  26.944  1.00  0.00     0.031 C 
ATOM     45  C   UNL A   1      38.359  28.328  29.632  1.00  0.00     0.029 A 
ATOM     46  C   UNL A   1      39.027  29.553  30.021  1.00  0.00     0.049 A 
ATOM     47  H   UNL A   1      41.091  29.896  30.055  1.00  0.00     0.167 HD
ATOM     48  C   UNL A   1      45.130  31.080  29.010  1.00  0.00     0.031 A 
ATOM     49  C   UNL A   1      38.497  30.714  30.474  1.00  0.00     0.031 A 
ATOM     50  C   UNL A   1      45.255  30.758  30.407  1.00  0.00     0.049 A 
ATOM     51  C   UNL A   1      39.596  31.453  31.146  1.00  0.00     0.074 A 
ATOM     52  C   UNL A   1      45.759  29.681  31.111  1.00  0.00     0.029 A 
ATOM     53  N   UNL A   1      44.444  31.435  31.291  1.00  0.00    -0.354 N 
ATOM     54  N   UNL A   1      40.186  31.028  32.230  1.00  0.00    -0.248 NA
ATOM     55  C   UNL A   1      40.354  32.421  30.368  1.00  0.00     0.031 C 
ATOM     56  C   UNL A   1      44.834  29.481  32.177  1.00  0.00     0.029 A 
ATOM     57  C   UNL A   1      43.871  30.490  32.104  1.00  0.00     0.049 A 
ATOM     58  H   UNL A   1      44.303  32.409  31.330  1.00  0.00     0.167 HD
ATOM     59  C   UNL A   1      41.530  31.324  32.047  1.00  0.00     0.074 A 
ATOM     60  C   UNL A   1      41.555  32.275  30.935  1.00  0.00     0.031 C 
ATOM     61  C   UNL A   1      42.516  30.566  32.616  1.00  0.00     0.031 A 
BRANCH  48  62
ATOM     62  C   UNL A   1      45.429  32.465  28.490  1.00  0.00    -0.014 A 
ATOM     63  C   UNL A   1      46.761  32.931  28.503  1.00  0.00     0.010 A 
ATOM     64  C   UNL A   1      44.421  33.417  28.239  1.00  0.00     0.010 A 
ATOM     65  C   UNL A   1      47.059  34.291  28.338  1.00  0.00     0.020 A 
ATOM     66  C   UNL A   1      44.711  34.767  28.027  1.00  0.00     0.020 A 
ATOM     67  C   UNL A   1      46.028  35.201  28.115  1.00  0.00     0.054 A 
BRANCH  67  68
ATOM     68  S   UNL A   1      46.408  36.968  28.016  1.00  0.00     0.124 S 
ATOM     69  O   UNL A   1      45.637  37.376  26.846  1.00  0.00    -0.237 OA
ATOM     70  O   UNL A   1      45.920  37.465  29.300  1.00  0.00    -0.237 OA
ATOM     71  O   UNL A   1      47.860  36.997  27.854  1.00  0.00    -0.744 OA
ENDBRANCH  67  68
ENDBRANCH  48  62
BRANCH  49  72
ATOM     72  C   UNL A   1      37.201  31.321  30.082  1.00  0.00    -0.014 A 
ATOM     73  C   UNL A   1      36.320  31.834  31.050  1.00  0.00     0.010 A 
ATOM     74  C   UNL A   1      36.939  31.635  28.730  1.00  0.00     0.010 A 
ATOM     75  C   UNL A   1      35.262  32.685  30.687  1.00  0.00     0.020 A 
ATOM     76  C   UNL A   1      35.879  32.472  28.358  1.00  0.00     0.020 A 
ATOM     77  C   UNL A   1      35.063  33.018  29.344  1.00  0.00     0.054 A 
BRANCH  77  78
ATOM     78  S   UNL A   1      33.822  34.271  28.906  1.00  0.00     0.124 S 
ATOM     79  O   UNL A   1      33.232  34.591  30.203  1.00  0.00    -0.237 OA
ATOM     80  O   UNL A   1      34.635  35.324  28.305  1.00  0.00    -0.237 OA
ATOM     81  O   UNL A   1      32.937  33.571  27.978  1.00  0.00    -0.744 OA
ENDBRANCH  77  78
ENDBRANCH  49  72
BRANCH  61  82
ATOM     82  C   UNL A   1      42.146  29.539  33.666  1.00  0.00    -0.014 A 
ATOM     83  C   UNL A   1      41.667  28.249  33.360  1.00  0.00     0.010 A 
ATOM     84  C   UNL A   1      42.473  29.825  35.004  1.00  0.00     0.010 A 
ATOM     85  C   UNL A   1      41.499  27.285  34.367  1.00  0.00     0.020 A 
ATOM     86  C   UNL A   1      42.327  28.865  36.009  1.00  0.00     0.020 A 
ATOM     87  C   UNL A   1      41.833  27.600  35.687  1.00  0.00     0.054 A 
BRANCH  87  88
ATOM     88  S   UNL A   1      41.672  26.333  36.977  1.00  0.00     0.124 S 
ATOM     89  O   UNL A   1      42.868  26.549  37.786  1.00  0.00    -0.237 OA
ATOM     90  O   UNL A   1      40.407  26.681  37.621  1.00  0.00    -0.237 OA
ATOM     91  O   UNL A   1      41.651  25.075  36.231  1.00  0.00    -0.744 OA
ENDBRANCH  87  88
ENDBRANCH  61  82
ENDBRANCH  35  36
ENDBRANCH  27  30
ENDBRANCH  25  26
ENDBRANCH   1  25
TORSDOF 16
ENDMDL
MODEL 2
REMARK VINA RESULT:     -12.1      2.837      9.160
REMARK SMILES Cc1nnc(C[N@H+]2[C@@H]3CC[C@H]2C[C@H](CC(=O)NCCCNC(=O)c2ccc(-c4c5nc(c(-c6ccc(S(=O)(=O)[O-])cc6)c6ccc([nH]6)c(-c6ccc(S(=O)(=O)[O-])cc6)c6nc(c(-c7ccc(S(=O)(=O)[O-])cc7)c7ccc4[nH]7)C=C6)C=C5)cc2)C3)n1C
REMARK SMILES IDX 19 1 18 2 17 3 15 4 16 5 14 7 13 8 7 9 8 10 11 11 9 13 84 14
REMARK SMILES IDX 10 15 12 16 6 17 5 18 1 19 2 20 3 21 85 22 4 23 86 24 20 25
REMARK SMILES IDX 21 26 22 27 23 29 24 30 25 31 83 32 26 33 82 34 27 35 28 36
REMARK SMILES IDX 29 37 76 38 30 39 81 40 75 41 77 42 31 43 80 44 74 45 73 46
REMARK SMILES IDX 32 48 62 49 43 50 61 51 44 52 47 53 60 54 78 55 45 56 46 57
REMARK SMILES IDX 59 59 79 60 48 61 33 62 34 63 42 64 35 65 41 66 36 67 37 68
REMARK SMILES IDX 38 69 39 70 40 71 63 72 64 73 72 74 65 75 71 76 66 77 67 78
REMARK SMILES IDX 68 79 69 80 70 81 49 82 50 83 58 84 51 85 57 86 52 87 53 88
REMARK SMILES IDX 54 89 55 90 56 91
REMARK H PARENT 17 6 7 12 21 28 77 47 47 58
REMARK Flexibility Score: inf
ROOT
ATOM      1  C   UNL A   1      33.799  28.516  26.137  1.00  0.00     0.042 C 
ENDROOT
BRANCH   1   2
ATOM      2  C   UNL A   1      33.000  29.036  24.922  1.00  0.00     0.117 C 
BRANCH   2   3
ATOM      3  N   UNL A   1      33.542  28.668  23.611  1.00  0.00    -0.356 N 
ATOM      4  C   UNL A   1      33.576  27.478  22.934  1.00  0.00     0.220 C 
ATOM      5  O   UNL A   1      33.922  27.505  21.750  1.00  0.00    -0.275 OA
ATOM      6  H   UNL A   1      33.961  29.416  23.127  1.00  0.00     0.163 HD
BRANCH   4   7
ATOM      7  C   UNL A   1      33.225  26.142  23.585  1.00  0.00     0.104 C 
BRANCH   7   8
ATOM      8  C   UNL A   1      34.447  25.244  23.903  1.00  0.00     0.010 C 
ATOM      9  N   UNL A   1      34.580  22.518  25.136  1.00  0.00    -0.324 N 
ATOM     10  C   UNL A   1      35.090  22.728  23.789  1.00  0.00     0.185 C 
ATOM     11  C   UNL A   1      35.086  23.659  25.886  1.00  0.00     0.185 C 
ATOM     12  H   UNL A   1      34.919  21.615  25.467  1.00  0.00     0.348 HD
ATOM     13  C   UNL A   1      36.574  22.997  24.123  1.00  0.00     0.071 C 
ATOM     14  C   UNL A   1      34.470  23.948  23.066  1.00  0.00     0.069 C 
ATOM     15  C   UNL A   1      36.564  23.618  25.521  1.00  0.00     0.071 C 
ATOM     16  C   UNL A   1      34.459  24.951  25.396  1.00  0.00     0.069 C 
BRANCH   9  17
ATOM     17  C   UNL A   1      33.238  22.011  25.425  1.00  0.00     0.341 C 
BRANCH  17  18
ATOM     18  C   UNL A   1      32.179  22.932  25.941  1.00  0.00     0.187 A 
ATOM     19  C   UNL A   1      29.888  25.711  25.611  1.00  0.00     0.090 C 
ATOM     20  C   UNL A   1      30.646  24.502  26.012  1.00  0.00     0.129 A 
ATOM     21  N   UNL A   1      30.937  24.160  27.250  1.00  0.00    -0.135 NA
ATOM     22  N   UNL A   1      31.256  23.605  25.173  1.00  0.00    -0.314 N 
ATOM     23  N   UNL A   1      31.882  23.164  27.205  1.00  0.00    -0.129 NA
ATOM     24  C   UNL A   1      30.980  23.361  23.784  1.00  0.00     0.153 C 
ENDBRANCH  17  18
ENDBRANCH   9  17
ENDBRANCH   7   8
ENDBRANCH   4   7
ENDBRANCH   2   3
ENDBRANCH   1   2
BRANCH   1  25
ATOM     25  C   UNL A   1      33.684  29.365  27.377  1.00  0.00     0.118 C 
BRANCH  25  26
ATOM     26  N   UNL A   1      33.873  30.789  27.123  1.00  0.00    -0.352 N 
ATOM     27  C   UNL A   1      34.895  31.573  27.615  1.00  0.00     0.251 C 
ATOM     28  H   UNL A   1      33.207  31.233  26.547  1.00  0.00     0.163 HD
ATOM     29  O   UNL A   1      34.776  32.801  27.686  1.00  0.00    -0.269 OA
BRANCH  27  30
ATOM     30  C   UNL A   1      36.121  30.904  28.081  1.00  0.00     0.039 A 
ATOM     31  C   UNL A   1      36.458  29.610  27.678  1.00  0.00     0.014 A 
ATOM     32  C   UNL A   1      36.993  31.647  28.871  1.00  0.00     0.014 A 
ATOM     33  C   UNL A   1      37.716  29.108  28.014  1.00  0.00     0.010 A 
ATOM     34  C   UNL A   1      38.293  31.238  29.009  1.00  0.00     0.010 A 
ATOM     35  C   UNL A   1      38.643  29.938  28.664  1.00  0.00    -0.014 A 
BRANCH  35  36
ATOM     36  C   UNL A   1      39.994  29.479  28.968  1.00  0.00     0.031 A 
ATOM     37  C   UNL A   1      40.286  29.163  30.394  1.00  0.00     0.074 A 
ATOM     38  C   UNL A   1      40.885  29.149  28.007  1.00  0.00     0.049 A 
ATOM     39  N   UNL A   1      41.105  29.772  31.185  1.00  0.00    -0.248 NA
ATOM     40  C   UNL A   1      39.513  28.095  31.047  1.00  0.00     0.031 C 
ATOM     41  C   UNL A   1      40.688  29.084  26.553  1.00  0.00     0.029 A 
ATOM     42  N   UNL A   1      42.139  28.645  28.155  1.00  0.00    -0.354 N 
ATOM     43  C   UNL A   1      41.103  29.059  32.381  1.00  0.00     0.074 A 
ATOM     44  C   UNL A   1      39.998  28.135  32.292  1.00  0.00     0.031 C 
ATOM     45  C   UNL A   1      41.650  28.315  26.002  1.00  0.00     0.029 A 
ATOM     46  C   UNL A   1      42.630  28.008  27.024  1.00  0.00     0.049 A 
ATOM     47  H   UNL A   1      42.653  28.727  28.990  1.00  0.00     0.167 HD
ATOM     48  C   UNL A   1      42.130  29.140  33.275  1.00  0.00     0.031 A 
ATOM     49  C   UNL A   1      43.743  27.241  26.946  1.00  0.00     0.031 A 
ATOM     50  C   UNL A   1      43.027  30.223  32.968  1.00  0.00     0.049 A 
ATOM     51  C   UNL A   1      44.609  27.623  28.090  1.00  0.00     0.074 A 
ATOM     52  C   UNL A   1      42.881  31.590  32.824  1.00  0.00     0.029 A 
ATOM     53  N   UNL A   1      44.217  29.908  32.351  1.00  0.00    -0.354 N 
ATOM     54  N   UNL A   1      45.148  28.805  28.216  1.00  0.00    -0.248 NA
ATOM     55  C   UNL A   1      44.501  26.858  29.323  1.00  0.00     0.031 C 
ATOM     56  C   UNL A   1      43.698  31.924  31.704  1.00  0.00     0.029 A 
ATOM     57  C   UNL A   1      44.348  30.761  31.285  1.00  0.00     0.049 A 
ATOM     58  H   UNL A   1      44.851  29.204  32.622  1.00  0.00     0.167 HD
ATOM     59  C   UNL A   1      45.045  29.104  29.568  1.00  0.00     0.074 A 
ATOM     60  C   UNL A   1      44.739  27.827  30.211  1.00  0.00     0.031 C 
ATOM     61  C   UNL A   1      44.937  30.394  30.012  1.00  0.00     0.031 A 
BRANCH  48  62
ATOM     62  C   UNL A   1      42.525  28.033  34.221  1.00  0.00    -0.014 A 
ATOM     63  C   UNL A   1      42.641  28.316  35.599  1.00  0.00     0.010 A 
ATOM     64  C   UNL A   1      43.042  26.800  33.777  1.00  0.00     0.010 A 
ATOM     65  C   UNL A   1      43.299  27.436  36.471  1.00  0.00     0.020 A 
ATOM     66  C   UNL A   1      43.658  25.896  34.645  1.00  0.00     0.020 A 
ATOM     67  C   UNL A   1      43.816  26.238  35.982  1.00  0.00     0.054 A 
BRANCH  67  68
ATOM     68  S   UNL A   1      44.762  25.161  37.088  1.00  0.00     0.124 S 
ATOM     69  O   UNL A   1      44.121  25.415  38.374  1.00  0.00    -0.237 OA
ATOM     70  O   UNL A   1      44.528  23.840  36.512  1.00  0.00    -0.237 OA
ATOM     71  O   UNL A   1      46.131  25.657  36.959  1.00  0.00    -0.744 OA
ENDBRANCH  67  68
ENDBRANCH  48  62
BRANCH  49  72
ATOM     72  C   UNL A   1      43.932  26.017  26.128  1.00  0.00    -0.014 A 
ATOM     73  C   UNL A   1      45.177  25.721  25.547  1.00  0.00     0.010 A 
ATOM     74  C   UNL A   1      42.955  24.997  26.133  1.00  0.00     0.010 A 
ATOM     75  C   UNL A   1      45.457  24.435  25.054  1.00  0.00     0.020 A 
ATOM     76  C   UNL A   1      43.222  23.717  25.632  1.00  0.00     0.020 A 
ATOM     77  C   UNL A   1      44.484  23.433  25.122  1.00  0.00     0.054 A 
BRANCH  77  78
ATOM     78  S   UNL A   1      44.920  21.729  24.668  1.00  0.00     0.124 S 
ATOM     79  O   UNL A   1      44.071  20.943  25.558  1.00  0.00    -0.237 OA
ATOM     80  O   UNL A   1      44.568  21.679  23.252  1.00  0.00    -0.237 OA
ATOM     81  O   UNL A   1      46.353  21.652  24.949  1.00  0.00    -0.744 OA
ENDBRANCH  77  78
ENDBRANCH  49  72
BRANCH  61  82
ATOM     82  C   UNL A   1      45.183  31.532  29.043  1.00  0.00    -0.014 A 
ATOM     83  C   UNL A   1      46.451  32.108  28.821  1.00  0.00     0.010 A 
ATOM     84  C   UNL A   1      44.127  31.904  28.191  1.00  0.00     0.010 A 
ATOM     85  C   UNL A   1      46.647  33.043  27.793  1.00  0.00     0.020 A 
ATOM     86  C   UNL A   1      44.320  32.820  27.153  1.00  0.00     0.020 A 
ATOM     87  C   UNL A   1      45.578  33.392  26.963  1.00  0.00     0.054 A 
BRANCH  87  88
ATOM     88  S   UNL A   1      45.850  34.557  25.596  1.00  0.00     0.124 S 
ATOM     89  O   UNL A   1      44.947  34.053  24.566  1.00  0.00    -0.237 OA
ATOM     90  O   UNL A   1      45.479  35.842  26.184  1.00  0.00    -0.237 OA
ATOM     91  O   UNL A   1      47.273  34.413  25.293  1.00  0.00    -0.744 OA
ENDBRANCH  87  88
ENDBRANCH  61  82
ENDBRANCH  35  36
ENDBRANCH  27  30
ENDBRANCH  25  26
ENDBRANCH   1  25
TORSDOF 16
ENDMDL
MODEL 3
REMARK VINA RESULT:     -11.9      3.031      9.567
REMARK SMILES Cc1nnc(C[N@H+]2[C@@H]3CC[C@H]2C[C@H](CC(=O)NCCCNC(=O)c2ccc(-c4c5nc(c(-c6ccc(S(=O)(=O)[O-])cc6)c6ccc([nH]6)c(-c6ccc(S(=O)(=O)[O-])cc6)c6nc(c(-c7ccc(S(=O)(=O)[O-])cc7)c7ccc4[nH]7)C=C6)C=C5)cc2)C3)n1C
REMARK SMILES IDX 19 1 18 2 17 3 15 4 16 5 14 7 13 8 7 9 8 10 11 11 9 13 84 14
REMARK SMILES IDX 10 15 12 16 6 17 5 18 1 19 2 20 3 21 85 22 4 23 86 24 20 25
REMARK SMILES IDX 21 26 22 27 23 29 24 30 25 31 83 32 26 33 82 34 27 35 28 36
REMARK SMILES IDX 29 37 76 38 30 39 81 40 75 41 77 42 31 43 80 44 74 45 73 46
REMARK SMILES IDX 32 48 62 49 43 50 61 51 44 52 47 53 60 54 78 55 45 56 46 57
REMARK SMILES IDX 59 59 79 60 48 61 33 62 34 63 42 64 35 65 41 66 36 67 37 68
REMARK SMILES IDX 38 69 39 70 40 71 63 72 64 73 72 74 65 75 71 76 66 77 67 78
REMARK SMILES IDX 68 79 69 80 70 81 49 82 50 83 58 84 51 85 57 86 52 87 53 88
REMARK SMILES IDX 54 89 55 90 56 91
REMARK H PARENT 17 6 7 12 21 28 77 47 47 58
REMARK Flexibility Score: inf
ROOT
ATOM      1  C   UNL A   1      31.992  29.156  26.932  1.00  0.00     0.042 C 
ENDROOT
BRANCH   1   2
ATOM      2  C   UNL A   1      31.854  27.717  26.392  1.00  0.00     0.117 C 
BRANCH   2   3
ATOM      3  N   UNL A   1      31.030  27.575  25.188  1.00  0.00    -0.356 N 
ATOM      4  C   UNL A   1      30.452  26.483  24.596  1.00  0.00     0.220 C 
ATOM      5  O   UNL A   1      29.638  26.688  23.692  1.00  0.00    -0.275 OA
ATOM      6  H   UNL A   1      30.861  28.423  24.716  1.00  0.00     0.163 HD
BRANCH   4   7
ATOM      7  C   UNL A   1      30.786  25.047  24.995  1.00  0.00     0.104 C 
BRANCH   7   8
ATOM      8  C   UNL A   1      32.218  24.593  24.612  1.00  0.00     0.010 C 
ATOM      9  N   UNL A   1      33.291  21.860  24.027  1.00  0.00    -0.324 N 
ATOM     10  C   UNL A   1      33.350  22.894  23.005  1.00  0.00     0.185 C 
ATOM     11  C   UNL A   1      33.716  22.541  25.242  1.00  0.00     0.185 C 
ATOM     12  H   UNL A   1      33.901  21.094  23.740  1.00  0.00     0.348 HD
ATOM     13  C   UNL A   1      34.770  23.437  23.281  1.00  0.00     0.071 C 
ATOM     14  C   UNL A   1      32.298  24.015  23.184  1.00  0.00     0.069 C 
ATOM     15  C   UNL A   1      35.006  23.200  24.774  1.00  0.00     0.071 C 
ATOM     16  C   UNL A   1      32.705  23.596  25.652  1.00  0.00     0.069 C 
BRANCH   9  17
ATOM     17  C   UNL A   1      32.229  20.855  24.104  1.00  0.00     0.341 C 
BRANCH  17  18
ATOM     18  C   UNL A   1      32.460  19.475  23.577  1.00  0.00     0.187 A 
ATOM     19  C   UNL A   1      33.991  16.199  23.687  1.00  0.00     0.090 C 
ATOM     20  C   UNL A   1      33.161  17.399  23.424  1.00  0.00     0.129 A 
ATOM     21  N   UNL A   1      32.689  17.758  22.248  1.00  0.00    -0.135 NA
ATOM     22  N   UNL A   1      32.839  18.383  24.325  1.00  0.00    -0.314 N 
ATOM     23  N   UNL A   1      32.231  19.049  22.350  1.00  0.00    -0.129 NA
ATOM     24  C   UNL A   1      32.843  18.307  25.760  1.00  0.00     0.153 C 
ENDBRANCH  17  18
ENDBRANCH   9  17
ENDBRANCH   7   8
ENDBRANCH   4   7
ENDBRANCH   2   3
ENDBRANCH   1   2
BRANCH   1  25
ATOM     25  C   UNL A   1      33.405  29.579  27.246  1.00  0.00     0.118 C 
BRANCH  25  26
ATOM     26  N   UNL A   1      33.643  31.002  27.033  1.00  0.00    -0.352 N 
ATOM     27  C   UNL A   1      34.670  31.743  27.579  1.00  0.00     0.251 C 
ATOM     28  H   UNL A   1      33.012  31.479  26.445  1.00  0.00     0.163 HD
ATOM     29  O   UNL A   1      34.584  32.972  27.676  1.00  0.00    -0.269 OA
BRANCH  27  30
ATOM     30  C   UNL A   1      35.859  31.027  28.072  1.00  0.00     0.039 A 
ATOM     31  C   UNL A   1      36.169  29.731  27.654  1.00  0.00     0.014 A 
ATOM     32  C   UNL A   1      36.726  31.727  28.904  1.00  0.00     0.014 A 
ATOM     33  C   UNL A   1      37.398  29.183  28.021  1.00  0.00     0.010 A 
ATOM     34  C   UNL A   1      38.008  31.274  29.076  1.00  0.00     0.010 A 
ATOM     35  C   UNL A   1      38.329  29.971  28.716  1.00  0.00    -0.014 A 
BRANCH  35  36
ATOM     36  C   UNL A   1      39.654  29.463  29.056  1.00  0.00     0.031 A 
ATOM     37  C   UNL A   1      39.972  29.346  30.506  1.00  0.00     0.074 A 
ATOM     38  C   UNL A   1      40.485  28.925  28.136  1.00  0.00     0.049 A 
ATOM     39  N   UNL A   1      40.860  30.004  31.174  1.00  0.00    -0.248 NA
ATOM     40  C   UNL A   1      39.150  28.450  31.334  1.00  0.00     0.031 C 
ATOM     41  C   UNL A   1      40.233  28.656  26.714  1.00  0.00     0.029 A 
ATOM     42  N   UNL A   1      41.705  28.358  28.329  1.00  0.00    -0.354 N 
ATOM     43  C   UNL A   1      40.850  29.483  32.465  1.00  0.00     0.074 A 
ATOM     44  C   UNL A   1      39.680  28.642  32.545  1.00  0.00     0.031 C 
ATOM     45  C   UNL A   1      41.119  27.743  26.265  1.00  0.00     0.029 A 
ATOM     46  C   UNL A   1      42.110  27.522  27.298  1.00  0.00     0.049 A 
ATOM     47  H   UNL A   1      42.253  28.526  29.129  1.00  0.00     0.167 HD
ATOM     48  C   UNL A   1      41.910  29.622  33.311  1.00  0.00     0.031 A 
ATOM     49  C   UNL A   1      43.163  26.671  27.312  1.00  0.00     0.031 A 
ATOM     50  C   UNL A   1      42.870  30.575  32.819  1.00  0.00     0.049 A 
ATOM     51  C   UNL A   1      44.093  27.156  28.363  1.00  0.00     0.074 A 
ATOM     52  C   UNL A   1      42.816  31.912  32.471  1.00  0.00     0.029 A 
ATOM     53  N   UNL A   1      44.012  30.082  32.230  1.00  0.00    -0.354 N 
ATOM     54  N   UNL A   1      44.719  28.299  28.293  1.00  0.00    -0.248 NA
ATOM     55  C   UNL A   1      43.975  26.596  29.701  1.00  0.00     0.031 C 
ATOM     56  C   UNL A   1      43.614  32.010  31.294  1.00  0.00     0.029 A 
ATOM     57  C   UNL A   1      44.165  30.752  31.042  1.00  0.00     0.049 A 
ATOM     58  H   UNL A   1      44.605  29.382  32.591  1.00  0.00     0.167 HD
ATOM     59  C   UNL A   1      44.684  28.807  29.585  1.00  0.00     0.074 A 
ATOM     60  C   UNL A   1      44.311  27.668  30.424  1.00  0.00     0.031 C 
ATOM     61  C   UNL A   1      44.682  30.153  29.827  1.00  0.00     0.031 A 
BRANCH  48  62
ATOM     62  C   UNL A   1      42.260  28.644  34.406  1.00  0.00    -0.014 A 
ATOM     63  C   UNL A   1      42.470  29.127  35.716  1.00  0.00     0.010 A 
ATOM     64  C   UNL A   1      42.647  27.315  34.145  1.00  0.00     0.010 A 
ATOM     65  C   UNL A   1      43.096  28.338  36.692  1.00  0.00     0.020 A 
ATOM     66  C   UNL A   1      43.230  26.505  35.123  1.00  0.00     0.020 A 
ATOM     67  C   UNL A   1      43.485  27.035  36.381  1.00  0.00     0.054 A 
BRANCH  67  68
ATOM     68  S   UNL A   1      44.393  26.063  37.608  1.00  0.00     0.124 S 
ATOM     69  O   UNL A   1      44.117  24.697  37.173  1.00  0.00    -0.237 OA
ATOM     70  O   UNL A   1      45.766  26.523  37.416  1.00  0.00    -0.237 OA
ATOM     71  O   UNL A   1      43.782  26.454  38.876  1.00  0.00    -0.744 OA
ENDBRANCH  67  68
ENDBRANCH  48  62
BRANCH  49  72
ATOM     72  C   UNL A   1      43.236  25.326  26.688  1.00  0.00    -0.014 A 
ATOM     73  C   UNL A   1      43.564  25.177  25.329  1.00  0.00     0.010 A 
ATOM     74  C   UNL A   1      43.240  24.165  27.491  1.00  0.00     0.010 A 
ATOM     75  C   UNL A   1      43.949  23.928  24.811  1.00  0.00     0.020 A 
ATOM     76  C   UNL A   1      43.610  22.914  26.980  1.00  0.00     0.020 A 
ATOM     77  C   UNL A   1      43.992  22.808  25.647  1.00  0.00     0.054 A 
BRANCH  77  78
ATOM     78  S   UNL A   1      44.680  21.248  25.019  1.00  0.00     0.124 S 
ATOM     79  O   UNL A   1      43.742  20.260  25.546  1.00  0.00    -0.237 OA
ATOM     80  O   UNL A   1      44.643  21.445  23.573  1.00  0.00    -0.237 OA
ATOM     81  O   UNL A   1      46.020  21.202  25.600  1.00  0.00    -0.744 OA
ENDBRANCH  77  78
ENDBRANCH  49  72
BRANCH  61  82
ATOM     82  C   UNL A   1      44.974  31.110  28.689  1.00  0.00    -0.014 A 
ATOM     83  C   UNL A   1      44.031  31.459  27.702  1.00  0.00     0.010 A 
ATOM     84  C   UNL A   1      46.187  31.822  28.730  1.00  0.00     0.010 A 
ATOM     85  C   UNL A   1      44.304  32.475  26.772  1.00  0.00     0.020 A 
ATOM     86  C   UNL A   1      46.457  32.848  27.820  1.00  0.00     0.020 A 
ATOM     87  C   UNL A   1      45.517  33.165  26.839  1.00  0.00     0.054 A 
BRANCH  87  88
ATOM     88  S   UNL A   1      45.842  34.518  25.673  1.00  0.00     0.124 S 
ATOM     89  O   UNL A   1      44.935  34.211  24.570  1.00  0.00    -0.237 OA
ATOM     90  O   UNL A   1      45.507  35.708  26.451  1.00  0.00    -0.237 OA
ATOM     91  O   UNL A   1      47.263  34.375  25.359  1.00  0.00    -0.744 OA
ENDBRANCH  87  88
ENDBRANCH  61  82
ENDBRANCH  35  36
ENDBRANCH  27  30
ENDBRANCH  25  26
ENDBRANCH   1  25
TORSDOF 16
ENDMDL
