MODEL 1
REMARK VINA RESULT:     -12.2      0.000      0.000
REMARK SMILES Cc1cc(O[C@@H](C)C(=O)NCCC(=O)NCCCNC(=O)c2ccc(-c3c4nc(c(-c5ccc(S(=O)(=O)[O-])cc5)c5ccc([nH]5)c(-c5ccc(S(=O)(=O)[O-])cc5)c5nc(c(-c6ccc(S(=O)(=O)[O-])cc6)c6ccc3[nH]6)C=C5)C=C4)cc2)c2c3c(c(=O)oc2c1)CCCC3
REMARK SMILES IDX 16 1 15 2 13 3 14 4 12 6 11 7 10 8 8 9 9 10 6 12 7 13 5 14
REMARK SMILES IDX 4 15 1 16 2 17 3 18 89 19 88 20 82 21 87 22 83 23 85 24
REMARK SMILES IDX 84 25 93 26 86 27 90 28 92 29 91 30 17 31 18 32 19 33 20 34
REMARK SMILES IDX 21 36 22 37 23 38 81 39 24 40 80 41 25 42 26 43 27 44 74 45
REMARK SMILES IDX 28 46 79 47 73 48 75 49 29 50 78 51 72 52 71 53 30 55 60 56
REMARK SMILES IDX 41 57 59 58 42 59 45 60 58 61 76 62 43 63 44 64 57 66 77 67
REMARK SMILES IDX 46 68 31 69 32 70 40 71 33 72 39 73 34 74 35 75 36 76 37 77
REMARK SMILES IDX 38 78 61 79 62 80 70 81 63 82 69 83 64 84 65 85 66 86 67 87
REMARK SMILES IDX 68 88 47 89 48 90 56 91 49 92 55 93 50 94 51 95 52 96 53 97
REMARK SMILES IDX 54 98
REMARK H PARENT 15 5 10 11 19 35 75 54 45 65
REMARK Flexibility Score: inf
ROOT
ATOM      1  C   UNL A   1      42.786  22.928  28.419  1.00  0.00     0.117 C 
ENDROOT
BRANCH   1   2
ATOM      2  N   UNL A   1      42.684  21.484  28.315  1.00  0.00    -0.356 N 
ATOM      3  C   UNL A   1      41.937  20.759  27.440  1.00  0.00     0.221 C 
ATOM      4  O   UNL A   1      41.778  19.556  27.649  1.00  0.00    -0.275 OA
ATOM      5  H   UNL A   1      43.222  20.966  28.956  1.00  0.00     0.163 HD
BRANCH   3   6
ATOM      6  C   UNL A   1      41.346  21.430  26.225  1.00  0.00     0.121 C 
BRANCH   6   7
ATOM      7  C   UNL A   1      39.827  21.316  26.126  1.00  0.00     0.126 C 
BRANCH   7   8
ATOM      8  N   UNL A   1      39.156  22.510  26.612  1.00  0.00    -0.352 N 
ATOM      9  C   UNL A   1      38.113  23.239  26.148  1.00  0.00     0.260 C 
ATOM     10  O   UNL A   1      38.130  24.432  26.485  1.00  0.00    -0.271 OA
ATOM     11  H   UNL A   1      39.538  22.861  27.448  1.00  0.00     0.163 HD
BRANCH   9  12
ATOM     12  C   UNL A   1      36.893  22.664  25.379  1.00  0.00     0.258 C 
ATOM     13  C   UNL A   1      37.046  22.858  23.872  1.00  0.00     0.064 C 
BRANCH  12  14
ATOM     14  O   UNL A   1      35.553  22.615  25.836  1.00  0.00    -0.480 OA
BRANCH  14  15
ATOM     15  C   UNL A   1      34.528  21.966  25.231  1.00  0.00     0.132 A 
ATOM     16  C   UNL A   1      33.578  18.414  24.251  1.00  0.00     0.044 C 
ATOM     17  C   UNL A   1      33.465  19.892  24.484  1.00  0.00    -0.044 A 
ATOM     18  C   UNL A   1      34.451  20.568  25.216  1.00  0.00     0.050 A 
ATOM     19  C   UNL A   1      32.476  20.641  23.860  1.00  0.00     0.051 A 
ATOM     20  C   UNL A   1      32.472  22.031  24.004  1.00  0.00     0.142 A 
ATOM     21  C   UNL A   1      33.472  22.735  24.684  1.00  0.00     0.063 A 
ATOM     22  O   UNL A   1      31.376  22.674  23.405  1.00  0.00    -0.422 OA
ATOM     23  C   UNL A   1      33.307  24.213  24.790  1.00  0.00    -0.023 A 
ATOM     24  C   UNL A   1      31.140  24.018  23.591  1.00  0.00     0.339 A 
ATOM     25  C   UNL A   1      32.191  24.791  24.294  1.00  0.00     0.042 A 
ATOM     26  C   UNL A   1      34.350  25.056  25.498  1.00  0.00     0.037 C 
ATOM     27  O   UNL A   1      30.113  24.545  23.174  1.00  0.00    -0.246 OA
ATOM     28  C   UNL A   1      31.892  26.266  24.405  1.00  0.00     0.043 C 
ATOM     29  C   UNL A   1      33.897  26.466  25.882  1.00  0.00     0.005 C 
ATOM     30  C   UNL A   1      33.101  27.119  24.769  1.00  0.00     0.005 C 
ENDBRANCH  14  15
ENDBRANCH  12  14
ENDBRANCH   9  12
ENDBRANCH   7   8
ENDBRANCH   6   7
ENDBRANCH   3   6
ENDBRANCH   1   2
BRANCH   1  31
ATOM     31  C   UNL A   1      44.037  23.415  27.704  1.00  0.00     0.042 C 
BRANCH  31  32
ATOM     32  C   UNL A   1      43.934  24.857  27.244  1.00  0.00     0.118 C 
BRANCH  32  33
ATOM     33  N   UNL A   1      43.051  25.011  26.102  1.00  0.00    -0.352 N 
ATOM     34  C   UNL A   1      41.859  25.690  26.000  1.00  0.00     0.251 C 
ATOM     35  H   UNL A   1      43.348  24.561  25.278  1.00  0.00     0.163 HD
ATOM     36  O   UNL A   1      41.140  25.513  25.020  1.00  0.00    -0.269 OA
BRANCH  34  37
ATOM     37  C   UNL A   1      41.435  26.597  27.087  1.00  0.00     0.039 A 
ATOM     38  C   UNL A   1      41.880  27.918  27.121  1.00  0.00     0.014 A 
ATOM     39  C   UNL A   1      40.602  26.118  28.101  1.00  0.00     0.014 A 
ATOM     40  C   UNL A   1      41.696  28.677  28.267  1.00  0.00     0.010 A 
ATOM     41  C   UNL A   1      40.297  26.939  29.191  1.00  0.00     0.010 A 
ATOM     42  C   UNL A   1      40.886  28.207  29.313  1.00  0.00    -0.014 A 
BRANCH  42  43
ATOM     43  C   UNL A   1      40.656  29.064  30.507  1.00  0.00     0.031 A 
ATOM     44  C   UNL A   1      41.553  28.966  31.712  1.00  0.00     0.074 A 
ATOM     45  C   UNL A   1      39.648  29.961  30.487  1.00  0.00     0.049 A 
ATOM     46  N   UNL A   1      41.466  29.603  32.851  1.00  0.00    -0.248 NA
ATOM     47  C   UNL A   1      42.690  28.034  31.637  1.00  0.00     0.031 C 
ATOM     48  C   UNL A   1      38.733  30.173  29.362  1.00  0.00     0.029 A 
ATOM     49  N   UNL A   1      39.238  30.881  31.421  1.00  0.00    -0.354 N 
ATOM     50  C   UNL A   1      42.506  29.122  33.639  1.00  0.00     0.074 A 
ATOM     51  C   UNL A   1      43.201  28.124  32.857  1.00  0.00     0.031 C 
ATOM     52  C   UNL A   1      37.923  31.200  29.640  1.00  0.00     0.029 A 
ATOM     53  C   UNL A   1      38.181  31.654  31.002  1.00  0.00     0.049 A 
ATOM     54  H   UNL A   1      39.661  30.977  32.304  1.00  0.00     0.167 HD
ATOM     55  C   UNL A   1      42.851  29.489  34.897  1.00  0.00     0.031 A 
ATOM     56  C   UNL A   1      37.468  32.604  31.641  1.00  0.00     0.031 A 
ATOM     57  C   UNL A   1      42.165  30.507  35.651  1.00  0.00     0.049 A 
ATOM     58  C   UNL A   1      37.836  32.958  33.050  1.00  0.00     0.074 A 
ATOM     59  C   UNL A   1      42.458  30.970  36.922  1.00  0.00     0.029 A 
ATOM     60  N   UNL A   1      41.057  31.218  35.211  1.00  0.00    -0.354 N 
ATOM     61  N   UNL A   1      38.819  32.490  33.778  1.00  0.00    -0.248 NA
ATOM     62  C   UNL A   1      37.002  33.957  33.729  1.00  0.00     0.031 C 
ATOM     63  C   UNL A   1      41.484  31.903  37.279  1.00  0.00     0.029 A 
ATOM     64  C   UNL A   1      40.634  32.091  36.199  1.00  0.00     0.049 A 
ATOM     65  H   UNL A   1      40.636  31.118  34.326  1.00  0.00     0.167 HD
ATOM     66  C   UNL A   1      38.732  33.143  35.000  1.00  0.00     0.074 A 
ATOM     67  C   UNL A   1      37.608  34.055  34.906  1.00  0.00     0.031 C 
ATOM     68  C   UNL A   1      39.513  32.995  36.097  1.00  0.00     0.031 A 
BRANCH  55  69
ATOM     69  C   UNL A   1      44.012  28.787  35.559  1.00  0.00    -0.014 A 
ATOM     70  C   UNL A   1      45.328  29.196  35.267  1.00  0.00     0.010 A 
ATOM     71  C   UNL A   1      43.818  27.659  36.378  1.00  0.00     0.010 A 
ATOM     72  C   UNL A   1      46.424  28.481  35.756  1.00  0.00     0.020 A 
ATOM     73  C   UNL A   1      44.913  26.960  36.897  1.00  0.00     0.020 A 
ATOM     74  C   UNL A   1      46.209  27.361  36.563  1.00  0.00     0.054 A 
BRANCH  74  75
ATOM     75  S   UNL A   1      47.643  26.437  37.181  1.00  0.00     0.124 S 
ATOM     76  O   UNL A   1      47.279  25.058  36.865  1.00  0.00    -0.237 OA
ATOM     77  O   UNL A   1      48.744  26.995  36.401  1.00  0.00    -0.237 OA
ATOM     78  O   UNL A   1      47.672  26.764  38.605  1.00  0.00    -0.744 OA
ENDBRANCH  74  75
ENDBRANCH  55  69
BRANCH  56  79
ATOM     79  C   UNL A   1      36.353  33.270  30.911  1.00  0.00    -0.014 A 
ATOM     80  C   UNL A   1      36.591  33.896  29.670  1.00  0.00     0.010 A 
ATOM     81  C   UNL A   1      35.097  33.421  31.521  1.00  0.00     0.010 A 
ATOM     82  C   UNL A   1      35.630  34.735  29.104  1.00  0.00     0.020 A 
ATOM     83  C   UNL A   1      34.119  34.232  30.937  1.00  0.00     0.020 A 
ATOM     84  C   UNL A   1      34.408  34.917  29.755  1.00  0.00     0.054 A 
BRANCH  84  85
ATOM     85  S   UNL A   1      33.224  36.104  29.062  1.00  0.00     0.124 S 
ATOM     86  O   UNL A   1      32.718  36.757  30.267  1.00  0.00    -0.237 OA
ATOM     87  O   UNL A   1      34.068  36.932  28.204  1.00  0.00    -0.237 OA
ATOM     88  O   UNL A   1      32.262  35.259  28.360  1.00  0.00    -0.744 OA
ENDBRANCH  84  85
ENDBRANCH  56  79
BRANCH  68  89
ATOM     89  C   UNL A   1      39.204  33.830  37.313  1.00  0.00    -0.014 A 
ATOM     90  C   UNL A   1      39.746  35.126  37.421  1.00  0.00     0.010 A 
ATOM     91  C   UNL A   1      38.529  33.275  38.414  1.00  0.00     0.010 A 
ATOM     92  C   UNL A   1      39.671  35.827  38.624  1.00  0.00     0.020 A 
ATOM     93  C   UNL A   1      38.424  33.988  39.611  1.00  0.00     0.020 A 
ATOM     94  C   UNL A   1      39.025  35.245  39.718  1.00  0.00     0.054 A 
BRANCH  94  95
ATOM     95  S   UNL A   1      39.010  36.139  41.297  1.00  0.00     0.124 S 
ATOM     96  O   UNL A   1      40.274  35.722  41.898  1.00  0.00    -0.237 OA
ATOM     97  O   UNL A   1      38.945  37.535  40.872  1.00  0.00    -0.237 OA
ATOM     98  O   UNL A   1      37.808  35.641  41.962  1.00  0.00    -0.744 OA
ENDBRANCH  94  95
ENDBRANCH  68  89
ENDBRANCH  42  43
ENDBRANCH  34  37
ENDBRANCH  32  33
ENDBRANCH  31  32
ENDBRANCH   1  31
TORSDOF 18
ENDMDL
MODEL 2
REMARK VINA RESULT:     -12.1      3.067      9.564
REMARK SMILES Cc1cc(O[C@@H](C)C(=O)NCCC(=O)NCCCNC(=O)c2ccc(-c3c4nc(c(-c5ccc(S(=O)(=O)[O-])cc5)c5ccc([nH]5)c(-c5ccc(S(=O)(=O)[O-])cc5)c5nc(c(-c6ccc(S(=O)(=O)[O-])cc6)c6ccc3[nH]6)C=C5)C=C4)cc2)c2c3c(c(=O)oc2c1)CCCC3
REMARK SMILES IDX 16 1 15 2 13 3 14 4 12 6 11 7 10 8 8 9 9 10 6 12 7 13 5 14
REMARK SMILES IDX 4 15 1 16 2 17 3 18 89 19 88 20 82 21 87 22 83 23 85 24
REMARK SMILES IDX 84 25 93 26 86 27 90 28 92 29 91 30 17 31 18 32 19 33 20 34
REMARK SMILES IDX 21 36 22 37 23 38 81 39 24 40 80 41 25 42 26 43 27 44 74 45
REMARK SMILES IDX 28 46 79 47 73 48 75 49 29 50 78 51 72 52 71 53 30 55 60 56
REMARK SMILES IDX 41 57 59 58 42 59 45 60 58 61 76 62 43 63 44 64 57 66 77 67
REMARK SMILES IDX 46 68 31 69 32 70 40 71 33 72 39 73 34 74 35 75 36 76 37 77
REMARK SMILES IDX 38 78 61 79 62 80 70 81 63 82 69 83 64 84 65 85 66 86 67 87
REMARK SMILES IDX 68 88 47 89 48 90 56 91 49 92 55 93 50 94 51 95 52 96 53 97
REMARK SMILES IDX 54 98
REMARK H PARENT 15 5 10 11 19 35 75 54 45 65
REMARK Flexibility Score: inf
ROOT
ATOM      1  C   UNL A   1      33.323  26.727  25.143  1.00  0.00     0.117 C 
ENDROOT
BRANCH   1   2
ATOM      2  N   UNL A   1      33.618  27.350  23.866  1.00  0.00    -0.356 N 
ATOM      3  C   UNL A   1      33.443  26.832  22.621  1.00  0.00     0.221 C 
ATOM      4  O   UNL A   1      33.971  27.395  21.662  1.00  0.00    -0.275 OA
ATOM      5  H   UNL A   1      33.990  28.260  23.906  1.00  0.00     0.163 HD
BRANCH   3   6
ATOM      6  C   UNL A   1      32.587  25.602  22.436  1.00  0.00     0.121 C 
BRANCH   6   7
ATOM      7  C   UNL A   1      33.376  24.296  22.382  1.00  0.00     0.126 C 
BRANCH   7   8
ATOM      8  N   UNL A   1      32.547  23.173  21.980  1.00  0.00    -0.352 N 
ATOM      9  C   UNL A   1      32.198  22.015  22.590  1.00  0.00     0.260 C 
ATOM     10  O   UNL A   1      31.931  21.085  21.814  1.00  0.00    -0.271 OA
ATOM     11  H   UNL A   1      32.160  23.273  21.080  1.00  0.00     0.163 HD
BRANCH   9  12
ATOM     12  C   UNL A   1      31.988  21.838  24.118  1.00  0.00     0.258 C 
ATOM     13  C   UNL A   1      31.135  22.967  24.694  1.00  0.00     0.064 C 
BRANCH  12  14
ATOM     14  O   UNL A   1      32.898  21.259  25.036  1.00  0.00    -0.480 OA
BRANCH  14  15
ATOM     15  C   UNL A   1      33.678  20.174  24.807  1.00  0.00     0.132 A 
ATOM     16  C   UNL A   1      33.269  16.494  23.930  1.00  0.00     0.044 C 
ATOM     17  C   UNL A   1      33.924  17.819  24.189  1.00  0.00    -0.044 A 
ATOM     18  C   UNL A   1      33.146  18.979  24.306  1.00  0.00     0.050 A 
ATOM     19  C   UNL A   1      35.282  17.903  24.469  1.00  0.00     0.051 A 
ATOM     20  C   UNL A   1      35.836  19.135  24.823  1.00  0.00     0.142 A 
ATOM     21  C   UNL A   1      35.076  20.297  24.998  1.00  0.00     0.063 A 
ATOM     22  O   UNL A   1      37.231  19.117  24.994  1.00  0.00    -0.422 OA
ATOM     23  C   UNL A   1      35.817  21.546  25.335  1.00  0.00    -0.023 A 
ATOM     24  C   UNL A   1      37.947  20.277  25.187  1.00  0.00     0.339 A 
ATOM     25  C   UNL A   1      37.166  21.520  25.391  1.00  0.00     0.042 A 
ATOM     26  C   UNL A   1      35.070  22.848  25.555  1.00  0.00     0.037 C 
ATOM     27  O   UNL A   1      39.174  20.269  25.205  1.00  0.00    -0.246 OA
ATOM     28  C   UNL A   1      38.017  22.738  25.658  1.00  0.00     0.043 C 
ATOM     29  C   UNL A   1      35.935  24.111  25.506  1.00  0.00     0.005 C 
ATOM     30  C   UNL A   1      37.247  23.917  26.240  1.00  0.00     0.005 C 
ENDBRANCH  14  15
ENDBRANCH  12  14
ENDBRANCH   9  12
ENDBRANCH   7   8
ENDBRANCH   6   7
ENDBRANCH   3   6
ENDBRANCH   1   2
BRANCH   1  31
ATOM     31  C   UNL A   1      33.216  27.787  26.228  1.00  0.00     0.042 C 
BRANCH  31  32
ATOM     32  C   UNL A   1      34.282  28.861  26.117  1.00  0.00     0.118 C 
BRANCH  32  33
ATOM     33  N   UNL A   1      33.771  30.181  26.440  1.00  0.00    -0.352 N 
ATOM     34  C   UNL A   1      34.141  31.044  27.445  1.00  0.00     0.251 C 
ATOM     35  H   UNL A   1      33.051  30.507  25.853  1.00  0.00     0.163 HD
ATOM     36  O   UNL A   1      33.437  32.016  27.703  1.00  0.00    -0.269 OA
BRANCH  34  37
ATOM     37  C   UNL A   1      35.363  30.773  28.233  1.00  0.00     0.039 A 
ATOM     38  C   UNL A   1      36.503  31.557  28.063  1.00  0.00     0.014 A 
ATOM     39  C   UNL A   1      35.381  29.706  29.134  1.00  0.00     0.014 A 
ATOM     40  C   UNL A   1      37.711  31.142  28.602  1.00  0.00     0.010 A 
ATOM     41  C   UNL A   1      36.570  29.376  29.791  1.00  0.00     0.010 A 
ATOM     42  C   UNL A   1      37.761  30.055  29.489  1.00  0.00    -0.014 A 
BRANCH  42  43
ATOM     43  C   UNL A   1      39.060  29.664  30.100  1.00  0.00     0.031 A 
ATOM     44  C   UNL A   1      39.560  30.337  31.351  1.00  0.00     0.074 A 
ATOM     45  C   UNL A   1      39.776  28.669  29.538  1.00  0.00     0.049 A 
ATOM     46  N   UNL A   1      40.688  30.150  31.987  1.00  0.00    -0.248 NA
ATOM     47  C   UNL A   1      38.690  31.352  31.968  1.00  0.00     0.031 C 
ATOM     48  C   UNL A   1      39.378  27.917  28.344  1.00  0.00     0.029 A 
ATOM     49  N   UNL A   1      40.969  28.095  29.904  1.00  0.00    -0.354 N 
ATOM     50  C   UNL A   1      40.681  31.047  33.049  1.00  0.00     0.074 A 
ATOM     51  C   UNL A   1      39.447  31.794  32.963  1.00  0.00     0.031 C 
ATOM     52  C   UNL A   1      40.266  26.942  28.120  1.00  0.00     0.029 A 
ATOM     53  C   UNL A   1      41.355  27.061  29.084  1.00  0.00     0.049 A 
ATOM     54  H   UNL A   1      41.497  28.396  30.678  1.00  0.00     0.167 HD
ATOM     55  C   UNL A   1      41.619  31.222  34.011  1.00  0.00     0.031 A 
ATOM     56  C   UNL A   1      42.470  26.303  29.076  1.00  0.00     0.031 A 
ATOM     57  C   UNL A   1      42.831  30.448  34.097  1.00  0.00     0.049 A 
ATOM     58  C   UNL A   1      43.518  26.548  30.119  1.00  0.00     0.074 A 
ATOM     59  C   UNL A   1      43.830  30.532  35.053  1.00  0.00     0.029 A 
ATOM     60  N   UNL A   1      43.211  29.455  33.206  1.00  0.00    -0.354 N 
ATOM     61  N   UNL A   1      43.495  27.403  31.112  1.00  0.00    -0.248 NA
ATOM     62  C   UNL A   1      44.741  25.740  30.043  1.00  0.00     0.031 C 
ATOM     63  C   UNL A   1      44.847  29.645  34.696  1.00  0.00     0.029 A 
ATOM     64  C   UNL A   1      44.446  28.942  33.570  1.00  0.00     0.049 A 
ATOM     65  H   UNL A   1      42.682  29.158  32.431  1.00  0.00     0.167 HD
ATOM     66  C   UNL A   1      44.696  27.231  31.789  1.00  0.00     0.074 A 
ATOM     67  C   UNL A   1      45.414  26.176  31.101  1.00  0.00     0.031 C 
ATOM     68  C   UNL A   1      45.155  27.892  32.878  1.00  0.00     0.031 A 
BRANCH  55  69
ATOM     69  C   UNL A   1      41.396  32.297  35.047  1.00  0.00    -0.014 A 
ATOM     70  C   UNL A   1      40.669  31.993  36.215  1.00  0.00     0.010 A 
ATOM     71  C   UNL A   1      41.801  33.626  34.827  1.00  0.00     0.010 A 
ATOM     72  C   UNL A   1      40.329  32.997  37.127  1.00  0.00     0.020 A 
ATOM     73  C   UNL A   1      41.492  34.627  35.753  1.00  0.00     0.020 A 
ATOM     74  C   UNL A   1      40.738  34.310  36.886  1.00  0.00     0.054 A 
BRANCH  74  75
ATOM     75  S   UNL A   1      40.278  35.603  38.073  1.00  0.00     0.124 S 
ATOM     76  O   UNL A   1      41.533  35.827  38.785  1.00  0.00    -0.237 OA
ATOM     77  O   UNL A   1      39.840  36.693  37.206  1.00  0.00    -0.237 OA
ATOM     78  O   UNL A   1      39.216  34.981  38.861  1.00  0.00    -0.744 OA
ENDBRANCH  74  75
ENDBRANCH  55  69
BRANCH  56  79
ATOM     79  C   UNL A   1      42.606  25.245  28.036  1.00  0.00    -0.014 A 
ATOM     80  C   UNL A   1      42.371  23.894  28.363  1.00  0.00     0.010 A 
ATOM     81  C   UNL A   1      43.122  25.559  26.768  1.00  0.00     0.010 A 
ATOM     82  C   UNL A   1      42.738  22.876  27.481  1.00  0.00     0.020 A 
ATOM     83  C   UNL A   1      43.458  24.543  25.868  1.00  0.00     0.020 A 
ATOM     84  C   UNL A   1      43.303  23.207  26.248  1.00  0.00     0.054 A 
BRANCH  84  85
ATOM     85  S   UNL A   1      43.883  21.868  25.170  1.00  0.00     0.124 S 
ATOM     86  O   UNL A   1      43.860  22.511  23.858  1.00  0.00    -0.237 OA
ATOM     87  O   UNL A   1      45.210  21.580  25.707  1.00  0.00    -0.237 OA
ATOM     88  O   UNL A   1      42.890  20.816  25.368  1.00  0.00    -0.744 OA
ENDBRANCH  84  85
ENDBRANCH  56  79
BRANCH  68  89
ATOM     89  C   UNL A   1      46.507  27.515  33.426  1.00  0.00    -0.014 A 
ATOM     90  C   UNL A   1      47.664  28.122  32.899  1.00  0.00     0.010 A 
ATOM     91  C   UNL A   1      46.645  26.447  34.329  1.00  0.00     0.010 A 
ATOM     92  C   UNL A   1      48.930  27.630  33.217  1.00  0.00     0.020 A 
ATOM     93  C   UNL A   1      47.912  25.973  34.675  1.00  0.00     0.020 A 
ATOM     94  C   UNL A   1      49.045  26.546  34.091  1.00  0.00     0.054 A 
BRANCH  94  95
ATOM     95  S   UNL A   1      50.695  25.871  34.428  1.00  0.00     0.124 S 
ATOM     96  O   UNL A   1      51.515  26.553  33.431  1.00  0.00    -0.237 OA
ATOM     97  O   UNL A   1      50.926  26.271  35.814  1.00  0.00    -0.237 OA
ATOM     98  O   UNL A   1      50.526  24.434  34.222  1.00  0.00    -0.744 OA
ENDBRANCH  94  95
ENDBRANCH  68  89
ENDBRANCH  42  43
ENDBRANCH  34  37
ENDBRANCH  32  33
ENDBRANCH  31  32
ENDBRANCH   1  31
TORSDOF 18
ENDMDL
MODEL 3
REMARK VINA RESULT:     -12.0      3.867     10.184
REMARK SMILES Cc1cc(O[C@@H](C)C(=O)NCCC(=O)NCCCNC(=O)c2ccc(-c3c4nc(c(-c5ccc(S(=O)(=O)[O-])cc5)c5ccc([nH]5)c(-c5ccc(S(=O)(=O)[O-])cc5)c5nc(c(-c6ccc(S(=O)(=O)[O-])cc6)c6ccc3[nH]6)C=C5)C=C4)cc2)c2c3c(c(=O)oc2c1)CCCC3
REMARK SMILES IDX 16 1 15 2 13 3 14 4 12 6 11 7 10 8 8 9 9 10 6 12 7 13 5 14
REMARK SMILES IDX 4 15 1 16 2 17 3 18 89 19 88 20 82 21 87 22 83 23 85 24
REMARK SMILES IDX 84 25 93 26 86 27 90 28 92 29 91 30 17 31 18 32 19 33 20 34
REMARK SMILES IDX 21 36 22 37 23 38 81 39 24 40 80 41 25 42 26 43 27 44 74 45
REMARK SMILES IDX 28 46 79 47 73 48 75 49 29 50 78 51 72 52 71 53 30 55 60 56
REMARK SMILES IDX 41 57 59 58 42 59 45 60 58 61 76 62 43 63 44 64 57 66 77 67
REMARK SMILES IDX 46 68 31 69 32 70 40 71 33 72 39 73 34 74 35 75 36 76 37 77
REMARK SMILES IDX 38 78 61 79 62 80 70 81 63 82 69 83 64 84 65 85 66 86 67 87
REMARK SMILES IDX 68 88 47 89 48 90 56 91 49 92 55 93 50 94 51 95 52 96 53 97
REMARK SMILES IDX 54 98
REMARK H PARENT 15 5 10 11 19 35 75 54 45 65
REMARK Flexibility Score: inf
ROOT
ATOM      1  C   UNL A   1      31.300  27.308  26.246  1.00  0.00     0.117 C 
ENDROOT
BRANCH   1   2
ATOM      2  N   UNL A   1      31.261  28.036  24.991  1.00  0.00    -0.356 N 
ATOM      3  C   UNL A   1      31.895  27.734  23.827  1.00  0.00     0.221 C 
ATOM      4  O   UNL A   1      31.951  28.586  22.940  1.00  0.00    -0.275 OA
ATOM      5  H   UNL A   1      30.707  28.850  24.982  1.00  0.00     0.163 HD
BRANCH   3   6
ATOM      6  C   UNL A   1      32.490  26.360  23.634  1.00  0.00     0.121 C 
BRANCH   6   7
ATOM      7  C   UNL A   1      33.997  26.294  23.869  1.00  0.00     0.126 C 
BRANCH   7   8
ATOM      8  N   UNL A   1      34.567  25.038  23.411  1.00  0.00    -0.352 N 
ATOM      9  C   UNL A   1      35.510  24.210  23.919  1.00  0.00     0.260 C 
ATOM     10  O   UNL A   1      36.115  23.538  23.071  1.00  0.00    -0.271 OA
ATOM     11  H   UNL A   1      34.191  24.726  22.556  1.00  0.00     0.163 HD
BRANCH   9  12
ATOM     12  C   UNL A   1      35.763  23.965  25.431  1.00  0.00     0.258 C 
ATOM     13  C   UNL A   1      37.258  23.904  25.740  1.00  0.00     0.064 C 
BRANCH  12  14
ATOM     14  O   UNL A   1      34.946  23.219  26.315  1.00  0.00    -0.480 OA
BRANCH  14  15
ATOM     15  C   UNL A   1      33.670  22.825  26.081  1.00  0.00     0.132 A 
ATOM     16  C   UNL A   1      30.141  24.200  26.454  1.00  0.00     0.044 C 
ATOM     17  C   UNL A   1      31.268  23.288  26.062  1.00  0.00    -0.044 A 
ATOM     18  C   UNL A   1      32.596  23.718  26.178  1.00  0.00     0.050 A 
ATOM     19  C   UNL A   1      31.030  21.962  25.725  1.00  0.00     0.051 A 
ATOM     20  C   UNL A   1      32.110  21.110  25.481  1.00  0.00     0.142 A 
ATOM     21  C   UNL A   1      33.445  21.498  25.640  1.00  0.00     0.063 A 
ATOM     22  O   UNL A   1      31.748  19.819  25.060  1.00  0.00    -0.422 OA
ATOM     23  C   UNL A   1      34.488  20.489  25.300  1.00  0.00    -0.023 A 
ATOM     24  C   UNL A   1      32.690  18.912  24.628  1.00  0.00     0.339 A 
ATOM     25  C   UNL A   1      34.113  19.292  24.800  1.00  0.00     0.042 A 
ATOM     26  C   UNL A   1      35.960  20.821  25.456  1.00  0.00     0.037 C 
ATOM     27  O   UNL A   1      32.358  17.836  24.141  1.00  0.00    -0.246 OA
ATOM     28  C   UNL A   1      35.086  18.224  24.362  1.00  0.00     0.043 C 
ATOM     29  C   UNL A   1      36.921  19.881  24.724  1.00  0.00     0.005 C 
ATOM     30  C   UNL A   1      36.505  18.430  24.875  1.00  0.00     0.005 C 
ENDBRANCH  14  15
ENDBRANCH  12  14
ENDBRANCH   9  12
ENDBRANCH   7   8
ENDBRANCH   6   7
ENDBRANCH   3   6
ENDBRANCH   1   2
BRANCH   1  31
ATOM     31  C   UNL A   1      31.856  28.196  27.348  1.00  0.00     0.042 C 
BRANCH  31  32
ATOM     32  C   UNL A   1      33.252  28.710  27.049  1.00  0.00     0.118 C 
BRANCH  32  33
ATOM     33  N   UNL A   1      33.353  30.151  27.201  1.00  0.00    -0.352 N 
ATOM     34  C   UNL A   1      34.350  30.904  27.777  1.00  0.00     0.251 C 
ATOM     35  H   UNL A   1      32.595  30.665  26.840  1.00  0.00     0.163 HD
ATOM     36  O   UNL A   1      34.151  32.091  28.021  1.00  0.00    -0.269 OA
BRANCH  34  37
ATOM     37  C   UNL A   1      35.637  30.270  28.134  1.00  0.00     0.039 A 
ATOM     38  C   UNL A   1      35.831  29.729  29.403  1.00  0.00     0.014 A 
ATOM     39  C   UNL A   1      36.673  30.239  27.198  1.00  0.00     0.014 A 
ATOM     40  C   UNL A   1      37.108  29.377  29.814  1.00  0.00     0.010 A 
ATOM     41  C   UNL A   1      37.928  29.746  27.572  1.00  0.00     0.010 A 
ATOM     42  C   UNL A   1      38.174  29.362  28.900  1.00  0.00    -0.014 A 
BRANCH  42  43
ATOM     43  C   UNL A   1      39.523  28.926  29.350  1.00  0.00     0.031 A 
ATOM     44  C   UNL A   1      40.341  29.782  30.280  1.00  0.00     0.074 A 
ATOM     45  C   UNL A   1      39.997  27.732  28.940  1.00  0.00     0.049 A 
ATOM     46  N   UNL A   1      41.551  29.575  30.732  1.00  0.00    -0.248 NA
ATOM     47  C   UNL A   1      39.732  31.031  30.765  1.00  0.00     0.031 C 
ATOM     48  C   UNL A   1      39.282  26.798  28.066  1.00  0.00     0.029 A 
ATOM     49  N   UNL A   1      41.173  27.081  29.222  1.00  0.00    -0.354 N 
ATOM     50  C   UNL A   1      41.861  30.680  31.517  1.00  0.00     0.074 A 
ATOM     51  C   UNL A   1      40.722  31.567  31.465  1.00  0.00     0.031 C 
ATOM     52  C   UNL A   1      39.995  25.674  27.942  1.00  0.00     0.029 A 
ATOM     53  C   UNL A   1      41.269  25.841  28.635  1.00  0.00     0.049 A 
ATOM     54  H   UNL A   1      41.880  27.466  29.789  1.00  0.00     0.167 HD
ATOM     55  C   UNL A   1      42.993  30.924  32.221  1.00  0.00     0.031 A 
ATOM     56  C   UNL A   1      42.271  24.940  28.622  1.00  0.00     0.031 A 
ATOM     57  C   UNL A   1      44.108  30.014  32.284  1.00  0.00     0.049 A 
ATOM     58  C   UNL A   1      43.534  25.253  29.366  1.00  0.00     0.074 A 
ATOM     59  C   UNL A   1      45.287  30.159  32.994  1.00  0.00     0.029 A 
ATOM     60  N   UNL A   1      44.187  28.798  31.621  1.00  0.00    -0.354 N 
ATOM     61  N   UNL A   1      43.810  26.304  30.098  1.00  0.00    -0.248 NA
ATOM     62  C   UNL A   1      44.622  24.272  29.281  1.00  0.00     0.031 C 
ATOM     63  C   UNL A   1      46.108  29.069  32.700  1.00  0.00     0.029 A 
ATOM     64  C   UNL A   1      45.409  28.199  31.878  1.00  0.00     0.049 A 
ATOM     65  H   UNL A   1      43.479  28.417  31.053  1.00  0.00     0.167 HD
ATOM     66  C   UNL A   1      45.100  26.109  30.572  1.00  0.00     0.074 A 
ATOM     67  C   UNL A   1      45.544  24.829  30.058  1.00  0.00     0.031 C 
ATOM     68  C   UNL A   1      45.844  26.923  31.360  1.00  0.00     0.031 A 
BRANCH  55  69
ATOM     69  C   UNL A   1      43.106  32.227  32.974  1.00  0.00    -0.014 A 
ATOM     70  C   UNL A   1      43.770  33.317  32.378  1.00  0.00     0.010 A 
ATOM     71  C   UNL A   1      42.660  32.349  34.303  1.00  0.00     0.010 A 
ATOM     72  C   UNL A   1      44.009  34.490  33.099  1.00  0.00     0.020 A 
ATOM     73  C   UNL A   1      42.868  33.533  35.018  1.00  0.00     0.020 A 
ATOM     74  C   UNL A   1      43.563  34.587  34.418  1.00  0.00     0.054 A 
BRANCH  74  75
ATOM     75  S   UNL A   1      43.892  36.112  35.345  1.00  0.00     0.124 S 
ATOM     76  O   UNL A   1      45.322  36.306  35.121  1.00  0.00    -0.237 OA
ATOM     77  O   UNL A   1      43.013  37.079  34.693  1.00  0.00    -0.237 OA
ATOM     78  O   UNL A   1      43.516  35.767  36.715  1.00  0.00    -0.744 OA
ENDBRANCH  74  75
ENDBRANCH  55  69
BRANCH  56  79
ATOM     79  C   UNL A   1      42.075  23.665  27.877  1.00  0.00    -0.014 A 
ATOM     80  C   UNL A   1      41.450  22.567  28.502  1.00  0.00     0.010 A 
ATOM     81  C   UNL A   1      42.649  23.490  26.606  1.00  0.00     0.010 A 
ATOM     82  C   UNL A   1      41.488  21.301  27.915  1.00  0.00     0.020 A 
ATOM     83  C   UNL A   1      42.657  22.231  25.999  1.00  0.00     0.020 A 
ATOM     84  C   UNL A   1      42.114  21.136  26.677  1.00  0.00     0.054 A 
BRANCH  84  85
ATOM     85  S   UNL A   1      42.257  19.463  25.992  1.00  0.00     0.124 S 
ATOM     86  O   UNL A   1      40.889  19.207  25.545  1.00  0.00    -0.237 OA
ATOM     87  O   UNL A   1      43.244  19.637  24.930  1.00  0.00    -0.237 OA
ATOM     88  O   UNL A   1      42.702  18.663  27.131  1.00  0.00    -0.744 OA
ENDBRANCH  84  85
ENDBRANCH  56  79
BRANCH  68  89
ATOM     89  C   UNL A   1      47.234  26.478  31.736  1.00  0.00    -0.014 A 
ATOM     90  C   UNL A   1      48.299  26.697  30.842  1.00  0.00     0.010 A 
ATOM     91  C   UNL A   1      47.452  25.698  32.885  1.00  0.00     0.010 A 
ATOM     92  C   UNL A   1      49.539  26.096  31.056  1.00  0.00     0.020 A 
ATOM     93  C   UNL A   1      48.703  25.121  33.120  1.00  0.00     0.020 A 
ATOM     94  C   UNL A   1      49.728  25.296  32.186  1.00  0.00     0.054 A 
BRANCH  94  95
ATOM     95  S   UNL A   1      51.322  24.458  32.404  1.00  0.00     0.124 S 
ATOM     96  O   UNL A   1      50.970  23.061  32.167  1.00  0.00    -0.237 OA
ATOM     97  O   UNL A   1      52.153  25.081  31.376  1.00  0.00    -0.237 OA
ATOM     98  O   UNL A   1      51.696  24.784  33.779  1.00  0.00    -0.744 OA
ENDBRANCH  94  95
ENDBRANCH  68  89
ENDBRANCH  42  43
ENDBRANCH  34  37
ENDBRANCH  32  33
ENDBRANCH  31  32
ENDBRANCH   1  31
TORSDOF 18
ENDMDL
