MODEL 1
REMARK VINA RESULT:     -12.3      0.000      0.000
REMARK SMILES CSc1ccccc1Sc1cc(C(=O)NCCCNC(=O)c2ccc(-c3c4nc(c(-c5ccc(S(=O)(=O)[O-])cc5)c5ccc([nH]5)c(-c5ccc(S(=O)(=O)[O-])cc5)c5nc(c(-c6ccc(S(=O)(=O)[O-])cc6)c6ccc3[nH]6)C=C5)C=C4)cc2)c2ccccc2n1
REMARK SMILES IDX 17 1 16 2 15 3 13 4 14 5 12 7 10 8 11 9 88 10 87 11 82 12
REMARK SMILES IDX 86 13 83 14 85 15 84 16 9 17 8 18 3 19 4 20 5 21 7 22 6 23
REMARK SMILES IDX 2 24 1 25 18 26 19 27 20 28 21 30 22 31 23 32 81 33 24 34
REMARK SMILES IDX 80 35 25 36 26 37 27 38 74 39 28 40 79 41 73 42 75 43 29 44
REMARK SMILES IDX 78 45 72 46 71 47 30 49 60 50 41 51 59 52 42 53 45 54 58 55
REMARK SMILES IDX 76 56 43 57 44 58 57 60 77 61 46 62 31 63 32 64 40 65 33 66
REMARK SMILES IDX 39 67 34 68 35 69 36 70 37 71 38 72 61 73 62 74 70 75 63 76
REMARK SMILES IDX 69 77 64 78 65 79 66 80 67 81 68 82 47 83 48 84 56 85 49 86
REMARK SMILES IDX 55 87 50 88 51 89 52 90 53 91 54 92
REMARK H PARENT 15 6 19 29 75 48 45 59
REMARK Flexibility Score: inf
ROOT
ATOM      1  C   UNL A   1      38.396  22.751  26.140  1.00  0.00     0.042 C 
ENDROOT
BRANCH   1   2
ATOM      2  C   UNL A   1      36.951  22.958  25.682  1.00  0.00     0.118 C 
BRANCH   2   3
ATOM      3  N   UNL A   1      36.018  22.334  26.609  1.00  0.00    -0.352 N 
ATOM      4  C   UNL A   1      34.653  22.259  26.732  1.00  0.00     0.252 C 
ATOM      5  O   UNL A   1      34.256  21.573  27.672  1.00  0.00    -0.269 OA
ATOM      6  H   UNL A   1      36.481  21.844  27.326  1.00  0.00     0.163 HD
BRANCH   4   7
ATOM      7  C   UNL A   1      33.684  22.886  25.777  1.00  0.00     0.051 A 
ATOM      8  C   UNL A   1      32.250  24.646  25.095  1.00  0.00     0.102 A 
ATOM      9  C   UNL A   1      33.106  24.118  26.046  1.00  0.00     0.050 A 
ATOM     10  N   UNL A   1      32.202  24.201  23.834  1.00  0.00    -0.241 NA
ATOM     11  C   UNL A   1      32.537  22.934  23.655  1.00  0.00     0.072 A 
ATOM     12  C   UNL A   1      33.166  22.170  24.657  1.00  0.00     0.013 A 
ATOM     13  C   UNL A   1      32.051  22.345  22.502  1.00  0.00     0.029 A 
ATOM     14  C   UNL A   1      33.082  20.762  24.518  1.00  0.00     0.011 A 
ATOM     15  C   UNL A   1      31.954  20.964  22.399  1.00  0.00     0.002 A 
ATOM     16  C   UNL A   1      32.427  20.172  23.434  1.00  0.00     0.001 A 
BRANCH   8  17
ATOM     17  S   UNL A   1      30.728  25.371  25.709  1.00  0.00    -0.069 SA
BRANCH  17  18
ATOM     18  C   UNL A   1      30.539  26.832  24.711  1.00  0.00     0.027 A 
ATOM     19  C   UNL A   1      31.305  27.995  24.904  1.00  0.00     0.021 A 
ATOM     20  C   UNL A   1      30.935  29.152  24.186  1.00  0.00     0.016 A 
ATOM     21  C   UNL A   1      29.851  29.162  23.302  1.00  0.00     0.001 A 
ATOM     22  C   UNL A   1      29.454  26.852  23.804  1.00  0.00     0.016 A 
ATOM     23  C   UNL A   1      29.114  28.007  23.102  1.00  0.00     0.001 A 
BRANCH  19  24
ATOM     24  S   UNL A   1      32.660  28.289  26.061  1.00  0.00    -0.128 SA
ATOM     25  C   UNL A   1      32.146  29.658  27.137  1.00  0.00     0.091 C 
ENDBRANCH  19  24
ENDBRANCH  17  18
ENDBRANCH   8  17
ENDBRANCH   4   7
ENDBRANCH   2   3
ENDBRANCH   1   2
BRANCH   1  26
ATOM     26  C   UNL A   1      39.067  24.019  26.679  1.00  0.00     0.118 C 
BRANCH  26  27
ATOM     27  N   UNL A   1      40.196  24.445  25.862  1.00  0.00    -0.352 N 
ATOM     28  C   UNL A   1      41.011  25.542  25.987  1.00  0.00     0.251 C 
ATOM     29  H   UNL A   1      40.408  23.854  25.105  1.00  0.00     0.163 HD
ATOM     30  O   UNL A   1      41.790  25.815  25.068  1.00  0.00    -0.269 OA
BRANCH  28  31
ATOM     31  C   UNL A   1      40.958  26.404  27.186  1.00  0.00     0.039 A 
ATOM     32  C   UNL A   1      41.695  27.592  27.198  1.00  0.00     0.014 A 
ATOM     33  C   UNL A   1      40.215  26.036  28.311  1.00  0.00     0.014 A 
ATOM     34  C   UNL A   1      41.639  28.437  28.309  1.00  0.00     0.010 A 
ATOM     35  C   UNL A   1      40.102  26.914  29.389  1.00  0.00     0.010 A 
ATOM     36  C   UNL A   1      40.813  28.124  29.401  1.00  0.00    -0.014 A 
BRANCH  36  37
ATOM     37  C   UNL A   1      40.673  29.054  30.554  1.00  0.00     0.031 A 
ATOM     38  C   UNL A   1      41.561  28.913  31.762  1.00  0.00     0.074 A 
ATOM     39  C   UNL A   1      39.703  29.990  30.538  1.00  0.00     0.049 A 
ATOM     40  N   UNL A   1      41.555  29.602  32.875  1.00  0.00    -0.248 NA
ATOM     41  C   UNL A   1      42.573  27.844  31.725  1.00  0.00     0.031 C 
ATOM     42  C   UNL A   1      38.754  30.208  29.443  1.00  0.00     0.029 A 
ATOM     43  N   UNL A   1      39.350  30.934  31.471  1.00  0.00    -0.354 N 
ATOM     44  C   UNL A   1      42.544  29.041  33.676  1.00  0.00     0.074 A 
ATOM     45  C   UNL A   1      43.097  27.924  32.940  1.00  0.00     0.031 C 
ATOM     46  C   UNL A   1      37.953  31.239  29.752  1.00  0.00     0.029 A 
ATOM     47  C   UNL A   1      38.295  31.727  31.085  1.00  0.00     0.049 A 
ATOM     48  H   UNL A   1      39.810  31.033  32.336  1.00  0.00     0.167 HD
ATOM     49  C   UNL A   1      42.964  29.428  34.905  1.00  0.00     0.031 A 
ATOM     50  C   UNL A   1      37.667  32.729  31.730  1.00  0.00     0.031 A 
ATOM     51  C   UNL A   1      42.414  30.543  35.630  1.00  0.00     0.049 A 
ATOM     52  C   UNL A   1      38.138  33.126  33.103  1.00  0.00     0.074 A 
ATOM     53  C   UNL A   1      42.812  31.053  36.854  1.00  0.00     0.029 A 
ATOM     54  N   UNL A   1      41.344  31.316  35.206  1.00  0.00    -0.354 N 
ATOM     55  N   UNL A   1      39.124  32.629  33.811  1.00  0.00    -0.248 NA
ATOM     56  C   UNL A   1      37.419  34.227  33.757  1.00  0.00     0.031 C 
ATOM     57  C   UNL A   1      41.943  32.092  37.200  1.00  0.00     0.029 A 
ATOM     58  C   UNL A   1      41.047  32.277  36.158  1.00  0.00     0.049 A 
ATOM     59  H   UNL A   1      40.865  31.199  34.353  1.00  0.00     0.167 HD
ATOM     60  C   UNL A   1      39.162  33.379  34.982  1.00  0.00     0.074 A 
ATOM     61  C   UNL A   1      38.112  34.371  34.878  1.00  0.00     0.031 C 
ATOM     62  C   UNL A   1      39.996  33.258  36.045  1.00  0.00     0.031 A 
BRANCH  49  63
ATOM     63  C   UNL A   1      44.063  28.624  35.554  1.00  0.00    -0.014 A 
ATOM     64  C   UNL A   1      45.418  28.955  35.368  1.00  0.00     0.010 A 
ATOM     65  C   UNL A   1      43.734  27.547  36.398  1.00  0.00     0.010 A 
ATOM     66  C   UNL A   1      46.423  28.196  35.976  1.00  0.00     0.020 A 
ATOM     67  C   UNL A   1      44.735  26.805  37.032  1.00  0.00     0.020 A 
ATOM     68  C   UNL A   1      46.075  27.123  36.802  1.00  0.00     0.054 A 
BRANCH  68  69
ATOM     69  S   UNL A   1      47.400  26.167  37.590  1.00  0.00     0.124 S 
ATOM     70  O   UNL A   1      48.554  26.516  36.765  1.00  0.00    -0.237 OA
ATOM     71  O   UNL A   1      47.414  26.701  38.949  1.00  0.00    -0.237 OA
ATOM     72  O   UNL A   1      46.948  24.783  37.471  1.00  0.00    -0.744 OA
ENDBRANCH  68  69
ENDBRANCH  49  63
BRANCH  50  73
ATOM     73  C   UNL A   1      36.533  33.442  31.076  1.00  0.00    -0.014 A 
ATOM     74  C   UNL A   1      35.287  33.537  31.718  1.00  0.00     0.010 A 
ATOM     75  C   UNL A   1      36.697  34.034  29.810  1.00  0.00     0.010 A 
ATOM     76  C   UNL A   1      34.219  34.194  31.100  1.00  0.00     0.020 A 
ATOM     77  C   UNL A   1      35.641  34.721  29.203  1.00  0.00     0.020 A 
ATOM     78  C   UNL A   1      34.404  34.785  29.846  1.00  0.00     0.054 A 
BRANCH  78  79
ATOM     79  S   UNL A   1      33.017  35.674  29.086  1.00  0.00     0.124 S 
ATOM     80  O   UNL A   1      32.386  34.627  28.288  1.00  0.00    -0.237 OA
ATOM     81  O   UNL A   1      32.259  36.128  30.249  1.00  0.00    -0.237 OA
ATOM     82  O   UNL A   1      33.669  36.736  28.323  1.00  0.00    -0.744 OA
ENDBRANCH  78  79
ENDBRANCH  50  73
BRANCH  62  83
ATOM     83  C   UNL A   1      39.835  34.248  37.170  1.00  0.00    -0.014 A 
ATOM     84  C   UNL A   1      40.454  35.510  37.131  1.00  0.00     0.010 A 
ATOM     85  C   UNL A   1      39.008  33.926  38.262  1.00  0.00     0.010 A 
ATOM     86  C   UNL A   1      40.276  36.416  38.180  1.00  0.00     0.020 A 
ATOM     87  C   UNL A   1      38.802  34.842  39.296  1.00  0.00     0.020 A 
ATOM     88  C   UNL A   1      39.451  36.076  39.256  1.00  0.00     0.054 A 
BRANCH  88  89
ATOM     89  S   UNL A   1      39.206  37.287  40.584  1.00  0.00     0.124 S 
ATOM     90  O   UNL A   1      38.243  38.206  39.985  1.00  0.00    -0.237 OA
ATOM     91  O   UNL A   1      38.693  36.464  41.677  1.00  0.00    -0.237 OA
ATOM     92  O   UNL A   1      40.542  37.837  40.802  1.00  0.00    -0.744 OA
ENDBRANCH  88  89
ENDBRANCH  62  83
ENDBRANCH  36  37
ENDBRANCH  28  31
ENDBRANCH  26  27
ENDBRANCH   1  26
TORSDOF 16
ENDMDL
MODEL 2
REMARK VINA RESULT:     -12.3      6.135      8.375
REMARK SMILES CSc1ccccc1Sc1cc(C(=O)NCCCNC(=O)c2ccc(-c3c4nc(c(-c5ccc(S(=O)(=O)[O-])cc5)c5ccc([nH]5)c(-c5ccc(S(=O)(=O)[O-])cc5)c5nc(c(-c6ccc(S(=O)(=O)[O-])cc6)c6ccc3[nH]6)C=C5)C=C4)cc2)c2ccccc2n1
REMARK SMILES IDX 17 1 16 2 15 3 13 4 14 5 12 7 10 8 11 9 88 10 87 11 82 12
REMARK SMILES IDX 86 13 83 14 85 15 84 16 9 17 8 18 3 19 4 20 5 21 7 22 6 23
REMARK SMILES IDX 2 24 1 25 18 26 19 27 20 28 21 30 22 31 23 32 81 33 24 34
REMARK SMILES IDX 80 35 25 36 26 37 27 38 74 39 28 40 79 41 73 42 75 43 29 44
REMARK SMILES IDX 78 45 72 46 71 47 30 49 60 50 41 51 59 52 42 53 45 54 58 55
REMARK SMILES IDX 76 56 43 57 44 58 57 60 77 61 46 62 31 63 32 64 40 65 33 66
REMARK SMILES IDX 39 67 34 68 35 69 36 70 37 71 38 72 61 73 62 74 70 75 63 76
REMARK SMILES IDX 69 77 64 78 65 79 66 80 67 81 68 82 47 83 48 84 56 85 49 86
REMARK SMILES IDX 55 87 50 88 51 89 52 90 53 91 54 92
REMARK H PARENT 15 6 19 29 75 48 45 59
REMARK Flexibility Score: inf
ROOT
ATOM      1  C   UNL A   1      38.245  19.669  25.119  1.00  0.00     0.042 C 
ENDROOT
BRANCH   1   2
ATOM      2  C   UNL A   1      37.155  20.703  24.825  1.00  0.00     0.118 C 
BRANCH   2   3
ATOM      3  N   UNL A   1      37.504  21.999  25.389  1.00  0.00    -0.352 N 
ATOM      4  C   UNL A   1      36.880  23.213  25.528  1.00  0.00     0.252 C 
ATOM      5  O   UNL A   1      37.536  24.068  26.121  1.00  0.00    -0.269 OA
ATOM      6  H   UNL A   1      38.413  22.007  25.765  1.00  0.00     0.163 HD
BRANCH   4   7
ATOM      7  C   UNL A   1      35.481  23.500  25.073  1.00  0.00     0.051 A 
ATOM      8  C   UNL A   1      33.915  24.544  23.632  1.00  0.00     0.102 A 
ATOM      9  C   UNL A   1      35.233  24.361  24.015  1.00  0.00     0.050 A 
ATOM     10  N   UNL A   1      32.930  23.717  24.004  1.00  0.00    -0.241 NA
ATOM     11  C   UNL A   1      33.105  23.089  25.155  1.00  0.00     0.072 A 
ATOM     12  C   UNL A   1      34.346  23.062  25.819  1.00  0.00     0.013 A 
ATOM     13  C   UNL A   1      31.952  22.633  25.767  1.00  0.00     0.029 A 
ATOM     14  C   UNL A   1      34.312  22.750  27.201  1.00  0.00     0.011 A 
ATOM     15  C   UNL A   1      31.936  22.358  27.128  1.00  0.00     0.002 A 
ATOM     16  C   UNL A   1      33.110  22.466  27.856  1.00  0.00     0.001 A 
BRANCH   8  17
ATOM     17  S   UNL A   1      33.410  26.231  23.294  1.00  0.00    -0.069 SA
BRANCH  17  18
ATOM     18  C   UNL A   1      32.829  26.809  24.873  1.00  0.00     0.027 A 
ATOM     19  C   UNL A   1      31.464  26.887  25.205  1.00  0.00     0.021 A 
ATOM     20  C   UNL A   1      31.118  27.541  26.407  1.00  0.00     0.016 A 
ATOM     21  C   UNL A   1      32.081  28.094  27.257  1.00  0.00     0.001 A 
ATOM     22  C   UNL A   1      33.794  27.360  25.748  1.00  0.00     0.016 A 
ATOM     23  C   UNL A   1      33.424  27.995  26.932  1.00  0.00     0.001 A 
BRANCH  19  24
ATOM     24  S   UNL A   1      30.025  26.375  24.243  1.00  0.00    -0.128 SA
ATOM     25  C   UNL A   1      29.475  27.828  23.305  1.00  0.00     0.091 C 
ENDBRANCH  19  24
ENDBRANCH  17  18
ENDBRANCH   8  17
ENDBRANCH   4   7
ENDBRANCH   2   3
ENDBRANCH   1   2
BRANCH   1  26
ATOM     26  C   UNL A   1      39.434  20.223  25.910  1.00  0.00     0.118 C 
BRANCH  26  27
ATOM     27  N   UNL A   1      40.495  19.240  26.087  1.00  0.00    -0.352 N 
ATOM     28  C   UNL A   1      41.845  19.418  26.254  1.00  0.00     0.251 C 
ATOM     29  H   UNL A   1      40.197  18.302  26.087  1.00  0.00     0.163 HD
ATOM     30  O   UNL A   1      42.591  18.436  26.193  1.00  0.00    -0.269 OA
BRANCH  28  31
ATOM     31  C   UNL A   1      42.417  20.761  26.488  1.00  0.00     0.039 A 
ATOM     32  C   UNL A   1      42.895  21.492  25.397  1.00  0.00     0.014 A 
ATOM     33  C   UNL A   1      42.519  21.291  27.778  1.00  0.00     0.014 A 
ATOM     34  C   UNL A   1      43.415  22.775  25.590  1.00  0.00     0.010 A 
ATOM     35  C   UNL A   1      42.970  22.598  27.960  1.00  0.00     0.010 A 
ATOM     36  C   UNL A   1      43.425  23.354  26.869  1.00  0.00    -0.014 A 
BRANCH  36  37
ATOM     37  C   UNL A   1      43.893  24.751  27.080  1.00  0.00     0.031 A 
ATOM     38  C   UNL A   1      45.342  25.109  26.881  1.00  0.00     0.074 A 
ATOM     39  C   UNL A   1      43.022  25.686  27.509  1.00  0.00     0.049 A 
ATOM     40  N   UNL A   1      45.939  26.260  27.059  1.00  0.00    -0.248 NA
ATOM     41  C   UNL A   1      46.243  24.028  26.447  1.00  0.00     0.031 C 
ATOM     42  C   UNL A   1      41.599  25.460  27.773  1.00  0.00     0.029 A 
ATOM     43  N   UNL A   1      43.204  27.015  27.803  1.00  0.00    -0.354 N 
ATOM     44  C   UNL A   1      47.284  26.040  26.780  1.00  0.00     0.074 A 
ATOM     45  C   UNL A   1      47.422  24.633  26.466  1.00  0.00     0.031 C 
ATOM     46  C   UNL A   1      41.033  26.614  28.156  1.00  0.00     0.029 A 
ATOM     47  C   UNL A   1      42.056  27.653  28.212  1.00  0.00     0.049 A 
ATOM     48  H   UNL A   1      44.075  27.468  27.728  1.00  0.00     0.167 HD
ATOM     49  C   UNL A   1      48.307  26.928  26.770  1.00  0.00     0.031 A 
ATOM     50  C   UNL A   1      41.849  28.928  28.596  1.00  0.00     0.031 A 
ATOM     51  C   UNL A   1      48.163  28.327  27.076  1.00  0.00     0.049 A 
ATOM     52  C   UNL A   1      43.006  29.890  28.598  1.00  0.00     0.074 A 
ATOM     53  C   UNL A   1      49.126  29.320  27.034  1.00  0.00     0.029 A 
ATOM     54  N   UNL A   1      46.986  28.932  27.490  1.00  0.00    -0.354 N 
ATOM     55  N   UNL A   1      44.255  29.678  28.258  1.00  0.00    -0.248 NA
ATOM     56  C   UNL A   1      42.722  31.267  29.022  1.00  0.00     0.031 C 
ATOM     57  C   UNL A   1      48.548  30.511  27.485  1.00  0.00     0.029 A 
ATOM     58  C   UNL A   1      47.205  30.276  27.739  1.00  0.00     0.049 A 
ATOM     59  H   UNL A   1      46.120  28.472  27.593  1.00  0.00     0.167 HD
ATOM     60  C   UNL A   1      44.898  30.903  28.398  1.00  0.00     0.074 A 
ATOM     61  C   UNL A   1      43.897  31.852  28.838  1.00  0.00     0.031 C 
ATOM     62  C   UNL A   1      46.201  31.212  28.180  1.00  0.00     0.031 A 
BRANCH  49  63
ATOM     63  C   UNL A   1      49.683  26.408  26.433  1.00  0.00    -0.014 A 
ATOM     64  C   UNL A   1      50.493  25.799  27.409  1.00  0.00     0.010 A 
ATOM     65  C   UNL A   1      50.154  26.490  25.110  1.00  0.00     0.010 A 
ATOM     66  C   UNL A   1      51.767  25.327  27.078  1.00  0.00     0.020 A 
ATOM     67  C   UNL A   1      51.415  25.990  24.768  1.00  0.00     0.020 A 
ATOM     68  C   UNL A   1      52.221  25.428  25.759  1.00  0.00     0.054 A 
BRANCH  68  69
ATOM     69  S   UNL A   1      53.871  24.791  25.357  1.00  0.00     0.124 S 
ATOM     70  O   UNL A   1      53.586  23.390  25.055  1.00  0.00    -0.237 OA
ATOM     71  O   UNL A   1      54.260  25.613  24.214  1.00  0.00    -0.237 OA
ATOM     72  O   UNL A   1      54.640  25.020  26.577  1.00  0.00    -0.744 OA
ENDBRANCH  68  69
ENDBRANCH  49  63
BRANCH  50  73
ATOM     73  C   UNL A   1      40.485  29.374  28.995  1.00  0.00    -0.014 A 
ATOM     74  C   UNL A   1      40.167  29.571  30.350  1.00  0.00     0.010 A 
ATOM     75  C   UNL A   1      39.497  29.611  28.021  1.00  0.00     0.010 A 
ATOM     76  C   UNL A   1      38.884  29.978  30.726  1.00  0.00     0.020 A 
ATOM     77  C   UNL A   1      38.222  30.049  28.390  1.00  0.00     0.020 A 
ATOM     78  C   UNL A   1      37.919  30.217  29.742  1.00  0.00     0.054 A 
BRANCH  78  79
ATOM     79  S   UNL A   1      36.275  30.790  30.253  1.00  0.00     0.124 S 
ATOM     80  O   UNL A   1      35.487  30.563  29.046  1.00  0.00    -0.237 OA
ATOM     81  O   UNL A   1      35.973  29.915  31.382  1.00  0.00    -0.237 OA
ATOM     82  O   UNL A   1      36.496  32.192  30.602  1.00  0.00    -0.744 OA
ENDBRANCH  78  79
ENDBRANCH  50  73
BRANCH  62  83
ATOM     83  C   UNL A   1      46.615  32.648  28.373  1.00  0.00    -0.014 A 
ATOM     84  C   UNL A   1      46.595  33.568  27.308  1.00  0.00     0.010 A 
ATOM     85  C   UNL A   1      46.984  33.096  29.655  1.00  0.00     0.010 A 
ATOM     86  C   UNL A   1      46.969  34.898  27.517  1.00  0.00     0.020 A 
ATOM     87  C   UNL A   1      47.327  34.432  29.874  1.00  0.00     0.020 A 
ATOM     88  C   UNL A   1      47.332  35.321  28.800  1.00  0.00     0.054 A 
BRANCH  88  89
ATOM     89  S   UNL A   1      47.775  37.063  29.050  1.00  0.00     0.124 S 
ATOM     90  O   UNL A   1      47.954  37.126  30.497  1.00  0.00    -0.237 OA
ATOM     91  O   UNL A   1      48.995  37.199  28.259  1.00  0.00    -0.237 OA
ATOM     92  O   UNL A   1      46.619  37.792  28.532  1.00  0.00    -0.744 OA
ENDBRANCH  88  89
ENDBRANCH  62  83
ENDBRANCH  36  37
ENDBRANCH  28  31
ENDBRANCH  26  27
ENDBRANCH   1  26
TORSDOF 16
ENDMDL
MODEL 3
REMARK VINA RESULT:     -12.3      1.118      8.222
REMARK SMILES CSc1ccccc1Sc1cc(C(=O)NCCCNC(=O)c2ccc(-c3c4nc(c(-c5ccc(S(=O)(=O)[O-])cc5)c5ccc([nH]5)c(-c5ccc(S(=O)(=O)[O-])cc5)c5nc(c(-c6ccc(S(=O)(=O)[O-])cc6)c6ccc3[nH]6)C=C5)C=C4)cc2)c2ccccc2n1
REMARK SMILES IDX 17 1 16 2 15 3 13 4 14 5 12 7 10 8 11 9 88 10 87 11 82 12
REMARK SMILES IDX 86 13 83 14 85 15 84 16 9 17 8 18 3 19 4 20 5 21 7 22 6 23
REMARK SMILES IDX 2 24 1 25 18 26 19 27 20 28 21 30 22 31 23 32 81 33 24 34
REMARK SMILES IDX 80 35 25 36 26 37 27 38 74 39 28 40 79 41 73 42 75 43 29 44
REMARK SMILES IDX 78 45 72 46 71 47 30 49 60 50 41 51 59 52 42 53 45 54 58 55
REMARK SMILES IDX 76 56 43 57 44 58 57 60 77 61 46 62 31 63 32 64 40 65 33 66
REMARK SMILES IDX 39 67 34 68 35 69 36 70 37 71 38 72 61 73 62 74 70 75 63 76
REMARK SMILES IDX 69 77 64 78 65 79 66 80 67 81 68 82 47 83 48 84 56 85 49 86
REMARK SMILES IDX 55 87 50 88 51 89 52 90 53 91 54 92
REMARK H PARENT 15 6 19 29 75 48 45 59
REMARK Flexibility Score: inf
ROOT
ATOM      1  C   UNL A   1      38.645  22.753  26.438  1.00  0.00     0.042 C 
ENDROOT
BRANCH   1   2
ATOM      2  C   UNL A   1      37.565  23.640  25.816  1.00  0.00     0.118 C 
BRANCH   2   3
ATOM      3  N   UNL A   1      37.408  23.350  24.398  1.00  0.00    -0.352 N 
ATOM      4  C   UNL A   1      36.353  23.133  23.548  1.00  0.00     0.252 C 
ATOM      5  O   UNL A   1      36.665  22.954  22.372  1.00  0.00    -0.269 OA
ATOM      6  H   UNL A   1      38.274  23.296  23.933  1.00  0.00     0.163 HD
BRANCH   4   7
ATOM      7  C   UNL A   1      34.913  23.175  23.961  1.00  0.00     0.051 A 
ATOM      8  C   UNL A   1      32.941  24.334  24.581  1.00  0.00     0.102 A 
ATOM      9  C   UNL A   1      34.283  24.378  24.243  1.00  0.00     0.050 A 
ATOM     10  N   UNL A   1      32.166  23.268  24.344  1.00  0.00    -0.241 NA
ATOM     11  C   UNL A   1      32.785  22.099  24.321  1.00  0.00     0.072 A 
ATOM     12  C   UNL A   1      34.187  21.986  24.269  1.00  0.00     0.013 A 
ATOM     13  C   UNL A   1      31.984  20.996  24.555  1.00  0.00     0.029 A 
ATOM     14  C   UNL A   1      34.733  20.744  24.676  1.00  0.00     0.011 A 
ATOM     15  C   UNL A   1      32.539  19.796  24.979  1.00  0.00     0.002 A 
ATOM     16  C   UNL A   1      33.916  19.686  25.087  1.00  0.00     0.001 A 
BRANCH   8  17
ATOM     17  S   UNL A   1      32.434  25.353  25.967  1.00  0.00    -0.069 SA
BRANCH  17  18
ATOM     18  C   UNL A   1      31.901  26.863  25.192  1.00  0.00     0.027 A 
ATOM     19  C   UNL A   1      32.139  28.134  25.746  1.00  0.00     0.021 A 
ATOM     20  C   UNL A   1      31.502  29.241  25.146  1.00  0.00     0.016 A 
ATOM     21  C   UNL A   1      30.666  29.105  24.034  1.00  0.00     0.001 A 
ATOM     22  C   UNL A   1      31.065  26.740  24.059  1.00  0.00     0.016 A 
ATOM     23  C   UNL A   1      30.454  27.852  23.482  1.00  0.00     0.001 A 
BRANCH  19  24
ATOM     24  S   UNL A   1      33.063  28.575  27.234  1.00  0.00    -0.128 SA
ATOM     25  C   UNL A   1      33.240  30.382  27.227  1.00  0.00     0.091 C 
ENDBRANCH  19  24
ENDBRANCH  17  18
ENDBRANCH   8  17
ENDBRANCH   4   7
ENDBRANCH   2   3
ENDBRANCH   1   2
BRANCH   1  26
ATOM     26  C   UNL A   1      39.790  23.531  27.094  1.00  0.00     0.118 C 
BRANCH  26  27
ATOM     27  N   UNL A   1      40.622  24.229  26.122  1.00  0.00    -0.352 N 
ATOM     28  C   UNL A   1      41.030  25.537  26.087  1.00  0.00     0.251 C 
ATOM     29  H   UNL A   1      40.941  23.673  25.374  1.00  0.00     0.163 HD
ATOM     30  O   UNL A   1      41.575  25.968  25.065  1.00  0.00    -0.269 OA
BRANCH  28  31
ATOM     31  C   UNL A   1      40.813  26.439  27.239  1.00  0.00     0.039 A 
ATOM     32  C   UNL A   1      39.872  26.083  28.209  1.00  0.00     0.014 A 
ATOM     33  C   UNL A   1      41.505  27.648  27.351  1.00  0.00     0.014 A 
ATOM     34  C   UNL A   1      39.670  26.905  29.320  1.00  0.00     0.010 A 
ATOM     35  C   UNL A   1      41.356  28.431  28.497  1.00  0.00     0.010 A 
ATOM     36  C   UNL A   1      40.436  28.070  29.493  1.00  0.00    -0.014 A 
BRANCH  36  37
ATOM     37  C   UNL A   1      40.297  28.911  30.712  1.00  0.00     0.031 A 
ATOM     38  C   UNL A   1      39.265  30.005  30.772  1.00  0.00     0.074 A 
ATOM     39  C   UNL A   1      41.142  28.727  31.746  1.00  0.00     0.049 A 
ATOM     40  N   UNL A   1      39.027  30.864  31.732  1.00  0.00    -0.248 NA
ATOM     41  C   UNL A   1      38.400  30.172  29.592  1.00  0.00     0.031 C 
ATOM     42  C   UNL A   1      42.209  27.724  31.800  1.00  0.00     0.029 A 
ATOM     43  N   UNL A   1      41.243  29.378  32.951  1.00  0.00    -0.354 N 
ATOM     44  C   UNL A   1      38.005  31.683  31.265  1.00  0.00     0.074 A 
ATOM     45  C   UNL A   1      37.699  31.249  29.919  1.00  0.00     0.031 C 
ATOM     46  C   UNL A   1      42.831  27.804  32.986  1.00  0.00     0.029 A 
ATOM     47  C   UNL A   1      42.244  28.893  33.761  1.00  0.00     0.049 A 
ATOM     48  H   UNL A   1      40.653  30.122  33.211  1.00  0.00     0.167 HD
ATOM     49  C   UNL A   1      37.368  32.694  31.904  1.00  0.00     0.031 A 
ATOM     50  C   UNL A   1      42.649  29.282  34.985  1.00  0.00     0.031 A 
ATOM     51  C   UNL A   1      37.671  33.119  33.245  1.00  0.00     0.049 A 
ATOM     52  C   UNL A   1      41.940  30.422  35.664  1.00  0.00     0.074 A 
ATOM     53  C   UNL A   1      37.042  34.091  34.003  1.00  0.00     0.029 A 
ATOM     54  N   UNL A   1      38.694  32.605  34.028  1.00  0.00    -0.354 N 
ATOM     55  N   UNL A   1      40.926  31.135  35.235  1.00  0.00    -0.248 NA
ATOM     56  C   UNL A   1      42.422  30.801  36.999  1.00  0.00     0.031 C 
ATOM     57  C   UNL A   1      37.724  34.212  35.217  1.00  0.00     0.029 A 
ATOM     58  C   UNL A   1      38.735  33.263  35.246  1.00  0.00     0.049 A 
ATOM     59  H   UNL A   1      39.303  31.879  33.757  1.00  0.00     0.167 HD
ATOM     60  C   UNL A   1      40.629  32.026  36.261  1.00  0.00     0.074 A 
ATOM     61  C   UNL A   1      41.561  31.751  37.335  1.00  0.00     0.031 C 
ATOM     62  C   UNL A   1      39.669  32.983  36.308  1.00  0.00     0.031 A 
BRANCH  49  63
ATOM     63  C   UNL A   1      36.286  33.428  31.149  1.00  0.00    -0.014 A 
ATOM     64  C   UNL A   1      35.051  33.731  31.751  1.00  0.00     0.010 A 
ATOM     65  C   UNL A   1      36.525  33.858  29.831  1.00  0.00     0.010 A 
ATOM     66  C   UNL A   1      34.060  34.408  31.034  1.00  0.00     0.020 A 
ATOM     67  C   UNL A   1      35.549  34.564  29.122  1.00  0.00     0.020 A 
ATOM     68  C   UNL A   1      34.314  34.818  29.722  1.00  0.00     0.054 A 
BRANCH  68  69
ATOM     69  S   UNL A   1      33.016  35.709  28.822  1.00  0.00     0.124 S 
ATOM     70  O   UNL A   1      33.790  36.710  28.091  1.00  0.00    -0.237 OA
ATOM     71  O   UNL A   1      32.415  34.659  28.005  1.00  0.00    -0.237 OA
ATOM     72  O   UNL A   1      32.160  36.238  29.881  1.00  0.00    -0.744 OA
ENDBRANCH  68  69
ENDBRANCH  49  63
BRANCH  50  73
ATOM     73  C   UNL A   1      43.775  28.575  35.657  1.00  0.00    -0.014 A 
ATOM     74  C   UNL A   1      45.101  28.999  35.463  1.00  0.00     0.010 A 
ATOM     75  C   UNL A   1      43.527  27.476  36.500  1.00  0.00     0.010 A 
ATOM     76  C   UNL A   1      46.159  28.329  36.083  1.00  0.00     0.020 A 
ATOM     77  C   UNL A   1      44.580  26.822  37.148  1.00  0.00     0.020 A 
ATOM     78  C   UNL A   1      45.891  27.245  36.925  1.00  0.00     0.054 A 
BRANCH  78  79
ATOM     79  S   UNL A   1      47.277  26.421  37.756  1.00  0.00     0.124 S 
ATOM     80  O   UNL A   1      48.221  27.520  37.933  1.00  0.00    -0.237 OA
ATOM     81  O   UNL A   1      46.656  25.916  38.977  1.00  0.00    -0.237 OA
ATOM     82  O   UNL A   1      47.685  25.392  36.802  1.00  0.00    -0.744 OA
ENDBRANCH  78  79
ENDBRANCH  50  73
BRANCH  62  83
ATOM     83  C   UNL A   1      39.548  33.782  37.580  1.00  0.00    -0.014 A 
ATOM     84  C   UNL A   1      38.789  33.317  38.670  1.00  0.00     0.010 A 
ATOM     85  C   UNL A   1      40.246  34.998  37.703  1.00  0.00     0.010 A 
ATOM     86  C   UNL A   1      38.705  34.070  39.844  1.00  0.00     0.020 A 
ATOM     87  C   UNL A   1      40.191  35.736  38.887  1.00  0.00     0.020 A 
ATOM     88  C   UNL A   1      39.407  35.275  39.945  1.00  0.00     0.054 A 
BRANCH  88  89
ATOM     89  S   UNL A   1      39.312  36.212  41.495  1.00  0.00     0.124 S 
ATOM     90  O   UNL A   1      39.225  37.587  41.015  1.00  0.00    -0.237 OA
ATOM     91  O   UNL A   1      38.098  35.684  42.114  1.00  0.00    -0.237 OA
ATOM     92  O   UNL A   1      40.554  35.869  42.184  1.00  0.00    -0.744 OA
ENDBRANCH  88  89
ENDBRANCH  62  83
ENDBRANCH  36  37
ENDBRANCH  28  31
ENDBRANCH  26  27
ENDBRANCH   1  26
TORSDOF 16
ENDMDL
