MODEL 1
REMARK VINA RESULT:     -12.4      0.000      0.000
REMARK SMILES Cc1cc(F)cc(N[C@](C)(C(=O)NCCCNC(=O)c2ccc(-c3c4nc(c(-c5ccc(S(=O)(=O)[O-])cc5)c5ccc([nH]5)c(-c5ccc(S(=O)(=O)[O-])cc5)c5nc(c(-c6ccc(S(=O)(=O)[O-])cc6)c6ccc3[nH]6)C=C5)C=C4)cc2)c2cccc(F)c2)c1
REMARK SMILES IDX 15 1 14 2 13 3 11 4 12 5 9 7 10 8 8 9 7 11 1 12 2 13 3 14
REMARK SMILES IDX 87 15 4 16 5 17 6 18 80 19 81 20 86 21 82 22 84 23 83 24
REMARK SMILES IDX 85 25 16 26 17 27 18 28 19 30 20 31 21 32 79 33 22 34 78 35
REMARK SMILES IDX 23 36 24 37 25 38 72 39 26 40 77 41 71 42 73 43 27 44 76 45
REMARK SMILES IDX 70 46 69 47 28 49 58 50 39 51 57 52 40 53 43 54 56 55 74 56
REMARK SMILES IDX 41 57 42 58 55 60 75 61 44 62 29 63 30 64 38 65 31 66 37 67
REMARK SMILES IDX 32 68 33 69 34 70 35 71 36 72 59 73 60 74 68 75 61 76 67 77
REMARK SMILES IDX 62 78 63 79 64 80 65 81 66 82 45 83 46 84 54 85 47 86 53 87
REMARK SMILES IDX 48 88 49 89 50 90 51 91 52 92
REMARK H PARENT 13 6 8 10 17 29 73 48 43 59
REMARK Flexibility Score: inf
ROOT
ATOM      1  C   UNL A   1      34.220  31.452  27.695  1.00  0.00     0.042 C 
ENDROOT
BRANCH   1   2
ATOM      2  C   UNL A   1      33.188  30.690  26.867  1.00  0.00     0.117 C 
BRANCH   2   3
ATOM      3  N   UNL A   1      32.738  29.500  27.558  1.00  0.00    -0.354 N 
ATOM      4  C   UNL A   1      32.366  28.269  27.117  1.00  0.00     0.250 C 
ATOM      5  O   UNL A   1      31.692  27.618  27.934  1.00  0.00    -0.272 OA
ATOM      6  H   UNL A   1      32.695  29.601  28.536  1.00  0.00     0.163 HD
BRANCH   4   7
ATOM      7  C   UNL A   1      32.714  27.657  25.687  1.00  0.00     0.139 C 
ATOM      8  C   UNL A   1      34.023  28.121  25.003  1.00  0.00     0.051 C 
BRANCH   7   9
ATOM      9  N   UNL A   1      32.882  26.178  25.900  1.00  0.00    -0.368 N 
ATOM     10  H   UNL A   1      32.442  25.800  26.695  1.00  0.00     0.161 HD
BRANCH   9  11
ATOM     11  C   UNL A   1      33.590  25.280  25.100  1.00  0.00     0.038 A 
ATOM     12  C   UNL A   1      36.951  23.451  25.391  1.00  0.00     0.044 C 
ATOM     13  C   UNL A   1      35.621  23.902  24.866  1.00  0.00    -0.046 A 
ATOM     14  C   UNL A   1      35.159  23.428  23.639  1.00  0.00     0.042 A 
ATOM     15  C   UNL A   1      34.824  24.807  25.588  1.00  0.00     0.029 A 
ATOM     16  C   UNL A   1      33.937  23.869  23.157  1.00  0.00     0.125 A 
ATOM     17  F   UNL A   1      33.497  23.418  21.974  1.00  0.00    -0.207 F 
ATOM     18  C   UNL A   1      33.160  24.781  23.870  1.00  0.00     0.065 A 
ENDBRANCH   9  11
ENDBRANCH   7   9
BRANCH   7  19
ATOM     19  C   UNL A   1      31.496  27.940  24.749  1.00  0.00    -0.011 A 
ATOM     20  C   UNL A   1      31.428  29.035  23.863  1.00  0.00     0.007 A 
ATOM     21  C   UNL A   1      30.427  27.022  24.674  1.00  0.00     0.046 A 
ATOM     22  C   UNL A   1      30.363  29.194  22.959  1.00  0.00     0.003 A 
ATOM     23  C   UNL A   1      29.385  27.175  23.760  1.00  0.00     0.123 A 
ATOM     24  C   UNL A   1      29.343  28.253  22.900  1.00  0.00     0.039 A 
ATOM     25  F   UNL A   1      28.425  26.242  23.707  1.00  0.00    -0.207 F 
ENDBRANCH   7  19
ENDBRANCH   4   7
ENDBRANCH   2   3
ENDBRANCH   1   2
BRANCH   1  26
ATOM     26  C   UNL A   1      35.342  30.577  28.242  1.00  0.00     0.118 C 
BRANCH  26  27
ATOM     27  N   UNL A   1      35.411  30.626  29.693  1.00  0.00    -0.352 N 
ATOM     28  C   UNL A   1      36.389  30.184  30.550  1.00  0.00     0.251 C 
ATOM     29  H   UNL A   1      34.636  31.044  30.131  1.00  0.00     0.163 HD
ATOM     30  O   UNL A   1      36.135  30.115  31.750  1.00  0.00    -0.269 OA
BRANCH  28  31
ATOM     31  C   UNL A   1      37.729  29.789  30.054  1.00  0.00     0.039 A 
ATOM     32  C   UNL A   1      38.655  29.274  30.967  1.00  0.00     0.014 A 
ATOM     33  C   UNL A   1      38.107  29.983  28.723  1.00  0.00     0.014 A 
ATOM     34  C   UNL A   1      39.939  28.926  30.540  1.00  0.00     0.010 A 
ATOM     35  C   UNL A   1      39.358  29.555  28.280  1.00  0.00     0.010 A 
ATOM     36  C   UNL A   1      40.297  29.046  29.188  1.00  0.00    -0.014 A 
BRANCH  36  37
ATOM     37  C   UNL A   1      41.658  28.678  28.719  1.00  0.00     0.031 A 
ATOM     38  C   UNL A   1      42.760  29.704  28.704  1.00  0.00     0.074 A 
ATOM     39  C   UNL A   1      41.896  27.430  28.272  1.00  0.00     0.049 A 
ATOM     40  N   UNL A   1      44.009  29.571  28.333  1.00  0.00    -0.248 NA
ATOM     41  C   UNL A   1      42.409  31.066  29.139  1.00  0.00     0.031 C 
ATOM     42  C   UNL A   1      40.904  26.355  28.196  1.00  0.00     0.029 A 
ATOM     43  N   UNL A   1      43.049  26.852  27.803  1.00  0.00    -0.354 N 
ATOM     44  C   UNL A   1      44.581  30.830  28.467  1.00  0.00     0.074 A 
ATOM     45  C   UNL A   1      43.533  31.725  28.902  1.00  0.00     0.031 C 
ATOM     46  C   UNL A   1      41.501  25.237  27.754  1.00  0.00     0.029 A 
ATOM     47  C   UNL A   1      42.907  25.523  27.481  1.00  0.00     0.049 A 
ATOM     48  H   UNL A   1      43.897  27.342  27.707  1.00  0.00     0.167 HD
ATOM     49  C   UNL A   1      45.868  31.208  28.268  1.00  0.00     0.031 A 
ATOM     50  C   UNL A   1      43.808  24.631  27.028  1.00  0.00     0.031 A 
ATOM     51  C   UNL A   1      46.913  30.313  27.847  1.00  0.00     0.049 A 
ATOM     52  C   UNL A   1      45.232  25.064  26.822  1.00  0.00     0.074 A 
ATOM     53  C   UNL A   1      48.260  30.579  27.676  1.00  0.00     0.029 A 
ATOM     54  N   UNL A   1      46.727  28.975  27.531  1.00  0.00    -0.354 N 
ATOM     55  N   UNL A   1      45.769  26.244  27.019  1.00  0.00    -0.248 NA
ATOM     56  C   UNL A   1      46.173  24.042  26.345  1.00  0.00     0.031 C 
ATOM     57  C   UNL A   1      48.880  29.414  27.212  1.00  0.00     0.029 A 
ATOM     58  C   UNL A   1      47.928  28.408  27.143  1.00  0.00     0.049 A 
ATOM     59  H   UNL A   1      45.866  28.500  27.575  1.00  0.00     0.167 HD
ATOM     60  C   UNL A   1      47.119  26.102  26.714  1.00  0.00     0.074 A 
ATOM     61  C   UNL A   1      47.314  24.718  26.328  1.00  0.00     0.031 C 
ATOM     62  C   UNL A   1      48.106  27.031  26.755  1.00  0.00     0.031 A 
BRANCH  49  63
ATOM     63  C   UNL A   1      46.200  32.662  28.491  1.00  0.00    -0.014 A 
ATOM     64  C   UNL A   1      46.668  33.119  29.737  1.00  0.00     0.010 A 
ATOM     65  C   UNL A   1      46.028  33.586  27.445  1.00  0.00     0.010 A 
ATOM     66  C   UNL A   1      46.889  34.482  29.955  1.00  0.00     0.020 A 
ATOM     67  C   UNL A   1      46.277  34.947  27.650  1.00  0.00     0.020 A 
ATOM     68  C   UNL A   1      46.678  35.389  28.913  1.00  0.00     0.054 A 
BRANCH  68  69
ATOM     69  S   UNL A   1      46.942  37.156  29.227  1.00  0.00     0.124 S 
ATOM     70  O   UNL A   1      47.897  37.123  30.333  1.00  0.00    -0.237 OA
ATOM     71  O   UNL A   1      47.475  37.635  27.954  1.00  0.00    -0.237 OA
ATOM     72  O   UNL A   1      45.611  37.651  29.567  1.00  0.00    -0.744 OA
ENDBRANCH  68  69
ENDBRANCH  49  63
BRANCH  50  73
ATOM     73  C   UNL A   1      43.389  23.222  26.799  1.00  0.00    -0.014 A 
ATOM     74  C   UNL A   1      43.545  22.638  25.529  1.00  0.00     0.010 A 
ATOM     75  C   UNL A   1      42.889  22.440  27.856  1.00  0.00     0.010 A 
ATOM     76  C   UNL A   1      43.212  21.297  25.321  1.00  0.00     0.020 A 
ATOM     77  C   UNL A   1      42.576  21.092  27.657  1.00  0.00     0.020 A 
ATOM     78  C   UNL A   1      42.737  20.529  26.388  1.00  0.00     0.054 A 
BRANCH  78  79
ATOM     79  S   UNL A   1      42.398  18.768  26.114  1.00  0.00     0.124 S 
ATOM     80  O   UNL A   1      41.001  18.789  25.694  1.00  0.00    -0.237 OA
ATOM     81  O   UNL A   1      43.366  18.417  25.079  1.00  0.00    -0.237 OA
ATOM     82  O   UNL A   1      42.651  18.165  27.421  1.00  0.00    -0.744 OA
ENDBRANCH  78  79
ENDBRANCH  50  73
BRANCH  62  83
ATOM     83  C   UNL A   1      49.495  26.578  26.397  1.00  0.00    -0.014 A 
ATOM     84  C   UNL A   1      50.328  25.961  27.346  1.00  0.00     0.010 A 
ATOM     85  C   UNL A   1      49.952  26.726  25.074  1.00  0.00     0.010 A 
ATOM     86  C   UNL A   1      51.605  25.523  26.985  1.00  0.00     0.020 A 
ATOM     87  C   UNL A   1      51.218  26.267  24.704  1.00  0.00     0.020 A 
ATOM     88  C   UNL A   1      52.042  25.680  25.666  1.00  0.00     0.054 A 
BRANCH  88  89
ATOM     89  S   UNL A   1      53.685  25.061  25.210  1.00  0.00     0.124 S 
ATOM     90  O   UNL A   1      53.487  23.615  25.256  1.00  0.00    -0.237 OA
ATOM     91  O   UNL A   1      53.885  25.626  23.879  1.00  0.00    -0.237 OA
ATOM     92  O   UNL A   1      54.559  25.603  26.249  1.00  0.00    -0.744 OA
ENDBRANCH  88  89
ENDBRANCH  62  83
ENDBRANCH  36  37
ENDBRANCH  28  31
ENDBRANCH  26  27
ENDBRANCH   1  26
TORSDOF 16
ENDMDL
MODEL 2
REMARK VINA RESULT:     -12.1      4.078     10.082
REMARK SMILES Cc1cc(F)cc(N[C@](C)(C(=O)NCCCNC(=O)c2ccc(-c3c4nc(c(-c5ccc(S(=O)(=O)[O-])cc5)c5ccc([nH]5)c(-c5ccc(S(=O)(=O)[O-])cc5)c5nc(c(-c6ccc(S(=O)(=O)[O-])cc6)c6ccc3[nH]6)C=C5)C=C4)cc2)c2cccc(F)c2)c1
REMARK SMILES IDX 15 1 14 2 13 3 11 4 12 5 9 7 10 8 8 9 7 11 1 12 2 13 3 14
REMARK SMILES IDX 87 15 4 16 5 17 6 18 80 19 81 20 86 21 82 22 84 23 83 24
REMARK SMILES IDX 85 25 16 26 17 27 18 28 19 30 20 31 21 32 79 33 22 34 78 35
REMARK SMILES IDX 23 36 24 37 25 38 72 39 26 40 77 41 71 42 73 43 27 44 76 45
REMARK SMILES IDX 70 46 69 47 28 49 58 50 39 51 57 52 40 53 43 54 56 55 74 56
REMARK SMILES IDX 41 57 42 58 55 60 75 61 44 62 29 63 30 64 38 65 31 66 37 67
REMARK SMILES IDX 32 68 33 69 34 70 35 71 36 72 59 73 60 74 68 75 61 76 67 77
REMARK SMILES IDX 62 78 63 79 64 80 65 81 66 82 45 83 46 84 54 85 47 86 53 87
REMARK SMILES IDX 48 88 49 89 50 90 51 91 52 92
REMARK H PARENT 13 6 8 10 17 29 73 48 43 59
REMARK Flexibility Score: inf
ROOT
ATOM      1  C   UNL A   1      35.140  23.025  26.299  1.00  0.00     0.042 C 
ENDROOT
BRANCH   1   2
ATOM      2  C   UNL A   1      33.987  24.006  26.497  1.00  0.00     0.117 C 
BRANCH   2   3
ATOM      3  N   UNL A   1      32.786  23.543  25.833  1.00  0.00    -0.354 N 
ATOM      4  C   UNL A   1      31.892  24.164  25.017  1.00  0.00     0.250 C 
ATOM      5  O   UNL A   1      30.797  23.584  24.929  1.00  0.00    -0.272 OA
ATOM      6  H   UNL A   1      32.578  22.597  26.003  1.00  0.00     0.163 HD
BRANCH   4   7
ATOM      7  C   UNL A   1      32.155  25.522  24.226  1.00  0.00     0.139 C 
ATOM      8  C   UNL A   1      33.382  25.585  23.285  1.00  0.00     0.051 C 
BRANCH   7   9
ATOM      9  N   UNL A   1      30.961  25.718  23.333  1.00  0.00    -0.368 N 
ATOM     10  H   UNL A   1      30.614  24.912  22.887  1.00  0.00     0.161 HD
BRANCH   9  11
ATOM     11  C   UNL A   1      30.289  26.910  23.062  1.00  0.00     0.038 A 
ATOM     12  C   UNL A   1      26.739  28.230  23.681  1.00  0.00     0.044 C 
ATOM     13  C   UNL A   1      28.177  28.166  23.260  1.00  0.00    -0.046 A 
ATOM     14  C   UNL A   1      28.767  29.261  22.631  1.00  0.00     0.042 A 
ATOM     15  C   UNL A   1      28.949  27.013  23.483  1.00  0.00     0.029 A 
ATOM     16  C   UNL A   1      30.092  29.181  22.230  1.00  0.00     0.125 A 
ATOM     17  F   UNL A   1      30.656  30.232  21.619  1.00  0.00    -0.207 F 
ATOM     18  C   UNL A   1      30.846  28.027  22.437  1.00  0.00     0.065 A 
ENDBRANCH   9  11
ENDBRANCH   7   9
BRANCH   7  19
ATOM     19  C   UNL A   1      32.240  26.670  25.285  1.00  0.00    -0.011 A 
ATOM     20  C   UNL A   1      31.279  26.876  26.297  1.00  0.00     0.007 A 
ATOM     21  C   UNL A   1      33.372  27.510  25.334  1.00  0.00     0.046 A 
ATOM     22  C   UNL A   1      31.447  27.852  27.293  1.00  0.00     0.003 A 
ATOM     23  C   UNL A   1      33.543  28.463  26.338  1.00  0.00     0.123 A 
ATOM     24  C   UNL A   1      32.589  28.642  27.321  1.00  0.00     0.039 A 
ATOM     25  F   UNL A   1      34.663  29.196  26.356  1.00  0.00    -0.207 F 
ENDBRANCH   7  19
ENDBRANCH   4   7
ENDBRANCH   2   3
ENDBRANCH   1   2
BRANCH   1  26
ATOM     26  C   UNL A   1      36.447  23.685  25.878  1.00  0.00     0.118 C 
BRANCH  26  27
ATOM     27  N   UNL A   1      37.560  22.750  25.901  1.00  0.00    -0.352 N 
ATOM     28  C   UNL A   1      38.882  22.951  26.215  1.00  0.00     0.251 C 
ATOM     29  H   UNL A   1      37.330  21.825  25.654  1.00  0.00     0.163 HD
ATOM     30  O   UNL A   1      39.694  22.071  25.941  1.00  0.00    -0.269 OA
BRANCH  28  31
ATOM     31  C   UNL A   1      39.338  24.201  26.868  1.00  0.00     0.039 A 
ATOM     32  C   UNL A   1      39.023  24.407  28.215  1.00  0.00     0.014 A 
ATOM     33  C   UNL A   1      40.006  25.201  26.156  1.00  0.00     0.014 A 
ATOM     34  C   UNL A   1      39.405  25.591  28.850  1.00  0.00     0.010 A 
ATOM     35  C   UNL A   1      40.463  26.344  26.811  1.00  0.00     0.010 A 
ATOM     36  C   UNL A   1      40.145  26.563  28.160  1.00  0.00    -0.014 A 
BRANCH  36  37
ATOM     37  C   UNL A   1      40.560  27.826  28.823  1.00  0.00     0.031 A 
ATOM     38  C   UNL A   1      41.956  27.976  29.367  1.00  0.00     0.074 A 
ATOM     39  C   UNL A   1      39.671  28.828  28.969  1.00  0.00     0.049 A 
ATOM     40  N   UNL A   1      42.501  29.001  29.974  1.00  0.00    -0.248 NA
ATOM     41  C   UNL A   1      42.851  26.814  29.236  1.00  0.00     0.031 C 
ATOM     42  C   UNL A   1      38.276  28.793  28.523  1.00  0.00     0.029 A 
ATOM     43  N   UNL A   1      39.810  30.073  29.527  1.00  0.00    -0.354 N 
ATOM     44  C   UNL A   1      43.787  28.599  30.316  1.00  0.00     0.074 A 
ATOM     45  C   UNL A   1      43.924  27.222  29.896  1.00  0.00     0.031 C 
ATOM     46  C   UNL A   1      37.702  29.978  28.783  1.00  0.00     0.029 A 
ATOM     47  C   UNL A   1      38.674  30.844  29.446  1.00  0.00     0.049 A 
ATOM     48  H   UNL A   1      40.644  30.386  29.947  1.00  0.00     0.167 HD
ATOM     49  C   UNL A   1      44.776  29.315  30.905  1.00  0.00     0.031 A 
ATOM     50  C   UNL A   1      38.442  32.108  29.847  1.00  0.00     0.031 A 
ATOM     51  C   UNL A   1      44.643  30.689  31.309  1.00  0.00     0.049 A 
ATOM     52  C   UNL A   1      39.552  32.890  30.490  1.00  0.00     0.074 A 
ATOM     53  C   UNL A   1      45.600  31.524  31.858  1.00  0.00     0.029 A 
ATOM     54  N   UNL A   1      43.475  31.431  31.209  1.00  0.00    -0.354 N 
ATOM     55  N   UNL A   1      40.783  32.514  30.744  1.00  0.00    -0.248 NA
ATOM     56  C   UNL A   1      39.245  34.269  30.890  1.00  0.00     0.031 C 
ATOM     57  C   UNL A   1      44.999  32.757  32.131  1.00  0.00     0.029 A 
ATOM     58  C   UNL A   1      43.680  32.707  31.706  1.00  0.00     0.049 A 
ATOM     59  H   UNL A   1      42.626  31.099  30.839  1.00  0.00     0.167 HD
ATOM     60  C   UNL A   1      41.407  33.620  31.310  1.00  0.00     0.074 A 
ATOM     61  C   UNL A   1      40.418  34.680  31.353  1.00  0.00     0.031 C 
ATOM     62  C   UNL A   1      42.684  33.748  31.749  1.00  0.00     0.031 A 
BRANCH  49  63
ATOM     63  C   UNL A   1      46.082  28.605  31.157  1.00  0.00    -0.014 A 
ATOM     64  C   UNL A   1      47.108  28.604  30.194  1.00  0.00     0.010 A 
ATOM     65  C   UNL A   1      46.281  27.917  32.367  1.00  0.00     0.010 A 
ATOM     66  C   UNL A   1      48.279  27.869  30.405  1.00  0.00     0.020 A 
ATOM     67  C   UNL A   1      47.464  27.206  32.596  1.00  0.00     0.020 A 
ATOM     68  C   UNL A   1      48.442  27.163  31.600  1.00  0.00     0.054 A 
BRANCH  68  69
ATOM     69  S   UNL A   1      49.956  26.193  31.841  1.00  0.00     0.124 S 
ATOM     70  O   UNL A   1      50.345  25.900  30.463  1.00  0.00    -0.237 OA
ATOM     71  O   UNL A   1      50.829  27.125  32.552  1.00  0.00    -0.237 OA
ATOM     72  O   UNL A   1      49.511  25.042  32.622  1.00  0.00    -0.744 OA
ENDBRANCH  68  69
ENDBRANCH  49  63
BRANCH  50  73
ATOM     73  C   UNL A   1      37.111  32.723  29.592  1.00  0.00    -0.014 A 
ATOM     74  C   UNL A   1      36.103  32.649  30.569  1.00  0.00     0.010 A 
ATOM     75  C   UNL A   1      36.864  33.432  28.403  1.00  0.00     0.010 A 
ATOM     76  C   UNL A   1      34.872  33.278  30.363  1.00  0.00     0.020 A 
ATOM     77  C   UNL A   1      35.642  34.081  28.203  1.00  0.00     0.020 A 
ATOM     78  C   UNL A   1      34.652  33.997  29.184  1.00  0.00     0.054 A 
BRANCH  78  79
ATOM     79  S   UNL A   1      33.079  34.879  28.981  1.00  0.00     0.124 S 
ATOM     80  O   UNL A   1      32.555  34.884  30.343  1.00  0.00    -0.237 OA
ATOM     81  O   UNL A   1      33.508  36.175  28.462  1.00  0.00    -0.237 OA
ATOM     82  O   UNL A   1      32.344  34.050  28.029  1.00  0.00    -0.744 OA
ENDBRANCH  78  79
ENDBRANCH  50  73
BRANCH  62  83
ATOM     83  C   UNL A   1      43.096  35.089  32.293  1.00  0.00    -0.014 A 
ATOM     84  C   UNL A   1      42.947  35.399  33.657  1.00  0.00     0.010 A 
ATOM     85  C   UNL A   1      43.691  36.032  31.436  1.00  0.00     0.010 A 
ATOM     86  C   UNL A   1      43.362  36.639  34.147  1.00  0.00     0.020 A 
ATOM     87  C   UNL A   1      44.130  37.263  31.927  1.00  0.00     0.020 A 
ATOM     88  C   UNL A   1      43.950  37.565  33.278  1.00  0.00     0.054 A 
BRANCH  88  89
ATOM     89  S   UNL A   1      44.524  39.150  33.947  1.00  0.00     0.124 S 
ATOM     90  O   UNL A   1      44.088  39.067  35.339  1.00  0.00    -0.237 OA
ATOM     91  O   UNL A   1      45.967  39.086  33.737  1.00  0.00    -0.237 OA
ATOM     92  O   UNL A   1      43.824  40.142  33.133  1.00  0.00    -0.744 OA
ENDBRANCH  88  89
ENDBRANCH  62  83
ENDBRANCH  36  37
ENDBRANCH  28  31
ENDBRANCH  26  27
ENDBRANCH   1  26
TORSDOF 16
ENDMDL
MODEL 3
REMARK VINA RESULT:     -12.0      3.328      4.751
REMARK SMILES Cc1cc(F)cc(N[C@](C)(C(=O)NCCCNC(=O)c2ccc(-c3c4nc(c(-c5ccc(S(=O)(=O)[O-])cc5)c5ccc([nH]5)c(-c5ccc(S(=O)(=O)[O-])cc5)c5nc(c(-c6ccc(S(=O)(=O)[O-])cc6)c6ccc3[nH]6)C=C5)C=C4)cc2)c2cccc(F)c2)c1
REMARK SMILES IDX 15 1 14 2 13 3 11 4 12 5 9 7 10 8 8 9 7 11 1 12 2 13 3 14
REMARK SMILES IDX 87 15 4 16 5 17 6 18 80 19 81 20 86 21 82 22 84 23 83 24
REMARK SMILES IDX 85 25 16 26 17 27 18 28 19 30 20 31 21 32 79 33 22 34 78 35
REMARK SMILES IDX 23 36 24 37 25 38 72 39 26 40 77 41 71 42 73 43 27 44 76 45
REMARK SMILES IDX 70 46 69 47 28 49 58 50 39 51 57 52 40 53 43 54 56 55 74 56
REMARK SMILES IDX 41 57 42 58 55 60 75 61 44 62 29 63 30 64 38 65 31 66 37 67
REMARK SMILES IDX 32 68 33 69 34 70 35 71 36 72 59 73 60 74 68 75 61 76 67 77
REMARK SMILES IDX 62 78 63 79 64 80 65 81 66 82 45 83 46 84 54 85 47 86 53 87
REMARK SMILES IDX 48 88 49 89 50 90 51 91 52 92
REMARK H PARENT 13 6 8 10 17 29 73 48 43 59
REMARK Flexibility Score: inf
ROOT
ATOM      1  C   UNL A   1      33.830  28.009  25.666  1.00  0.00     0.042 C 
ENDROOT
BRANCH   1   2
ATOM      2  C   UNL A   1      34.035  26.531  25.340  1.00  0.00     0.117 C 
BRANCH   2   3
ATOM      3  N   UNL A   1      33.042  26.061  24.397  1.00  0.00    -0.354 N 
ATOM      4  C   UNL A   1      32.632  24.813  24.042  1.00  0.00     0.250 C 
ATOM      5  O   UNL A   1      32.037  24.764  22.952  1.00  0.00    -0.272 OA
ATOM      6  H   UNL A   1      32.573  26.783  23.921  1.00  0.00     0.163 HD
BRANCH   4   7
ATOM      7  C   UNL A   1      32.872  23.488  24.894  1.00  0.00     0.139 C 
ATOM      8  C   UNL A   1      32.396  23.479  26.367  1.00  0.00     0.051 C 
BRANCH   7   9
ATOM      9  N   UNL A   1      32.073  22.409  24.215  1.00  0.00    -0.368 N 
ATOM     10  H   UNL A   1      31.333  22.713  23.640  1.00  0.00     0.161 HD
BRANCH   9  11
ATOM     11  C   UNL A   1      32.258  21.030  24.305  1.00  0.00     0.038 A 
ATOM     12  C   UNL A   1      32.298  18.123  21.799  1.00  0.00     0.044 C 
ATOM     13  C   UNL A   1      32.390  18.892  23.083  1.00  0.00    -0.046 A 
ATOM     14  C   UNL A   1      32.643  18.223  24.280  1.00  0.00     0.042 A 
ATOM     15  C   UNL A   1      32.218  20.288  23.109  1.00  0.00     0.029 A 
ATOM     16  C   UNL A   1      32.707  18.944  25.462  1.00  0.00     0.125 A 
ATOM     17  F   UNL A   1      32.944  18.299  26.612  1.00  0.00    -0.207 F 
ATOM     18  C   UNL A   1      32.517  20.325  25.482  1.00  0.00     0.065 A 
ENDBRANCH   9  11
ENDBRANCH   7   9
BRANCH   7  19
ATOM     19  C   UNL A   1      34.399  23.160  24.828  1.00  0.00    -0.011 A 
ATOM     20  C   UNL A   1      35.172  22.797  25.951  1.00  0.00     0.007 A 
ATOM     21  C   UNL A   1      35.063  23.113  23.584  1.00  0.00     0.046 A 
ATOM     22  C   UNL A   1      36.517  22.407  25.832  1.00  0.00     0.003 A 
ATOM     23  C   UNL A   1      36.392  22.704  23.471  1.00  0.00     0.123 A 
ATOM     24  C   UNL A   1      37.126  22.349  24.585  1.00  0.00     0.039 A 
ATOM     25  F   UNL A   1      36.951  22.634  22.256  1.00  0.00    -0.207 F 
ENDBRANCH   7  19
ENDBRANCH   4   7
ENDBRANCH   2   3
ENDBRANCH   1   2
BRANCH   1  26
ATOM     26  C   UNL A   1      33.492  28.278  27.127  1.00  0.00     0.118 C 
BRANCH  26  27
ATOM     27  N   UNL A   1      33.383  29.701  27.406  1.00  0.00    -0.352 N 
ATOM     28  C   UNL A   1      34.268  30.557  28.014  1.00  0.00     0.251 C 
ATOM     29  H   UNL A   1      32.542  30.117  27.111  1.00  0.00     0.163 HD
ATOM     30  O   UNL A   1      33.873  31.668  28.357  1.00  0.00    -0.269 OA
BRANCH  28  31
ATOM     31  C   UNL A   1      35.674  30.162  28.265  1.00  0.00     0.039 A 
ATOM     32  C   UNL A   1      36.023  29.699  29.538  1.00  0.00     0.014 A 
ATOM     33  C   UNL A   1      36.665  30.306  27.290  1.00  0.00     0.014 A 
ATOM     34  C   UNL A   1      37.347  29.354  29.820  1.00  0.00     0.010 A 
ATOM     35  C   UNL A   1      37.968  29.880  27.544  1.00  0.00     0.010 A 
ATOM     36  C   UNL A   1      38.329  29.423  28.819  1.00  0.00    -0.014 A 
BRANCH  36  37
ATOM     37  C   UNL A   1      39.741  29.057  29.103  1.00  0.00     0.031 A 
ATOM     38  C   UNL A   1      40.657  30.037  29.788  1.00  0.00     0.074 A 
ATOM     39  C   UNL A   1      40.211  27.857  28.714  1.00  0.00     0.049 A 
ATOM     40  N   UNL A   1      41.916  29.897  30.121  1.00  0.00    -0.248 NA
ATOM     41  C   UNL A   1      40.094  31.356  30.119  1.00  0.00     0.031 C 
ATOM     42  C   UNL A   1      39.437  26.834  28.005  1.00  0.00     0.029 A 
ATOM     43  N   UNL A   1      41.452  27.290  28.865  1.00  0.00    -0.354 N 
ATOM     44  C   UNL A   1      42.299  31.113  30.676  1.00  0.00     0.074 A 
ATOM     45  C   UNL A   1      41.156  31.994  30.588  1.00  0.00     0.031 C 
ATOM     46  C   UNL A   1      40.207  25.749  27.824  1.00  0.00     0.029 A 
ATOM     47  C   UNL A   1      41.536  26.010  28.370  1.00  0.00     0.049 A 
ATOM     48  H   UNL A   1      42.209  27.755  29.287  1.00  0.00     0.167 HD
ATOM     49  C   UNL A   1      43.485  31.461  31.231  1.00  0.00     0.031 A 
ATOM     50  C   UNL A   1      42.562  25.138  28.366  1.00  0.00     0.031 A 
ATOM     51  C   UNL A   1      44.617  30.578  31.330  1.00  0.00     0.049 A 
ATOM     52  C   UNL A   1      43.867  25.538  28.994  1.00  0.00     0.074 A 
ATOM     53  C   UNL A   1      45.843  30.811  31.928  1.00  0.00     0.029 A 
ATOM     54  N   UNL A   1      44.660  29.290  30.816  1.00  0.00    -0.354 N 
ATOM     55  N   UNL A   1      44.189  26.669  29.575  1.00  0.00    -0.248 NA
ATOM     56  C   UNL A   1      44.944  24.538  28.976  1.00  0.00     0.031 C 
ATOM     57  C   UNL A   1      46.644  29.679  31.735  1.00  0.00     0.029 A 
ATOM     58  C   UNL A   1      45.899  28.723  31.062  1.00  0.00     0.049 A 
ATOM     59  H   UNL A   1      43.919  28.845  30.346  1.00  0.00     0.167 HD
ATOM     60  C   UNL A   1      45.498  26.509  30.016  1.00  0.00     0.074 A 
ATOM     61  C   UNL A   1      45.904  25.168  29.640  1.00  0.00     0.031 C 
ATOM     62  C   UNL A   1      46.290  27.391  30.676  1.00  0.00     0.031 A 
BRANCH  49  63
ATOM     63  C   UNL A   1      43.612  32.869  31.757  1.00  0.00    -0.014 A 
ATOM     64  C   UNL A   1      44.143  33.899  30.958  1.00  0.00     0.010 A 
ATOM     65  C   UNL A   1      43.208  33.163  33.072  1.00  0.00     0.010 A 
ATOM     66  C   UNL A   1      44.334  35.179  31.487  1.00  0.00     0.020 A 
ATOM     67  C   UNL A   1      43.370  34.449  33.595  1.00  0.00     0.020 A 
ATOM     68  C   UNL A   1      43.960  35.441  32.808  1.00  0.00     0.054 A 
BRANCH  68  69
ATOM     69  S   UNL A   1      44.245  37.101  33.482  1.00  0.00     0.124 S 
ATOM     70  O   UNL A   1      43.348  37.112  34.636  1.00  0.00    -0.237 OA
ATOM     71  O   UNL A   1      45.671  37.082  33.799  1.00  0.00    -0.237 OA
ATOM     72  O   UNL A   1      43.865  37.990  32.388  1.00  0.00    -0.744 OA
ENDBRANCH  68  69
ENDBRANCH  49  63
BRANCH  50  73
ATOM     73  C   UNL A   1      42.364  23.779  27.794  1.00  0.00    -0.014 A 
ATOM     74  C   UNL A   1      42.547  23.560  26.418  1.00  0.00     0.010 A 
ATOM     75  C   UNL A   1      42.051  22.689  28.626  1.00  0.00     0.010 A 
ATOM     76  C   UNL A   1      42.424  22.275  25.883  1.00  0.00     0.020 A 
ATOM     77  C   UNL A   1      41.950  21.398  28.098  1.00  0.00     0.020 A 
ATOM     78  C   UNL A   1      42.134  21.200  26.728  1.00  0.00     0.054 A 
BRANCH  78  79
ATOM     79  S   UNL A   1      42.070  19.529  26.024  1.00  0.00     0.124 S 
ATOM     80  O   UNL A   1      40.660  19.404  25.666  1.00  0.00    -0.237 OA
ATOM     81  O   UNL A   1      43.002  19.622  24.903  1.00  0.00    -0.237 OA
ATOM     82  O   UNL A   1      42.515  18.678  27.124  1.00  0.00    -0.744 OA
ENDBRANCH  78  79
ENDBRANCH  50  73
BRANCH  62  83
ATOM     83  C   UNL A   1      47.669  26.928  31.058  1.00  0.00    -0.014 A 
ATOM     84  C   UNL A   1      47.886  26.165  32.219  1.00  0.00     0.010 A 
ATOM     85  C   UNL A   1      48.756  27.216  30.213  1.00  0.00     0.010 A 
ATOM     86  C   UNL A   1      49.171  25.721  32.542  1.00  0.00     0.020 A 
ATOM     87  C   UNL A   1      50.038  26.753  30.519  1.00  0.00     0.020 A 
ATOM     88  C   UNL A   1      50.239  26.019  31.690  1.00  0.00     0.054 A 
BRANCH  88  89
ATOM     89  S   UNL A   1      51.890  25.392  32.105  1.00  0.00     0.124 S 
ATOM     90  O   UNL A   1      52.204  26.145  33.316  1.00  0.00    -0.237 OA
ATOM     91  O   UNL A   1      51.654  23.964  32.296  1.00  0.00    -0.237 OA
ATOM     92  O   UNL A   1      52.694  25.734  30.933  1.00  0.00    -0.744 OA
ENDBRANCH  88  89
ENDBRANCH  62  83
ENDBRANCH  36  37
ENDBRANCH  28  31
ENDBRANCH  26  27
ENDBRANCH   1  26
TORSDOF 16
ENDMDL
