MODEL 1
REMARK VINA RESULT:     -12.1      0.000      0.000
REMARK SMILES O=C(NCCCNC(=O)c1ccc(-c2c3nc(c(-c4ccc(S(=O)(=O)[O-])cc4)c4ccc([nH]4)c(-c4ccc(S(=O)(=O)[O-])cc4)c4nc(c(-c5ccc(S(=O)(=O)[O-])cc5)c5ccc2[nH]5)C=C4)C=C3)cc1)C1=Cc2c(Cl)cc(Cl)cc2O[C@@H]1C(F)(F)F
REMARK SMILES IDX 6 1 5 2 4 3 3 4 1 5 2 6 70 8 71 9 81 10 72 11 80 12 73 13
REMARK SMILES IDX 79 14 74 15 75 16 78 17 76 18 77 19 82 20 83 21 84 22 85 23
REMARK SMILES IDX 7 24 8 25 9 27 10 28 11 29 69 30 12 31 68 32 13 33 14 34
REMARK SMILES IDX 15 35 62 36 16 37 67 38 61 39 63 40 17 41 66 42 60 43 59 44
REMARK SMILES IDX 18 46 48 47 29 48 47 49 30 50 33 51 46 52 64 53 31 54 32 55
REMARK SMILES IDX 45 57 65 58 34 59 19 60 20 61 28 62 21 63 27 64 22 65 23 66
REMARK SMILES IDX 24 67 25 68 26 69 49 70 50 71 58 72 51 73 57 74 52 75 53 76
REMARK SMILES IDX 54 77 55 78 56 79 35 80 36 81 44 82 37 83 43 84 38 85 39 86
REMARK SMILES IDX 40 87 41 88 42 89
REMARK H PARENT 3 7 7 26 63 45 33 56
REMARK Flexibility Score: inf
ROOT
ATOM      1  C   UNL A   1      33.379  28.756  27.316  1.00  0.00     0.118 C 
ENDROOT
BRANCH   1   2
ATOM      2  C   UNL A   1      31.962  28.196  27.388  1.00  0.00     0.042 C 
BRANCH   2   3
ATOM      3  C   UNL A   1      31.668  27.231  26.245  1.00  0.00     0.118 C 
BRANCH   3   4
ATOM      4  N   UNL A   1      30.743  26.156  26.617  1.00  0.00    -0.352 N 
ATOM      5  O   UNL A   1      30.060  23.999  26.842  1.00  0.00    -0.270 OA
ATOM      6  C   UNL A   1      30.760  24.824  26.273  1.00  0.00     0.251 C 
ATOM      7  H   UNL A   1      29.999  26.427  27.200  1.00  0.00     0.163 HD
BRANCH   6   8
ATOM      8  C   UNL A   1      31.712  24.428  25.220  1.00  0.00     0.067 C 
ATOM      9  C   UNL A   1      32.767  23.711  25.628  1.00  0.00     0.027 C 
ATOM     10  C   UNL A   1      31.225  24.464  23.810  1.00  0.00     0.314 C 
ATOM     11  C   UNL A   1      33.062  22.532  24.798  1.00  0.00     0.036 A 
ATOM     12  O   UNL A   1      31.351  23.181  23.149  1.00  0.00    -0.475 OA
ATOM     13  C   UNL A   1      33.849  21.483  25.311  1.00  0.00     0.053 A 
ATOM     14  C   UNL A   1      32.231  22.274  23.689  1.00  0.00     0.130 A 
ATOM     15  Cl  UNL A   1      34.917  21.702  26.655  1.00  0.00    -0.083 Cl
ATOM     16  C   UNL A   1      33.701  20.186  24.818  1.00  0.00     0.042 A 
ATOM     17  C   UNL A   1      32.109  20.981  23.181  1.00  0.00     0.067 A 
ATOM     18  C   UNL A   1      32.808  19.938  23.781  1.00  0.00     0.046 A 
ATOM     19  Cl  UNL A   1      32.504  18.319  23.287  1.00  0.00    -0.084 Cl
BRANCH  10  20
ATOM     20  C   UNL A   1      31.913  25.567  22.992  1.00  0.00     0.429 C 
ATOM     21  F   UNL A   1      32.124  25.159  21.715  1.00  0.00    -0.167 F 
ATOM     22  F   UNL A   1      31.167  26.692  22.920  1.00  0.00    -0.167 F 
ATOM     23  F   UNL A   1      33.119  25.910  23.504  1.00  0.00    -0.167 F 
ENDBRANCH  10  20
ENDBRANCH   6   8
ENDBRANCH   3   4
ENDBRANCH   2   3
ENDBRANCH   1   2
BRANCH   1  24
ATOM     24  N   UNL A   1      33.486  30.144  27.759  1.00  0.00    -0.352 N 
ATOM     25  C   UNL A   1      34.559  30.829  28.302  1.00  0.00     0.251 C 
ATOM     26  H   UNL A   1      32.665  30.676  27.654  1.00  0.00     0.163 HD
ATOM     27  O   UNL A   1      34.418  31.974  28.686  1.00  0.00    -0.269 OA
BRANCH  25  28
ATOM     28  C   UNL A   1      35.866  30.144  28.449  1.00  0.00     0.039 A 
ATOM     29  C   UNL A   1      36.767  30.145  27.380  1.00  0.00     0.014 A 
ATOM     30  C   UNL A   1      36.219  29.548  29.658  1.00  0.00     0.014 A 
ATOM     31  C   UNL A   1      38.066  29.660  27.568  1.00  0.00     0.010 A 
ATOM     32  C   UNL A   1      37.540  29.177  29.877  1.00  0.00     0.010 A 
ATOM     33  C   UNL A   1      38.484  29.235  28.838  1.00  0.00    -0.014 A 
BRANCH  33  34
ATOM     34  C   UNL A   1      39.887  28.841  29.142  1.00  0.00     0.031 A 
ATOM     35  C   UNL A   1      40.839  29.872  29.691  1.00  0.00     0.074 A 
ATOM     36  C   UNL A   1      40.344  27.619  28.797  1.00  0.00     0.049 A 
ATOM     37  N   UNL A   1      42.144  29.833  29.776  1.00  0.00    -0.248 NA
ATOM     38  C   UNL A   1      40.246  31.141  30.147  1.00  0.00     0.031 C 
ATOM     39  C   UNL A   1      39.543  26.536  28.220  1.00  0.00     0.029 A 
ATOM     40  N   UNL A   1      41.611  27.090  28.859  1.00  0.00    -0.354 N 
ATOM     41  C   UNL A   1      42.527  31.089  30.234  1.00  0.00     0.074 A 
ATOM     42  C   UNL A   1      41.323  31.878  30.365  1.00  0.00     0.031 C 
ATOM     43  C   UNL A   1      40.330  25.469  28.006  1.00  0.00     0.029 A 
ATOM     44  C   UNL A   1      41.700  25.806  28.372  1.00  0.00     0.049 A 
ATOM     45  H   UNL A   1      42.383  27.585  29.219  1.00  0.00     0.167 HD
ATOM     46  C   UNL A   1      43.768  31.541  30.534  1.00  0.00     0.031 A 
ATOM     47  C   UNL A   1      42.768  24.998  28.218  1.00  0.00     0.031 A 
ATOM     48  C   UNL A   1      44.953  30.731  30.466  1.00  0.00     0.049 A 
ATOM     49  C   UNL A   1      44.132  25.503  28.604  1.00  0.00     0.074 A 
ATOM     50  C   UNL A   1      46.246  31.067  30.823  1.00  0.00     0.029 A 
ATOM     51  N   UNL A   1      44.983  29.416  30.030  1.00  0.00    -0.354 N 
ATOM     52  N   UNL A   1      44.471  26.684  29.064  1.00  0.00    -0.248 NA
ATOM     53  C   UNL A   1      45.256  24.567  28.455  1.00  0.00     0.031 C 
ATOM     54  C   UNL A   1      47.066  29.961  30.577  1.00  0.00     0.029 A 
ATOM     55  C   UNL A   1      46.274  28.924  30.108  1.00  0.00     0.049 A 
ATOM     56  H   UNL A   1      44.203  28.906  29.712  1.00  0.00     0.167 HD
ATOM     57  C   UNL A   1      45.842  26.623  29.287  1.00  0.00     0.074 A 
ATOM     58  C   UNL A   1      46.269  25.288  28.918  1.00  0.00     0.031 C 
ATOM     59  C   UNL A   1      46.673  27.586  29.755  1.00  0.00     0.031 A 
BRANCH  46  60
ATOM     60  C   UNL A   1      43.897  32.976  30.972  1.00  0.00    -0.014 A 
ATOM     61  C   UNL A   1      43.782  33.337  32.327  1.00  0.00     0.010 A 
ATOM     62  C   UNL A   1      44.154  33.978  30.018  1.00  0.00     0.010 A 
ATOM     63  C   UNL A   1      43.863  34.677  32.713  1.00  0.00     0.020 A 
ATOM     64  C   UNL A   1      44.268  35.317  30.404  1.00  0.00     0.020 A 
ATOM     65  C   UNL A   1      44.098  35.659  31.747  1.00  0.00     0.054 A 
BRANCH  65  66
ATOM     66  S   UNL A   1      44.205  37.391  32.276  1.00  0.00     0.124 S 
ATOM     67  O   UNL A   1      45.601  37.489  32.698  1.00  0.00    -0.237 OA
ATOM     68  O   UNL A   1      43.866  38.121  31.057  1.00  0.00    -0.237 OA
ATOM     69  O   UNL A   1      43.220  37.487  33.350  1.00  0.00    -0.744 OA
ENDBRANCH  65  66
ENDBRANCH  46  60
BRANCH  47  70
ATOM     70  C   UNL A   1      42.589  23.618  27.689  1.00  0.00    -0.014 A 
ATOM     71  C   UNL A   1      42.771  23.359  26.318  1.00  0.00     0.010 A 
ATOM     72  C   UNL A   1      42.255  22.554  28.545  1.00  0.00     0.010 A 
ATOM     73  C   UNL A   1      42.607  22.067  25.811  1.00  0.00     0.020 A 
ATOM     74  C   UNL A   1      42.114  21.255  28.047  1.00  0.00     0.020 A 
ATOM     75  C   UNL A   1      42.281  21.022  26.679  1.00  0.00     0.054 A 
BRANCH  75  76
ATOM     76  S   UNL A   1      42.127  19.343  26.007  1.00  0.00     0.124 S 
ATOM     77  O   UNL A   1      42.977  19.411  24.822  1.00  0.00    -0.237 OA
ATOM     78  O   UNL A   1      42.629  18.517  27.101  1.00  0.00    -0.237 OA
ATOM     79  O   UNL A   1      40.695  19.211  25.745  1.00  0.00    -0.744 OA
ENDBRANCH  75  76
ENDBRANCH  47  70
BRANCH  59  80
ATOM     80  C   UNL A   1      48.119  27.227  29.947  1.00  0.00    -0.014 A 
ATOM     81  C   UNL A   1      49.071  27.484  28.946  1.00  0.00     0.010 A 
ATOM     82  C   UNL A   1      48.542  26.714  31.187  1.00  0.00     0.010 A 
ATOM     83  C   UNL A   1      50.424  27.226  29.180  1.00  0.00     0.020 A 
ATOM     84  C   UNL A   1      49.897  26.475  31.431  1.00  0.00     0.020 A 
ATOM     85  C   UNL A   1      50.828  26.727  30.422  1.00  0.00     0.054 A 
BRANCH  85  86
ATOM     86  S   UNL A   1      52.599  26.477  30.729  1.00  0.00     0.124 S 
ATOM     87  O   UNL A   1      52.595  25.290  31.580  1.00  0.00    -0.237 OA
ATOM     88  O   UNL A   1      53.135  26.284  29.384  1.00  0.00    -0.237 OA
ATOM     89  O   UNL A   1      53.014  27.714  31.386  1.00  0.00    -0.744 OA
ENDBRANCH  85  86
ENDBRANCH  59  80
ENDBRANCH  33  34
ENDBRANCH  25  28
ENDBRANCH   1  24
TORSDOF 14
ENDMDL
MODEL 2
REMARK VINA RESULT:     -12.0      2.506      3.505
REMARK SMILES O=C(NCCCNC(=O)c1ccc(-c2c3nc(c(-c4ccc(S(=O)(=O)[O-])cc4)c4ccc([nH]4)c(-c4ccc(S(=O)(=O)[O-])cc4)c4nc(c(-c5ccc(S(=O)(=O)[O-])cc5)c5ccc2[nH]5)C=C4)C=C3)cc1)C1=Cc2c(Cl)cc(Cl)cc2O[C@@H]1C(F)(F)F
REMARK SMILES IDX 6 1 5 2 4 3 3 4 1 5 2 6 70 8 71 9 81 10 72 11 80 12 73 13
REMARK SMILES IDX 79 14 74 15 75 16 78 17 76 18 77 19 82 20 83 21 84 22 85 23
REMARK SMILES IDX 7 24 8 25 9 27 10 28 11 29 69 30 12 31 68 32 13 33 14 34
REMARK SMILES IDX 15 35 62 36 16 37 67 38 61 39 63 40 17 41 66 42 60 43 59 44
REMARK SMILES IDX 18 46 48 47 29 48 47 49 30 50 33 51 46 52 64 53 31 54 32 55
REMARK SMILES IDX 45 57 65 58 34 59 19 60 20 61 28 62 21 63 27 64 22 65 23 66
REMARK SMILES IDX 24 67 25 68 26 69 49 70 50 71 58 72 51 73 57 74 52 75 53 76
REMARK SMILES IDX 54 77 55 78 56 79 35 80 36 81 44 82 37 83 43 84 38 85 39 86
REMARK SMILES IDX 40 87 41 88 42 89
REMARK H PARENT 3 7 7 26 63 45 33 56
REMARK Flexibility Score: inf
ROOT
ATOM      1  C   UNL A   1      33.812  29.106  27.176  1.00  0.00     0.118 C 
ENDROOT
BRANCH   1   2
ATOM      2  C   UNL A   1      33.151  29.315  25.818  1.00  0.00     0.042 C 
BRANCH   2   3
ATOM      3  C   UNL A   1      31.671  28.949  25.839  1.00  0.00     0.118 C 
BRANCH   3   4
ATOM      4  N   UNL A   1      31.404  27.638  26.439  1.00  0.00    -0.352 N 
ATOM      5  O   UNL A   1      31.059  25.391  26.432  1.00  0.00    -0.270 OA
ATOM      6  C   UNL A   1      31.019  26.461  25.842  1.00  0.00     0.251 C 
ATOM      7  H   UNL A   1      31.520  27.593  27.415  1.00  0.00     0.163 HD
BRANCH   6   8
ATOM      8  C   UNL A   1      30.608  26.542  24.429  1.00  0.00     0.067 C 
ATOM      9  C   UNL A   1      29.313  26.803  24.213  1.00  0.00     0.027 C 
ATOM     10  C   UNL A   1      31.683  26.765  23.417  1.00  0.00     0.314 C 
ATOM     11  C   UNL A   1      29.058  27.839  23.199  1.00  0.00     0.036 A 
ATOM     12  O   UNL A   1      31.450  27.950  22.616  1.00  0.00    -0.475 OA
ATOM     13  C   UNL A   1      27.816  28.499  23.156  1.00  0.00     0.053 A 
ATOM     14  C   UNL A   1      30.167  28.443  22.572  1.00  0.00     0.130 A 
ATOM     15  Cl  UNL A   1      26.390  27.831  23.875  1.00  0.00    -0.083 Cl
ATOM     16  C   UNL A   1      27.720  29.787  22.626  1.00  0.00     0.042 A 
ATOM     17  C   UNL A   1      30.060  29.719  22.019  1.00  0.00     0.067 A 
ATOM     18  C   UNL A   1      28.849  30.400  22.093  1.00  0.00     0.046 A 
ATOM     19  Cl  UNL A   1      28.770  32.044  21.594  1.00  0.00    -0.084 Cl
BRANCH  10  20
ATOM     20  C   UNL A   1      31.893  25.536  22.521  1.00  0.00     0.429 C 
ATOM     21  F   UNL A   1      33.112  24.982  22.740  1.00  0.00    -0.167 F 
ATOM     22  F   UNL A   1      30.980  24.567  22.760  1.00  0.00    -0.167 F 
ATOM     23  F   UNL A   1      31.825  25.842  21.204  1.00  0.00    -0.167 F 
ENDBRANCH  10  20
ENDBRANCH   6   8
ENDBRANCH   3   4
ENDBRANCH   2   3
ENDBRANCH   1   2
BRANCH   1  24
ATOM     24  N   UNL A   1      33.861  30.313  27.999  1.00  0.00    -0.352 N 
ATOM     25  C   UNL A   1      34.894  30.838  28.756  1.00  0.00     0.251 C 
ATOM     26  H   UNL A   1      33.027  30.835  28.016  1.00  0.00     0.163 HD
ATOM     27  O   UNL A   1      34.704  31.823  29.444  1.00  0.00    -0.269 OA
BRANCH  25  28
ATOM     28  C   UNL A   1      36.216  30.167  28.755  1.00  0.00     0.039 A 
ATOM     29  C   UNL A   1      36.986  30.170  27.588  1.00  0.00     0.014 A 
ATOM     30  C   UNL A   1      36.714  29.584  29.917  1.00  0.00     0.014 A 
ATOM     31  C   UNL A   1      38.304  29.699  27.626  1.00  0.00     0.010 A 
ATOM     32  C   UNL A   1      38.055  29.229  29.984  1.00  0.00     0.010 A 
ATOM     33  C   UNL A   1      38.872  29.289  28.842  1.00  0.00    -0.014 A 
BRANCH  33  34
ATOM     34  C   UNL A   1      40.305  28.911  28.983  1.00  0.00     0.031 A 
ATOM     35  C   UNL A   1      41.311  29.968  29.359  1.00  0.00     0.074 A 
ATOM     36  C   UNL A   1      40.723  27.675  28.638  1.00  0.00     0.049 A 
ATOM     37  N   UNL A   1      42.616  29.935  29.280  1.00  0.00    -0.248 NA
ATOM     38  C   UNL A   1      40.770  31.255  29.830  1.00  0.00     0.031 C 
ATOM     39  C   UNL A   1      39.865  26.566  28.216  1.00  0.00     0.029 A 
ATOM     40  N   UNL A   1      41.992  27.152  28.563  1.00  0.00    -0.354 N 
ATOM     41  C   UNL A   1      43.044  31.212  29.629  1.00  0.00     0.074 A 
ATOM     42  C   UNL A   1      41.860  32.004  29.876  1.00  0.00     0.031 C 
ATOM     43  C   UNL A   1      40.626  25.492  27.952  1.00  0.00     0.029 A 
ATOM     44  C   UNL A   1      42.029  25.848  28.126  1.00  0.00     0.049 A 
ATOM     45  H   UNL A   1      42.800  27.664  28.799  1.00  0.00     0.167 HD
ATOM     46  C   UNL A   1      44.310  31.679  29.748  1.00  0.00     0.031 A 
ATOM     47  C   UNL A   1      43.074  25.035  27.874  1.00  0.00     0.031 A 
ATOM     48  C   UNL A   1      45.483  30.869  29.567  1.00  0.00     0.049 A 
ATOM     49  C   UNL A   1      44.473  25.560  28.062  1.00  0.00     0.074 A 
ATOM     50  C   UNL A   1      46.808  31.223  29.742  1.00  0.00     0.029 A 
ATOM     51  N   UNL A   1      45.468  29.535  29.190  1.00  0.00    -0.354 N 
ATOM     52  N   UNL A   1      44.858  26.761  28.421  1.00  0.00    -0.248 NA
ATOM     53  C   UNL A   1      45.576  24.621  27.813  1.00  0.00     0.031 C 
ATOM     54  C   UNL A   1      47.599  30.108  29.444  1.00  0.00     0.029 A 
ATOM     55  C   UNL A   1      46.762  29.050  29.126  1.00  0.00     0.049 A 
ATOM     56  H   UNL A   1      44.658  29.011  28.997  1.00  0.00     0.167 HD
ATOM     57  C   UNL A   1      46.247  26.713  28.471  1.00  0.00     0.074 A 
ATOM     58  C   UNL A   1      46.633  25.364  28.111  1.00  0.00     0.031 C 
ATOM     59  C   UNL A   1      47.123  27.698  28.786  1.00  0.00     0.031 A 
BRANCH  46  60
ATOM     60  C   UNL A   1      44.483  33.133  30.102  1.00  0.00    -0.014 A 
ATOM     61  C   UNL A   1      44.564  34.120  29.103  1.00  0.00     0.010 A 
ATOM     62  C   UNL A   1      44.546  33.521  31.453  1.00  0.00     0.010 A 
ATOM     63  C   UNL A   1      44.766  35.459  29.446  1.00  0.00     0.020 A 
ATOM     64  C   UNL A   1      44.716  34.864  31.801  1.00  0.00     0.020 A 
ATOM     65  C   UNL A   1      44.848  35.822  30.793  1.00  0.00     0.054 A 
BRANCH  65  66
ATOM     66  S   UNL A   1      45.103  37.568  31.210  1.00  0.00     0.124 S 
ATOM     67  O   UNL A   1      43.731  38.067  31.262  1.00  0.00    -0.237 OA
ATOM     68  O   UNL A   1      45.794  37.494  32.495  1.00  0.00    -0.237 OA
ATOM     69  O   UNL A   1      45.909  38.074  30.102  1.00  0.00    -0.744 OA
ENDBRANCH  65  66
ENDBRANCH  46  60
BRANCH  47  70
ATOM     70  C   UNL A   1      42.840  23.632  27.435  1.00  0.00    -0.014 A 
ATOM     71  C   UNL A   1      42.926  23.297  26.072  1.00  0.00     0.010 A 
ATOM     72  C   UNL A   1      42.549  22.622  28.369  1.00  0.00     0.010 A 
ATOM     73  C   UNL A   1      42.710  21.983  25.648  1.00  0.00     0.020 A 
ATOM     74  C   UNL A   1      42.357  21.301  27.953  1.00  0.00     0.020 A 
ATOM     75  C   UNL A   1      42.427  20.991  26.592  1.00  0.00     0.054 A 
BRANCH  75  76
ATOM     76  S   UNL A   1      42.204  19.282  26.026  1.00  0.00     0.124 S 
ATOM     77  O   UNL A   1      43.072  19.236  24.852  1.00  0.00    -0.237 OA
ATOM     78  O   UNL A   1      42.655  18.505  27.177  1.00  0.00    -0.237 OA
ATOM     79  O   UNL A   1      40.771  19.199  25.750  1.00  0.00    -0.744 OA
ENDBRANCH  75  76
ENDBRANCH  47  70
BRANCH  59  80
ATOM     80  C   UNL A   1      48.585  27.351  28.809  1.00  0.00    -0.014 A 
ATOM     81  C   UNL A   1      49.389  27.515  27.669  1.00  0.00     0.010 A 
ATOM     82  C   UNL A   1      49.177  26.946  30.019  1.00  0.00     0.010 A 
ATOM     83  C   UNL A   1      50.763  27.271  27.737  1.00  0.00     0.020 A 
ATOM     84  C   UNL A   1      50.554  26.724  30.096  1.00  0.00     0.020 A 
ATOM     85  C   UNL A   1      51.337  26.882  28.951  1.00  0.00     0.054 A 
BRANCH  85  86
ATOM     86  S   UNL A   1      53.134  26.652  29.033  1.00  0.00     0.124 S 
ATOM     87  O   UNL A   1      53.294  25.957  30.308  1.00  0.00    -0.237 OA
ATOM     88  O   UNL A   1      53.412  25.852  27.843  1.00  0.00    -0.237 OA
ATOM     89  O   UNL A   1      53.660  28.015  28.996  1.00  0.00    -0.744 OA
ENDBRANCH  85  86
ENDBRANCH  59  80
ENDBRANCH  33  34
ENDBRANCH  25  28
ENDBRANCH   1  24
TORSDOF 14
ENDMDL
MODEL 3
REMARK VINA RESULT:     -11.7      3.471      9.422
REMARK SMILES O=C(NCCCNC(=O)c1ccc(-c2c3nc(c(-c4ccc(S(=O)(=O)[O-])cc4)c4ccc([nH]4)c(-c4ccc(S(=O)(=O)[O-])cc4)c4nc(c(-c5ccc(S(=O)(=O)[O-])cc5)c5ccc2[nH]5)C=C4)C=C3)cc1)C1=Cc2c(Cl)cc(Cl)cc2O[C@@H]1C(F)(F)F
REMARK SMILES IDX 6 1 5 2 4 3 3 4 1 5 2 6 70 8 71 9 81 10 72 11 80 12 73 13
REMARK SMILES IDX 79 14 74 15 75 16 78 17 76 18 77 19 82 20 83 21 84 22 85 23
REMARK SMILES IDX 7 24 8 25 9 27 10 28 11 29 69 30 12 31 68 32 13 33 14 34
REMARK SMILES IDX 15 35 62 36 16 37 67 38 61 39 63 40 17 41 66 42 60 43 59 44
REMARK SMILES IDX 18 46 48 47 29 48 47 49 30 50 33 51 46 52 64 53 31 54 32 55
REMARK SMILES IDX 45 57 65 58 34 59 19 60 20 61 28 62 21 63 27 64 22 65 23 66
REMARK SMILES IDX 24 67 25 68 26 69 49 70 50 71 58 72 51 73 57 74 52 75 53 76
REMARK SMILES IDX 54 77 55 78 56 79 35 80 36 81 44 82 37 83 43 84 38 85 39 86
REMARK SMILES IDX 40 87 41 88 42 89
REMARK H PARENT 3 7 7 26 63 45 33 56
REMARK Flexibility Score: inf
ROOT
ATOM      1  C   UNL A   1      37.177  23.400  24.970  1.00  0.00     0.118 C 
ENDROOT
BRANCH   1   2
ATOM      2  C   UNL A   1      35.955  23.198  25.859  1.00  0.00     0.042 C 
BRANCH   2   3
ATOM      3  C   UNL A   1      34.919  22.285  25.211  1.00  0.00     0.118 C 
BRANCH   3   4
ATOM      4  N   UNL A   1      34.624  22.637  23.819  1.00  0.00    -0.352 N 
ATOM      5  O   UNL A   1      33.755  23.906  22.144  1.00  0.00    -0.270 OA
ATOM      6  C   UNL A   1      33.730  23.552  23.314  1.00  0.00     0.251 C 
ATOM      7  H   UNL A   1      35.145  22.146  23.144  1.00  0.00     0.163 HD
BRANCH   6   8
ATOM      8  C   UNL A   1      32.771  24.133  24.271  1.00  0.00     0.067 C 
ATOM      9  C   UNL A   1      33.022  25.391  24.655  1.00  0.00     0.027 C 
ATOM     10  C   UNL A   1      31.434  23.479  24.381  1.00  0.00     0.314 C 
ATOM     11  C   UNL A   1      31.850  26.281  24.636  1.00  0.00     0.036 A 
ATOM     12  O   UNL A   1      30.346  24.399  24.117  1.00  0.00    -0.475 OA
ATOM     13  C   UNL A   1      32.021  27.678  24.611  1.00  0.00     0.053 A 
ATOM     14  C   UNL A   1      30.614  25.744  24.225  1.00  0.00     0.130 A 
ATOM     15  Cl  UNL A   1      33.492  28.437  25.116  1.00  0.00    -0.083 Cl
ATOM     16  C   UNL A   1      31.036  28.499  24.059  1.00  0.00     0.042 A 
ATOM     17  C   UNL A   1      29.621  26.571  23.700  1.00  0.00     0.067 A 
ATOM     18  C   UNL A   1      29.859  27.937  23.577  1.00  0.00     0.046 A 
ATOM     19  Cl  UNL A   1      28.720  28.924  22.749  1.00  0.00    -0.084 Cl
BRANCH  10  20
ATOM     20  C   UNL A   1      31.243  22.787  25.738  1.00  0.00     0.429 C 
ATOM     21  F   UNL A   1      32.051  23.337  26.678  1.00  0.00    -0.167 F 
ATOM     22  F   UNL A   1      29.977  22.905  26.199  1.00  0.00    -0.167 F 
ATOM     23  F   UNL A   1      31.534  21.465  25.687  1.00  0.00    -0.167 F 
ENDBRANCH  10  20
ENDBRANCH   6   8
ENDBRANCH   3   4
ENDBRANCH   2   3
ENDBRANCH   1   2
BRANCH   1  24
ATOM     24  N   UNL A   1      38.319  22.568  25.343  1.00  0.00    -0.352 N 
ATOM     25  C   UNL A   1      39.422  22.863  26.126  1.00  0.00     0.251 C 
ATOM     26  H   UNL A   1      38.301  21.654  24.979  1.00  0.00     0.163 HD
ATOM     27  O   UNL A   1      40.316  22.047  26.249  1.00  0.00    -0.269 OA
BRANCH  25  28
ATOM     28  C   UNL A   1      39.524  24.191  26.776  1.00  0.00     0.039 A 
ATOM     29  C   UNL A   1      38.943  24.387  28.032  1.00  0.00     0.014 A 
ATOM     30  C   UNL A   1      40.236  25.223  26.169  1.00  0.00     0.014 A 
ATOM     31  C   UNL A   1      39.185  25.576  28.731  1.00  0.00     0.010 A 
ATOM     32  C   UNL A   1      40.573  26.349  26.909  1.00  0.00     0.010 A 
ATOM     33  C   UNL A   1      40.060  26.538  28.203  1.00  0.00    -0.014 A 
BRANCH  33  34
ATOM     34  C   UNL A   1      40.472  27.757  28.951  1.00  0.00     0.031 A 
ATOM     35  C   UNL A   1      41.771  27.747  29.716  1.00  0.00     0.074 A 
ATOM     36  C   UNL A   1      39.632  28.807  29.065  1.00  0.00     0.049 A 
ATOM     37  N   UNL A   1      42.197  28.573  30.636  1.00  0.00    -0.248 NA
ATOM     38  C   UNL A   1      42.682  26.620  29.453  1.00  0.00     0.031 C 
ATOM     39  C   UNL A   1      38.327  28.935  28.412  1.00  0.00     0.029 A 
ATOM     40  N   UNL A   1      39.744  29.964  29.800  1.00  0.00    -0.354 N 
ATOM     41  C   UNL A   1      43.391  28.032  31.101  1.00  0.00     0.074 A 
ATOM     42  C   UNL A   1      43.596  26.787  30.395  1.00  0.00     0.031 C 
ATOM     43  C   UNL A   1      37.773  30.110  28.754  1.00  0.00     0.029 A 
ATOM     44  C   UNL A   1      38.652  30.794  29.696  1.00  0.00     0.049 A 
ATOM     45  H   UNL A   1      40.533  30.177  30.350  1.00  0.00     0.167 HD
ATOM     46  C   UNL A   1      44.248  28.533  32.023  1.00  0.00     0.031 A 
ATOM     47  C   UNL A   1      38.378  31.964  30.305  1.00  0.00     0.031 A 
ATOM     48  C   UNL A   1      44.072  29.803  32.671  1.00  0.00     0.049 A 
ATOM     49  C   UNL A   1      39.367  32.528  31.289  1.00  0.00     0.074 A 
ATOM     50  C   UNL A   1      44.920  30.440  33.559  1.00  0.00     0.029 A 
ATOM     51  N   UNL A   1      42.983  30.640  32.483  1.00  0.00    -0.354 N 
ATOM     52  N   UNL A   1      40.505  32.016  31.695  1.00  0.00    -0.248 NA
ATOM     53  C   UNL A   1      39.039  33.827  31.894  1.00  0.00     0.031 C 
ATOM     54  C   UNL A   1      44.330  31.652  33.931  1.00  0.00     0.029 A 
ATOM     55  C   UNL A   1      43.135  31.787  33.241  1.00  0.00     0.049 A 
ATOM     56  H   UNL A   1      42.215  30.446  31.899  1.00  0.00     0.167 HD
ATOM     57  C   UNL A   1      41.042  32.945  32.579  1.00  0.00     0.074 A 
ATOM     58  C   UNL A   1      40.109  34.052  32.645  1.00  0.00     0.031 C 
ATOM     59  C   UNL A   1      42.204  32.886  33.275  1.00  0.00     0.031 A 
BRANCH  46  60
ATOM     60  C   UNL A   1      45.456  27.704  32.370  1.00  0.00    -0.014 A 
ATOM     61  C   UNL A   1      45.419  26.769  33.421  1.00  0.00     0.010 A 
ATOM     62  C   UNL A   1      46.641  27.849  31.625  1.00  0.00     0.010 A 
ATOM     63  C   UNL A   1      46.560  26.037  33.758  1.00  0.00     0.020 A 
ATOM     64  C   UNL A   1      47.776  27.096  31.939  1.00  0.00     0.020 A 
ATOM     65  C   UNL A   1      47.734  26.210  33.019  1.00  0.00     0.054 A 
BRANCH  65  66
ATOM     66  S   UNL A   1      49.199  25.243  33.473  1.00  0.00     0.124 S 
ATOM     67  O   UNL A   1      49.814  25.001  32.170  1.00  0.00    -0.237 OA
ATOM     68  O   UNL A   1      49.928  26.156  34.351  1.00  0.00    -0.237 OA
ATOM     69  O   UNL A   1      48.645  24.063  34.131  1.00  0.00    -0.744 OA
ENDBRANCH  65  66
ENDBRANCH  46  60
BRANCH  47  70
ATOM     70  C   UNL A   1      37.119  32.693  29.990  1.00  0.00    -0.014 A 
ATOM     71  C   UNL A   1      36.023  32.621  30.869  1.00  0.00     0.010 A 
ATOM     72  C   UNL A   1      37.009  33.475  28.826  1.00  0.00     0.010 A 
ATOM     73  C   UNL A   1      34.837  33.302  30.584  1.00  0.00     0.020 A 
ATOM     74  C   UNL A   1      35.832  34.179  28.549  1.00  0.00     0.020 A 
ATOM     75  C   UNL A   1      34.749  34.079  29.425  1.00  0.00     0.054 A 
BRANCH  75  76
ATOM     76  S   UNL A   1      33.218  34.998  29.102  1.00  0.00     0.124 S 
ATOM     77  O   UNL A   1      33.728  36.304  28.694  1.00  0.00    -0.237 OA
ATOM     78  O   UNL A   1      32.589  34.206  28.049  1.00  0.00    -0.237 OA
ATOM     79  O   UNL A   1      32.525  34.970  30.389  1.00  0.00    -0.744 OA
ENDBRANCH  75  76
ENDBRANCH  47  70
BRANCH  59  80
ATOM     80  C   UNL A   1      42.567  34.067  34.130  1.00  0.00    -0.014 A 
ATOM     81  C   UNL A   1      42.276  34.085  35.505  1.00  0.00     0.010 A 
ATOM     82  C   UNL A   1      43.294  35.130  33.564  1.00  0.00     0.010 A 
ATOM     83  C   UNL A   1      42.701  35.153  36.299  1.00  0.00     0.020 A 
ATOM     84  C   UNL A   1      43.740  36.188  34.360  1.00  0.00     0.020 A 
ATOM     85  C   UNL A   1      43.434  36.195  35.722  1.00  0.00     0.054 A 
BRANCH  85  86
ATOM     86  S   UNL A   1      44.045  37.529  36.789  1.00  0.00     0.124 S 
ATOM     87  O   UNL A   1      44.047  38.670  35.878  1.00  0.00    -0.237 OA
ATOM     88  O   UNL A   1      43.044  37.575  37.852  1.00  0.00    -0.237 OA
ATOM     89  O   UNL A   1      45.365  37.061  37.207  1.00  0.00    -0.744 OA
ENDBRANCH  85  86
ENDBRANCH  59  80
ENDBRANCH  33  34
ENDBRANCH  25  28
ENDBRANCH   1  24
TORSDOF 14
ENDMDL
