MODEL 1
REMARK VINA RESULT:     -10.1      0.000      0.000
REMARK SMILES O=C(NCCCNC(=O)[C@@H]1C=C[C@H](NC(=O)[C@@H]2Cc3ccccc3O2)C1)c1ccc(-c2c3nc(c(-c4ccc(S(=O)(=O)[O-])cc4)c4ccc([nH]4)c(-c4ccc(S(=O)(=O)[O-])cc4)c4nc(c(-c5ccc(S(=O)(=O)[O-])cc5)c5ccc2[nH]5)C=C4)C=C3)cc1
REMARK SMILES IDX 4 1 3 2 1 3 2 4 27 6 28 7 86 8 29 9 85 10 30 11 31 12 32 13
REMARK SMILES IDX 79 14 33 15 84 16 78 17 80 18 34 19 83 20 77 21 76 22 35 24
REMARK SMILES IDX 65 25 46 26 64 27 47 28 50 29 63 30 81 31 48 32 49 33 62 35
REMARK SMILES IDX 82 36 51 37 36 38 37 39 45 40 38 41 44 42 39 43 40 44 41 45
REMARK SMILES IDX 42 46 43 47 66 48 67 49 75 50 68 51 74 52 69 53 70 54 71 55
REMARK SMILES IDX 72 56 73 57 52 58 53 59 61 60 54 61 60 62 55 63 56 64 57 65
REMARK SMILES IDX 58 66 59 67 5 68 6 69 7 70 8 71 9 73 10 74 11 75 26 76 12 77
REMARK SMILES IDX 13 78 14 79 15 80 16 82 17 83 18 84 25 85 19 86 24 87 20 88
REMARK SMILES IDX 23 89 21 90 22 91
REMARK H PARENT 3 5 80 23 50 34 7 72 14 81
REMARK Flexibility Score: inf
ROOT
ATOM      1  C   UNL A   1      40.353  21.442  26.676  1.00  0.00     0.118 C 
ENDROOT
BRANCH   1   2
ATOM      2  N   UNL A   1      39.203  21.922  25.923  1.00  0.00    -0.352 N 
ATOM      3  O   UNL A   1      37.547  23.295  25.275  1.00  0.00    -0.269 OA
ATOM      4  C   UNL A   1      38.585  23.153  25.908  1.00  0.00     0.251 C 
ATOM      5  H   UNL A   1      38.801  21.254  25.321  1.00  0.00     0.163 HD
BRANCH   4   6
ATOM      6  C   UNL A   1      39.133  24.285  26.691  1.00  0.00     0.039 A 
ATOM      7  C   UNL A   1      38.861  24.433  28.050  1.00  0.00     0.014 A 
ATOM      8  C   UNL A   1      39.965  25.206  26.048  1.00  0.00     0.014 A 
ATOM      9  C   UNL A   1      39.248  25.592  28.716  1.00  0.00     0.010 A 
ATOM     10  C   UNL A   1      40.448  26.316  26.748  1.00  0.00     0.010 A 
ATOM     11  C   UNL A   1      40.055  26.543  28.076  1.00  0.00    -0.014 A 
BRANCH  11  12
ATOM     12  C   UNL A   1      40.521  27.743  28.819  1.00  0.00     0.031 A 
ATOM     13  C   UNL A   1      41.886  27.779  29.450  1.00  0.00     0.074 A 
ATOM     14  C   UNL A   1      39.699  28.805  28.933  1.00  0.00     0.049 A 
ATOM     15  N   UNL A   1      42.428  28.715  30.186  1.00  0.00    -0.248 NA
ATOM     16  C   UNL A   1      42.751  26.609  29.235  1.00  0.00     0.031 C 
ATOM     17  C   UNL A   1      38.350  28.892  28.366  1.00  0.00     0.029 A 
ATOM     18  N   UNL A   1      39.870  30.010  29.565  1.00  0.00    -0.354 N 
ATOM     19  C   UNL A   1      43.680  28.235  30.554  1.00  0.00     0.074 A 
ATOM     20  C   UNL A   1      43.810  26.916  29.971  1.00  0.00     0.031 C 
ATOM     21  C   UNL A   1      37.827  30.090  28.656  1.00  0.00     0.029 A 
ATOM     22  C   UNL A   1      38.769  30.828  29.491  1.00  0.00     0.049 A 
ATOM     23  H   UNL A   1      40.702  30.264  30.027  1.00  0.00     0.167 HD
ATOM     24  C   UNL A   1      44.630  28.836  31.311  1.00  0.00     0.031 A 
ATOM     25  C   UNL A   1      38.517  32.021  30.062  1.00  0.00     0.031 A 
ATOM     26  C   UNL A   1      44.490  30.147  31.888  1.00  0.00     0.049 A 
ATOM     27  C   UNL A   1      39.568  32.658  30.919  1.00  0.00     0.074 A 
ATOM     28  C   UNL A   1      45.410  30.860  32.637  1.00  0.00     0.029 A 
ATOM     29  N   UNL A   1      43.354  30.938  31.792  1.00  0.00    -0.354 N 
ATOM     30  N   UNL A   1      40.759  32.203  31.226  1.00  0.00    -0.248 NA
ATOM     31  C   UNL A   1      39.248  33.965  31.506  1.00  0.00     0.031 C 
ATOM     32  C   UNL A   1      44.811  32.059  33.040  1.00  0.00     0.029 A 
ATOM     33  C   UNL A   1      43.538  32.119  32.491  1.00  0.00     0.049 A 
ATOM     34  H   UNL A   1      42.537  30.696  31.299  1.00  0.00     0.167 HD
ATOM     35  C   UNL A   1      41.340  33.175  32.030  1.00  0.00     0.074 A 
ATOM     36  C   UNL A   1      40.371  34.248  32.155  1.00  0.00     0.031 C 
ATOM     37  C   UNL A   1      42.566  33.179  32.607  1.00  0.00     0.031 A 
BRANCH  24  38
ATOM     38  C   UNL A   1      45.885  28.052  31.598  1.00  0.00    -0.014 A 
ATOM     39  C   UNL A   1      47.047  28.212  30.821  1.00  0.00     0.010 A 
ATOM     40  C   UNL A   1      45.901  27.141  32.670  1.00  0.00     0.010 A 
ATOM     41  C   UNL A   1      48.177  27.427  31.069  1.00  0.00     0.020 A 
ATOM     42  C   UNL A   1      47.039  26.373  32.939  1.00  0.00     0.020 A 
ATOM     43  C   UNL A   1      48.160  26.502  32.118  1.00  0.00     0.054 A 
BRANCH  43  44
ATOM     44  S   UNL A   1      49.626  25.470  32.396  1.00  0.00     0.124 S 
ATOM     45  O   UNL A   1      49.112  24.466  33.325  1.00  0.00    -0.237 OA
ATOM     46  O   UNL A   1      49.936  24.981  31.055  1.00  0.00    -0.237 OA
ATOM     47  O   UNL A   1      50.602  26.398  32.960  1.00  0.00    -0.744 OA
ENDBRANCH  43  44
ENDBRANCH  24  38
BRANCH  25  48
ATOM     48  C   UNL A   1      37.187  32.651  29.846  1.00  0.00    -0.014 A 
ATOM     49  C   UNL A   1      36.214  32.638  30.858  1.00  0.00     0.010 A 
ATOM     50  C   UNL A   1      36.933  33.361  28.657  1.00  0.00     0.010 A 
ATOM     51  C   UNL A   1      35.016  33.340  30.693  1.00  0.00     0.020 A 
ATOM     52  C   UNL A   1      35.749  34.085  28.499  1.00  0.00     0.020 A 
ATOM     53  C   UNL A   1      34.796  34.068  29.518  1.00  0.00     0.054 A 
BRANCH  53  54
ATOM     54  S   UNL A   1      33.286  35.065  29.375  1.00  0.00     0.124 S 
ATOM     55  O   UNL A   1      33.818  36.364  28.973  1.00  0.00    -0.237 OA
ATOM     56  O   UNL A   1      32.529  34.346  28.354  1.00  0.00    -0.237 OA
ATOM     57  O   UNL A   1      32.713  35.009  30.718  1.00  0.00    -0.744 OA
ENDBRANCH  53  54
ENDBRANCH  25  48
BRANCH  37  58
ATOM     58  C   UNL A   1      42.956  34.390  33.408  1.00  0.00    -0.014 A 
ATOM     59  C   UNL A   1      42.699  34.465  34.787  1.00  0.00     0.010 A 
ATOM     60  C   UNL A   1      43.679  35.424  32.784  1.00  0.00     0.010 A 
ATOM     61  C   UNL A   1      43.156  35.557  35.530  1.00  0.00     0.020 A 
ATOM     62  C   UNL A   1      44.155  36.506  33.527  1.00  0.00     0.020 A 
ATOM     63  C   UNL A   1      43.888  36.567  34.896  1.00  0.00     0.054 A 
BRANCH  63  64
ATOM     64  S   UNL A   1      44.548  37.928  35.898  1.00  0.00     0.124 S 
ATOM     65  O   UNL A   1      45.988  37.773  35.710  1.00  0.00    -0.237 OA
ATOM     66  O   UNL A   1      43.955  39.105  35.268  1.00  0.00    -0.237 OA
ATOM     67  O   UNL A   1      44.059  37.637  37.243  1.00  0.00    -0.744 OA
ENDBRANCH  63  64
ENDBRANCH  37  58
ENDBRANCH  11  12
ENDBRANCH   4   6
ENDBRANCH   1   2
BRANCH   1  68
ATOM     68  C   UNL A   1      40.898  20.098  26.189  1.00  0.00     0.042 C 
BRANCH  68  69
ATOM     69  C   UNL A   1      42.347  19.869  26.606  1.00  0.00     0.117 C 
BRANCH  69  70
ATOM     70  N   UNL A   1      43.288  20.217  25.551  1.00  0.00    -0.356 N 
ATOM     71  C   UNL A   1      44.041  21.327  25.330  1.00  0.00     0.227 C 
ATOM     72  H   UNL A   1      43.400  19.516  24.868  1.00  0.00     0.163 HD
ATOM     73  O   UNL A   1      44.844  21.253  24.394  1.00  0.00    -0.274 OA
BRANCH  71  74
ATOM     74  C   UNL A   1      43.837  22.637  26.110  1.00  0.00     0.103 C 
ATOM     75  C   UNL A   1      43.051  23.620  25.275  1.00  0.00    -0.016 C 
ATOM     76  C   UNL A   1      45.073  23.455  26.503  1.00  0.00     0.047 C 
ATOM     77  C   UNL A   1      43.653  24.807  25.146  1.00  0.00    -0.006 C 
ATOM     78  C   UNL A   1      44.926  24.855  25.900  1.00  0.00     0.106 C 
BRANCH  78  79
ATOM     79  N   UNL A   1      46.061  25.288  25.099  1.00  0.00    -0.347 N 
ATOM     80  C   UNL A   1      46.565  26.502  24.721  1.00  0.00     0.261 C 
ATOM     81  H   UNL A   1      46.588  24.534  24.750  1.00  0.00     0.164 HD
ATOM     82  O   UNL A   1      47.487  26.484  23.900  1.00  0.00    -0.271 OA
BRANCH  80  83
ATOM     83  C   UNL A   1      46.016  27.809  25.287  1.00  0.00     0.266 C 
ATOM     84  C   UNL A   1      46.591  28.089  26.674  1.00  0.00     0.095 C 
ATOM     85  O   UNL A   1      44.572  27.828  25.439  1.00  0.00    -0.480 OA
ATOM     86  C   UNL A   1      45.569  29.069  27.104  1.00  0.00    -0.002 A 
ATOM     87  C   UNL A   1      44.406  28.816  26.384  1.00  0.00     0.123 A 
ATOM     88  C   UNL A   1      45.630  30.095  28.026  1.00  0.00     0.008 A 
ATOM     89  C   UNL A   1      43.250  29.535  26.589  1.00  0.00     0.047 A 
ATOM     90  C   UNL A   1      44.481  30.867  28.218  1.00  0.00     0.001 A 
ATOM     91  C   UNL A   1      43.296  30.581  27.515  1.00  0.00     0.004 A 
ENDBRANCH  80  83
ENDBRANCH  78  79
ENDBRANCH  71  74
ENDBRANCH  69  70
ENDBRANCH  68  69
ENDBRANCH   1  68
TORSDOF 15
ENDMDL
MODEL 2
REMARK VINA RESULT:     -10.0      3.836     10.893
REMARK SMILES O=C(NCCCNC(=O)[C@@H]1C=C[C@H](NC(=O)[C@@H]2Cc3ccccc3O2)C1)c1ccc(-c2c3nc(c(-c4ccc(S(=O)(=O)[O-])cc4)c4ccc([nH]4)c(-c4ccc(S(=O)(=O)[O-])cc4)c4nc(c(-c5ccc(S(=O)(=O)[O-])cc5)c5ccc2[nH]5)C=C4)C=C3)cc1
REMARK SMILES IDX 4 1 3 2 1 3 2 4 27 6 28 7 86 8 29 9 85 10 30 11 31 12 32 13
REMARK SMILES IDX 79 14 33 15 84 16 78 17 80 18 34 19 83 20 77 21 76 22 35 24
REMARK SMILES IDX 65 25 46 26 64 27 47 28 50 29 63 30 81 31 48 32 49 33 62 35
REMARK SMILES IDX 82 36 51 37 36 38 37 39 45 40 38 41 44 42 39 43 40 44 41 45
REMARK SMILES IDX 42 46 43 47 66 48 67 49 75 50 68 51 74 52 69 53 70 54 71 55
REMARK SMILES IDX 72 56 73 57 52 58 53 59 61 60 54 61 60 62 55 63 56 64 57 65
REMARK SMILES IDX 58 66 59 67 5 68 6 69 7 70 8 71 9 73 10 74 11 75 26 76 12 77
REMARK SMILES IDX 13 78 14 79 15 80 16 82 17 83 18 84 25 85 19 86 24 87 20 88
REMARK SMILES IDX 23 89 21 90 22 91
REMARK H PARENT 3 5 80 23 50 34 7 72 14 81
REMARK Flexibility Score: inf
ROOT
ATOM      1  C   UNL A   1      34.001  28.669  26.299  1.00  0.00     0.118 C 
ENDROOT
BRANCH   1   2
ATOM      2  N   UNL A   1      33.914  30.030  26.808  1.00  0.00    -0.352 N 
ATOM      3  O   UNL A   1      34.440  31.859  28.003  1.00  0.00    -0.269 OA
ATOM      4  C   UNL A   1      34.781  30.756  27.595  1.00  0.00     0.251 C 
ATOM      5  H   UNL A   1      33.097  30.513  26.545  1.00  0.00     0.163 HD
BRANCH   4   6
ATOM      6  C   UNL A   1      36.092  30.194  27.994  1.00  0.00     0.039 A 
ATOM      7  C   UNL A   1      36.272  29.557  29.219  1.00  0.00     0.014 A 
ATOM      8  C   UNL A   1      37.163  30.287  27.098  1.00  0.00     0.014 A 
ATOM      9  C   UNL A   1      37.549  29.192  29.634  1.00  0.00     0.010 A 
ATOM     10  C   UNL A   1      38.426  29.818  27.472  1.00  0.00     0.010 A 
ATOM     11  C   UNL A   1      38.640  29.308  28.762  1.00  0.00    -0.014 A 
BRANCH  11  12
ATOM     12  C   UNL A   1      39.988  28.850  29.192  1.00  0.00     0.031 A 
ATOM     13  C   UNL A   1      40.909  29.766  29.948  1.00  0.00     0.074 A 
ATOM     14  C   UNL A   1      40.384  27.599  28.885  1.00  0.00     0.049 A 
ATOM     15  N   UNL A   1      42.139  29.553  30.343  1.00  0.00    -0.248 NA
ATOM     16  C   UNL A   1      40.388  31.096  30.300  1.00  0.00     0.031 C 
ATOM     17  C   UNL A   1      39.582  26.615  28.153  1.00  0.00     0.029 A 
ATOM     18  N   UNL A   1      41.560  26.941  29.142  1.00  0.00    -0.354 N 
ATOM     19  C   UNL A   1      42.553  30.732  30.955  1.00  0.00     0.074 A 
ATOM     20  C   UNL A   1      41.446  31.661  30.866  1.00  0.00     0.031 C 
ATOM     21  C   UNL A   1      40.277  25.476  28.040  1.00  0.00     0.029 A 
ATOM     22  C   UNL A   1      41.600  25.670  28.623  1.00  0.00     0.049 A 
ATOM     23  H   UNL A   1      42.302  27.342  29.650  1.00  0.00     0.167 HD
ATOM     24  C   UNL A   1      43.745  31.013  31.534  1.00  0.00     0.031 A 
ATOM     25  C   UNL A   1      42.598  24.767  28.578  1.00  0.00     0.031 A 
ATOM     26  C   UNL A   1      44.841  30.084  31.616  1.00  0.00     0.049 A 
ATOM     27  C   UNL A   1      43.919  25.106  29.198  1.00  0.00     0.074 A 
ATOM     28  C   UNL A   1      46.075  30.259  32.215  1.00  0.00     0.029 A 
ATOM     29  N   UNL A   1      44.839  28.807  31.071  1.00  0.00    -0.354 N 
ATOM     30  N   UNL A   1      44.279  26.213  29.802  1.00  0.00    -0.248 NA
ATOM     31  C   UNL A   1      44.969  24.082  29.132  1.00  0.00     0.031 C 
ATOM     32  C   UNL A   1      46.841  29.110  31.987  1.00  0.00     0.029 A 
ATOM     33  C   UNL A   1      46.060  28.194  31.296  1.00  0.00     0.049 A 
ATOM     34  H   UNL A   1      44.082  28.397  30.595  1.00  0.00     0.167 HD
ATOM     35  C   UNL A   1      45.593  26.014  30.206  1.00  0.00     0.074 A 
ATOM     36  C   UNL A   1      45.962  24.676  29.783  1.00  0.00     0.031 C 
ATOM     37  C   UNL A   1      46.415  26.862  30.870  1.00  0.00     0.031 A 
BRANCH  24  38
ATOM     38  C   UNL A   1      43.940  32.406  32.077  1.00  0.00    -0.014 A 
ATOM     39  C   UNL A   1      43.639  32.724  33.414  1.00  0.00     0.010 A 
ATOM     40  C   UNL A   1      44.439  33.415  31.232  1.00  0.00     0.010 A 
ATOM     41  C   UNL A   1      43.767  34.037  33.875  1.00  0.00     0.020 A 
ATOM     42  C   UNL A   1      44.596  34.724  31.698  1.00  0.00     0.020 A 
ATOM     43  C   UNL A   1      44.232  35.032  33.009  1.00  0.00     0.054 A 
BRANCH  43  44
ATOM     44  S   UNL A   1      44.357  36.735  33.622  1.00  0.00     0.124 S 
ATOM     45  O   UNL A   1      43.192  36.821  34.500  1.00  0.00    -0.237 OA
ATOM     46  O   UNL A   1      45.652  36.742  34.296  1.00  0.00    -0.237 OA
ATOM     47  O   UNL A   1      44.283  37.546  32.410  1.00  0.00    -0.744 OA
ENDBRANCH  43  44
ENDBRANCH  24  38
BRANCH  25  48
ATOM     48  C   UNL A   1      42.362  23.474  27.883  1.00  0.00    -0.014 A 
ATOM     49  C   UNL A   1      42.872  23.247  26.595  1.00  0.00     0.010 A 
ATOM     50  C   UNL A   1      41.712  22.423  28.560  1.00  0.00     0.010 A 
ATOM     51  C   UNL A   1      42.752  21.986  26.001  1.00  0.00     0.020 A 
ATOM     52  C   UNL A   1      41.614  21.156  27.981  1.00  0.00     0.020 A 
ATOM     53  C   UNL A   1      42.135  20.945  26.704  1.00  0.00     0.054 A 
BRANCH  53  54
ATOM     54  S   UNL A   1      42.096  19.290  25.961  1.00  0.00     0.124 S 
ATOM     55  O   UNL A   1      42.610  18.460  27.046  1.00  0.00    -0.237 OA
ATOM     56  O   UNL A   1      40.679  19.118  25.648  1.00  0.00    -0.237 OA
ATOM     57  O   UNL A   1      42.971  19.417  24.798  1.00  0.00    -0.744 OA
ENDBRANCH  53  54
ENDBRANCH  25  48
BRANCH  37  58
ATOM     58  C   UNL A   1      47.793  26.370  31.215  1.00  0.00    -0.014 A 
ATOM     59  C   UNL A   1      48.886  26.611  30.366  1.00  0.00     0.010 A 
ATOM     60  C   UNL A   1      48.009  25.743  32.457  1.00  0.00     0.010 A 
ATOM     61  C   UNL A   1      50.175  26.230  30.751  1.00  0.00     0.020 A 
ATOM     62  C   UNL A   1      49.298  25.381  32.854  1.00  0.00     0.020 A 
ATOM     63  C   UNL A   1      50.372  25.624  31.996  1.00  0.00     0.054 A 
BRANCH  63  64
ATOM     64  S   UNL A   1      52.065  25.220  32.512  1.00  0.00     0.124 S 
ATOM     65  O   UNL A   1      52.108  25.769  33.865  1.00  0.00    -0.237 OA
ATOM     66  O   UNL A   1      52.087  23.762  32.424  1.00  0.00    -0.237 OA
ATOM     67  O   UNL A   1      52.900  25.909  31.532  1.00  0.00    -0.744 OA
ENDBRANCH  63  64
ENDBRANCH  37  58
ENDBRANCH  11  12
ENDBRANCH   4   6
ENDBRANCH   1   2
BRANCH   1  68
ATOM     68  C   UNL A   1      33.032  27.691  26.969  1.00  0.00     0.042 C 
BRANCH  68  69
ATOM     69  C   UNL A   1      31.575  28.002  26.648  1.00  0.00     0.117 C 
BRANCH  69  70
ATOM     70  N   UNL A   1      30.708  26.846  26.833  1.00  0.00    -0.356 N 
ATOM     71  C   UNL A   1      30.580  25.683  26.139  1.00  0.00     0.227 C 
ATOM     72  H   UNL A   1      30.102  26.920  27.605  1.00  0.00     0.163 HD
ATOM     73  O   UNL A   1      29.827  24.841  26.640  1.00  0.00    -0.274 OA
BRANCH  71  74
ATOM     74  C   UNL A   1      31.229  25.461  24.763  1.00  0.00     0.103 C 
ATOM     75  C   UNL A   1      30.214  24.902  23.795  1.00  0.00    -0.016 C 
ATOM     76  C   UNL A   1      32.379  24.452  24.651  1.00  0.00     0.047 C 
ATOM     77  C   UNL A   1      30.614  23.774  23.198  1.00  0.00    -0.006 C 
ATOM     78  C   UNL A   1      31.979  23.392  23.621  1.00  0.00     0.106 C 
BRANCH  78  79
ATOM     79  N   UNL A   1      32.079  22.021  24.099  1.00  0.00    -0.347 N 
ATOM     80  C   UNL A   1      33.113  21.188  24.423  1.00  0.00     0.261 C 
ATOM     81  H   UNL A   1      31.198  21.597  24.217  1.00  0.00     0.164 HD
ATOM     82  O   UNL A   1      32.819  20.012  24.664  1.00  0.00    -0.271 OA
BRANCH  80  83
ATOM     83  C   UNL A   1      34.555  21.686  24.484  1.00  0.00     0.266 C 
ATOM     84  C   UNL A   1      35.505  20.561  24.889  1.00  0.00     0.095 C 
ATOM     85  O   UNL A   1      34.771  22.758  25.440  1.00  0.00    -0.480 OA
ATOM     86  C   UNL A   1      36.639  21.417  25.305  1.00  0.00    -0.002 A 
ATOM     87  C   UNL A   1      36.126  22.658  25.666  1.00  0.00     0.123 A 
ATOM     88  C   UNL A   1      37.995  21.159  25.362  1.00  0.00     0.008 A 
ATOM     89  C   UNL A   1      36.929  23.668  26.145  1.00  0.00     0.047 A 
ATOM     90  C   UNL A   1      38.834  22.186  25.803  1.00  0.00     0.001 A 
ATOM     91  C   UNL A   1      38.304  23.427  26.204  1.00  0.00     0.004 A 
ENDBRANCH  80  83
ENDBRANCH  78  79
ENDBRANCH  71  74
ENDBRANCH  69  70
ENDBRANCH  68  69
ENDBRANCH   1  68
TORSDOF 15
ENDMDL
MODEL 3
REMARK VINA RESULT:      -9.9      4.382     11.275
REMARK SMILES O=C(NCCCNC(=O)[C@@H]1C=C[C@H](NC(=O)[C@@H]2Cc3ccccc3O2)C1)c1ccc(-c2c3nc(c(-c4ccc(S(=O)(=O)[O-])cc4)c4ccc([nH]4)c(-c4ccc(S(=O)(=O)[O-])cc4)c4nc(c(-c5ccc(S(=O)(=O)[O-])cc5)c5ccc2[nH]5)C=C4)C=C3)cc1
REMARK SMILES IDX 4 1 3 2 1 3 2 4 27 6 28 7 86 8 29 9 85 10 30 11 31 12 32 13
REMARK SMILES IDX 79 14 33 15 84 16 78 17 80 18 34 19 83 20 77 21 76 22 35 24
REMARK SMILES IDX 65 25 46 26 64 27 47 28 50 29 63 30 81 31 48 32 49 33 62 35
REMARK SMILES IDX 82 36 51 37 36 38 37 39 45 40 38 41 44 42 39 43 40 44 41 45
REMARK SMILES IDX 42 46 43 47 66 48 67 49 75 50 68 51 74 52 69 53 70 54 71 55
REMARK SMILES IDX 72 56 73 57 52 58 53 59 61 60 54 61 60 62 55 63 56 64 57 65
REMARK SMILES IDX 58 66 59 67 5 68 6 69 7 70 8 71 9 73 10 74 11 75 26 76 12 77
REMARK SMILES IDX 13 78 14 79 15 80 16 82 17 83 18 84 25 85 19 86 24 87 20 88
REMARK SMILES IDX 23 89 21 90 22 91
REMARK H PARENT 3 5 80 23 50 34 7 72 14 81
REMARK Flexibility Score: inf
ROOT
ATOM      1  C   UNL A   1      33.485  28.284  27.217  1.00  0.00     0.118 C 
ENDROOT
BRANCH   1   2
ATOM      2  N   UNL A   1      33.424  29.704  27.531  1.00  0.00    -0.352 N 
ATOM      3  O   UNL A   1      34.051  31.697  28.360  1.00  0.00    -0.269 OA
ATOM      4  C   UNL A   1      34.368  30.550  28.070  1.00  0.00     0.251 C 
ATOM      5  H   UNL A   1      32.562  30.132  27.324  1.00  0.00     0.163 HD
BRANCH   4   6
ATOM      6  C   UNL A   1      35.742  30.071  28.348  1.00  0.00     0.039 A 
ATOM      7  C   UNL A   1      36.097  29.551  29.591  1.00  0.00     0.014 A 
ATOM      8  C   UNL A   1      36.692  30.123  27.323  1.00  0.00     0.014 A 
ATOM      9  C   UNL A   1      37.430  29.268  29.874  1.00  0.00     0.010 A 
ATOM     10  C   UNL A   1      38.011  29.733  27.576  1.00  0.00     0.010 A 
ATOM     11  C   UNL A   1      38.401  29.346  28.867  1.00  0.00    -0.014 A 
BRANCH  11  12
ATOM     12  C   UNL A   1      39.810  28.974  29.164  1.00  0.00     0.031 A 
ATOM     13  C   UNL A   1      40.756  29.966  29.783  1.00  0.00     0.074 A 
ATOM     14  C   UNL A   1      40.239  27.733  28.860  1.00  0.00     0.049 A 
ATOM     15  N   UNL A   1      42.030  29.832  30.049  1.00  0.00    -0.248 NA
ATOM     16  C   UNL A   1      40.204  31.281  30.142  1.00  0.00     0.031 C 
ATOM     17  C   UNL A   1      39.418  26.681  28.255  1.00  0.00     0.029 A 
ATOM     18  N   UNL A   1      41.470  27.146  29.011  1.00  0.00    -0.354 N 
ATOM     19  C   UNL A   1      42.442  31.054  30.570  1.00  0.00     0.074 A 
ATOM     20  C   UNL A   1      41.283  31.921  30.570  1.00  0.00     0.031 C 
ATOM     21  C   UNL A   1      40.158  25.575  28.108  1.00  0.00     0.029 A 
ATOM     22  C   UNL A   1      41.524  25.859  28.536  1.00  0.00     0.049 A 
ATOM     23  H   UNL A   1      42.239  27.604  29.421  1.00  0.00     0.167 HD
ATOM     24  C   UNL A   1      43.672  31.418  31.006  1.00  0.00     0.031 A 
ATOM     25  C   UNL A   1      42.559  25.006  28.414  1.00  0.00     0.031 A 
ATOM     26  C   UNL A   1      44.820  30.550  31.001  1.00  0.00     0.049 A 
ATOM     27  C   UNL A   1      43.918  25.436  28.874  1.00  0.00     0.074 A 
ATOM     28  C   UNL A   1      46.099  30.811  31.456  1.00  0.00     0.029 A 
ATOM     29  N   UNL A   1      44.829  29.253  30.505  1.00  0.00    -0.354 N 
ATOM     30  N   UNL A   1      44.280  26.584  29.397  1.00  0.00    -0.248 NA
ATOM     31  C   UNL A   1      45.009  24.465  28.732  1.00  0.00     0.031 C 
ATOM     32  C   UNL A   1      46.897  29.694  31.187  1.00  0.00     0.029 A 
ATOM     33  C   UNL A   1      46.099  28.712  30.617  1.00  0.00     0.049 A 
ATOM     34  H   UNL A   1      44.049  28.786  30.129  1.00  0.00     0.167 HD
ATOM     35  C   UNL A   1      45.637  26.468  29.662  1.00  0.00     0.074 A 
ATOM     36  C   UNL A   1      46.032  25.135  29.249  1.00  0.00     0.031 C 
ATOM     37  C   UNL A   1      46.478  27.383  30.202  1.00  0.00     0.031 A 
BRANCH  24  38
ATOM     38  C   UNL A   1      43.848  32.840  31.475  1.00  0.00    -0.014 A 
ATOM     39  C   UNL A   1      43.714  33.189  32.831  1.00  0.00     0.010 A 
ATOM     40  C   UNL A   1      44.156  33.845  30.539  1.00  0.00     0.010 A 
ATOM     41  C   UNL A   1      43.818  34.525  33.232  1.00  0.00     0.020 A 
ATOM     42  C   UNL A   1      44.289  35.178  30.940  1.00  0.00     0.020 A 
ATOM     43  C   UNL A   1      44.091  35.513  32.280  1.00  0.00     0.054 A 
BRANCH  43  44
ATOM     44  S   UNL A   1      44.186  37.243  32.819  1.00  0.00     0.124 S 
ATOM     45  O   UNL A   1      43.032  37.340  33.710  1.00  0.00    -0.237 OA
ATOM     46  O   UNL A   1      45.490  37.306  33.473  1.00  0.00    -0.237 OA
ATOM     47  O   UNL A   1      44.077  38.000  31.575  1.00  0.00    -0.744 OA
ENDBRANCH  43  44
ENDBRANCH  24  38
BRANCH  25  48
ATOM     48  C   UNL A   1      42.321  23.675  27.795  1.00  0.00    -0.014 A 
ATOM     49  C   UNL A   1      42.562  23.465  26.428  1.00  0.00     0.010 A 
ATOM     50  C   UNL A   1      41.951  22.582  28.604  1.00  0.00     0.010 A 
ATOM     51  C   UNL A   1      42.456  22.182  25.882  1.00  0.00     0.020 A 
ATOM     52  C   UNL A   1      41.870  21.296  28.068  1.00  0.00     0.020 A 
ATOM     53  C   UNL A   1      42.122  21.103  26.709  1.00  0.00     0.054 A 
BRANCH  53  54
ATOM     54  S   UNL A   1      42.104  19.432  26.003  1.00  0.00     0.124 S 
ATOM     55  O   UNL A   1      42.670  18.638  27.089  1.00  0.00    -0.237 OA
ATOM     56  O   UNL A   1      40.684  19.218  25.734  1.00  0.00    -0.237 OA
ATOM     57  O   UNL A   1      42.943  19.556  24.812  1.00  0.00    -0.744 OA
ENDBRANCH  53  54
ENDBRANCH  25  48
BRANCH  37  58
ATOM     58  C   UNL A   1      47.910  26.976  30.413  1.00  0.00    -0.014 A 
ATOM     59  C   UNL A   1      48.897  27.265  29.456  1.00  0.00     0.010 A 
ATOM     60  C   UNL A   1      48.285  26.383  31.633  1.00  0.00     0.010 A 
ATOM     61  C   UNL A   1      50.238  26.963  29.714  1.00  0.00     0.020 A 
ATOM     62  C   UNL A   1      49.626  26.101  31.903  1.00  0.00     0.020 A 
ATOM     63  C   UNL A   1      50.593  26.390  30.939  1.00  0.00     0.054 A 
BRANCH  63  64
ATOM     64  S   UNL A   1      52.349  26.092  31.288  1.00  0.00     0.124 S 
ATOM     65  O   UNL A   1      52.314  24.777  31.921  1.00  0.00    -0.237 OA
ATOM     66  O   UNL A   1      52.951  26.134  29.957  1.00  0.00    -0.237 OA
ATOM     67  O   UNL A   1      52.721  27.198  32.167  1.00  0.00    -0.744 OA
ENDBRANCH  63  64
ENDBRANCH  37  58
ENDBRANCH  11  12
ENDBRANCH   4   6
ENDBRANCH   1   2
BRANCH   1  68
ATOM     68  C   UNL A   1      32.133  27.671  26.845  1.00  0.00     0.042 C 
BRANCH  68  69
ATOM     69  C   UNL A   1      31.443  28.422  25.711  1.00  0.00     0.117 C 
BRANCH  69  70
ATOM     70  N   UNL A   1      32.344  28.694  24.599  1.00  0.00    -0.356 N 
ATOM     71  C   UNL A   1      32.321  28.315  23.294  1.00  0.00     0.227 C 
ATOM     72  H   UNL A   1      33.114  29.259  24.838  1.00  0.00     0.163 HD
ATOM     73  O   UNL A   1      33.181  28.828  22.571  1.00  0.00    -0.274 OA
BRANCH  71  74
ATOM     74  C   UNL A   1      31.368  27.231  22.761  1.00  0.00     0.103 C 
ATOM     75  C   UNL A   1      29.934  27.633  23.015  1.00  0.00    -0.016 C 
ATOM     76  C   UNL A   1      31.431  25.831  23.384  1.00  0.00     0.047 C 
ATOM     77  C   UNL A   1      29.230  26.702  23.668  1.00  0.00    -0.006 C 
ATOM     78  C   UNL A   1      30.042  25.495  23.936  1.00  0.00     0.106 C 
BRANCH  78  79
ATOM     79  N   UNL A   1      30.033  25.085  25.332  1.00  0.00    -0.347 N 
ATOM     80  C   UNL A   1      30.788  24.233  26.090  1.00  0.00     0.261 C 
ATOM     81  H   UNL A   1      29.319  25.521  25.850  1.00  0.00     0.164 HD
ATOM     82  O   UNL A   1      30.392  24.020  27.240  1.00  0.00    -0.271 OA
BRANCH  80  83
ATOM     83  C   UNL A   1      32.056  23.582  25.541  1.00  0.00     0.266 C 
ATOM     84  C   UNL A   1      31.958  22.059  25.602  1.00  0.00     0.095 C 
ATOM     85  O   UNL A   1      33.264  23.937  26.263  1.00  0.00    -0.480 OA
ATOM     86  C   UNL A   1      33.405  21.776  25.479  1.00  0.00    -0.002 A 
ATOM     87  C   UNL A   1      34.099  22.891  25.937  1.00  0.00     0.123 A 
ATOM     88  C   UNL A   1      34.073  20.663  25.007  1.00  0.00     0.008 A 
ATOM     89  C   UNL A   1      35.474  22.923  25.993  1.00  0.00     0.047 A 
ATOM     90  C   UNL A   1      35.470  20.691  25.012  1.00  0.00     0.001 A 
ATOM     91  C   UNL A   1      36.165  21.807  25.514  1.00  0.00     0.004 A 
ENDBRANCH  80  83
ENDBRANCH  78  79
ENDBRANCH  71  74
ENDBRANCH  69  70
ENDBRANCH  68  69
ENDBRANCH   1  68
TORSDOF 15
ENDMDL
