MODEL 1
REMARK VINA RESULT:     -10.6      0.000      0.000
REMARK SMILES CCOc1ncnc(N[C@@H]2C=C[C@H](C(=O)NCCCNC(=O)c3ccc(-c4c5nc(c(-c6ccc(S(=O)(=O)[O-])cc6)c6ccc([nH]6)c(-c6ccc(S(=O)(=O)[O-])cc6)c6nc(c(-c7ccc(S(=O)(=O)[O-])cc7)c7ccc4[nH]7)C=C6)C=C5)cc3)C2)c1C
REMARK SMILES IDX 17 1 16 2 14 3 15 4 13 6 10 7 11 8 83 9 12 10 9 11 8 13 4 14
REMARK SMILES IDX 5 15 84 16 6 17 85 18 7 19 3 20 2 21 1 22 18 23 19 24 20 25
REMARK SMILES IDX 21 26 22 28 23 29 24 30 82 31 25 32 81 33 26 34 27 35 28 36
REMARK SMILES IDX 75 37 29 38 80 39 74 40 76 41 30 42 79 43 73 44 72 45 31 47
REMARK SMILES IDX 61 48 42 49 60 50 43 51 46 52 59 53 77 54 44 55 45 56 58 58
REMARK SMILES IDX 78 59 47 60 32 61 33 62 41 63 34 64 40 65 35 66 36 67 37 68
REMARK SMILES IDX 38 69 39 70 62 71 63 72 71 73 64 74 70 75 65 76 66 77 67 78
REMARK SMILES IDX 68 79 69 80 48 81 49 82 57 83 50 84 56 85 51 86 52 87 53 88
REMARK SMILES IDX 54 89 55 90
REMARK H PARENT 16 5 9 12 20 27 76 46 46 57
REMARK Flexibility Score: inf
ROOT
ATOM      1  C   UNL A   1      35.344  22.857  26.446  1.00  0.00     0.117 C 
ENDROOT
BRANCH   1   2
ATOM      2  N   UNL A   1      33.902  22.977  26.447  1.00  0.00    -0.356 N 
ATOM      3  C   UNL A   1      33.010  22.688  25.459  1.00  0.00     0.227 C 
ATOM      4  O   UNL A   1      31.867  23.126  25.606  1.00  0.00    -0.274 OA
ATOM      5  H   UNL A   1      33.509  23.317  27.283  1.00  0.00     0.163 HD
BRANCH   3   6
ATOM      6  C   UNL A   1      33.478  21.964  24.187  1.00  0.00     0.103 C 
ATOM      7  C   UNL A   1      33.040  22.931  21.962  1.00  0.00     0.104 C 
ATOM      8  C   UNL A   1      32.177  21.753  22.213  1.00  0.00    -0.006 C 
ATOM      9  C   UNL A   1      34.019  22.960  23.140  1.00  0.00     0.046 C 
ATOM     10  C   UNL A   1      32.412  21.224  23.417  1.00  0.00    -0.016 C 
BRANCH   7  11
ATOM     11  N   UNL A   1      32.265  24.136  21.770  1.00  0.00    -0.363 N 
ATOM     12  H   UNL A   1      31.453  24.051  21.222  1.00  0.00     0.162 HD
BRANCH  11  13
ATOM     13  C   UNL A   1      32.537  25.399  22.272  1.00  0.00     0.136 A 
ATOM     14  C   UNL A   1      32.018  27.202  23.684  1.00  0.00     0.221 A 
ATOM     15  N   UNL A   1      33.090  27.902  23.293  1.00  0.00    -0.201 NA
ATOM     16  C   UNL A   1      31.658  25.959  23.189  1.00  0.00     0.054 A 
ATOM     17  C   UNL A   1      33.827  27.297  22.362  1.00  0.00     0.228 A 
ATOM     18  C   UNL A   1      30.432  25.243  23.655  1.00  0.00     0.054 C 
ATOM     19  N   UNL A   1      33.621  26.069  21.858  1.00  0.00    -0.219 NA
BRANCH  14  20
ATOM     20  O   UNL A   1      31.184  27.831  24.575  1.00  0.00    -0.478 OA
BRANCH  20  21
ATOM     21  C   UNL A   1      30.955  29.189  24.190  1.00  0.00     0.228 C 
ATOM     22  C   UNL A   1      29.757  29.230  23.255  1.00  0.00     0.049 C 
ENDBRANCH  20  21
ENDBRANCH  14  20
ENDBRANCH  11  13
ENDBRANCH   7  11
ENDBRANCH   3   6
ENDBRANCH   1   2
BRANCH   1  23
ATOM     23  C   UNL A   1      36.008  24.099  25.881  1.00  0.00     0.042 C 
BRANCH  23  24
ATOM     24  C   UNL A   1      37.150  23.803  24.924  1.00  0.00     0.118 C 
BRANCH  24  25
ATOM     25  N   UNL A   1      38.054  22.777  25.429  1.00  0.00    -0.352 N 
ATOM     26  C   UNL A   1      39.162  22.909  26.228  1.00  0.00     0.251 C 
ATOM     27  H   UNL A   1      37.837  21.856  25.159  1.00  0.00     0.163 HD
ATOM     28  O   UNL A   1      39.912  21.948  26.390  1.00  0.00    -0.269 OA
BRANCH  26  29
ATOM     29  C   UNL A   1      39.463  24.207  26.868  1.00  0.00     0.039 A 
ATOM     30  C   UNL A   1      38.997  24.452  28.160  1.00  0.00     0.014 A 
ATOM     31  C   UNL A   1      40.209  25.180  26.197  1.00  0.00     0.014 A 
ATOM     32  C   UNL A   1      39.326  25.650  28.796  1.00  0.00     0.010 A 
ATOM     33  C   UNL A   1      40.632  26.316  26.872  1.00  0.00     0.010 A 
ATOM     34  C   UNL A   1      40.173  26.579  28.170  1.00  0.00    -0.014 A 
BRANCH  34  35
ATOM     35  C   UNL A   1      40.558  27.847  28.840  1.00  0.00     0.031 A 
ATOM     36  C   UNL A   1      41.913  27.976  29.486  1.00  0.00     0.074 A 
ATOM     37  C   UNL A   1      39.673  28.859  28.919  1.00  0.00     0.049 A 
ATOM     38  N   UNL A   1      42.421  28.989  30.140  1.00  0.00    -0.248 NA
ATOM     39  C   UNL A   1      42.800  26.803  29.417  1.00  0.00     0.031 C 
ATOM     40  C   UNL A   1      38.307  28.833  28.391  1.00  0.00     0.029 A 
ATOM     41  N   UNL A   1      39.789  30.106  29.480  1.00  0.00    -0.354 N 
ATOM     42  C   UNL A   1      43.674  28.568  30.573  1.00  0.00     0.074 A 
ATOM     43  C   UNL A   1      43.816  27.187  30.172  1.00  0.00     0.031 C 
ATOM     44  C   UNL A   1      37.723  30.018  28.629  1.00  0.00     0.029 A 
ATOM     45  C   UNL A   1      38.654  30.871  29.359  1.00  0.00     0.049 A 
ATOM     46  H   UNL A   1      40.608  30.422  29.927  1.00  0.00     0.167 HD
ATOM     47  C   UNL A   1      44.633  29.272  31.221  1.00  0.00     0.031 A 
ATOM     48  C   UNL A   1      38.388  32.118  29.794  1.00  0.00     0.031 A 
ATOM     49  C   UNL A   1      44.484  30.646  31.621  1.00  0.00     0.049 A 
ATOM     50  C   UNL A   1      39.464  32.891  30.505  1.00  0.00     0.074 A 
ATOM     51  C   UNL A   1      45.411  31.470  32.232  1.00  0.00     0.029 A 
ATOM     52  N   UNL A   1      43.328  31.395  31.456  1.00  0.00    -0.354 N 
ATOM     53  N   UNL A   1      40.674  32.503  30.833  1.00  0.00    -0.248 NA
ATOM     54  C   UNL A   1      39.147  34.272  30.884  1.00  0.00     0.031 C 
ATOM     55  C   UNL A   1      44.794  32.699  32.494  1.00  0.00     0.029 A 
ATOM     56  C   UNL A   1      43.507  32.665  31.979  1.00  0.00     0.049 A 
ATOM     57  H   UNL A   1      42.501  31.072  31.031  1.00  0.00     0.167 HD
ATOM     58  C   UNL A   1      41.273  33.604  31.438  1.00  0.00     0.074 A 
ATOM     59  C   UNL A   1      40.295  34.674  31.413  1.00  0.00     0.031 C 
ATOM     60  C   UNL A   1      42.520  33.717  31.961  1.00  0.00     0.031 A 
BRANCH  47  61
ATOM     61  C   UNL A   1      45.916  28.547  31.548  1.00  0.00    -0.014 A 
ATOM     62  C   UNL A   1      46.039  27.766  32.713  1.00  0.00     0.010 A 
ATOM     63  C   UNL A   1      47.021  28.659  30.685  1.00  0.00     0.010 A 
ATOM     64  C   UNL A   1      47.261  27.176  33.047  1.00  0.00     0.020 A 
ATOM     65  C   UNL A   1      48.235  28.037  30.996  1.00  0.00     0.020 A 
ATOM     66  C   UNL A   1      48.354  27.324  32.189  1.00  0.00     0.054 A 
BRANCH  66  67
ATOM     67  S   UNL A   1      49.934  26.566  32.659  1.00  0.00     0.124 S 
ATOM     68  O   UNL A   1      49.505  25.262  33.156  1.00  0.00    -0.237 OA
ATOM     69  O   UNL A   1      50.668  26.547  31.396  1.00  0.00    -0.237 OA
ATOM     70  O   UNL A   1      50.466  27.475  33.672  1.00  0.00    -0.744 OA
ENDBRANCH  66  67
ENDBRANCH  47  61
BRANCH  48  71
ATOM     71  C   UNL A   1      37.043  32.705  29.542  1.00  0.00    -0.014 A 
ATOM     72  C   UNL A   1      36.034  32.645  30.518  1.00  0.00     0.010 A 
ATOM     73  C   UNL A   1      36.789  33.391  28.339  1.00  0.00     0.010 A 
ATOM     74  C   UNL A   1      34.797  33.261  30.298  1.00  0.00     0.020 A 
ATOM     75  C   UNL A   1      35.566  34.032  28.127  1.00  0.00     0.020 A 
ATOM     76  C   UNL A   1      34.576  33.960  29.109  1.00  0.00     0.054 A 
BRANCH  76  77
ATOM     77  S   UNL A   1      33.001  34.833  28.887  1.00  0.00     0.124 S 
ATOM     78  O   UNL A   1      33.440  36.141  28.410  1.00  0.00    -0.237 OA
ATOM     79  O   UNL A   1      32.315  33.998  27.904  1.00  0.00    -0.237 OA
ATOM     80  O   UNL A   1      32.410  34.819  30.223  1.00  0.00    -0.744 OA
ENDBRANCH  76  77
ENDBRANCH  48  71
BRANCH  60  81
ATOM     81  C   UNL A   1      42.914  35.058  32.526  1.00  0.00    -0.014 A 
ATOM     82  C   UNL A   1      42.651  35.398  33.865  1.00  0.00     0.010 A 
ATOM     83  C   UNL A   1      43.602  35.975  31.710  1.00  0.00     0.010 A 
ATOM     84  C   UNL A   1      43.033  36.646  34.364  1.00  0.00     0.020 A 
ATOM     85  C   UNL A   1      44.015  37.210  32.215  1.00  0.00     0.020 A 
ATOM     86  C   UNL A   1      43.712  37.545  33.535  1.00  0.00     0.054 A 
BRANCH  86  87
ATOM     87  S   UNL A   1      44.222  39.147  34.215  1.00  0.00     0.124 S 
ATOM     88  O   UNL A   1      45.463  39.403  33.490  1.00  0.00    -0.237 OA
ATOM     89  O   UNL A   1      43.099  40.014  33.866  1.00  0.00    -0.237 OA
ATOM     90  O   UNL A   1      44.378  38.884  35.644  1.00  0.00    -0.744 OA
ENDBRANCH  86  87
ENDBRANCH  60  81
ENDBRANCH  34  35
ENDBRANCH  26  29
ENDBRANCH  24  25
ENDBRANCH  23  24
ENDBRANCH   1  23
TORSDOF 17
ENDMDL
MODEL 2
REMARK VINA RESULT:     -10.3      3.430      4.260
REMARK SMILES CCOc1ncnc(N[C@@H]2C=C[C@H](C(=O)NCCCNC(=O)c3ccc(-c4c5nc(c(-c6ccc(S(=O)(=O)[O-])cc6)c6ccc([nH]6)c(-c6ccc(S(=O)(=O)[O-])cc6)c6nc(c(-c7ccc(S(=O)(=O)[O-])cc7)c7ccc4[nH]7)C=C6)C=C5)cc3)C2)c1C
REMARK SMILES IDX 17 1 16 2 14 3 15 4 13 6 10 7 11 8 83 9 12 10 9 11 8 13 4 14
REMARK SMILES IDX 5 15 84 16 6 17 85 18 7 19 3 20 2 21 1 22 18 23 19 24 20 25
REMARK SMILES IDX 21 26 22 28 23 29 24 30 82 31 25 32 81 33 26 34 27 35 28 36
REMARK SMILES IDX 75 37 29 38 80 39 74 40 76 41 30 42 79 43 73 44 72 45 31 47
REMARK SMILES IDX 61 48 42 49 60 50 43 51 46 52 59 53 77 54 44 55 45 56 58 58
REMARK SMILES IDX 78 59 47 60 32 61 33 62 41 63 34 64 40 65 35 66 36 67 37 68
REMARK SMILES IDX 38 69 39 70 62 71 63 72 71 73 64 74 70 75 65 76 66 77 67 78
REMARK SMILES IDX 68 79 69 80 48 81 49 82 57 83 50 84 56 85 51 86 52 87 53 88
REMARK SMILES IDX 54 89 55 90
REMARK H PARENT 16 5 9 12 20 27 76 46 46 57
REMARK Flexibility Score: inf
ROOT
ATOM      1  C   UNL A   1      39.832  21.935  26.431  1.00  0.00     0.117 C 
ENDROOT
BRANCH   1   2
ATOM      2  N   UNL A   1      38.752  22.880  26.612  1.00  0.00    -0.356 N 
ATOM      3  C   UNL A   1      37.618  23.048  25.876  1.00  0.00     0.227 C 
ATOM      4  O   UNL A   1      36.987  24.090  26.070  1.00  0.00    -0.274 OA
ATOM      5  H   UNL A   1      38.851  23.490  27.378  1.00  0.00     0.163 HD
BRANCH   3   6
ATOM      6  C   UNL A   1      37.251  22.032  24.784  1.00  0.00     0.103 C 
ATOM      7  C   UNL A   1      35.017  22.063  23.743  1.00  0.00     0.104 C 
ATOM      8  C   UNL A   1      35.167  20.904  24.653  1.00  0.00    -0.006 C 
ATOM      9  C   UNL A   1      36.414  22.685  23.665  1.00  0.00     0.046 C 
ATOM     10  C   UNL A   1      36.377  20.880  25.218  1.00  0.00    -0.016 C 
BRANCH   7  11
ATOM     11  N   UNL A   1      33.963  22.954  24.174  1.00  0.00    -0.363 N 
ATOM     12  H   UNL A   1      33.259  22.559  24.736  1.00  0.00     0.162 HD
BRANCH  11  13
ATOM     13  C   UNL A   1      33.835  24.303  23.886  1.00  0.00     0.136 A 
ATOM     14  C   UNL A   1      33.660  26.542  24.575  1.00  0.00     0.221 A 
ATOM     15  N   UNL A   1      33.604  26.994  23.316  1.00  0.00    -0.201 NA
ATOM     16  C   UNL A   1      33.737  25.206  24.936  1.00  0.00     0.054 A 
ATOM     17  C   UNL A   1      33.639  26.036  22.390  1.00  0.00     0.228 A 
ATOM     18  C   UNL A   1      33.772  24.771  26.365  1.00  0.00     0.054 C 
ATOM     19  N   UNL A   1      33.784  24.719  22.613  1.00  0.00    -0.219 NA
BRANCH  14  20
ATOM     20  O   UNL A   1      33.534  27.492  25.559  1.00  0.00    -0.478 OA
BRANCH  20  21
ATOM     21  C   UNL A   1      33.577  28.809  25.006  1.00  0.00     0.228 C 
ATOM     22  C   UNL A   1      32.987  29.778  26.019  1.00  0.00     0.049 C 
ENDBRANCH  20  21
ENDBRANCH  14  20
ENDBRANCH  11  13
ENDBRANCH   7  11
ENDBRANCH   3   6
ENDBRANCH   1   2
BRANCH   1  23
ATOM     23  C   UNL A   1      40.662  21.786  27.692  1.00  0.00     0.042 C 
BRANCH  23  24
ATOM     24  C   UNL A   1      41.631  22.932  27.927  1.00  0.00     0.118 C 
BRANCH  24  25
ATOM     25  N   UNL A   1      42.020  23.601  26.693  1.00  0.00    -0.352 N 
ATOM     26  C   UNL A   1      41.991  24.938  26.381  1.00  0.00     0.251 C 
ATOM     27  H   UNL A   1      42.353  23.010  25.981  1.00  0.00     0.163 HD
ATOM     28  O   UNL A   1      42.176  25.295  25.219  1.00  0.00    -0.269 OA
BRANCH  26  29
ATOM     29  C   UNL A   1      41.715  25.938  27.433  1.00  0.00     0.039 A 
ATOM     30  C   UNL A   1      40.573  25.795  28.224  1.00  0.00     0.014 A 
ATOM     31  C   UNL A   1      42.583  27.012  27.645  1.00  0.00     0.014 A 
ATOM     32  C   UNL A   1      40.335  26.700  29.259  1.00  0.00     0.010 A 
ATOM     33  C   UNL A   1      42.407  27.839  28.747  1.00  0.00     0.010 A 
ATOM     34  C   UNL A   1      41.265  27.711  29.551  1.00  0.00    -0.014 A 
BRANCH  34  35
ATOM     35  C   UNL A   1      41.044  28.666  30.665  1.00  0.00     0.031 A 
ATOM     36  C   UNL A   1      41.881  28.574  31.914  1.00  0.00     0.074 A 
ATOM     37  C   UNL A   1      40.056  29.578  30.581  1.00  0.00     0.049 A 
ATOM     38  N   UNL A   1      41.822  29.296  33.003  1.00  0.00    -0.248 NA
ATOM     39  C   UNL A   1      42.896  27.508  31.959  1.00  0.00     0.031 C 
ATOM     40  C   UNL A   1      39.134  29.727  29.452  1.00  0.00     0.029 A 
ATOM     41  N   UNL A   1      39.658  30.549  31.465  1.00  0.00    -0.354 N 
ATOM     42  C   UNL A   1      42.774  28.762  33.864  1.00  0.00     0.074 A 
ATOM     43  C   UNL A   1      43.343  27.611  33.200  1.00  0.00     0.031 C 
ATOM     44  C   UNL A   1      38.298  30.747  29.700  1.00  0.00     0.029 A 
ATOM     45  C   UNL A   1      38.596  31.298  31.018  1.00  0.00     0.049 A 
ATOM     46  H   UNL A   1      40.094  30.696  32.336  1.00  0.00     0.167 HD
ATOM     47  C   UNL A   1      43.162  29.203  35.084  1.00  0.00     0.031 A 
ATOM     48  C   UNL A   1      37.929  32.311  31.606  1.00  0.00     0.031 A 
ATOM     49  C   UNL A   1      42.590  30.348  35.741  1.00  0.00     0.049 A 
ATOM     50  C   UNL A   1      38.376  32.794  32.957  1.00  0.00     0.074 A 
ATOM     51  C   UNL A   1      42.945  30.913  36.952  1.00  0.00     0.029 A 
ATOM     52  N   UNL A   1      41.532  31.096  35.244  1.00  0.00    -0.354 N 
ATOM     53  N   UNL A   1      39.335  32.328  33.722  1.00  0.00    -0.248 NA
ATOM     54  C   UNL A   1      37.667  33.952  33.514  1.00  0.00     0.031 C 
ATOM     55  C   UNL A   1      42.062  31.966  37.216  1.00  0.00     0.029 A 
ATOM     56  C   UNL A   1      41.203  32.104  36.136  1.00  0.00     0.049 A 
ATOM     57  H   UNL A   1      41.081  30.935  34.384  1.00  0.00     0.167 HD
ATOM     58  C   UNL A   1      39.360  33.151  34.843  1.00  0.00     0.074 A 
ATOM     59  C   UNL A   1      38.331  34.153  34.645  1.00  0.00     0.031 C 
ATOM     60  C   UNL A   1      40.166  33.086  35.933  1.00  0.00     0.031 A 
BRANCH  47  61
ATOM     61  C   UNL A   1      44.248  28.422  35.784  1.00  0.00    -0.014 A 
ATOM     62  C   UNL A   1      43.938  27.385  36.685  1.00  0.00     0.010 A 
ATOM     63  C   UNL A   1      45.598  28.738  35.550  1.00  0.00     0.010 A 
ATOM     64  C   UNL A   1      44.951  26.732  37.393  1.00  0.00     0.020 A 
ATOM     65  C   UNL A   1      46.617  28.060  36.227  1.00  0.00     0.020 A 
ATOM     66  C   UNL A   1      46.285  27.082  37.166  1.00  0.00     0.054 A 
BRANCH  66  67
ATOM     67  S   UNL A   1      47.578  26.235  38.115  1.00  0.00     0.124 S 
ATOM     68  O   UNL A   1      48.420  25.689  37.054  1.00  0.00    -0.237 OA
ATOM     69  O   UNL A   1      48.171  27.321  38.891  1.00  0.00    -0.237 OA
ATOM     70  O   UNL A   1      46.841  25.245  38.897  1.00  0.00    -0.744 OA
ENDBRANCH  66  67
ENDBRANCH  47  61
BRANCH  48  71
ATOM     71  C   UNL A   1      36.781  32.936  30.894  1.00  0.00    -0.014 A 
ATOM     72  C   UNL A   1      35.459  32.560  31.186  1.00  0.00     0.010 A 
ATOM     73  C   UNL A   1      37.008  33.966  29.961  1.00  0.00     0.010 A 
ATOM     74  C   UNL A   1      34.385  33.204  30.561  1.00  0.00     0.020 A 
ATOM     75  C   UNL A   1      35.938  34.631  29.358  1.00  0.00     0.020 A 
ATOM     76  C   UNL A   1      34.632  34.243  29.660  1.00  0.00     0.054 A 
BRANCH  76  77
ATOM     77  S   UNL A   1      33.223  35.128  28.937  1.00  0.00     0.124 S 
ATOM     78  O   UNL A   1      32.637  34.112  28.067  1.00  0.00    -0.237 OA
ATOM     79  O   UNL A   1      32.437  35.483  30.115  1.00  0.00    -0.237 OA
ATOM     80  O   UNL A   1      33.844  36.258  28.250  1.00  0.00    -0.744 OA
ENDBRANCH  76  77
ENDBRANCH  48  71
BRANCH  60  81
ATOM     81  C   UNL A   1      39.989  34.146  36.989  1.00  0.00    -0.014 A 
ATOM     82  C   UNL A   1      40.759  35.323  36.987  1.00  0.00     0.010 A 
ATOM     83  C   UNL A   1      38.999  33.979  37.975  1.00  0.00     0.010 A 
ATOM     84  C   UNL A   1      40.570  36.293  37.975  1.00  0.00     0.020 A 
ATOM     85  C   UNL A   1      38.783  34.961  38.945  1.00  0.00     0.020 A 
ATOM     86  C   UNL A   1      39.584  36.105  38.948  1.00  0.00     0.054 A 
BRANCH  86  87
ATOM     87  S   UNL A   1      39.338  37.392  40.203  1.00  0.00     0.124 S 
ATOM     88  O   UNL A   1      38.725  36.639  41.293  1.00  0.00    -0.237 OA
ATOM     89  O   UNL A   1      40.700  37.860  40.450  1.00  0.00    -0.237 OA
ATOM     90  O   UNL A   1      38.463  38.358  39.543  1.00  0.00    -0.744 OA
ENDBRANCH  86  87
ENDBRANCH  60  81
ENDBRANCH  34  35
ENDBRANCH  26  29
ENDBRANCH  24  25
ENDBRANCH  23  24
ENDBRANCH   1  23
TORSDOF 17
ENDMDL
MODEL 3
REMARK VINA RESULT:     -10.1      4.188     10.161
REMARK SMILES CCOc1ncnc(N[C@@H]2C=C[C@H](C(=O)NCCCNC(=O)c3ccc(-c4c5nc(c(-c6ccc(S(=O)(=O)[O-])cc6)c6ccc([nH]6)c(-c6ccc(S(=O)(=O)[O-])cc6)c6nc(c(-c7ccc(S(=O)(=O)[O-])cc7)c7ccc4[nH]7)C=C6)C=C5)cc3)C2)c1C
REMARK SMILES IDX 17 1 16 2 14 3 15 4 13 6 10 7 11 8 83 9 12 10 9 11 8 13 4 14
REMARK SMILES IDX 5 15 84 16 6 17 85 18 7 19 3 20 2 21 1 22 18 23 19 24 20 25
REMARK SMILES IDX 21 26 22 28 23 29 24 30 82 31 25 32 81 33 26 34 27 35 28 36
REMARK SMILES IDX 75 37 29 38 80 39 74 40 76 41 30 42 79 43 73 44 72 45 31 47
REMARK SMILES IDX 61 48 42 49 60 50 43 51 46 52 59 53 77 54 44 55 45 56 58 58
REMARK SMILES IDX 78 59 47 60 32 61 33 62 41 63 34 64 40 65 35 66 36 67 37 68
REMARK SMILES IDX 38 69 39 70 62 71 63 72 71 73 64 74 70 75 65 76 66 77 67 78
REMARK SMILES IDX 68 79 69 80 48 81 49 82 57 83 50 84 56 85 51 86 52 87 53 88
REMARK SMILES IDX 54 89 55 90
REMARK H PARENT 16 5 9 12 20 27 76 46 46 57
REMARK Flexibility Score: inf
ROOT
ATOM      1  C   UNL A   1      33.742  29.492  26.832  1.00  0.00     0.117 C 
ENDROOT
BRANCH   1   2
ATOM      2  N   UNL A   1      33.918  29.356  25.402  1.00  0.00    -0.356 N 
ATOM      3  C   UNL A   1      33.006  29.022  24.447  1.00  0.00     0.227 C 
ATOM      4  O   UNL A   1      33.457  28.712  23.342  1.00  0.00    -0.274 OA
ATOM      5  H   UNL A   1      34.829  29.529  25.072  1.00  0.00     0.163 HD
BRANCH   3   6
ATOM      6  C   UNL A   1      31.515  28.926  24.806  1.00  0.00     0.103 C 
ATOM      7  C   UNL A   1      30.227  26.894  24.272  1.00  0.00     0.104 C 
ATOM      8  C   UNL A   1      29.853  28.015  23.378  1.00  0.00    -0.006 C 
ATOM      9  C   UNL A   1      31.150  27.519  25.321  1.00  0.00     0.046 C 
ATOM     10  C   UNL A   1      30.546  29.119  23.665  1.00  0.00    -0.016 C 
BRANCH   7  11
ATOM     11  N   UNL A   1      30.786  25.781  23.537  1.00  0.00    -0.363 N 
ATOM     12  H   UNL A   1      30.800  25.868  22.557  1.00  0.00     0.162 HD
BRANCH  11  13
ATOM     13  C   UNL A   1      31.305  24.607  24.058  1.00  0.00     0.136 A 
ATOM     14  C   UNL A   1      32.996  22.981  24.166  1.00  0.00     0.221 A 
ATOM     15  N   UNL A   1      32.355  22.282  25.110  1.00  0.00    -0.201 NA
ATOM     16  C   UNL A   1      32.514  24.133  23.566  1.00  0.00     0.054 A 
ATOM     17  C   UNL A   1      31.174  22.793  25.460  1.00  0.00     0.228 A 
ATOM     18  C   UNL A   1      33.274  24.851  22.498  1.00  0.00     0.054 C 
ATOM     19  N   UNL A   1      30.636  23.936  25.004  1.00  0.00    -0.219 NA
BRANCH  14  20
ATOM     20  O   UNL A   1      34.174  22.437  23.714  1.00  0.00    -0.478 OA
BRANCH  20  21
ATOM     21  C   UNL A   1      34.665  21.452  24.625  1.00  0.00     0.228 C 
ATOM     22  C   UNL A   1      35.991  21.936  25.191  1.00  0.00     0.049 C 
ENDBRANCH  20  21
ENDBRANCH  14  20
ENDBRANCH  11  13
ENDBRANCH   7  11
ENDBRANCH   3   6
ENDBRANCH   1   2
BRANCH   1  23
ATOM     23  C   UNL A   1      35.062  29.377  27.571  1.00  0.00     0.042 C 
BRANCH  23  24
ATOM     24  C   UNL A   1      35.568  30.694  28.132  1.00  0.00     0.118 C 
BRANCH  24  25
ATOM     25  N   UNL A   1      35.482  30.756  29.585  1.00  0.00    -0.352 N 
ATOM     26  C   UNL A   1      36.415  30.407  30.529  1.00  0.00     0.251 C 
ATOM     27  H   UNL A   1      34.632  31.099  29.941  1.00  0.00     0.163 HD
ATOM     28  O   UNL A   1      36.089  30.346  31.713  1.00  0.00    -0.269 OA
BRANCH  26  29
ATOM     29  C   UNL A   1      37.797  30.082  30.118  1.00  0.00     0.039 A 
ATOM     30  C   UNL A   1      38.676  29.540  31.057  1.00  0.00     0.014 A 
ATOM     31  C   UNL A   1      38.225  30.306  28.807  1.00  0.00     0.014 A 
ATOM     32  C   UNL A   1      39.965  29.174  30.665  1.00  0.00     0.010 A 
ATOM     33  C   UNL A   1      39.463  29.834  28.392  1.00  0.00     0.010 A 
ATOM     34  C   UNL A   1      40.359  29.288  29.322  1.00  0.00    -0.014 A 
BRANCH  34  35
ATOM     35  C   UNL A   1      41.715  28.879  28.878  1.00  0.00     0.031 A 
ATOM     36  C   UNL A   1      42.825  29.895  28.811  1.00  0.00     0.074 A 
ATOM     37  C   UNL A   1      41.936  27.611  28.480  1.00  0.00     0.049 A 
ATOM     38  N   UNL A   1      44.065  29.739  28.424  1.00  0.00    -0.248 NA
ATOM     39  C   UNL A   1      42.489  31.275  29.196  1.00  0.00     0.031 C 
ATOM     40  C   UNL A   1      40.929  26.548  28.436  1.00  0.00     0.029 A 
ATOM     41  N   UNL A   1      43.081  27.001  28.031  1.00  0.00    -0.354 N 
ATOM     42  C   UNL A   1      44.647  30.998  28.503  1.00  0.00     0.074 A 
ATOM     43  C   UNL A   1      43.607  31.919  28.903  1.00  0.00     0.031 C 
ATOM     44  C   UNL A   1      41.506  25.413  28.012  1.00  0.00     0.029 A 
ATOM     45  C   UNL A   1      42.912  25.674  27.717  1.00  0.00     0.049 A 
ATOM     46  H   UNL A   1      43.943  27.471  27.944  1.00  0.00     0.167 HD
ATOM     47  C   UNL A   1      45.937  31.357  28.292  1.00  0.00     0.031 A 
ATOM     48  C   UNL A   1      43.785  24.769  27.236  1.00  0.00     0.031 A 
ATOM     49  C   UNL A   1      46.967  30.437  27.892  1.00  0.00     0.049 A 
ATOM     50  C   UNL A   1      45.215  25.179  27.013  1.00  0.00     0.074 A 
ATOM     51  C   UNL A   1      48.315  30.681  27.703  1.00  0.00     0.029 A 
ATOM     52  N   UNL A   1      46.760  29.094  27.609  1.00  0.00    -0.354 N 
ATOM     53  N   UNL A   1      45.767  26.358  27.174  1.00  0.00    -0.248 NA
ATOM     54  C   UNL A   1      46.141  24.132  26.567  1.00  0.00     0.031 C 
ATOM     55  C   UNL A   1      48.912  29.501  27.246  1.00  0.00     0.029 A 
ATOM     56  C   UNL A   1      47.951  28.502  27.221  1.00  0.00     0.049 A 
ATOM     57  H   UNL A   1      45.895  28.630  27.673  1.00  0.00     0.167 HD
ATOM     58  C   UNL A   1      47.114  26.190  26.869  1.00  0.00     0.074 A 
ATOM     59  C   UNL A   1      47.292  24.791  26.533  1.00  0.00     0.031 C 
ATOM     60  C   UNL A   1      48.112  27.110  26.873  1.00  0.00     0.031 A 
BRANCH  47  61
ATOM     61  C   UNL A   1      46.285  32.814  28.476  1.00  0.00    -0.014 A 
ATOM     62  C   UNL A   1      46.199  33.727  27.407  1.00  0.00     0.010 A 
ATOM     63  C   UNL A   1      46.718  33.276  29.731  1.00  0.00     0.010 A 
ATOM     64  C   UNL A   1      46.611  35.052  27.570  1.00  0.00     0.020 A 
ATOM     65  C   UNL A   1      47.094  34.612  29.909  1.00  0.00     0.020 A 
ATOM     66  C   UNL A   1      47.065  35.483  28.819  1.00  0.00     0.054 A 
BRANCH  66  67
ATOM     67  S   UNL A   1      47.615  37.203  28.997  1.00  0.00     0.124 S 
ATOM     68  O   UNL A   1      49.007  37.120  28.562  1.00  0.00    -0.237 OA
ATOM     69  O   UNL A   1      46.717  37.921  28.096  1.00  0.00    -0.237 OA
ATOM     70  O   UNL A   1      47.422  37.483  30.418  1.00  0.00    -0.744 OA
ENDBRANCH  66  67
ENDBRANCH  47  61
BRANCH  48  71
ATOM     71  C   UNL A   1      43.319  23.383  26.957  1.00  0.00    -0.014 A 
ATOM     72  C   UNL A   1      43.234  22.901  25.640  1.00  0.00     0.010 A 
ATOM     73  C   UNL A   1      43.019  22.514  28.024  1.00  0.00     0.010 A 
ATOM     74  C   UNL A   1      42.861  21.575  25.394  1.00  0.00     0.020 A 
ATOM     75  C   UNL A   1      42.675  21.182  27.783  1.00  0.00     0.020 A 
ATOM     76  C   UNL A   1      42.595  20.721  26.467  1.00  0.00     0.054 A 
BRANCH  76  77
ATOM     77  S   UNL A   1      42.209  18.981  26.127  1.00  0.00     0.124 S 
ATOM     78  O   UNL A   1      43.158  18.658  25.067  1.00  0.00    -0.237 OA
ATOM     79  O   UNL A   1      42.460  18.346  27.418  1.00  0.00    -0.237 OA
ATOM     80  O   UNL A   1      40.805  19.015  25.723  1.00  0.00    -0.744 OA
ENDBRANCH  76  77
ENDBRANCH  48  71
BRANCH  60  81
ATOM     81  C   UNL A   1      49.498  26.629  26.531  1.00  0.00    -0.014 A 
ATOM     82  C   UNL A   1      50.344  26.070  27.505  1.00  0.00     0.010 A 
ATOM     83  C   UNL A   1      49.942  26.698  25.198  1.00  0.00     0.010 A 
ATOM     84  C   UNL A   1      51.623  25.626  27.159  1.00  0.00     0.020 A 
ATOM     85  C   UNL A   1      51.207  26.224  24.841  1.00  0.00     0.020 A 
ATOM     86  C   UNL A   1      52.047  25.707  25.829  1.00  0.00     0.054 A 
BRANCH  86  87
ATOM     87  S   UNL A   1      53.701  25.098  25.400  1.00  0.00     0.124 S 
ATOM     88  O   UNL A   1      53.486  23.656  25.338  1.00  0.00    -0.237 OA
ATOM     89  O   UNL A   1      53.959  25.751  24.118  1.00  0.00    -0.237 OA
ATOM     90  O   UNL A   1      54.537  25.558  26.506  1.00  0.00    -0.744 OA
ENDBRANCH  86  87
ENDBRANCH  60  81
ENDBRANCH  34  35
ENDBRANCH  26  29
ENDBRANCH  24  25
ENDBRANCH  23  24
ENDBRANCH   1  23
TORSDOF 17
ENDMDL
