MODEL 1
REMARK VINA RESULT:     -13.6      0.000      0.000
REMARK SMILES Cc1ccc(NC(=O)C[C@@H](C(=O)NCCCNC(=O)c2ccc(-c3c4nc(c(-c5ccc(S(=O)(=O)[O-])cc5)c5ccc([nH]5)c(-c5ccc(S(=O)(=O)[O-])cc5)c5nc(c(-c6ccc(S(=O)(=O)[O-])cc6)c6ccc3[nH]6)C=C5)C=C4)cc2)[NH+]2CCOCC2)cc1
REMARK SMILES IDX 15 1 14 2 13 3 11 4 12 5 10 7 9 8 7 9 6 10 8 12 5 13 1 14
REMARK SMILES IDX 2 15 3 16 87 17 4 18 86 19 80 20 81 21 85 22 82 24 84 25
REMARK SMILES IDX 83 26 16 27 17 28 18 29 19 31 20 32 21 33 79 34 22 35 78 36
REMARK SMILES IDX 23 37 24 38 25 39 72 40 26 41 77 42 71 43 73 44 27 45 76 46
REMARK SMILES IDX 70 47 69 48 28 50 58 51 39 52 57 53 40 54 43 55 56 56 74 57
REMARK SMILES IDX 41 58 42 59 55 61 75 62 44 63 29 64 30 65 38 66 31 67 37 68
REMARK SMILES IDX 32 69 33 70 34 71 35 72 36 73 59 74 60 75 68 76 61 77 67 78
REMARK SMILES IDX 62 79 63 80 64 81 65 82 66 83 45 84 46 85 54 86 47 87 53 88
REMARK SMILES IDX 48 89 49 90 50 91 51 92 52 93
REMARK H PARENT 13 6 6 11 80 23 17 30 73 49 43 60
REMARK Flexibility Score: inf
ROOT
ATOM      1  C   UNL A   1      32.934  29.748  27.222  1.00  0.00     0.042 C 
ENDROOT
BRANCH   1   2
ATOM      2  C   UNL A   1      32.354  30.038  25.837  1.00  0.00     0.118 C 
BRANCH   2   3
ATOM      3  N   UNL A   1      33.255  29.786  24.732  1.00  0.00    -0.351 N 
ATOM      4  C   UNL A   1      33.259  28.826  23.765  1.00  0.00     0.278 C 
ATOM      5  O   UNL A   1      33.898  29.112  22.746  1.00  0.00    -0.268 OA
ATOM      6  H   UNL A   1      34.001  30.426  24.666  1.00  0.00     0.163 HD
BRANCH   4   7
ATOM      7  C   UNL A   1      32.469  27.476  23.904  1.00  0.00     0.283 C 
BRANCH   7   8
ATOM      8  C   UNL A   1      33.353  26.209  23.833  1.00  0.00     0.175 C 
BRANCH   8   9
ATOM      9  C   UNL A   1      33.575  25.499  22.522  1.00  0.00     0.230 C 
ATOM     10  N   UNL A   1      33.544  24.143  22.396  1.00  0.00    -0.326 N 
ATOM     11  H   UNL A   1      33.704  23.818  21.479  1.00  0.00     0.169 HD
ATOM     12  O   UNL A   1      33.804  26.175  21.511  1.00  0.00    -0.274 OA
BRANCH  10  13
ATOM     13  C   UNL A   1      33.325  23.122  23.337  1.00  0.00     0.041 A 
ATOM     14  C   UNL A   1      32.953  19.442  25.533  1.00  0.00     0.044 C 
ATOM     15  C   UNL A   1      33.093  20.786  24.884  1.00  0.00    -0.051 A 
ATOM     16  C   UNL A   1      31.955  21.493  24.490  1.00  0.00     0.005 A 
ATOM     17  C   UNL A   1      34.351  21.315  24.588  1.00  0.00     0.005 A 
ATOM     18  C   UNL A   1      32.072  22.662  23.735  1.00  0.00     0.026 A 
ATOM     19  C   UNL A   1      34.464  22.487  23.837  1.00  0.00     0.026 A 
ENDBRANCH  10  13
ENDBRANCH   8   9
ENDBRANCH   7   8
BRANCH   7  20
ATOM     20  N   UNL A   1      31.383  27.436  22.865  1.00  0.00    -0.320 N 
ATOM     21  C   UNL A   1      30.825  28.759  22.511  1.00  0.00     0.291 C 
ATOM     22  C   UNL A   1      30.293  26.457  22.974  1.00  0.00     0.291 C 
ATOM     23  H   UNL A   1      31.957  27.069  22.104  1.00  0.00     0.348 HD
ATOM     24  C   UNL A   1      29.601  29.166  23.347  1.00  0.00     0.221 C 
ATOM     25  C   UNL A   1      29.078  26.923  23.785  1.00  0.00     0.221 C 
ATOM     26  O   UNL A   1      28.572  28.169  23.302  1.00  0.00    -0.370 OA
ENDBRANCH   7  20
ENDBRANCH   4   7
ENDBRANCH   2   3
ENDBRANCH   1   2
BRANCH   1  27
ATOM     27  C   UNL A   1      34.452  29.570  27.290  1.00  0.00     0.118 C 
BRANCH  27  28
ATOM     28  N   UNL A   1      35.074  30.783  27.826  1.00  0.00    -0.352 N 
ATOM     29  C   UNL A   1      36.282  30.963  28.452  1.00  0.00     0.251 C 
ATOM     30  H   UNL A   1      34.540  31.602  27.719  1.00  0.00     0.163 HD
ATOM     31  O   UNL A   1      36.600  32.029  28.981  1.00  0.00    -0.269 OA
BRANCH  29  32
ATOM     32  C   UNL A   1      37.247  29.865  28.386  1.00  0.00     0.039 A 
ATOM     33  C   UNL A   1      37.387  29.062  29.522  1.00  0.00     0.014 A 
ATOM     34  C   UNL A   1      38.140  29.791  27.321  1.00  0.00     0.014 A 
ATOM     35  C   UNL A   1      38.535  28.295  29.673  1.00  0.00     0.010 A 
ATOM     36  C   UNL A   1      39.301  29.065  27.495  1.00  0.00     0.010 A 
ATOM     37  C   UNL A   1      39.525  28.374  28.695  1.00  0.00    -0.014 A 
BRANCH  37  38
ATOM     38  C   UNL A   1      40.862  27.826  28.873  1.00  0.00     0.031 A 
ATOM     39  C   UNL A   1      41.135  26.421  28.497  1.00  0.00     0.074 A 
ATOM     40  C   UNL A   1      41.867  28.601  29.336  1.00  0.00     0.049 A 
ATOM     41  N   UNL A   1      42.126  25.729  28.947  1.00  0.00    -0.248 NA
ATOM     42  C   UNL A   1      40.262  25.661  27.608  1.00  0.00     0.031 C 
ATOM     43  C   UNL A   1      43.297  28.295  29.309  1.00  0.00     0.029 A 
ATOM     44  N   UNL A   1      41.834  29.796  30.034  1.00  0.00    -0.354 N 
ATOM     45  C   UNL A   1      42.213  24.587  28.186  1.00  0.00     0.074 A 
ATOM     46  C   UNL A   1      40.970  24.540  27.447  1.00  0.00     0.031 C 
ATOM     47  C   UNL A   1      43.924  29.087  30.195  1.00  0.00     0.029 A 
ATOM     48  C   UNL A   1      42.899  29.795  30.939  1.00  0.00     0.049 A 
ATOM     49  H   UNL A   1      41.178  30.520  29.915  1.00  0.00     0.167 HD
ATOM     50  C   UNL A   1      43.385  23.891  28.159  1.00  0.00     0.031 A 
ATOM     51  C   UNL A   1      42.737  29.719  32.298  1.00  0.00     0.031 A 
ATOM     52  C   UNL A   1      44.361  24.423  29.116  1.00  0.00     0.049 A 
ATOM     53  C   UNL A   1      43.337  28.463  32.926  1.00  0.00     0.074 A 
ATOM     54  C   UNL A   1      45.522  25.170  29.007  1.00  0.00     0.029 A 
ATOM     55  N   UNL A   1      44.033  24.429  30.463  1.00  0.00    -0.354 N 
ATOM     56  N   UNL A   1      43.928  27.511  32.257  1.00  0.00    -0.248 NA
ATOM     57  C   UNL A   1      43.237  28.140  34.353  1.00  0.00     0.031 C 
ATOM     58  C   UNL A   1      45.877  25.635  30.309  1.00  0.00     0.029 A 
ATOM     59  C   UNL A   1      44.943  25.154  31.206  1.00  0.00     0.049 A 
ATOM     60  H   UNL A   1      43.248  23.971  30.843  1.00  0.00     0.167 HD
ATOM     61  C   UNL A   1      44.213  26.461  33.089  1.00  0.00     0.074 A 
ATOM     62  C   UNL A   1      43.778  26.909  34.399  1.00  0.00     0.031 C 
ATOM     63  C   UNL A   1      44.735  25.281  32.641  1.00  0.00     0.031 A 
BRANCH  50  64
ATOM     64  C   UNL A   1      43.735  22.880  27.086  1.00  0.00    -0.014 A 
ATOM     65  C   UNL A   1      42.854  21.812  26.819  1.00  0.00     0.010 A 
ATOM     66  C   UNL A   1      44.935  22.880  26.349  1.00  0.00     0.010 A 
ATOM     67  C   UNL A   1      43.195  20.757  25.956  1.00  0.00     0.020 A 
ATOM     68  C   UNL A   1      45.306  21.820  25.509  1.00  0.00     0.020 A 
ATOM     69  C   UNL A   1      44.437  20.753  25.330  1.00  0.00     0.054 A 
BRANCH  69  70
ATOM     70  S   UNL A   1      44.906  19.347  24.289  1.00  0.00     0.124 S 
ATOM     71  O   UNL A   1      46.363  19.343  24.404  1.00  0.00    -0.237 OA
ATOM     72  O   UNL A   1      44.219  18.234  24.937  1.00  0.00    -0.237 OA
ATOM     73  O   UNL A   1      44.395  19.707  22.968  1.00  0.00    -0.744 OA
ENDBRANCH  69  70
ENDBRANCH  50  64
BRANCH  51  74
ATOM     74  C   UNL A   1      41.526  30.429  32.799  1.00  0.00    -0.014 A 
ATOM     75  C   UNL A   1      40.347  29.670  32.957  1.00  0.00     0.010 A 
ATOM     76  C   UNL A   1      41.639  31.655  33.475  1.00  0.00     0.010 A 
ATOM     77  C   UNL A   1      39.386  30.035  33.905  1.00  0.00     0.020 A 
ATOM     78  C   UNL A   1      40.671  32.028  34.420  1.00  0.00     0.020 A 
ATOM     79  C   UNL A   1      39.586  31.184  34.671  1.00  0.00     0.054 A 
BRANCH  79  80
ATOM     80  S   UNL A   1      38.524  31.432  36.126  1.00  0.00     0.124 S 
ATOM     81  O   UNL A   1      39.332  32.318  36.957  1.00  0.00    -0.237 OA
ATOM     82  O   UNL A   1      37.330  32.043  35.540  1.00  0.00    -0.237 OA
ATOM     83  O   UNL A   1      38.333  30.081  36.643  1.00  0.00    -0.744 OA
ENDBRANCH  79  80
ENDBRANCH  51  74
BRANCH  63  84
ATOM     84  C   UNL A   1      45.067  24.116  33.534  1.00  0.00    -0.014 A 
ATOM     85  C   UNL A   1      46.321  23.972  34.151  1.00  0.00     0.010 A 
ATOM     86  C   UNL A   1      44.153  23.048  33.672  1.00  0.00     0.010 A 
ATOM     87  C   UNL A   1      46.623  22.839  34.920  1.00  0.00     0.020 A 
ATOM     88  C   UNL A   1      44.452  21.905  34.418  1.00  0.00     0.020 A 
ATOM     89  C   UNL A   1      45.682  21.815  35.055  1.00  0.00     0.054 A 
BRANCH  89  90
ATOM     90  S   UNL A   1      46.102  20.343  36.022  1.00  0.00     0.124 S 
ATOM     91  O   UNL A   1      45.778  20.752  37.387  1.00  0.00    -0.237 OA
ATOM     92  O   UNL A   1      45.215  19.338  35.442  1.00  0.00    -0.237 OA
ATOM     93  O   UNL A   1      47.525  20.146  35.759  1.00  0.00    -0.744 OA
ENDBRANCH  89  90
ENDBRANCH  63  84
ENDBRANCH  37  38
ENDBRANCH  29  32
ENDBRANCH  27  28
ENDBRANCH   1  27
TORSDOF 17
ENDMDL
MODEL 2
REMARK VINA RESULT:     -13.5      1.203      1.986
REMARK SMILES Cc1ccc(NC(=O)C[C@@H](C(=O)NCCCNC(=O)c2ccc(-c3c4nc(c(-c5ccc(S(=O)(=O)[O-])cc5)c5ccc([nH]5)c(-c5ccc(S(=O)(=O)[O-])cc5)c5nc(c(-c6ccc(S(=O)(=O)[O-])cc6)c6ccc3[nH]6)C=C5)C=C4)cc2)[NH+]2CCOCC2)cc1
REMARK SMILES IDX 15 1 14 2 13 3 11 4 12 5 10 7 9 8 7 9 6 10 8 12 5 13 1 14
REMARK SMILES IDX 2 15 3 16 87 17 4 18 86 19 80 20 81 21 85 22 82 24 84 25
REMARK SMILES IDX 83 26 16 27 17 28 18 29 19 31 20 32 21 33 79 34 22 35 78 36
REMARK SMILES IDX 23 37 24 38 25 39 72 40 26 41 77 42 71 43 73 44 27 45 76 46
REMARK SMILES IDX 70 47 69 48 28 50 58 51 39 52 57 53 40 54 43 55 56 56 74 57
REMARK SMILES IDX 41 58 42 59 55 61 75 62 44 63 29 64 30 65 38 66 31 67 37 68
REMARK SMILES IDX 32 69 33 70 34 71 35 72 36 73 59 74 60 75 68 76 61 77 67 78
REMARK SMILES IDX 62 79 63 80 64 81 65 82 66 83 45 84 46 85 54 86 47 87 53 88
REMARK SMILES IDX 48 89 49 90 50 91 51 92 52 93
REMARK H PARENT 13 6 6 11 80 23 17 30 73 49 43 60
REMARK Flexibility Score: inf
ROOT
ATOM      1  C   UNL A   1      33.106  29.414  27.484  1.00  0.00     0.042 C 
ENDROOT
BRANCH   1   2
ATOM      2  C   UNL A   1      32.093  29.527  26.344  1.00  0.00     0.118 C 
BRANCH   2   3
ATOM      3  N   UNL A   1      32.531  28.973  25.080  1.00  0.00    -0.351 N 
ATOM      4  C   UNL A   1      31.919  28.888  23.866  1.00  0.00     0.278 C 
ATOM      5  O   UNL A   1      32.681  28.744  22.904  1.00  0.00    -0.268 OA
ATOM      6  H   UNL A   1      33.437  28.588  25.101  1.00  0.00     0.163 HD
BRANCH   4   7
ATOM      7  C   UNL A   1      30.363  29.015  23.687  1.00  0.00     0.283 C 
BRANCH   7   8
ATOM      8  C   UNL A   1      29.704  27.817  22.966  1.00  0.00     0.175 C 
BRANCH   8   9
ATOM      9  C   UNL A   1      29.125  26.669  23.755  1.00  0.00     0.230 C 
ATOM     10  N   UNL A   1      29.872  25.618  24.196  1.00  0.00    -0.326 N 
ATOM     11  H   UNL A   1      29.361  24.942  24.698  1.00  0.00     0.169 HD
ATOM     12  O   UNL A   1      27.914  26.673  24.008  1.00  0.00    -0.274 OA
BRANCH  10  13
ATOM     13  C   UNL A   1      31.240  25.324  24.062  1.00  0.00     0.041 A 
ATOM     14  C   UNL A   1      35.120  23.557  23.488  1.00  0.00     0.044 C 
ATOM     15  C   UNL A   1      33.822  24.288  23.654  1.00  0.00    -0.051 A 
ATOM     16  C   UNL A   1      33.422  24.722  24.920  1.00  0.00     0.005 A 
ATOM     17  C   UNL A   1      32.957  24.475  22.574  1.00  0.00     0.005 A 
ATOM     18  C   UNL A   1      32.144  25.251  25.119  1.00  0.00     0.026 A 
ATOM     19  C   UNL A   1      31.682  25.009  22.775  1.00  0.00     0.026 A 
ENDBRANCH  10  13
ENDBRANCH   8   9
ENDBRANCH   7   8
BRANCH   7  20
ATOM     20  N   UNL A   1      30.058  30.307  22.979  1.00  0.00    -0.320 N 
ATOM     21  C   UNL A   1      29.273  31.272  23.778  1.00  0.00     0.291 C 
ATOM     22  C   UNL A   1      29.555  30.289  21.598  1.00  0.00     0.291 C 
ATOM     23  H   UNL A   1      31.023  30.620  22.876  1.00  0.00     0.348 HD
ATOM     24  C   UNL A   1      27.752  31.152  23.588  1.00  0.00     0.221 C 
ATOM     25  C   UNL A   1      28.030  30.207  21.461  1.00  0.00     0.221 C 
ATOM     26  O   UNL A   1      27.380  31.239  22.207  1.00  0.00    -0.370 OA
ENDBRANCH   7  20
ENDBRANCH   4   7
ENDBRANCH   2   3
ENDBRANCH   1   2
BRANCH   1  27
ATOM     27  C   UNL A   1      34.580  29.454  27.079  1.00  0.00     0.118 C 
BRANCH  27  28
ATOM     28  N   UNL A   1      35.199  30.691  27.559  1.00  0.00    -0.352 N 
ATOM     29  C   UNL A   1      36.407  30.904  28.175  1.00  0.00     0.251 C 
ATOM     30  H   UNL A   1      34.661  31.503  27.418  1.00  0.00     0.163 HD
ATOM     31  O   UNL A   1      36.722  31.993  28.656  1.00  0.00    -0.269 OA
BRANCH  29  32
ATOM     32  C   UNL A   1      37.377  29.807  28.154  1.00  0.00     0.039 A 
ATOM     33  C   UNL A   1      37.509  29.043  29.319  1.00  0.00     0.014 A 
ATOM     34  C   UNL A   1      38.279  29.701  27.101  1.00  0.00     0.014 A 
ATOM     35  C   UNL A   1      38.658  28.286  29.506  1.00  0.00     0.010 A 
ATOM     36  C   UNL A   1      39.441  28.986  27.310  1.00  0.00     0.010 A 
ATOM     37  C   UNL A   1      39.657  28.336  28.535  1.00  0.00    -0.014 A 
BRANCH  37  38
ATOM     38  C   UNL A   1      40.994  27.799  28.743  1.00  0.00     0.031 A 
ATOM     39  C   UNL A   1      41.287  26.397  28.374  1.00  0.00     0.074 A 
ATOM     40  C   UNL A   1      41.981  28.583  29.229  1.00  0.00     0.049 A 
ATOM     41  N   UNL A   1      42.273  25.713  28.846  1.00  0.00    -0.248 NA
ATOM     42  C   UNL A   1      40.442  25.630  27.465  1.00  0.00     0.031 C 
ATOM     43  C   UNL A   1      43.414  28.289  29.236  1.00  0.00     0.029 A 
ATOM     44  N   UNL A   1      41.922  29.777  29.927  1.00  0.00    -0.354 N 
ATOM     45  C   UNL A   1      42.387  24.573  28.087  1.00  0.00     0.074 A 
ATOM     46  C   UNL A   1      41.163  24.515  27.320  1.00  0.00     0.031 C 
ATOM     47  C   UNL A   1      44.013  29.086  30.135  1.00  0.00     0.029 A 
ATOM     48  C   UNL A   1      42.966  29.785  30.857  1.00  0.00     0.049 A 
ATOM     49  H   UNL A   1      41.263  30.495  29.793  1.00  0.00     0.167 HD
ATOM     50  C   UNL A   1      43.566  23.886  28.087  1.00  0.00     0.031 A 
ATOM     51  C   UNL A   1      42.773  29.707  32.211  1.00  0.00     0.031 A 
ATOM     52  C   UNL A   1      44.515  24.426  29.066  1.00  0.00     0.049 A 
ATOM     53  C   UNL A   1      43.370  28.456  32.852  1.00  0.00     0.074 A 
ATOM     54  C   UNL A   1      45.672  25.184  28.984  1.00  0.00     0.029 A 
ATOM     55  N   UNL A   1      44.156  24.429  30.405  1.00  0.00    -0.354 N 
ATOM     56  N   UNL A   1      43.983  27.509  32.197  1.00  0.00    -0.248 NA
ATOM     57  C   UNL A   1      43.240  28.132  34.277  1.00  0.00     0.031 C 
ATOM     58  C   UNL A   1      45.993  25.651  30.293  1.00  0.00     0.029 A 
ATOM     59  C   UNL A   1      45.042  25.162  31.169  1.00  0.00     0.049 A 
ATOM     60  H   UNL A   1      43.366  23.964  30.767  1.00  0.00     0.167 HD
ATOM     61  C   UNL A   1      44.258  26.461  33.035  1.00  0.00     0.074 A 
ATOM     62  C   UNL A   1      43.790  26.905  34.335  1.00  0.00     0.031 C 
ATOM     63  C   UNL A   1      44.800  25.286  32.599  1.00  0.00     0.031 A 
BRANCH  50  64
ATOM     64  C   UNL A   1      43.950  22.879  27.022  1.00  0.00    -0.014 A 
ATOM     65  C   UNL A   1      43.029  21.879  26.644  1.00  0.00     0.010 A 
ATOM     66  C   UNL A   1      45.211  22.815  26.399  1.00  0.00     0.010 A 
ATOM     67  C   UNL A   1      43.381  20.823  25.786  1.00  0.00     0.020 A 
ATOM     68  C   UNL A   1      45.590  21.752  25.567  1.00  0.00     0.020 A 
ATOM     69  C   UNL A   1      44.674  20.750  25.278  1.00  0.00     0.054 A 
BRANCH  69  70
ATOM     70  S   UNL A   1      45.147  19.340  24.244  1.00  0.00     0.124 S 
ATOM     71  O   UNL A   1      44.634  18.205  25.008  1.00  0.00    -0.237 OA
ATOM     72  O   UNL A   1      44.453  19.623  22.991  1.00  0.00    -0.237 OA
ATOM     73  O   UNL A   1      46.604  19.429  24.181  1.00  0.00    -0.744 OA
ENDBRANCH  69  70
ENDBRANCH  50  64
BRANCH  51  74
ATOM     74  C   UNL A   1      41.545  30.406  32.684  1.00  0.00    -0.014 A 
ATOM     75  C   UNL A   1      40.383  29.627  32.867  1.00  0.00     0.010 A 
ATOM     76  C   UNL A   1      41.628  31.658  33.316  1.00  0.00     0.010 A 
ATOM     77  C   UNL A   1      39.412  30.004  33.800  1.00  0.00     0.020 A 
ATOM     78  C   UNL A   1      40.649  32.043  34.245  1.00  0.00     0.020 A 
ATOM     79  C   UNL A   1      39.583  31.183  34.525  1.00  0.00     0.054 A 
BRANCH  79  80
ATOM     80  S   UNL A   1      38.512  31.460  35.968  1.00  0.00     0.124 S 
ATOM     81  O   UNL A   1      38.364  30.113  36.510  1.00  0.00    -0.237 OA
ATOM     82  O   UNL A   1      39.314  32.376  36.780  1.00  0.00    -0.237 OA
ATOM     83  O   UNL A   1      37.307  32.044  35.391  1.00  0.00    -0.744 OA
ENDBRANCH  79  80
ENDBRANCH  51  74
BRANCH  63  84
ATOM     84  C   UNL A   1      45.122  24.124  33.499  1.00  0.00    -0.014 A 
ATOM     85  C   UNL A   1      46.416  23.886  33.992  1.00  0.00     0.010 A 
ATOM     86  C   UNL A   1      44.138  23.147  33.771  1.00  0.00     0.010 A 
ATOM     87  C   UNL A   1      46.697  22.754  34.770  1.00  0.00     0.020 A 
ATOM     88  C   UNL A   1      44.413  22.004  34.527  1.00  0.00     0.020 A 
ATOM     89  C   UNL A   1      45.691  21.824  35.040  1.00  0.00     0.054 A 
BRANCH  89  90
ATOM     90  S   UNL A   1      46.080  20.350  36.017  1.00  0.00     0.124 S 
ATOM     91  O   UNL A   1      47.517  20.193  35.803  1.00  0.00    -0.237 OA
ATOM     92  O   UNL A   1      45.689  20.767  37.360  1.00  0.00    -0.237 OA
ATOM     93  O   UNL A   1      45.251  19.306  35.421  1.00  0.00    -0.744 OA
ENDBRANCH  89  90
ENDBRANCH  63  84
ENDBRANCH  37  38
ENDBRANCH  29  32
ENDBRANCH  27  28
ENDBRANCH   1  27
TORSDOF 17
ENDMDL
MODEL 3
REMARK VINA RESULT:     -13.4      5.065     11.522
REMARK SMILES Cc1ccc(NC(=O)C[C@@H](C(=O)NCCCNC(=O)c2ccc(-c3c4nc(c(-c5ccc(S(=O)(=O)[O-])cc5)c5ccc([nH]5)c(-c5ccc(S(=O)(=O)[O-])cc5)c5nc(c(-c6ccc(S(=O)(=O)[O-])cc6)c6ccc3[nH]6)C=C5)C=C4)cc2)[NH+]2CCOCC2)cc1
REMARK SMILES IDX 15 1 14 2 13 3 11 4 12 5 10 7 9 8 7 9 6 10 8 12 5 13 1 14
REMARK SMILES IDX 2 15 3 16 87 17 4 18 86 19 80 20 81 21 85 22 82 24 84 25
REMARK SMILES IDX 83 26 16 27 17 28 18 29 19 31 20 32 21 33 79 34 22 35 78 36
REMARK SMILES IDX 23 37 24 38 25 39 72 40 26 41 77 42 71 43 73 44 27 45 76 46
REMARK SMILES IDX 70 47 69 48 28 50 58 51 39 52 57 53 40 54 43 55 56 56 74 57
REMARK SMILES IDX 41 58 42 59 55 61 75 62 44 63 29 64 30 65 38 66 31 67 37 68
REMARK SMILES IDX 32 69 33 70 34 71 35 72 36 73 59 74 60 75 68 76 61 77 67 78
REMARK SMILES IDX 62 79 63 80 64 81 65 82 66 83 45 84 46 85 54 86 47 87 53 88
REMARK SMILES IDX 48 89 49 90 50 91 51 92 52 93
REMARK H PARENT 13 6 6 11 80 23 17 30 73 49 43 60
REMARK Flexibility Score: inf
ROOT
ATOM      1  C   UNL A   1      37.447  22.570  24.823  1.00  0.00     0.042 C 
ENDROOT
BRANCH   1   2
ATOM      2  C   UNL A   1      36.544  21.471  25.387  1.00  0.00     0.118 C 
BRANCH   2   3
ATOM      3  N   UNL A   1      35.858  21.814  26.615  1.00  0.00    -0.351 N 
ATOM      4  C   UNL A   1      34.562  22.149  26.867  1.00  0.00     0.278 C 
ATOM      5  O   UNL A   1      34.196  21.982  28.036  1.00  0.00    -0.268 OA
ATOM      6  H   UNL A   1      36.434  21.802  27.414  1.00  0.00     0.163 HD
BRANCH   4   7
ATOM      7  C   UNL A   1      33.582  22.658  25.750  1.00  0.00     0.283 C 
BRANCH   7   8
ATOM      8  C   UNL A   1      32.922  24.023  26.055  1.00  0.00     0.175 C 
BRANCH   8   9
ATOM      9  C   UNL A   1      31.623  24.096  26.816  1.00  0.00     0.230 C 
ATOM     10  N   UNL A   1      30.698  25.076  26.617  1.00  0.00    -0.326 N 
ATOM     11  H   UNL A   1      29.896  24.996  27.185  1.00  0.00     0.169 HD
ATOM     12  O   UNL A   1      31.385  23.231  27.669  1.00  0.00    -0.274 OA
BRANCH  10  13
ATOM     13  C   UNL A   1      30.680  26.181  25.748  1.00  0.00     0.041 A 
ATOM     14  C   UNL A   1      31.135  29.006  22.537  1.00  0.00     0.044 C 
ATOM     15  C   UNL A   1      30.868  28.087  23.690  1.00  0.00    -0.051 A 
ATOM     16  C   UNL A   1      31.510  28.296  24.913  1.00  0.00     0.005 A 
ATOM     17  C   UNL A   1      30.046  26.968  23.543  1.00  0.00     0.005 A 
ATOM     18  C   UNL A   1      31.403  27.355  25.940  1.00  0.00     0.026 A 
ATOM     19  C   UNL A   1      29.937  26.032  24.574  1.00  0.00     0.026 A 
ENDBRANCH  10  13
ENDBRANCH   8   9
ENDBRANCH   7   8
BRANCH   7  20
ATOM     20  N   UNL A   1      32.544  21.601  25.492  1.00  0.00    -0.320 N 
ATOM     21  C   UNL A   1      33.007  20.217  25.731  1.00  0.00     0.291 C 
ATOM     22  C   UNL A   1      31.738  21.644  24.264  1.00  0.00     0.291 C 
ATOM     23  H   UNL A   1      31.889  21.895  26.217  1.00  0.00     0.348 HD
ATOM     24  C   UNL A   1      33.589  19.528  24.487  1.00  0.00     0.221 C 
ATOM     25  C   UNL A   1      32.343  20.910  23.062  1.00  0.00     0.221 C 
ATOM     26  O   UNL A   1      32.674  19.558  23.385  1.00  0.00    -0.370 OA
ENDBRANCH   7  20
ENDBRANCH   4   7
ENDBRANCH   2   3
ENDBRANCH   1   2
BRANCH   1  27
ATOM     27  C   UNL A   1      37.888  23.650  25.813  1.00  0.00     0.118 C 
BRANCH  27  28
ATOM     28  N   UNL A   1      39.210  23.325  26.352  1.00  0.00    -0.352 N 
ATOM     29  C   UNL A   1      40.156  24.127  26.939  1.00  0.00     0.251 C 
ATOM     30  H   UNL A   1      39.462  22.376  26.283  1.00  0.00     0.163 HD
ATOM     31  O   UNL A   1      41.289  23.726  27.208  1.00  0.00    -0.269 OA
BRANCH  29  32
ATOM     32  C   UNL A   1      39.744  25.474  27.339  1.00  0.00     0.039 A 
ATOM     33  C   UNL A   1      40.249  26.548  26.599  1.00  0.00     0.014 A 
ATOM     34  C   UNL A   1      39.074  25.663  28.544  1.00  0.00     0.014 A 
ATOM     35  C   UNL A   1      40.238  27.820  27.157  1.00  0.00     0.010 A 
ATOM     36  C   UNL A   1      39.107  26.919  29.115  1.00  0.00     0.010 A 
ATOM     37  C   UNL A   1      39.745  27.978  28.451  1.00  0.00    -0.014 A 
BRANCH  37  38
ATOM     38  C   UNL A   1      39.921  29.199  29.224  1.00  0.00     0.031 A 
ATOM     39  C   UNL A   1      38.888  30.256  29.170  1.00  0.00     0.074 A 
ATOM     40  C   UNL A   1      40.998  29.356  30.025  1.00  0.00     0.049 A 
ATOM     41  N   UNL A   1      39.096  31.491  29.481  1.00  0.00    -0.248 NA
ATOM     42  C   UNL A   1      37.529  30.005  28.702  1.00  0.00     0.031 C 
ATOM     43  C   UNL A   1      41.183  30.375  31.058  1.00  0.00     0.029 A 
ATOM     44  N   UNL A   1      42.221  28.708  30.028  1.00  0.00    -0.354 N 
ATOM     45  C   UNL A   1      37.871  32.107  29.572  1.00  0.00     0.074 A 
ATOM     46  C   UNL A   1      36.943  31.175  28.971  1.00  0.00     0.031 C 
ATOM     47  C   UNL A   1      42.492  30.463  31.346  1.00  0.00     0.029 A 
ATOM     48  C   UNL A   1      43.201  29.637  30.386  1.00  0.00     0.049 A 
ATOM     49  H   UNL A   1      42.375  27.759  29.815  1.00  0.00     0.167 HD
ATOM     50  C   UNL A   1      37.759  33.271  30.274  1.00  0.00     0.031 A 
ATOM     51  C   UNL A   1      44.156  30.102  29.520  1.00  0.00     0.031 A 
ATOM     52  C   UNL A   1      39.065  33.774  30.712  1.00  0.00     0.049 A 
ATOM     53  C   UNL A   1      44.067  31.602  29.244  1.00  0.00     0.074 A 
ATOM     54  C   UNL A   1      39.729  33.830  31.927  1.00  0.00     0.029 A 
ATOM     55  N   UNL A   1      40.014  34.081  29.748  1.00  0.00    -0.354 N 
ATOM     56  N   UNL A   1      43.158  32.394  29.743  1.00  0.00    -0.248 NA
ATOM     57  C   UNL A   1      44.947  32.310  28.309  1.00  0.00     0.031 C 
ATOM     58  C   UNL A   1      41.094  34.162  31.674  1.00  0.00     0.029 A 
ATOM     59  C   UNL A   1      41.251  34.325  30.311  1.00  0.00     0.049 A 
ATOM     60  H   UNL A   1      39.828  34.121  28.782  1.00  0.00     0.167 HD
ATOM     61  C   UNL A   1      43.261  33.638  29.182  1.00  0.00     0.074 A 
ATOM     62  C   UNL A   1      44.411  33.544  28.301  1.00  0.00     0.031 C 
ATOM     63  C   UNL A   1      42.370  34.642  29.436  1.00  0.00     0.031 A 
BRANCH  50  64
ATOM     64  C   UNL A   1      36.441  33.823  30.778  1.00  0.00    -0.014 A 
ATOM     65  C   UNL A   1      35.437  34.183  29.855  1.00  0.00     0.010 A 
ATOM     66  C   UNL A   1      36.145  34.074  32.132  1.00  0.00     0.010 A 
ATOM     67  C   UNL A   1      34.264  34.848  30.248  1.00  0.00     0.020 A 
ATOM     68  C   UNL A   1      34.996  34.766  32.538  1.00  0.00     0.020 A 
ATOM     69  C   UNL A   1      34.066  35.165  31.588  1.00  0.00     0.054 A 
BRANCH  69  70
ATOM     70  S   UNL A   1      32.594  36.101  32.075  1.00  0.00     0.124 S 
ATOM     71  O   UNL A   1      32.217  36.764  30.829  1.00  0.00    -0.237 OA
ATOM     72  O   UNL A   1      31.689  35.049  32.528  1.00  0.00    -0.237 OA
ATOM     73  O   UNL A   1      33.081  36.994  33.123  1.00  0.00    -0.744 OA
ENDBRANCH  69  70
ENDBRANCH  50  64
BRANCH  51  74
ATOM     74  C   UNL A   1      44.628  29.081  28.542  1.00  0.00    -0.014 A 
ATOM     75  C   UNL A   1      43.979  29.031  27.290  1.00  0.00     0.010 A 
ATOM     76  C   UNL A   1      45.897  28.495  28.672  1.00  0.00     0.010 A 
ATOM     77  C   UNL A   1      44.655  28.571  26.155  1.00  0.00     0.020 A 
ATOM     78  C   UNL A   1      46.574  28.023  27.536  1.00  0.00     0.020 A 
ATOM     79  C   UNL A   1      45.971  28.124  26.279  1.00  0.00     0.054 A 
BRANCH  79  80
ATOM     80  S   UNL A   1      46.935  27.882  24.756  1.00  0.00     0.124 S 
ATOM     81  O   UNL A   1      46.485  26.570  24.306  1.00  0.00    -0.237 OA
ATOM     82  O   UNL A   1      46.501  29.009  23.930  1.00  0.00    -0.237 OA
ATOM     83  O   UNL A   1      48.318  27.953  25.215  1.00  0.00    -0.744 OA
ENDBRANCH  79  80
ENDBRANCH  51  74
BRANCH  63  84
ATOM     84  C   UNL A   1      42.466  36.022  28.841  1.00  0.00    -0.014 A 
ATOM     85  C   UNL A   1      41.921  36.342  27.586  1.00  0.00     0.010 A 
ATOM     86  C   UNL A   1      43.236  37.016  29.484  1.00  0.00     0.010 A 
ATOM     87  C   UNL A   1      42.090  37.618  27.029  1.00  0.00     0.020 A 
ATOM     88  C   UNL A   1      43.428  38.283  28.927  1.00  0.00     0.020 A 
ATOM     89  C   UNL A   1      42.837  38.584  27.708  1.00  0.00     0.054 A 
BRANCH  89  90
ATOM     90  S   UNL A   1      43.074  40.215  26.957  1.00  0.00     0.124 S 
ATOM     91  O   UNL A   1      44.083  39.953  25.934  1.00  0.00    -0.237 OA
ATOM     92  O   UNL A   1      41.735  40.512  26.456  1.00  0.00    -0.237 OA
ATOM     93  O   UNL A   1      43.524  41.049  28.068  1.00  0.00    -0.744 OA
ENDBRANCH  89  90
ENDBRANCH  63  84
ENDBRANCH  37  38
ENDBRANCH  29  32
ENDBRANCH  27  28
ENDBRANCH   1  27
TORSDOF 17
ENDMDL
