MODEL 1
REMARK VINA RESULT:     -11.4      0.000      0.000
REMARK SMILES CC(C)(CNC(=O)N1CCCC[C@@H]1CC(=O)NCCCNC(=O)c1ccc(-c2c3nc(c(-c4ccc(S(=O)(=O)[O-])cc4)c4ccc([nH]4)c(-c4ccc(S(=O)(=O)[O-])cc4)c4nc(c(-c5ccc(S(=O)(=O)[O-])cc5)c5ccc2[nH]5)C=C4)C=C3)cc1)S(C)(=O)=O
REMARK SMILES IDX 18 1 17 2 15 3 16 4 14 6 13 7 8 8 9 9 10 10 12 11 11 12 6 13
REMARK SMILES IDX 5 14 7 16 4 17 2 18 1 19 3 20 84 21 85 22 86 23 87 24 19 25
REMARK SMILES IDX 20 26 21 27 22 28 23 30 24 31 25 32 83 33 26 34 82 35 27 36
REMARK SMILES IDX 28 37 29 38 76 39 30 40 81 41 75 42 77 43 31 44 80 45 74 46
REMARK SMILES IDX 73 47 32 49 62 50 43 51 61 52 44 53 47 54 60 55 78 56 45 57
REMARK SMILES IDX 46 58 59 60 79 61 48 62 33 63 34 64 42 65 35 66 41 67 36 68
REMARK SMILES IDX 37 69 38 70 39 71 40 72 63 73 64 74 72 75 65 76 71 77 66 78
REMARK SMILES IDX 67 79 68 80 69 81 70 82 49 83 50 84 58 85 51 86 57 87 52 88
REMARK SMILES IDX 53 89 54 90 55 91 56 92
REMARK H PARENT 17 5 5 15 21 29 77 48 47 59
REMARK Flexibility Score: inf
ROOT
ATOM      1  C   UNL A   1      38.125  23.062  26.063  1.00  0.00     0.117 C 
ENDROOT
BRANCH   1   2
ATOM      2  N   UNL A   1      37.785  22.947  24.649  1.00  0.00    -0.356 N 
ATOM      3  C   UNL A   1      36.640  23.244  23.970  1.00  0.00     0.222 C 
ATOM      4  O   UNL A   1      36.630  23.073  22.748  1.00  0.00    -0.275 OA
ATOM      5  H   UNL A   1      38.509  22.591  24.086  1.00  0.00     0.163 HD
BRANCH   3   6
ATOM      6  C   UNL A   1      35.404  23.771  24.674  1.00  0.00     0.125 C 
BRANCH   6   7
ATOM      7  C   UNL A   1      34.104  23.071  24.205  1.00  0.00     0.096 C 
ATOM      8  N   UNL A   1      33.075  24.031  23.726  1.00  0.00    -0.321 N 
ATOM      9  C   UNL A   1      31.668  23.621  23.776  1.00  0.00     0.121 C 
ATOM     10  C   UNL A   1      31.259  22.912  25.050  1.00  0.00     0.022 C 
ATOM     11  C   UNL A   1      33.593  22.204  25.363  1.00  0.00     0.026 C 
ATOM     12  C   UNL A   1      32.164  21.719  25.265  1.00  0.00     0.004 C 
BRANCH   8  13
ATOM     13  C   UNL A   1      33.318  25.180  23.023  1.00  0.00     0.317 C 
ATOM     14  N   UNL A   1      33.249  26.392  23.626  1.00  0.00    -0.336 N 
ATOM     15  H   UNL A   1      33.307  27.151  23.001  1.00  0.00     0.165 HD
ATOM     16  O   UNL A   1      33.735  25.168  21.863  1.00  0.00    -0.249 OA
BRANCH  14  17
ATOM     17  C   UNL A   1      33.104  26.789  25.017  1.00  0.00     0.140 C 
BRANCH  17  18
ATOM     18  C   UNL A   1      31.880  27.658  25.383  1.00  0.00     0.084 C 
ATOM     19  C   UNL A   1      31.475  28.597  24.242  1.00  0.00     0.030 C 
ATOM     20  C   UNL A   1      30.714  26.673  25.648  1.00  0.00     0.030 C 
BRANCH  18  21
ATOM     21  S   UNL A   1      32.117  28.593  26.933  1.00  0.00     0.154 S 
ATOM     22  C   UNL A   1      33.864  28.684  27.262  1.00  0.00     0.158 C 
ATOM     23  O   UNL A   1      31.698  29.963  26.678  1.00  0.00    -0.229 OA
ATOM     24  O   UNL A   1      31.493  27.849  28.009  1.00  0.00    -0.229 OA
ENDBRANCH  18  21
ENDBRANCH  17  18
ENDBRANCH  14  17
ENDBRANCH   8  13
ENDBRANCH   6   7
ENDBRANCH   3   6
ENDBRANCH   1   2
BRANCH   1  25
ATOM     25  C   UNL A   1      39.335  22.212  26.464  1.00  0.00     0.042 C 
BRANCH  25  26
ATOM     26  C   UNL A   1      40.445  22.988  27.158  1.00  0.00     0.118 C 
BRANCH  26  27
ATOM     27  N   UNL A   1      41.279  23.681  26.195  1.00  0.00    -0.352 N 
ATOM     28  C   UNL A   1      41.609  25.014  26.126  1.00  0.00     0.251 C 
ATOM     29  H   UNL A   1      41.665  23.115  25.487  1.00  0.00     0.163 HD
ATOM     30  O   UNL A   1      42.045  25.463  25.068  1.00  0.00    -0.269 OA
BRANCH  28  31
ATOM     31  C   UNL A   1      41.437  25.912  27.296  1.00  0.00     0.039 A 
ATOM     32  C   UNL A   1      42.538  26.648  27.747  1.00  0.00     0.014 A 
ATOM     33  C   UNL A   1      40.226  25.993  27.989  1.00  0.00     0.014 A 
ATOM     34  C   UNL A   1      42.409  27.497  28.850  1.00  0.00     0.010 A 
ATOM     35  C   UNL A   1      40.075  26.902  29.038  1.00  0.00     0.010 A 
ATOM     36  C   UNL A   1      41.167  27.660  29.486  1.00  0.00    -0.014 A 
BRANCH  36  37
ATOM     37  C   UNL A   1      40.992  28.630  30.600  1.00  0.00     0.031 A 
ATOM     38  C   UNL A   1      41.828  28.531  31.849  1.00  0.00     0.074 A 
ATOM     39  C   UNL A   1      40.026  29.566  30.516  1.00  0.00     0.049 A 
ATOM     40  N   UNL A   1      41.780  29.262  32.935  1.00  0.00    -0.248 NA
ATOM     41  C   UNL A   1      42.831  27.456  31.893  1.00  0.00     0.031 C 
ATOM     42  C   UNL A   1      39.115  29.737  29.383  1.00  0.00     0.029 A 
ATOM     43  N   UNL A   1      39.640  30.540  31.404  1.00  0.00    -0.354 N 
ATOM     44  C   UNL A   1      42.731  28.726  33.795  1.00  0.00     0.074 A 
ATOM     45  C   UNL A   1      43.305  27.580  33.123  1.00  0.00     0.031 C 
ATOM     46  C   UNL A   1      38.287  30.762  29.636  1.00  0.00     0.029 A 
ATOM     47  C   UNL A   1      38.575  31.292  30.965  1.00  0.00     0.049 A 
ATOM     48  H   UNL A   1      40.083  30.686  32.270  1.00  0.00     0.167 HD
ATOM     49  C   UNL A   1      43.105  29.157  35.026  1.00  0.00     0.031 A 
ATOM     50  C   UNL A   1      37.888  32.283  31.568  1.00  0.00     0.031 A 
ATOM     51  C   UNL A   1      42.520  30.290  35.695  1.00  0.00     0.049 A 
ATOM     52  C   UNL A   1      38.299  32.733  32.939  1.00  0.00     0.074 A 
ATOM     53  C   UNL A   1      42.873  30.848  36.912  1.00  0.00     0.029 A 
ATOM     54  N   UNL A   1      41.446  31.027  35.216  1.00  0.00    -0.354 N 
ATOM     55  N   UNL A   1      39.266  32.276  33.698  1.00  0.00    -0.248 NA
ATOM     56  C   UNL A   1      37.533  33.836  33.534  1.00  0.00     0.031 C 
ATOM     57  C   UNL A   1      41.967  31.876  37.200  1.00  0.00     0.029 A 
ATOM     58  C   UNL A   1      41.092  32.004  36.133  1.00  0.00     0.049 A 
ATOM     59  H   UNL A   1      41.000  30.878  34.351  1.00  0.00     0.167 HD
ATOM     60  C   UNL A   1      39.229  33.038  34.861  1.00  0.00     0.074 A 
ATOM     61  C   UNL A   1      38.161  34.004  34.691  1.00  0.00     0.031 C 
ATOM     62  C   UNL A   1      40.008  32.942  35.967  1.00  0.00     0.031 A 
BRANCH  49  63
ATOM     63  C   UNL A   1      44.177  28.369  35.738  1.00  0.00    -0.014 A 
ATOM     64  C   UNL A   1      45.543  28.661  35.560  1.00  0.00     0.010 A 
ATOM     65  C   UNL A   1      43.816  27.317  36.599  1.00  0.00     0.010 A 
ATOM     66  C   UNL A   1      46.524  27.873  36.169  1.00  0.00     0.020 A 
ATOM     67  C   UNL A   1      44.793  26.546  37.238  1.00  0.00     0.020 A 
ATOM     68  C   UNL A   1      46.141  26.812  36.995  1.00  0.00     0.054 A 
BRANCH  68  69
ATOM     69  S   UNL A   1      47.434  25.785  37.746  1.00  0.00     0.124 S 
ATOM     70  O   UNL A   1      46.905  25.573  39.091  1.00  0.00    -0.237 OA
ATOM     71  O   UNL A   1      47.448  24.605  36.884  1.00  0.00    -0.237 OA
ATOM     72  O   UNL A   1      48.629  26.620  37.671  1.00  0.00    -0.744 OA
ENDBRANCH  68  69
ENDBRANCH  49  63
BRANCH  50  73
ATOM     73  C   UNL A   1      36.733  32.896  30.858  1.00  0.00    -0.014 A 
ATOM     74  C   UNL A   1      35.415  32.537  31.184  1.00  0.00     0.010 A 
ATOM     75  C   UNL A   1      36.952  33.912  29.906  1.00  0.00     0.010 A 
ATOM     76  C   UNL A   1      34.335  33.192  30.583  1.00  0.00     0.020 A 
ATOM     77  C   UNL A   1      35.876  34.587  29.325  1.00  0.00     0.020 A 
ATOM     78  C   UNL A   1      34.573  34.224  29.669  1.00  0.00     0.054 A 
BRANCH  78  79
ATOM     79  S   UNL A   1      33.157  35.138  28.995  1.00  0.00     0.124 S 
ATOM     80  O   UNL A   1      32.354  35.381  30.189  1.00  0.00    -0.237 OA
ATOM     81  O   UNL A   1      33.795  36.315  28.409  1.00  0.00    -0.237 OA
ATOM     82  O   UNL A   1      32.579  34.208  28.027  1.00  0.00    -0.744 OA
ENDBRANCH  78  79
ENDBRANCH  50  73
BRANCH  62  83
ATOM     83  C   UNL A   1      39.729  33.901  37.095  1.00  0.00    -0.014 A 
ATOM     84  C   UNL A   1      38.906  33.531  38.174  1.00  0.00     0.010 A 
ATOM     85  C   UNL A   1      40.345  35.167  37.108  1.00  0.00     0.010 A 
ATOM     86  C   UNL A   1      38.687  34.416  39.234  1.00  0.00     0.020 A 
ATOM     87  C   UNL A   1      40.151  36.043  38.179  1.00  0.00     0.020 A 
ATOM     88  C   UNL A   1      39.314  35.664  39.231  1.00  0.00     0.054 A 
BRANCH  88  89
ATOM     89  S   UNL A   1      39.056  36.772  40.645  1.00  0.00     0.124 S 
ATOM     90  O   UNL A   1      38.312  35.919  41.568  1.00  0.00    -0.237 OA
ATOM     91  O   UNL A   1      40.423  37.095  41.050  1.00  0.00    -0.237 OA
ATOM     92  O   UNL A   1      38.300  37.887  40.080  1.00  0.00    -0.744 OA
ENDBRANCH  88  89
ENDBRANCH  62  83
ENDBRANCH  36  37
ENDBRANCH  28  31
ENDBRANCH  26  27
ENDBRANCH  25  26
ENDBRANCH   1  25
TORSDOF 18
ENDMDL
MODEL 2
REMARK VINA RESULT:     -11.1      2.192      3.845
REMARK SMILES CC(C)(CNC(=O)N1CCCC[C@@H]1CC(=O)NCCCNC(=O)c1ccc(-c2c3nc(c(-c4ccc(S(=O)(=O)[O-])cc4)c4ccc([nH]4)c(-c4ccc(S(=O)(=O)[O-])cc4)c4nc(c(-c5ccc(S(=O)(=O)[O-])cc5)c5ccc2[nH]5)C=C4)C=C3)cc1)S(C)(=O)=O
REMARK SMILES IDX 18 1 17 2 15 3 16 4 14 6 13 7 8 8 9 9 10 10 12 11 11 12 6 13
REMARK SMILES IDX 5 14 7 16 4 17 2 18 1 19 3 20 84 21 85 22 86 23 87 24 19 25
REMARK SMILES IDX 20 26 21 27 22 28 23 30 24 31 25 32 83 33 26 34 82 35 27 36
REMARK SMILES IDX 28 37 29 38 76 39 30 40 81 41 75 42 77 43 31 44 80 45 74 46
REMARK SMILES IDX 73 47 32 49 62 50 43 51 61 52 44 53 47 54 60 55 78 56 45 57
REMARK SMILES IDX 46 58 59 60 79 61 48 62 33 63 34 64 42 65 35 66 41 67 36 68
REMARK SMILES IDX 37 69 38 70 39 71 40 72 63 73 64 74 72 75 65 76 71 77 66 78
REMARK SMILES IDX 67 79 68 80 69 81 70 82 49 83 50 84 58 85 51 86 57 87 52 88
REMARK SMILES IDX 53 89 54 90 55 91 56 92
REMARK H PARENT 17 5 5 15 21 29 77 48 47 59
REMARK Flexibility Score: inf
ROOT
ATOM      1  C   UNL A   1      38.059  22.093  25.997  1.00  0.00     0.117 C 
ENDROOT
BRANCH   1   2
ATOM      2  N   UNL A   1      37.637  22.193  24.605  1.00  0.00    -0.356 N 
ATOM      3  C   UNL A   1      36.693  22.971  24.001  1.00  0.00     0.222 C 
ATOM      4  O   UNL A   1      36.556  22.873  22.779  1.00  0.00    -0.275 OA
ATOM      5  H   UNL A   1      38.117  21.591  23.992  1.00  0.00     0.163 HD
BRANCH   3   6
ATOM      6  C   UNL A   1      35.827  23.936  24.789  1.00  0.00     0.125 C 
BRANCH   6   7
ATOM      7  C   UNL A   1      34.314  23.738  24.521  1.00  0.00     0.096 C 
ATOM      8  N   UNL A   1      33.848  22.364  24.842  1.00  0.00    -0.321 N 
ATOM      9  C   UNL A   1      32.652  21.860  24.159  1.00  0.00     0.121 C 
ATOM     10  C   UNL A   1      32.590  22.168  22.678  1.00  0.00     0.022 C 
ATOM     11  C   UNL A   1      34.044  24.115  23.057  1.00  0.00     0.026 C 
ATOM     12  C   UNL A   1      32.723  23.661  22.476  1.00  0.00     0.004 C 
BRANCH   8  13
ATOM     13  C   UNL A   1      34.287  21.593  25.885  1.00  0.00     0.317 C 
ATOM     14  N   UNL A   1      34.479  20.260  25.733  1.00  0.00    -0.336 N 
ATOM     15  H   UNL A   1      34.663  19.787  26.575  1.00  0.00     0.165 HD
ATOM     16  O   UNL A   1      34.650  22.081  26.957  1.00  0.00    -0.249 OA
BRANCH  14  17
ATOM     17  C   UNL A   1      34.467  19.395  24.564  1.00  0.00     0.140 C 
BRANCH  17  18
ATOM     18  C   UNL A   1      33.436  18.245  24.545  1.00  0.00     0.084 C 
ATOM     19  C   UNL A   1      32.508  18.278  25.764  1.00  0.00     0.030 C 
ATOM     20  C   UNL A   1      32.580  18.452  23.269  1.00  0.00     0.030 C 
BRANCH  18  21
ATOM     21  S   UNL A   1      34.213  16.602  24.373  1.00  0.00     0.154 S 
ATOM     22  C   UNL A   1      33.180  15.412  25.202  1.00  0.00     0.158 C 
ATOM     23  O   UNL A   1      34.160  16.246  22.963  1.00  0.00    -0.229 OA
ATOM     24  O   UNL A   1      35.495  16.636  25.048  1.00  0.00    -0.229 OA
ENDBRANCH  18  21
ENDBRANCH  17  18
ENDBRANCH  14  17
ENDBRANCH   8  13
ENDBRANCH   6   7
ENDBRANCH   3   6
ENDBRANCH   1   2
BRANCH   1  25
ATOM     25  C   UNL A   1      39.574  21.934  26.159  1.00  0.00     0.042 C 
BRANCH  25  26
ATOM     26  C   UNL A   1      40.258  23.105  26.848  1.00  0.00     0.118 C 
BRANCH  26  27
ATOM     27  N   UNL A   1      41.439  23.524  26.116  1.00  0.00    -0.352 N 
ATOM     28  C   UNL A   1      42.076  24.742  26.110  1.00  0.00     0.251 C 
ATOM     29  H   UNL A   1      41.844  22.834  25.541  1.00  0.00     0.163 HD
ATOM     30  O   UNL A   1      42.849  25.002  25.191  1.00  0.00    -0.269 OA
BRANCH  28  31
ATOM     31  C   UNL A   1      41.836  25.742  27.181  1.00  0.00     0.039 A 
ATOM     32  C   UNL A   1      40.788  25.526  28.082  1.00  0.00     0.014 A 
ATOM     33  C   UNL A   1      42.589  26.916  27.274  1.00  0.00     0.014 A 
ATOM     34  C   UNL A   1      40.533  26.453  29.097  1.00  0.00     0.010 A 
ATOM     35  C   UNL A   1      42.389  27.799  28.336  1.00  0.00     0.010 A 
ATOM     36  C   UNL A   1      41.353  27.581  29.257  1.00  0.00    -0.014 A 
BRANCH  36  37
ATOM     37  C   UNL A   1      41.153  28.526  30.389  1.00  0.00     0.031 A 
ATOM     38  C   UNL A   1      41.982  28.415  31.642  1.00  0.00     0.074 A 
ATOM     39  C   UNL A   1      40.172  29.447  30.317  1.00  0.00     0.049 A 
ATOM     40  N   UNL A   1      41.913  29.123  32.742  1.00  0.00    -0.248 NA
ATOM     41  C   UNL A   1      43.003  27.357  31.672  1.00  0.00     0.031 C 
ATOM     42  C   UNL A   1      39.266  29.625  29.180  1.00  0.00     0.029 A 
ATOM     43  N   UNL A   1      39.762  30.395  31.221  1.00  0.00    -0.354 N 
ATOM     44  C   UNL A   1      42.867  28.586  33.599  1.00  0.00     0.074 A 
ATOM     45  C   UNL A   1      43.466  27.464  32.908  1.00  0.00     0.031 C 
ATOM     46  C   UNL A   1      38.419  30.631  29.448  1.00  0.00     0.029 A 
ATOM     47  C   UNL A   1      38.688  31.137  30.790  1.00  0.00     0.049 A 
ATOM     48  H   UNL A   1      40.197  30.531  32.094  1.00  0.00     0.167 HD
ATOM     49  C   UNL A   1      43.225  28.999  34.841  1.00  0.00     0.031 A 
ATOM     50  C   UNL A   1      37.979  32.104  31.408  1.00  0.00     0.031 A 
ATOM     51  C   UNL A   1      42.616  30.108  35.528  1.00  0.00     0.049 A 
ATOM     52  C   UNL A   1      38.373  32.533  32.791  1.00  0.00     0.074 A 
ATOM     53  C   UNL A   1      42.950  30.646  36.758  1.00  0.00     0.029 A 
ATOM     54  N   UNL A   1      41.532  30.836  35.056  1.00  0.00    -0.354 N 
ATOM     55  N   UNL A   1      39.343  32.077  33.547  1.00  0.00    -0.248 NA
ATOM     56  C   UNL A   1      37.584  33.611  33.401  1.00  0.00     0.031 C 
ATOM     57  C   UNL A   1      42.024  31.652  37.060  1.00  0.00     0.029 A 
ATOM     58  C   UNL A   1      41.155  31.787  35.990  1.00  0.00     0.049 A 
ATOM     59  H   UNL A   1      41.096  30.696  34.185  1.00  0.00     0.167 HD
ATOM     60  C   UNL A   1      39.284  32.815  34.724  1.00  0.00     0.074 A 
ATOM     61  C   UNL A   1      38.200  33.765  34.566  1.00  0.00     0.031 C 
ATOM     62  C   UNL A   1      40.056  32.710  35.835  1.00  0.00     0.031 A 
BRANCH  49  63
ATOM     63  C   UNL A   1      44.305  28.214  35.545  1.00  0.00    -0.014 A 
ATOM     64  C   UNL A   1      43.995  27.114  36.368  1.00  0.00     0.010 A 
ATOM     65  C   UNL A   1      45.654  28.581  35.382  1.00  0.00     0.010 A 
ATOM     66  C   UNL A   1      45.002  26.446  37.071  1.00  0.00     0.020 A 
ATOM     67  C   UNL A   1      46.669  27.893  36.057  1.00  0.00     0.020 A 
ATOM     68  C   UNL A   1      46.332  26.849  36.920  1.00  0.00     0.054 A 
BRANCH  68  69
ATOM     69  S   UNL A   1      47.615  25.987  37.869  1.00  0.00     0.124 S 
ATOM     70  O   UNL A   1      48.367  25.313  36.813  1.00  0.00    -0.237 OA
ATOM     71  O   UNL A   1      48.313  27.084  38.535  1.00  0.00    -0.237 OA
ATOM     72  O   UNL A   1      46.859  25.105  38.754  1.00  0.00    -0.744 OA
ENDBRANCH  68  69
ENDBRANCH  49  63
BRANCH  50  73
ATOM     73  C   UNL A   1      36.819  32.712  30.701  1.00  0.00    -0.014 A 
ATOM     74  C   UNL A   1      35.505  32.333  31.019  1.00  0.00     0.010 A 
ATOM     75  C   UNL A   1      37.028  33.741  29.762  1.00  0.00     0.010 A 
ATOM     76  C   UNL A   1      34.418  32.982  30.423  1.00  0.00     0.020 A 
ATOM     77  C   UNL A   1      35.946  34.411  29.186  1.00  0.00     0.020 A 
ATOM     78  C   UNL A   1      34.647  34.027  29.521  1.00  0.00     0.054 A 
BRANCH  78  79
ATOM     79  S   UNL A   1      33.222  34.933  28.854  1.00  0.00     0.124 S 
ATOM     80  O   UNL A   1      33.856  36.116  28.278  1.00  0.00    -0.237 OA
ATOM     81  O   UNL A   1      32.667  33.981  27.895  1.00  0.00    -0.237 OA
ATOM     82  O   UNL A   1      32.390  35.176  30.030  1.00  0.00    -0.744 OA
ENDBRANCH  78  79
ENDBRANCH  50  73
BRANCH  62  83
ATOM     83  C   UNL A   1      39.752  33.641  36.979  1.00  0.00    -0.014 A 
ATOM     84  C   UNL A   1      38.917  33.239  38.038  1.00  0.00     0.010 A 
ATOM     85  C   UNL A   1      40.358  34.911  37.030  1.00  0.00     0.010 A 
ATOM     86  C   UNL A   1      38.675  34.098  39.114  1.00  0.00     0.020 A 
ATOM     87  C   UNL A   1      40.141  35.761  38.118  1.00  0.00     0.020 A 
ATOM     88  C   UNL A   1      39.291  35.352  39.148  1.00  0.00     0.054 A 
BRANCH  88  89
ATOM     89  S   UNL A   1      39.003  36.425  40.583  1.00  0.00     0.124 S 
ATOM     90  O   UNL A   1      38.605  37.679  39.950  1.00  0.00    -0.237 OA
ATOM     91  O   UNL A   1      37.945  35.719  41.301  1.00  0.00    -0.237 OA
ATOM     92  O   UNL A   1      40.297  36.453  41.262  1.00  0.00    -0.744 OA
ENDBRANCH  88  89
ENDBRANCH  62  83
ENDBRANCH  36  37
ENDBRANCH  28  31
ENDBRANCH  26  27
ENDBRANCH  25  26
ENDBRANCH   1  25
TORSDOF 18
ENDMDL
MODEL 3
REMARK VINA RESULT:     -11.0      6.376     11.705
REMARK SMILES CC(C)(CNC(=O)N1CCCC[C@@H]1CC(=O)NCCCNC(=O)c1ccc(-c2c3nc(c(-c4ccc(S(=O)(=O)[O-])cc4)c4ccc([nH]4)c(-c4ccc(S(=O)(=O)[O-])cc4)c4nc(c(-c5ccc(S(=O)(=O)[O-])cc5)c5ccc2[nH]5)C=C4)C=C3)cc1)S(C)(=O)=O
REMARK SMILES IDX 18 1 17 2 15 3 16 4 14 6 13 7 8 8 9 9 10 10 12 11 11 12 6 13
REMARK SMILES IDX 5 14 7 16 4 17 2 18 1 19 3 20 84 21 85 22 86 23 87 24 19 25
REMARK SMILES IDX 20 26 21 27 22 28 23 30 24 31 25 32 83 33 26 34 82 35 27 36
REMARK SMILES IDX 28 37 29 38 76 39 30 40 81 41 75 42 77 43 31 44 80 45 74 46
REMARK SMILES IDX 73 47 32 49 62 50 43 51 61 52 44 53 47 54 60 55 78 56 45 57
REMARK SMILES IDX 46 58 59 60 79 61 48 62 33 63 34 64 42 65 35 66 41 67 36 68
REMARK SMILES IDX 37 69 38 70 39 71 40 72 63 73 64 74 72 75 65 76 71 77 66 78
REMARK SMILES IDX 67 79 68 80 69 81 70 82 49 83 50 84 58 85 51 86 57 87 52 88
REMARK SMILES IDX 53 89 54 90 55 91 56 92
REMARK H PARENT 17 5 5 15 21 29 77 48 47 59
REMARK Flexibility Score: inf
ROOT
ATOM      1  C   UNL A   1      34.515  29.401  27.296  1.00  0.00     0.117 C 
ENDROOT
BRANCH   1   2
ATOM      2  N   UNL A   1      33.284  28.911  27.906  1.00  0.00    -0.356 N 
ATOM      3  C   UNL A   1      32.308  28.084  27.432  1.00  0.00     0.222 C 
ATOM      4  O   UNL A   1      31.369  27.805  28.183  1.00  0.00    -0.275 OA
ATOM      5  H   UNL A   1      33.128  29.236  28.822  1.00  0.00     0.163 HD
BRANCH   3   6
ATOM      6  C   UNL A   1      32.356  27.511  26.029  1.00  0.00     0.125 C 
BRANCH   6   7
ATOM      7  C   UNL A   1      31.171  27.981  25.149  1.00  0.00     0.096 C 
ATOM      8  N   UNL A   1      30.366  26.851  24.616  1.00  0.00    -0.321 N 
ATOM      9  C   UNL A   1      29.600  27.067  23.384  1.00  0.00     0.121 C 
ATOM     10  C   UNL A   1      30.341  27.821  22.300  1.00  0.00     0.022 C 
ATOM     11  C   UNL A   1      31.738  28.868  24.032  1.00  0.00     0.026 C 
ATOM     12  C   UNL A   1      30.825  29.141  22.857  1.00  0.00     0.004 C 
BRANCH   8  13
ATOM     13  C   UNL A   1      30.079  25.690  25.281  1.00  0.00     0.317 C 
ATOM     14  N   UNL A   1      30.431  24.487  24.764  1.00  0.00    -0.336 N 
ATOM     15  H   UNL A   1      30.058  23.720  25.254  1.00  0.00     0.165 HD
ATOM     16  O   UNL A   1      29.613  25.681  26.422  1.00  0.00    -0.249 OA
BRANCH  14  17
ATOM     17  C   UNL A   1      31.254  24.112  23.626  1.00  0.00     0.140 C 
BRANCH  17  18
ATOM     18  C   UNL A   1      32.586  23.388  23.922  1.00  0.00     0.084 C 
ATOM     19  C   UNL A   1      32.652  22.862  25.360  1.00  0.00     0.030 C 
ATOM     20  C   UNL A   1      32.646  22.180  22.953  1.00  0.00     0.030 C 
BRANCH  18  21
ATOM     21  S   UNL A   1      34.047  24.415  23.545  1.00  0.00     0.154 S 
ATOM     22  C   UNL A   1      33.499  25.841  22.631  1.00  0.00     0.158 C 
ATOM     23  O   UNL A   1      34.547  24.933  24.810  1.00  0.00    -0.229 OA
ATOM     24  O   UNL A   1      34.932  23.646  22.694  1.00  0.00    -0.229 OA
ENDBRANCH  18  21
ENDBRANCH  17  18
ENDBRANCH  14  17
ENDBRANCH   8  13
ENDBRANCH   6   7
ENDBRANCH   3   6
ENDBRANCH   1   2
BRANCH   1  25
ATOM     25  C   UNL A   1      34.718  30.909  27.474  1.00  0.00     0.042 C 
BRANCH  25  26
ATOM     26  C   UNL A   1      35.940  31.284  28.300  1.00  0.00     0.118 C 
BRANCH  26  27
ATOM     27  N   UNL A   1      35.865  30.709  29.631  1.00  0.00    -0.352 N 
ATOM     28  C   UNL A   1      36.712  29.816  30.244  1.00  0.00     0.251 C 
ATOM     29  H   UNL A   1      35.097  31.002  30.174  1.00  0.00     0.163 HD
ATOM     30  O   UNL A   1      36.311  29.201  31.229  1.00  0.00    -0.269 OA
BRANCH  28  31
ATOM     31  C   UNL A   1      38.084  29.577  29.730  1.00  0.00     0.039 A 
ATOM     32  C   UNL A   1      39.125  29.399  30.648  1.00  0.00     0.014 A 
ATOM     33  C   UNL A   1      38.370  29.587  28.362  1.00  0.00     0.014 A 
ATOM     34  C   UNL A   1      40.429  29.179  30.195  1.00  0.00     0.010 A 
ATOM     35  C   UNL A   1      39.655  29.285  27.909  1.00  0.00     0.010 A 
ATOM     36  C   UNL A   1      40.702  29.085  28.821  1.00  0.00    -0.014 A 
BRANCH  36  37
ATOM     37  C   UNL A   1      42.066  28.758  28.326  1.00  0.00     0.031 A 
ATOM     38  C   UNL A   1      42.413  27.359  27.887  1.00  0.00     0.074 A 
ATOM     39  C   UNL A   1      43.021  29.709  28.337  1.00  0.00     0.049 A 
ATOM     40  N   UNL A   1      43.562  26.885  27.471  1.00  0.00    -0.248 NA
ATOM     41  C   UNL A   1      41.337  26.358  27.946  1.00  0.00     0.031 C 
ATOM     42  C   UNL A   1      42.828  31.090  28.786  1.00  0.00     0.029 A 
ATOM     43  N   UNL A   1      44.344  29.659  27.975  1.00  0.00    -0.354 N 
ATOM     44  C   UNL A   1      43.351  25.532  27.236  1.00  0.00     0.074 A 
ATOM     45  C   UNL A   1      41.979  25.252  27.602  1.00  0.00     0.031 C 
ATOM     46  C   UNL A   1      43.984  31.759  28.658  1.00  0.00     0.029 A 
ATOM     47  C   UNL A   1      45.011  30.846  28.164  1.00  0.00     0.049 A 
ATOM     48  H   UNL A   1      44.774  28.850  27.614  1.00  0.00     0.167 HD
ATOM     49  C   UNL A   1      44.215  24.608  26.744  1.00  0.00     0.031 A 
ATOM     50  C   UNL A   1      46.308  31.168  27.984  1.00  0.00     0.031 A 
ATOM     51  C   UNL A   1      45.583  24.890  26.395  1.00  0.00     0.049 A 
ATOM     52  C   UNL A   1      47.256  30.128  27.461  1.00  0.00     0.074 A 
ATOM     53  C   UNL A   1      46.519  24.042  25.828  1.00  0.00     0.029 A 
ATOM     54  N   UNL A   1      46.220  26.107  26.599  1.00  0.00    -0.354 N 
ATOM     55  N   UNL A   1      47.014  28.877  27.152  1.00  0.00    -0.248 NA
ATOM     56  C   UNL A   1      48.649  30.544  27.256  1.00  0.00     0.031 C 
ATOM     57  C   UNL A   1      47.739  24.725  25.756  1.00  0.00     0.029 A 
ATOM     58  C   UNL A   1      47.548  26.019  26.213  1.00  0.00     0.049 A 
ATOM     59  H   UNL A   1      45.790  26.914  26.964  1.00  0.00     0.167 HD
ATOM     60  C   UNL A   1      48.224  28.354  26.712  1.00  0.00     0.074 A 
ATOM     61  C   UNL A   1      49.190  29.435  26.768  1.00  0.00     0.031 C 
ATOM     62  C   UNL A   1      48.508  27.093  26.301  1.00  0.00     0.031 A 
BRANCH  49  63
ATOM     63  C   UNL A   1      43.704  23.196  26.593  1.00  0.00    -0.014 A 
ATOM     64  C   UNL A   1      42.963  22.571  27.615  1.00  0.00     0.010 A 
ATOM     65  C   UNL A   1      43.968  22.479  25.412  1.00  0.00     0.010 A 
ATOM     66  C   UNL A   1      42.562  21.238  27.488  1.00  0.00     0.020 A 
ATOM     67  C   UNL A   1      43.540  21.156  25.267  1.00  0.00     0.020 A 
ATOM     68  C   UNL A   1      42.865  20.535  26.319  1.00  0.00     0.054 A 
BRANCH  68  69
ATOM     69  S   UNL A   1      42.362  18.797  26.194  1.00  0.00     0.124 S 
ATOM     70  O   UNL A   1      40.963  18.917  25.791  1.00  0.00    -0.237 OA
ATOM     71  O   UNL A   1      43.267  18.273  25.173  1.00  0.00    -0.237 OA
ATOM     72  O   UNL A   1      42.580  18.274  27.540  1.00  0.00    -0.744 OA
ENDBRANCH  68  69
ENDBRANCH  49  63
BRANCH  50  73
ATOM     73  C   UNL A   1      46.763  32.545  28.317  1.00  0.00    -0.014 A 
ATOM     74  C   UNL A   1      47.188  32.867  29.616  1.00  0.00     0.010 A 
ATOM     75  C   UNL A   1      46.854  33.520  27.304  1.00  0.00     0.010 A 
ATOM     76  C   UNL A   1      47.711  34.134  29.895  1.00  0.00     0.020 A 
ATOM     77  C   UNL A   1      47.401  34.777  27.572  1.00  0.00     0.020 A 
ATOM     78  C   UNL A   1      47.827  35.076  28.867  1.00  0.00     0.054 A 
BRANCH  78  79
ATOM     79  S   UNL A   1      48.618  36.670  29.227  1.00  0.00     0.124 S 
ATOM     80  O   UNL A   1      49.357  36.374  30.451  1.00  0.00    -0.237 OA
ATOM     81  O   UNL A   1      49.431  36.892  28.034  1.00  0.00    -0.237 OA
ATOM     82  O   UNL A   1      47.489  37.585  29.380  1.00  0.00    -0.744 OA
ENDBRANCH  78  79
ENDBRANCH  50  73
BRANCH  62  83
ATOM     83  C   UNL A   1      49.928  26.802  25.888  1.00  0.00    -0.014 A 
ATOM     84  C   UNL A   1      50.373  27.079  24.583  1.00  0.00     0.010 A 
ATOM     85  C   UNL A   1      50.845  26.305  26.833  1.00  0.00     0.010 A 
ATOM     86  C   UNL A   1      51.703  26.842  24.224  1.00  0.00     0.020 A 
ATOM     87  C   UNL A   1      52.182  26.093  26.486  1.00  0.00     0.020 A 
ATOM     88  C   UNL A   1      52.600  26.354  25.178  1.00  0.00     0.054 A 
BRANCH  88  89
ATOM     89  S   UNL A   1      54.333  26.108  24.701  1.00  0.00     0.124 S 
ATOM     90  O   UNL A   1      54.538  24.697  25.017  1.00  0.00    -0.237 OA
ATOM     91  O   UNL A   1      54.321  26.438  23.277  1.00  0.00    -0.237 OA
ATOM     92  O   UNL A   1      55.064  27.048  25.546  1.00  0.00    -0.744 OA
ENDBRANCH  88  89
ENDBRANCH  62  83
ENDBRANCH  36  37
ENDBRANCH  28  31
ENDBRANCH  26  27
ENDBRANCH  25  26
ENDBRANCH   1  25
TORSDOF 18
ENDMDL
