MODEL 1
REMARK VINA RESULT:     -13.2      0.000      0.000
REMARK SMILES O=C(NCCCNC(=O)[C@H]1CC2(CCN(C(=O)c3cc4ccccc4[nH]3)CC2)CN1C(=O)C1CC1)c1ccc(-c2c3nc(c(-c4ccc(S(=O)(=O)[O-])cc4)c4ccc([nH]4)c(-c4ccc(S(=O)(=O)[O-])cc4)c4nc(c(-c5ccc(S(=O)(=O)[O-])cc5)c5ccc2[nH]5)C=C4)C=C3)cc1
REMARK SMILES IDX 4 1 3 2 1 3 2 4 36 6 37 7 95 8 38 9 94 10 39 11 40 12 41 13
REMARK SMILES IDX 88 14 42 15 93 16 87 17 89 18 43 19 92 20 86 21 85 22 44 24
REMARK SMILES IDX 74 25 55 26 73 27 56 28 59 29 72 30 90 31 57 32 58 33 71 35
REMARK SMILES IDX 91 36 60 37 45 38 46 39 54 40 47 41 53 42 48 43 49 44 50 45
REMARK SMILES IDX 51 46 52 47 75 48 76 49 84 50 77 51 83 52 78 53 79 54 80 55
REMARK SMILES IDX 81 56 82 57 61 58 62 59 70 60 63 61 69 62 64 63 65 64 66 65
REMARK SMILES IDX 67 66 68 67 5 68 6 69 7 70 8 71 9 73 10 74 11 75 30 76 12 77
REMARK SMILES IDX 29 78 13 79 28 80 14 81 27 82 15 83 16 84 17 85 31 86 32 87
REMARK SMILES IDX 33 88 34 89 35 90 18 91 19 92 26 93 20 94 25 95 21 97 24 98
REMARK SMILES IDX 22 99 23 100
REMARK H PARENT 3 5 89 23 59 34 7 72 26 96
REMARK Flexibility Score: inf
ROOT
ATOM      1  C   UNL A   1      35.376  30.779  27.913  1.00  0.00     0.118 C 
ENDROOT
BRANCH   1   2
ATOM      2  N   UNL A   1      35.491  30.977  29.348  1.00  0.00    -0.352 N 
ATOM      3  O   UNL A   1      36.167  30.587  31.442  1.00  0.00    -0.269 OA
ATOM      4  C   UNL A   1      36.430  30.532  30.242  1.00  0.00     0.251 C 
ATOM      5  H   UNL A   1      34.774  31.523  29.745  1.00  0.00     0.163 HD
BRANCH   4   6
ATOM      6  C   UNL A   1      37.740  30.001  29.800  1.00  0.00     0.039 A 
ATOM      7  C   UNL A   1      38.145  30.054  28.462  1.00  0.00     0.014 A 
ATOM      8  C   UNL A   1      38.636  29.550  30.777  1.00  0.00     0.014 A 
ATOM      9  C   UNL A   1      39.411  29.592  28.094  1.00  0.00     0.010 A 
ATOM     10  C   UNL A   1      39.919  29.130  30.414  1.00  0.00     0.010 A 
ATOM     11  C   UNL A   1      40.313  29.138  29.067  1.00  0.00    -0.014 A 
BRANCH  11  12
ATOM     12  C   UNL A   1      41.690  28.730  28.691  1.00  0.00     0.031 A 
ATOM     13  C   UNL A   1      42.799  29.740  28.633  1.00  0.00     0.074 A 
ATOM     14  C   UNL A   1      41.930  27.450  28.352  1.00  0.00     0.049 A 
ATOM     15  N   UNL A   1      44.047  29.570  28.278  1.00  0.00    -0.248 NA
ATOM     16  C   UNL A   1      42.462  31.119  29.016  1.00  0.00     0.031 C 
ATOM     17  C   UNL A   1      40.934  26.378  28.341  1.00  0.00     0.029 A 
ATOM     18  N   UNL A   1      43.086  26.836  27.939  1.00  0.00    -0.354 N 
ATOM     19  C   UNL A   1      44.641  30.823  28.370  1.00  0.00     0.074 A 
ATOM     20  C   UNL A   1      43.611  31.745  28.803  1.00  0.00     0.031 C 
ATOM     21  C   UNL A   1      41.521  25.238  27.944  1.00  0.00     0.029 A 
ATOM     22  C   UNL A   1      42.924  25.505  27.640  1.00  0.00     0.049 A 
ATOM     23  H   UNL A   1      43.949  27.305  27.864  1.00  0.00     0.167 HD
ATOM     24  C   UNL A   1      45.925  31.174  28.119  1.00  0.00     0.031 A 
ATOM     25  C   UNL A   1      43.796  24.601  27.154  1.00  0.00     0.031 A 
ATOM     26  C   UNL A   1      46.950  30.263  27.689  1.00  0.00     0.049 A 
ATOM     27  C   UNL A   1      45.212  25.009  26.879  1.00  0.00     0.074 A 
ATOM     28  C   UNL A   1      48.290  30.520  27.458  1.00  0.00     0.029 A 
ATOM     29  N   UNL A   1      46.748  28.918  27.414  1.00  0.00    -0.354 N 
ATOM     30  N   UNL A   1      45.769  26.187  27.028  1.00  0.00    -0.248 NA
ATOM     31  C   UNL A   1      46.119  23.970  26.373  1.00  0.00     0.031 C 
ATOM     32  C   UNL A   1      48.892  29.336  27.012  1.00  0.00     0.029 A 
ATOM     33  C   UNL A   1      47.932  28.336  26.995  1.00  0.00     0.049 A 
ATOM     34  H   UNL A   1      45.887  28.447  27.503  1.00  0.00     0.167 HD
ATOM     35  C   UNL A   1      47.094  26.029  26.645  1.00  0.00     0.074 A 
ATOM     36  C   UNL A   1      47.260  24.640  26.265  1.00  0.00     0.031 C 
ATOM     37  C   UNL A   1      48.084  26.955  26.616  1.00  0.00     0.031 A 
BRANCH  24  38
ATOM     38  C   UNL A   1      46.275  32.627  28.280  1.00  0.00    -0.014 A 
ATOM     39  C   UNL A   1      46.164  33.522  27.203  1.00  0.00     0.010 A 
ATOM     40  C   UNL A   1      46.729  33.099  29.525  1.00  0.00     0.010 A 
ATOM     41  C   UNL A   1      46.557  34.855  27.351  1.00  0.00     0.020 A 
ATOM     42  C   UNL A   1      47.108  34.435  29.681  1.00  0.00     0.020 A 
ATOM     43  C   UNL A   1      47.043  35.298  28.585  1.00  0.00     0.054 A 
BRANCH  43  44
ATOM     44  S   UNL A   1      47.582  37.022  28.749  1.00  0.00     0.124 S 
ATOM     45  O   UNL A   1      48.877  36.994  28.074  1.00  0.00    -0.237 OA
ATOM     46  O   UNL A   1      46.530  37.762  28.057  1.00  0.00    -0.237 OA
ATOM     47  O   UNL A   1      47.636  37.228  30.195  1.00  0.00    -0.744 OA
ENDBRANCH  43  44
ENDBRANCH  24  38
BRANCH  25  48
ATOM     48  C   UNL A   1      43.323  23.215  26.899  1.00  0.00    -0.014 A 
ATOM     49  C   UNL A   1      43.306  22.699  25.593  1.00  0.00     0.010 A 
ATOM     50  C   UNL A   1      42.981  22.379  27.977  1.00  0.00     0.010 A 
ATOM     51  C   UNL A   1      42.971  21.360  25.371  1.00  0.00     0.020 A 
ATOM     52  C   UNL A   1      42.662  21.036  27.759  1.00  0.00     0.020 A 
ATOM     53  C   UNL A   1      42.661  20.535  26.456  1.00  0.00     0.054 A 
BRANCH  53  54
ATOM     54  S   UNL A   1      42.349  18.771  26.162  1.00  0.00     0.124 S 
ATOM     55  O   UNL A   1      42.561  18.200  27.488  1.00  0.00    -0.237 OA
ATOM     56  O   UNL A   1      40.969  18.765  25.683  1.00  0.00    -0.237 OA
ATOM     57  O   UNL A   1      43.348  18.415  25.156  1.00  0.00    -0.744 OA
ENDBRANCH  53  54
ENDBRANCH  25  48
BRANCH  37  58
ATOM     58  C   UNL A   1      49.445  26.503  26.169  1.00  0.00    -0.014 A 
ATOM     59  C   UNL A   1      49.876  26.719  24.849  1.00  0.00     0.010 A 
ATOM     60  C   UNL A   1      50.330  25.933  27.101  1.00  0.00     0.010 A 
ATOM     61  C   UNL A   1      51.173  26.367  24.467  1.00  0.00     0.020 A 
ATOM     62  C   UNL A   1      51.632  25.593  26.724  1.00  0.00     0.020 A 
ATOM     63  C   UNL A   1      52.044  25.806  25.407  1.00  0.00     0.054 A 
BRANCH  63  64
ATOM     64  S   UNL A   1      53.749  25.427  24.913  1.00  0.00     0.124 S 
ATOM     65  O   UNL A   1      53.862  26.141  23.645  1.00  0.00    -0.237 OA
ATOM     66  O   UNL A   1      54.537  25.974  26.016  1.00  0.00    -0.237 OA
ATOM     67  O   UNL A   1      53.760  23.969  24.813  1.00  0.00    -0.744 OA
ENDBRANCH  63  64
ENDBRANCH  37  58
ENDBRANCH  11  12
ENDBRANCH   4   6
ENDBRANCH   1   2
BRANCH   1  68
ATOM     68  C   UNL A   1      34.639  29.483  27.576  1.00  0.00     0.042 C 
BRANCH  68  69
ATOM     69  C   UNL A   1      33.300  29.688  26.869  1.00  0.00     0.117 C 
BRANCH  69  70
ATOM     70  N   UNL A   1      32.281  28.723  27.263  1.00  0.00    -0.354 N 
ATOM     71  C   UNL A   1      31.968  27.511  26.701  1.00  0.00     0.242 C 
ATOM     72  H   UNL A   1      31.740  28.978  28.045  1.00  0.00     0.163 HD
ATOM     73  O   UNL A   1      31.116  26.809  27.246  1.00  0.00    -0.273 OA
BRANCH  71  74
ATOM     74  C   UNL A   1      32.770  27.057  25.470  1.00  0.00     0.175 C 
ATOM     75  C   UNL A   1      33.231  25.622  25.774  1.00  0.00     0.044 C 
ATOM     76  N   UNL A   1      32.105  26.916  24.180  1.00  0.00    -0.330 N 
ATOM     77  C   UNL A   1      33.438  24.926  24.414  1.00  0.00    -0.006 C 
ATOM     78  C   UNL A   1      32.658  25.808  23.426  1.00  0.00     0.127 C 
ATOM     79  C   UNL A   1      32.857  23.497  24.422  1.00  0.00     0.030 C 
ATOM     80  C   UNL A   1      34.935  24.844  24.039  1.00  0.00     0.030 C 
ATOM     81  C   UNL A   1      33.642  22.569  25.339  1.00  0.00     0.120 C 
ATOM     82  C   UNL A   1      35.717  23.839  24.892  1.00  0.00     0.120 C 
ATOM     83  N   UNL A   1      35.054  22.538  24.963  1.00  0.00    -0.337 N 
ATOM     84  C   UNL A   1      35.863  21.399  25.072  1.00  0.00     0.270 C 
ATOM     85  O   UNL A   1      37.082  21.489  25.209  1.00  0.00    -0.267 OA
BRANCH  76  86
ATOM     86  C   UNL A   1      31.375  27.864  23.481  1.00  0.00     0.226 C 
ATOM     87  O   UNL A   1      31.830  28.970  23.219  1.00  0.00    -0.275 OA
BRANCH  86  88
ATOM     88  C   UNL A   1      30.054  27.497  22.907  1.00  0.00     0.079 C 
ATOM     89  C   UNL A   1      28.897  26.890  23.654  1.00  0.00     0.014 C 
ATOM     90  C   UNL A   1      28.854  28.340  23.299  1.00  0.00     0.014 C 
ENDBRANCH  86  88
ENDBRANCH  76  86
BRANCH  84  91
ATOM     91  C   UNL A   1      35.215  20.106  25.013  1.00  0.00     0.105 A 
ATOM     92  C   UNL A   1      35.744  18.899  24.589  1.00  0.00     0.042 A 
ATOM     93  N   UNL A   1      33.885  19.873  25.286  1.00  0.00    -0.351 N 
ATOM     94  C   UNL A   1      34.740  17.902  24.708  1.00  0.00     0.000 A 
ATOM     95  C   UNL A   1      33.584  18.537  25.158  1.00  0.00     0.046 A 
ATOM     96  H   UNL A   1      33.238  20.570  25.540  1.00  0.00     0.167 HD
ATOM     97  C   UNL A   1      34.703  16.514  24.473  1.00  0.00     0.010 A 
ATOM     98  C   UNL A   1      32.387  17.853  25.391  1.00  0.00     0.026 A 
ATOM     99  C   UNL A   1      33.515  15.812  24.707  1.00  0.00     0.001 A 
ATOM    100  C   UNL A   1      32.376  16.474  25.159  1.00  0.00     0.002 A 
ENDBRANCH  84  91
ENDBRANCH  71  74
ENDBRANCH  69  70
ENDBRANCH  68  69
ENDBRANCH   1  68
TORSDOF 16
ENDMDL
MODEL 2
REMARK VINA RESULT:     -13.1      0.777      7.836
REMARK SMILES O=C(NCCCNC(=O)[C@H]1CC2(CCN(C(=O)c3cc4ccccc4[nH]3)CC2)CN1C(=O)C1CC1)c1ccc(-c2c3nc(c(-c4ccc(S(=O)(=O)[O-])cc4)c4ccc([nH]4)c(-c4ccc(S(=O)(=O)[O-])cc4)c4nc(c(-c5ccc(S(=O)(=O)[O-])cc5)c5ccc2[nH]5)C=C4)C=C3)cc1
REMARK SMILES IDX 4 1 3 2 1 3 2 4 36 6 37 7 95 8 38 9 94 10 39 11 40 12 41 13
REMARK SMILES IDX 88 14 42 15 93 16 87 17 89 18 43 19 92 20 86 21 85 22 44 24
REMARK SMILES IDX 74 25 55 26 73 27 56 28 59 29 72 30 90 31 57 32 58 33 71 35
REMARK SMILES IDX 91 36 60 37 45 38 46 39 54 40 47 41 53 42 48 43 49 44 50 45
REMARK SMILES IDX 51 46 52 47 75 48 76 49 84 50 77 51 83 52 78 53 79 54 80 55
REMARK SMILES IDX 81 56 82 57 61 58 62 59 70 60 63 61 69 62 64 63 65 64 66 65
REMARK SMILES IDX 67 66 68 67 5 68 6 69 7 70 8 71 9 73 10 74 11 75 30 76 12 77
REMARK SMILES IDX 29 78 13 79 28 80 14 81 27 82 15 83 16 84 17 85 31 86 32 87
REMARK SMILES IDX 33 88 34 89 35 90 18 91 19 92 26 93 20 94 25 95 21 97 24 98
REMARK SMILES IDX 22 99 23 100
REMARK H PARENT 3 5 89 23 59 34 7 72 26 96
REMARK Flexibility Score: inf
ROOT
ATOM      1  C   UNL A   1      35.268  30.145  27.635  1.00  0.00     0.118 C 
ENDROOT
BRANCH   1   2
ATOM      2  N   UNL A   1      35.413  30.277  29.075  1.00  0.00    -0.352 N 
ATOM      3  O   UNL A   1      36.186  29.835  31.125  1.00  0.00    -0.269 OA
ATOM      4  C   UNL A   1      36.413  29.863  29.917  1.00  0.00     0.251 C 
ATOM      5  H   UNL A   1      34.669  30.741  29.521  1.00  0.00     0.163 HD
BRANCH   4   6
ATOM      6  C   UNL A   1      37.747  29.465  29.410  1.00  0.00     0.039 A 
ATOM      7  C   UNL A   1      38.150  29.736  28.099  1.00  0.00     0.014 A 
ATOM      8  C   UNL A   1      38.662  28.913  30.315  1.00  0.00     0.014 A 
ATOM      9  C   UNL A   1      39.435  29.392  27.674  1.00  0.00     0.010 A 
ATOM     10  C   UNL A   1      39.963  28.611  29.903  1.00  0.00     0.010 A 
ATOM     11  C   UNL A   1      40.356  28.838  28.575  1.00  0.00    -0.014 A 
BRANCH  11  12
ATOM     12  C   UNL A   1      41.751  28.554  28.152  1.00  0.00     0.031 A 
ATOM     13  C   UNL A   1      42.160  27.168  27.744  1.00  0.00     0.074 A 
ATOM     14  C   UNL A   1      42.664  29.542  28.182  1.00  0.00     0.049 A 
ATOM     15  N   UNL A   1      43.343  26.731  27.393  1.00  0.00    -0.248 NA
ATOM     16  C   UNL A   1      41.109  26.141  27.736  1.00  0.00     0.031 C 
ATOM     17  C   UNL A   1      42.401  30.924  28.585  1.00  0.00     0.029 A 
ATOM     18  N   UNL A   1      44.004  29.531  27.881  1.00  0.00    -0.354 N 
ATOM     19  C   UNL A   1      43.186  25.373  27.146  1.00  0.00     0.074 A 
ATOM     20  C   UNL A   1      41.795  25.057  27.400  1.00  0.00     0.031 C 
ATOM     21  C   UNL A   1      43.540  31.629  28.503  1.00  0.00     0.029 A 
ATOM     22  C   UNL A   1      44.620  30.743  28.077  1.00  0.00     0.049 A 
ATOM     23  H   UNL A   1      44.477  28.731  27.555  1.00  0.00     0.167 HD
ATOM     24  C   UNL A   1      44.113  24.470  26.744  1.00  0.00     0.031 A 
ATOM     25  C   UNL A   1      45.912  31.103  27.951  1.00  0.00     0.031 A 
ATOM     26  C   UNL A   1      45.494  24.779  26.492  1.00  0.00     0.049 A 
ATOM     27  C   UNL A   1      46.924  30.089  27.508  1.00  0.00     0.074 A 
ATOM     28  C   UNL A   1      46.495  23.939  26.034  1.00  0.00     0.029 A 
ATOM     29  N   UNL A   1      46.074  26.023  26.686  1.00  0.00    -0.354 N 
ATOM     30  N   UNL A   1      46.744  28.822  27.223  1.00  0.00    -0.248 NA
ATOM     31  C   UNL A   1      48.312  30.551  27.367  1.00  0.00     0.031 C 
ATOM     32  C   UNL A   1      47.689  24.670  25.982  1.00  0.00     0.029 A 
ATOM     33  C   UNL A   1      47.423  25.971  26.378  1.00  0.00     0.049 A 
ATOM     34  H   UNL A   1      45.597  26.827  26.998  1.00  0.00     0.167 HD
ATOM     35  C   UNL A   1      47.993  28.336  26.858  1.00  0.00     0.074 A 
ATOM     36  C   UNL A   1      48.920  29.446  26.950  1.00  0.00     0.031 C 
ATOM     37  C   UNL A   1      48.336  27.081  26.478  1.00  0.00     0.031 A 
BRANCH  24  38
ATOM     38  C   UNL A   1      43.651  23.049  26.583  1.00  0.00    -0.014 A 
ATOM     39  C   UNL A   1      43.100  22.340  27.664  1.00  0.00     0.010 A 
ATOM     40  C   UNL A   1      43.780  22.413  25.335  1.00  0.00     0.010 A 
ATOM     41  C   UNL A   1      42.738  20.999  27.516  1.00  0.00     0.020 A 
ATOM     42  C   UNL A   1      43.404  21.077  25.179  1.00  0.00     0.020 A 
ATOM     43  C   UNL A   1      42.910  20.371  26.278  1.00  0.00     0.054 A 
BRANCH  43  44
ATOM     44  S   UNL A   1      42.468  18.619  26.112  1.00  0.00     0.124 S 
ATOM     45  O   UNL A   1      43.380  18.181  25.059  1.00  0.00    -0.237 OA
ATOM     46  O   UNL A   1      42.744  18.084  27.443  1.00  0.00    -0.237 OA
ATOM     47  O   UNL A   1      41.055  18.655  25.740  1.00  0.00    -0.744 OA
ENDBRANCH  43  44
ENDBRANCH  24  38
BRANCH  25  48
ATOM     48  C   UNL A   1      46.299  32.503  28.262  1.00  0.00    -0.014 A 
ATOM     49  C   UNL A   1      46.279  33.485  27.259  1.00  0.00     0.010 A 
ATOM     50  C   UNL A   1      46.595  32.873  29.586  1.00  0.00     0.010 A 
ATOM     51  C   UNL A   1      46.532  34.823  27.579  1.00  0.00     0.020 A 
ATOM     52  C   UNL A   1      46.832  34.211  29.912  1.00  0.00     0.020 A 
ATOM     53  C   UNL A   1      46.797  35.178  28.905  1.00  0.00     0.054 A 
BRANCH  53  54
ATOM     54  S   UNL A   1      47.001  36.933  29.324  1.00  0.00     0.124 S 
ATOM     55  O   UNL A   1      46.481  37.592  28.130  1.00  0.00    -0.237 OA
ATOM     56  O   UNL A   1      46.186  37.071  30.529  1.00  0.00    -0.237 OA
ATOM     57  O   UNL A   1      48.440  37.064  29.539  1.00  0.00    -0.744 OA
ENDBRANCH  53  54
ENDBRANCH  25  48
BRANCH  37  58
ATOM     58  C   UNL A   1      49.773  26.833  26.118  1.00  0.00    -0.014 A 
ATOM     59  C   UNL A   1      50.678  26.338  27.073  1.00  0.00     0.010 A 
ATOM     60  C   UNL A   1      50.200  27.017  24.791  1.00  0.00     0.010 A 
ATOM     61  C   UNL A   1      51.992  26.035  26.707  1.00  0.00     0.020 A 
ATOM     62  C   UNL A   1      51.510  26.702  24.419  1.00  0.00     0.020 A 
ATOM     63  C   UNL A   1      52.400  26.219  25.381  1.00  0.00     0.054 A 
BRANCH  63  64
ATOM     64  S   UNL A   1      54.087  25.747  24.906  1.00  0.00     0.124 S 
ATOM     65  O   UNL A   1      54.027  24.291  24.981  1.00  0.00    -0.237 OA
ATOM     66  O   UNL A   1      54.213  26.303  23.560  1.00  0.00    -0.237 OA
ATOM     67  O   UNL A   1      54.921  26.391  25.917  1.00  0.00    -0.744 OA
ENDBRANCH  63  64
ENDBRANCH  37  58
ENDBRANCH  11  12
ENDBRANCH   4   6
ENDBRANCH   1   2
BRANCH   1  68
ATOM     68  C   UNL A   1      34.379  28.960  27.261  1.00  0.00     0.042 C 
BRANCH  68  69
ATOM     69  C   UNL A   1      33.016  29.352  26.693  1.00  0.00     0.117 C 
BRANCH  69  70
ATOM     70  N   UNL A   1      31.926  28.505  27.161  1.00  0.00    -0.354 N 
ATOM     71  C   UNL A   1      31.394  27.378  26.589  1.00  0.00     0.242 C 
ATOM     72  H   UNL A   1      31.513  28.783  28.010  1.00  0.00     0.163 HD
ATOM     73  O   UNL A   1      30.520  26.761  27.199  1.00  0.00    -0.273 OA
BRANCH  71  74
ATOM     74  C   UNL A   1      31.989  26.894  25.256  1.00  0.00     0.175 C 
ATOM     75  C   UNL A   1      32.605  25.515  25.545  1.00  0.00     0.044 C 
ATOM     76  N   UNL A   1      31.112  26.625  24.123  1.00  0.00    -0.330 N 
ATOM     77  C   UNL A   1      32.611  24.745  24.210  1.00  0.00    -0.006 C 
ATOM     78  C   UNL A   1      31.599  25.506  23.339  1.00  0.00     0.127 C 
ATOM     79  C   UNL A   1      32.150  23.285  24.403  1.00  0.00     0.030 C 
ATOM     80  C   UNL A   1      34.016  24.733  23.566  1.00  0.00     0.030 C 
ATOM     81  C   UNL A   1      33.158  22.472  25.206  1.00  0.00     0.120 C 
ATOM     82  C   UNL A   1      35.014  23.840  24.310  1.00  0.00     0.120 C 
ATOM     83  N   UNL A   1      34.475  22.506  24.574  1.00  0.00    -0.337 N 
ATOM     84  C   UNL A   1      35.373  21.431  24.591  1.00  0.00     0.270 C 
ATOM     85  O   UNL A   1      36.586  21.608  24.492  1.00  0.00    -0.267 OA
BRANCH  76  86
ATOM     86  C   UNL A   1      30.197  27.476  23.522  1.00  0.00     0.226 C 
ATOM     87  O   UNL A   1      29.003  27.214  23.474  1.00  0.00    -0.275 OA
BRANCH  86  88
ATOM     88  C   UNL A   1      30.642  28.809  23.039  1.00  0.00     0.079 C 
ATOM     89  C   UNL A   1      29.826  29.781  22.231  1.00  0.00     0.014 C 
ATOM     90  C   UNL A   1      30.031  30.037  23.688  1.00  0.00     0.014 C 
ENDBRANCH  86  88
ENDBRANCH  76  86
BRANCH  84  91
ATOM     91  C   UNL A   1      34.825  20.099  24.724  1.00  0.00     0.105 A 
ATOM     92  C   UNL A   1      33.500  19.725  24.860  1.00  0.00     0.042 A 
ATOM     93  N   UNL A   1      35.569  18.945  24.842  1.00  0.00    -0.351 N 
ATOM     94  C   UNL A   1      33.440  18.309  24.957  1.00  0.00     0.000 A 
ATOM     95  C   UNL A   1      34.753  17.842  24.934  1.00  0.00     0.046 A 
ATOM     96  H   UNL A   1      36.553  18.915  24.858  1.00  0.00     0.167 HD
ATOM     97  C   UNL A   1      32.390  17.376  25.066  1.00  0.00     0.010 A 
ATOM     98  C   UNL A   1      35.073  16.482  25.010  1.00  0.00     0.026 A 
ATOM     99  C   UNL A   1      32.692  16.012  25.137  1.00  0.00     0.001 A 
ATOM    100  C   UNL A   1      34.014  15.574  25.108  1.00  0.00     0.002 A 
ENDBRANCH  84  91
ENDBRANCH  71  74
ENDBRANCH  69  70
ENDBRANCH  68  69
ENDBRANCH   1  68
TORSDOF 16
ENDMDL
MODEL 3
REMARK VINA RESULT:     -12.2      1.671      2.197
REMARK SMILES O=C(NCCCNC(=O)[C@H]1CC2(CCN(C(=O)c3cc4ccccc4[nH]3)CC2)CN1C(=O)C1CC1)c1ccc(-c2c3nc(c(-c4ccc(S(=O)(=O)[O-])cc4)c4ccc([nH]4)c(-c4ccc(S(=O)(=O)[O-])cc4)c4nc(c(-c5ccc(S(=O)(=O)[O-])cc5)c5ccc2[nH]5)C=C4)C=C3)cc1
REMARK SMILES IDX 4 1 3 2 1 3 2 4 36 6 37 7 95 8 38 9 94 10 39 11 40 12 41 13
REMARK SMILES IDX 88 14 42 15 93 16 87 17 89 18 43 19 92 20 86 21 85 22 44 24
REMARK SMILES IDX 74 25 55 26 73 27 56 28 59 29 72 30 90 31 57 32 58 33 71 35
REMARK SMILES IDX 91 36 60 37 45 38 46 39 54 40 47 41 53 42 48 43 49 44 50 45
REMARK SMILES IDX 51 46 52 47 75 48 76 49 84 50 77 51 83 52 78 53 79 54 80 55
REMARK SMILES IDX 81 56 82 57 61 58 62 59 70 60 63 61 69 62 64 63 65 64 66 65
REMARK SMILES IDX 67 66 68 67 5 68 6 69 7 70 8 71 9 73 10 74 11 75 30 76 12 77
REMARK SMILES IDX 29 78 13 79 28 80 14 81 27 82 15 83 16 84 17 85 31 86 32 87
REMARK SMILES IDX 33 88 34 89 35 90 18 91 19 92 26 93 20 94 25 95 21 97 24 98
REMARK SMILES IDX 22 99 23 100
REMARK H PARENT 3 5 89 23 59 34 7 72 26 96
REMARK Flexibility Score: inf
ROOT
ATOM      1  C   UNL A   1      34.177  31.659  27.705  1.00  0.00     0.118 C 
ENDROOT
BRANCH   1   2
ATOM      2  N   UNL A   1      34.123  32.086  29.093  1.00  0.00    -0.352 N 
ATOM      3  O   UNL A   1      34.578  32.071  31.281  1.00  0.00    -0.269 OA
ATOM      4  C   UNL A   1      34.975  31.845  30.140  1.00  0.00     0.251 C 
ATOM      5  H   UNL A   1      33.343  32.642  29.321  1.00  0.00     0.163 HD
BRANCH   4   6
ATOM      6  C   UNL A   1      36.349  31.334  29.927  1.00  0.00     0.039 A 
ATOM      7  C   UNL A   1      37.108  31.698  28.810  1.00  0.00     0.014 A 
ATOM      8  C   UNL A   1      36.934  30.564  30.940  1.00  0.00     0.014 A 
ATOM      9  C   UNL A   1      38.419  31.237  28.672  1.00  0.00     0.010 A 
ATOM     10  C   UNL A   1      38.262  30.142  30.823  1.00  0.00     0.010 A 
ATOM     11  C   UNL A   1      39.011  30.466  29.682  1.00  0.00    -0.014 A 
BRANCH  11  12
ATOM     12  C   UNL A   1      40.433  30.050  29.581  1.00  0.00     0.031 A 
ATOM     13  C   UNL A   1      41.539  31.033  29.832  1.00  0.00     0.074 A 
ATOM     14  C   UNL A   1      40.727  28.789  29.214  1.00  0.00     0.049 A 
ATOM     15  N   UNL A   1      42.832  30.856  29.741  1.00  0.00    -0.248 NA
ATOM     16  C   UNL A   1      41.142  32.392  30.229  1.00  0.00     0.031 C 
ATOM     17  C   UNL A   1      39.745  27.745  28.916  1.00  0.00     0.029 A 
ATOM     18  N   UNL A   1      41.939  28.175  29.015  1.00  0.00    -0.354 N 
ATOM     19  C   UNL A   1      43.405  32.085  30.044  1.00  0.00     0.074 A 
ATOM     20  C   UNL A   1      42.316  33.002  30.310  1.00  0.00     0.031 C 
ATOM     21  C   UNL A   1      40.392  26.620  28.576  1.00  0.00     0.029 A 
ATOM     22  C   UNL A   1      41.831  26.871  28.597  1.00  0.00     0.049 A 
ATOM     23  H   UNL A   1      42.802  28.625  29.159  1.00  0.00     0.167 HD
ATOM     24  C   UNL A   1      44.717  32.420  30.098  1.00  0.00     0.031 A 
ATOM     25  C   UNL A   1      42.777  25.979  28.247  1.00  0.00     0.031 A 
ATOM     26  C   UNL A   1      45.801  31.513  29.835  1.00  0.00     0.049 A 
ATOM     27  C   UNL A   1      44.224  26.369  28.310  1.00  0.00     0.074 A 
ATOM     28  C   UNL A   1      47.162  31.751  29.914  1.00  0.00     0.029 A 
ATOM     29  N   UNL A   1      45.648  30.195  29.430  1.00  0.00    -0.354 N 
ATOM     30  N   UNL A   1      44.747  27.520  28.656  1.00  0.00    -0.248 NA
ATOM     31  C   UNL A   1      45.207  25.343  27.939  1.00  0.00     0.031 C 
ATOM     32  C   UNL A   1      47.833  30.585  29.525  1.00  0.00     0.029 A 
ATOM     33  C   UNL A   1      46.889  29.613  29.235  1.00  0.00     0.049 A 
ATOM     34  H   UNL A   1      44.784  29.740  29.301  1.00  0.00     0.167 HD
ATOM     35  C   UNL A   1      46.122  27.355  28.555  1.00  0.00     0.074 A 
ATOM     36  C   UNL A   1      46.352  25.990  28.123  1.00  0.00     0.031 C 
ATOM     37  C   UNL A   1      47.105  28.256  28.801  1.00  0.00     0.031 A 
BRANCH  24  38
ATOM     38  C   UNL A   1      45.039  33.850  30.431  1.00  0.00    -0.014 A 
ATOM     39  C   UNL A   1      45.039  34.301  31.762  1.00  0.00     0.010 A 
ATOM     40  C   UNL A   1      45.335  34.755  29.396  1.00  0.00     0.010 A 
ATOM     41  C   UNL A   1      45.274  35.648  32.049  1.00  0.00     0.020 A 
ATOM     42  C   UNL A   1      45.587  36.099  29.681  1.00  0.00     0.020 A 
ATOM     43  C   UNL A   1      45.529  36.542  31.005  1.00  0.00     0.054 A 
BRANCH  43  44
ATOM     44  S   UNL A   1      45.798  38.293  31.393  1.00  0.00     0.124 S 
ATOM     45  O   UNL A   1      46.658  38.208  32.570  1.00  0.00    -0.237 OA
ATOM     46  O   UNL A   1      46.439  38.802  30.183  1.00  0.00    -0.237 OA
ATOM     47  O   UNL A   1      44.450  38.801  31.639  1.00  0.00    -0.744 OA
ENDBRANCH  43  44
ENDBRANCH  24  38
BRANCH  25  48
ATOM     48  C   UNL A   1      42.356  24.625  27.801  1.00  0.00    -0.014 A 
ATOM     49  C   UNL A   1      42.303  24.311  26.434  1.00  0.00     0.010 A 
ATOM     50  C   UNL A   1      42.101  23.620  28.751  1.00  0.00     0.010 A 
ATOM     51  C   UNL A   1      42.019  23.005  26.022  1.00  0.00     0.020 A 
ATOM     52  C   UNL A   1      41.833  22.310  28.344  1.00  0.00     0.020 A 
ATOM     53  C   UNL A   1      41.795  22.012  26.980  1.00  0.00     0.054 A 
BRANCH  53  54
ATOM     54  S   UNL A   1      41.550  20.298  26.432  1.00  0.00     0.124 S 
ATOM     55  O   UNL A   1      41.949  19.542  27.614  1.00  0.00    -0.237 OA
ATOM     56  O   UNL A   1      40.125  20.266  26.110  1.00  0.00    -0.237 OA
ATOM     57  O   UNL A   1      42.441  20.182  25.279  1.00  0.00    -0.744 OA
ENDBRANCH  53  54
ENDBRANCH  25  48
BRANCH  37  58
ATOM     58  C   UNL A   1      48.525  27.800  28.626  1.00  0.00    -0.014 A 
ATOM     59  C   UNL A   1      49.194  27.988  27.404  1.00  0.00     0.010 A 
ATOM     60  C   UNL A   1      49.222  27.256  29.719  1.00  0.00     0.010 A 
ATOM     61  C   UNL A   1      50.539  27.634  27.276  1.00  0.00     0.020 A 
ATOM     62  C   UNL A   1      50.572  26.914  29.598  1.00  0.00     0.020 A 
ATOM     63  C   UNL A   1      51.220  27.099  28.375  1.00  0.00     0.054 A 
BRANCH  63  64
ATOM     64  S   UNL A   1      52.988  26.716  28.214  1.00  0.00     0.124 S 
ATOM     65  O   UNL A   1      53.533  27.991  27.758  1.00  0.00    -0.237 OA
ATOM     66  O   UNL A   1      53.360  26.322  29.571  1.00  0.00    -0.237 OA
ATOM     67  O   UNL A   1      53.017  25.637  27.230  1.00  0.00    -0.744 OA
ENDBRANCH  63  64
ENDBRANCH  37  58
ENDBRANCH  11  12
ENDBRANCH   4   6
ENDBRANCH   1   2
BRANCH   1  68
ATOM     68  C   UNL A   1      33.879  30.168  27.558  1.00  0.00     0.042 C 
BRANCH  68  69
ATOM     69  C   UNL A   1      32.752  29.846  26.579  1.00  0.00     0.117 C 
BRANCH  69  70
ATOM     70  N   UNL A   1      31.877  28.772  27.031  1.00  0.00    -0.354 N 
ATOM     71  C   UNL A   1      31.793  27.475  26.590  1.00  0.00     0.242 C 
ATOM     72  H   UNL A   1      31.258  29.012  27.758  1.00  0.00     0.163 HD
ATOM     73  O   UNL A   1      31.032  26.701  27.172  1.00  0.00    -0.273 OA
BRANCH  71  74
ATOM     74  C   UNL A   1      32.728  27.037  25.451  1.00  0.00     0.175 C 
ATOM     75  C   UNL A   1      33.151  25.597  25.783  1.00  0.00     0.044 C 
ATOM     76  N   UNL A   1      32.212  26.917  24.093  1.00  0.00    -0.330 N 
ATOM     77  C   UNL A   1      33.509  24.921  24.444  1.00  0.00    -0.006 C 
ATOM     78  C   UNL A   1      32.845  25.819  23.388  1.00  0.00     0.127 C 
ATOM     79  C   UNL A   1      32.930  23.493  24.365  1.00  0.00     0.030 C 
ATOM     80  C   UNL A   1      35.038  24.841  24.238  1.00  0.00     0.030 C 
ATOM     81  C   UNL A   1      33.607  22.550  25.351  1.00  0.00     0.120 C 
ATOM     82  C   UNL A   1      35.719  23.822  25.158  1.00  0.00     0.120 C 
ATOM     83  N   UNL A   1      35.052  22.521  25.135  1.00  0.00    -0.337 N 
ATOM     84  C   UNL A   1      35.843  21.379  25.317  1.00  0.00     0.270 C 
ATOM     85  O   UNL A   1      37.039  21.465  25.590  1.00  0.00    -0.267 OA
BRANCH  76  86
ATOM     86  C   UNL A   1      31.566  27.877  23.330  1.00  0.00     0.226 C 
ATOM     87  O   UNL A   1      32.110  28.926  23.011  1.00  0.00    -0.275 OA
BRANCH  86  88
ATOM     88  C   UNL A   1      30.224  27.583  22.761  1.00  0.00     0.079 C 
ATOM     89  C   UNL A   1      29.033  27.059  23.516  1.00  0.00     0.014 C 
ATOM     90  C   UNL A   1      29.078  28.504  23.139  1.00  0.00     0.014 C 
ENDBRANCH  86  88
ENDBRANCH  76  86
BRANCH  84  91
ATOM     91  C   UNL A   1      35.205  20.089  25.166  1.00  0.00     0.105 A 
ATOM     92  C   UNL A   1      35.672  18.974  24.492  1.00  0.00     0.042 A 
ATOM     93  N   UNL A   1      33.936  19.777  25.601  1.00  0.00    -0.351 N 
ATOM     94  C   UNL A   1      34.707  17.938  24.613  1.00  0.00     0.000 A 
ATOM     95  C   UNL A   1      33.630  18.465  25.323  1.00  0.00     0.046 A 
ATOM     96  H   UNL A   1      33.330  20.409  26.051  1.00  0.00     0.167 HD
ATOM     97  C   UNL A   1      34.646  16.599  24.183  1.00  0.00     0.010 A 
ATOM     98  C   UNL A   1      32.489  17.716  25.632  1.00  0.00     0.026 A 
ATOM     99  C   UNL A   1      33.516  15.833  24.489  1.00  0.00     0.001 A 
ATOM    100  C   UNL A   1      32.455  16.386  25.203  1.00  0.00     0.002 A 
ENDBRANCH  84  91
ENDBRANCH  71  74
ENDBRANCH  69  70
ENDBRANCH  68  69
ENDBRANCH   1  68
TORSDOF 16
ENDMDL
