MODEL 1
REMARK VINA RESULT:     -11.2      0.000      0.000
REMARK SMILES O=C(NCCCNC(=O)c1ccccc1Nc1nc(Cl)nc(Nc2ccc(N3CCOCC3=O)cc2)n1)c1ccc(-c2c3nc(c(-c4ccc(S(=O)(=O)[O-])cc4)c4ccc([nH]4)c(-c4ccc(S(=O)(=O)[O-])cc4)c4nc(c(-c5ccc(S(=O)(=O)[O-])cc5)c5ccc2[nH]5)C=C4)C=C3)cc1
REMARK SMILES IDX 6 1 5 2 4 3 3 4 1 5 2 6 38 8 39 9 97 10 40 11 96 12 41 13
REMARK SMILES IDX 42 14 43 15 90 16 44 17 95 18 89 19 91 20 45 21 94 22 88 23
REMARK SMILES IDX 87 24 46 26 76 27 57 28 75 29 58 30 61 31 74 32 92 33 59 34
REMARK SMILES IDX 60 35 73 37 93 38 62 39 47 40 48 41 56 42 49 43 55 44 50 45
REMARK SMILES IDX 51 46 52 47 53 48 54 49 77 50 78 51 86 52 79 53 85 54 80 55
REMARK SMILES IDX 81 56 82 57 83 58 84 59 63 60 64 61 72 62 65 63 71 64 66 65
REMARK SMILES IDX 67 66 68 67 69 68 70 69 7 70 8 71 9 73 10 74 11 75 15 76
REMARK SMILES IDX 12 77 14 78 13 79 16 80 17 82 18 83 37 84 19 85 22 86 20 87
REMARK SMILES IDX 21 88 23 89 24 91 25 92 36 93 26 94 35 95 27 96 28 97 29 98
REMARK SMILES IDX 33 99 30 100 32 101 34 102 31 103
REMARK H PARENT 3 7 91 25 61 36 7 72 16 81 23 90
REMARK Flexibility Score: inf
ROOT
ATOM      1  C   UNL A   1      39.137  32.556  35.902  1.00  0.00     0.118 C 
ENDROOT
BRANCH   1   2
ATOM      2  C   UNL A   1      37.941  31.912  35.217  1.00  0.00     0.042 C 
BRANCH   2   3
ATOM      3  C   UNL A   1      38.261  31.187  33.918  1.00  0.00     0.118 C 
BRANCH   3   4
ATOM      4  N   UNL A   1      37.080  30.775  33.169  1.00  0.00    -0.352 N 
ATOM      5  O   UNL A   1      35.834  30.042  31.447  1.00  0.00    -0.269 OA
ATOM      6  C   UNL A   1      36.955  30.186  31.932  1.00  0.00     0.251 C 
ATOM      7  H   UNL A   1      36.226  30.948  33.628  1.00  0.00     0.163 HD
BRANCH   6   8
ATOM      8  C   UNL A   1      38.150  29.762  31.167  1.00  0.00     0.039 A 
ATOM      9  C   UNL A   1      39.045  28.829  31.685  1.00  0.00     0.014 A 
ATOM     10  C   UNL A   1      38.379  30.305  29.898  1.00  0.00     0.014 A 
ATOM     11  C   UNL A   1      40.261  28.609  31.049  1.00  0.00     0.010 A 
ATOM     12  C   UNL A   1      39.551  29.988  29.200  1.00  0.00     0.010 A 
ATOM     13  C   UNL A   1      40.532  29.182  29.795  1.00  0.00    -0.014 A 
BRANCH  13  14
ATOM     14  C   UNL A   1      41.836  28.893  29.137  1.00  0.00     0.031 A 
ATOM     15  C   UNL A   1      42.952  29.907  29.131  1.00  0.00     0.074 A 
ATOM     16  C   UNL A   1      42.038  27.672  28.600  1.00  0.00     0.049 A 
ATOM     17  N   UNL A   1      44.174  29.780  28.677  1.00  0.00    -0.248 NA
ATOM     18  C   UNL A   1      42.662  31.236  29.694  1.00  0.00     0.031 C 
ATOM     19  C   UNL A   1      41.036  26.604  28.534  1.00  0.00     0.029 A 
ATOM     20  N   UNL A   1      43.159  27.106  28.050  1.00  0.00    -0.354 N 
ATOM     21  C   UNL A   1      44.785  31.016  28.866  1.00  0.00     0.074 A 
ATOM     22  C   UNL A   1      43.795  31.885  29.462  1.00  0.00     0.031 C 
ATOM     23  C   UNL A   1      41.609  25.490  28.055  1.00  0.00     0.029 A 
ATOM     24  C   UNL A   1      42.996  25.782  27.713  1.00  0.00     0.049 A 
ATOM     25  H   UNL A   1      43.999  27.599  27.907  1.00  0.00     0.167 HD
ATOM     26  C   UNL A   1      46.054  31.391  28.574  1.00  0.00     0.031 A 
ATOM     27  C   UNL A   1      43.861  24.894  27.188  1.00  0.00     0.031 A 
ATOM     28  C   UNL A   1      47.047  30.520  28.002  1.00  0.00     0.049 A 
ATOM     29  C   UNL A   1      45.263  25.334  26.883  1.00  0.00     0.074 A 
ATOM     30  C   UNL A   1      48.371  30.798  27.707  1.00  0.00     0.029 A 
ATOM     31  N   UNL A   1      46.828  29.200  27.639  1.00  0.00    -0.354 N 
ATOM     32  N   UNL A   1      45.823  26.500  27.095  1.00  0.00    -0.248 NA
ATOM     33  C   UNL A   1      46.148  24.336  26.267  1.00  0.00     0.031 C 
ATOM     34  C   UNL A   1      48.940  29.660  27.126  1.00  0.00     0.029 A 
ATOM     35  C   UNL A   1      47.985  28.657  27.104  1.00  0.00     0.049 A 
ATOM     36  H   UNL A   1      45.975  28.719  27.744  1.00  0.00     0.167 HD
ATOM     37  C   UNL A   1      47.133  26.373  26.648  1.00  0.00     0.074 A 
ATOM     38  C   UNL A   1      47.285  25.012  26.177  1.00  0.00     0.031 C 
ATOM     39  C   UNL A   1      48.120  27.302  26.630  1.00  0.00     0.031 A 
BRANCH  26  40
ATOM     40  C   UNL A   1      46.436  32.825  28.839  1.00  0.00    -0.014 A 
ATOM     41  C   UNL A   1      47.067  33.208  30.036  1.00  0.00     0.010 A 
ATOM     42  C   UNL A   1      46.195  33.799  27.852  1.00  0.00     0.010 A 
ATOM     43  C   UNL A   1      47.409  34.546  30.259  1.00  0.00     0.020 A 
ATOM     44  C   UNL A   1      46.558  35.134  28.061  1.00  0.00     0.020 A 
ATOM     45  C   UNL A   1      47.146  35.501  29.272  1.00  0.00     0.054 A 
BRANCH  45  46
ATOM     46  S   UNL A   1      47.611  37.228  29.579  1.00  0.00     0.124 S 
ATOM     47  O   UNL A   1      48.632  37.451  28.557  1.00  0.00    -0.237 OA
ATOM     48  O   UNL A   1      46.354  37.942  29.374  1.00  0.00    -0.237 OA
ATOM     49  O   UNL A   1      48.100  37.216  30.956  1.00  0.00    -0.744 OA
ENDBRANCH  45  46
ENDBRANCH  26  40
BRANCH  27  50
ATOM     50  C   UNL A   1      43.417  23.500  26.925  1.00  0.00    -0.014 A 
ATOM     51  C   UNL A   1      43.428  22.981  25.619  1.00  0.00     0.010 A 
ATOM     52  C   UNL A   1      43.016  22.671  27.989  1.00  0.00     0.010 A 
ATOM     53  C   UNL A   1      43.037  21.661  25.380  1.00  0.00     0.020 A 
ATOM     54  C   UNL A   1      42.651  21.343  27.758  1.00  0.00     0.020 A 
ATOM     55  C   UNL A   1      42.654  20.849  26.452  1.00  0.00     0.054 A 
BRANCH  55  56
ATOM     56  S   UNL A   1      42.215  19.118  26.132  1.00  0.00     0.124 S 
ATOM     57  O   UNL A   1      40.772  19.203  25.935  1.00  0.00    -0.237 OA
ATOM     58  O   UNL A   1      42.999  18.805  24.940  1.00  0.00    -0.237 OA
ATOM     59  O   UNL A   1      42.643  18.428  27.347  1.00  0.00    -0.744 OA
ENDBRANCH  55  56
ENDBRANCH  27  50
BRANCH  39  60
ATOM     60  C   UNL A   1      49.458  26.866  26.104  1.00  0.00    -0.014 A 
ATOM     61  C   UNL A   1      50.408  26.261  26.946  1.00  0.00     0.010 A 
ATOM     62  C   UNL A   1      49.761  27.046  24.742  1.00  0.00     0.010 A 
ATOM     63  C   UNL A   1      51.655  25.879  26.442  1.00  0.00     0.020 A 
ATOM     64  C   UNL A   1      50.997  26.644  24.230  1.00  0.00     0.020 A 
ATOM     65  C   UNL A   1      51.943  26.081  25.088  1.00  0.00     0.054 A 
BRANCH  65  66
ATOM     66  S   UNL A   1      53.560  25.560  24.449  1.00  0.00     0.124 S 
ATOM     67  O   UNL A   1      54.478  26.284  25.324  1.00  0.00    -0.237 OA
ATOM     68  O   UNL A   1      53.529  24.111  24.631  1.00  0.00    -0.237 OA
ATOM     69  O   UNL A   1      53.540  26.007  23.058  1.00  0.00    -0.744 OA
ENDBRANCH  65  66
ENDBRANCH  39  60
ENDBRANCH  13  14
ENDBRANCH   6   8
ENDBRANCH   3   4
ENDBRANCH   2   3
ENDBRANCH   1   2
BRANCH   1  70
ATOM     70  N   UNL A   1      39.085  34.013  35.896  1.00  0.00    -0.352 N 
ATOM     71  C   UNL A   1      39.446  34.902  34.916  1.00  0.00     0.253 C 
ATOM     72  H   UNL A   1      38.738  34.421  36.722  1.00  0.00     0.163 HD
ATOM     73  O   UNL A   1      39.392  36.109  35.137  1.00  0.00    -0.269 OA
BRANCH  71  74
ATOM     74  C   UNL A   1      39.914  34.430  33.596  1.00  0.00     0.063 A 
ATOM     75  C   UNL A   1      41.274  34.096  33.498  1.00  0.00     0.016 A 
ATOM     76  C   UNL A   1      39.065  34.347  32.476  1.00  0.00     0.054 A 
ATOM     77  C   UNL A   1      41.791  33.617  32.296  1.00  0.00     0.001 A 
ATOM     78  C   UNL A   1      39.601  33.811  31.294  1.00  0.00     0.027 A 
ATOM     79  C   UNL A   1      40.951  33.459  31.200  1.00  0.00     0.002 A 
BRANCH  76  80
ATOM     80  N   UNL A   1      37.724  34.756  32.531  1.00  0.00    -0.323 N 
ATOM     81  H   UNL A   1      37.571  35.617  32.986  1.00  0.00     0.170 HD
BRANCH  80  82
ATOM     82  C   UNL A   1      36.578  34.140  32.045  1.00  0.00     0.233 A 
ATOM     83  N   UNL A   1      35.555  33.921  32.855  1.00  0.00    -0.182 NA
ATOM     84  N   UNL A   1      36.582  33.827  30.754  1.00  0.00    -0.176 NA
ATOM     85  C   UNL A   1      34.509  33.378  32.260  1.00  0.00     0.228 A 
ATOM     86  C   UNL A   1      35.500  33.213  30.285  1.00  0.00     0.233 A 
ATOM     87  Cl  UNL A   1      33.151  33.078  33.249  1.00  0.00    -0.041 Cl
ATOM     88  N   UNL A   1      34.411  32.990  31.002  1.00  0.00    -0.182 NA
BRANCH  86  89
ATOM     89  N   UNL A   1      35.621  32.681  29.004  1.00  0.00    -0.324 N 
ATOM     90  H   UNL A   1      36.298  33.104  28.426  1.00  0.00     0.170 HD
BRANCH  89  91
ATOM     91  C   UNL A   1      34.906  31.627  28.430  1.00  0.00     0.041 A 
ATOM     92  C   UNL A   1      33.614  31.854  27.945  1.00  0.00     0.028 A 
ATOM     93  C   UNL A   1      35.485  30.375  28.221  1.00  0.00     0.028 A 
ATOM     94  C   UNL A   1      32.927  30.857  27.243  1.00  0.00     0.028 A 
ATOM     95  C   UNL A   1      34.779  29.357  27.574  1.00  0.00     0.028 A 
ATOM     96  C   UNL A   1      33.502  29.595  27.058  1.00  0.00     0.044 A 
BRANCH  96  97
ATOM     97  N   UNL A   1      32.826  28.593  26.302  1.00  0.00    -0.308 N 
ATOM     98  C   UNL A   1      33.458  28.176  25.045  1.00  0.00     0.154 C 
ATOM     99  C   UNL A   1      31.818  27.814  26.881  1.00  0.00     0.253 C 
ATOM    100  C   UNL A   1      32.549  27.322  24.171  1.00  0.00     0.183 C 
ATOM    101  C   UNL A   1      31.280  26.667  26.008  1.00  0.00     0.260 C 
ATOM    102  O   UNL A   1      31.285  28.053  27.968  1.00  0.00    -0.272 OA
ATOM    103  O   UNL A   1      32.074  26.212  24.925  1.00  0.00    -0.370 OA
ENDBRANCH  96  97
ENDBRANCH  89  91
ENDBRANCH  86  89
ENDBRANCH  80  82
ENDBRANCH  76  80
ENDBRANCH  71  74
ENDBRANCH   1  70
TORSDOF 18
ENDMDL
MODEL 2
REMARK VINA RESULT:     -10.6      0.737      7.783
REMARK SMILES O=C(NCCCNC(=O)c1ccccc1Nc1nc(Cl)nc(Nc2ccc(N3CCOCC3=O)cc2)n1)c1ccc(-c2c3nc(c(-c4ccc(S(=O)(=O)[O-])cc4)c4ccc([nH]4)c(-c4ccc(S(=O)(=O)[O-])cc4)c4nc(c(-c5ccc(S(=O)(=O)[O-])cc5)c5ccc2[nH]5)C=C4)C=C3)cc1
REMARK SMILES IDX 6 1 5 2 4 3 3 4 1 5 2 6 38 8 39 9 97 10 40 11 96 12 41 13
REMARK SMILES IDX 42 14 43 15 90 16 44 17 95 18 89 19 91 20 45 21 94 22 88 23
REMARK SMILES IDX 87 24 46 26 76 27 57 28 75 29 58 30 61 31 74 32 92 33 59 34
REMARK SMILES IDX 60 35 73 37 93 38 62 39 47 40 48 41 56 42 49 43 55 44 50 45
REMARK SMILES IDX 51 46 52 47 53 48 54 49 77 50 78 51 86 52 79 53 85 54 80 55
REMARK SMILES IDX 81 56 82 57 83 58 84 59 63 60 64 61 72 62 65 63 71 64 66 65
REMARK SMILES IDX 67 66 68 67 69 68 70 69 7 70 8 71 9 73 10 74 11 75 15 76
REMARK SMILES IDX 12 77 14 78 13 79 16 80 17 82 18 83 37 84 19 85 22 86 20 87
REMARK SMILES IDX 21 88 23 89 24 91 25 92 36 93 26 94 35 95 27 96 28 97 29 98
REMARK SMILES IDX 33 99 30 100 32 101 34 102 31 103
REMARK H PARENT 3 7 91 25 61 36 7 72 16 81 23 90
REMARK Flexibility Score: inf
ROOT
ATOM      1  C   UNL A   1      38.910  32.128  35.600  1.00  0.00     0.118 C 
ENDROOT
BRANCH   1   2
ATOM      2  C   UNL A   1      37.800  31.434  34.825  1.00  0.00     0.042 C 
BRANCH   2   3
ATOM      3  C   UNL A   1      38.112  31.173  33.358  1.00  0.00     0.118 C 
BRANCH   3   4
ATOM      4  N   UNL A   1      37.002  30.585  32.618  1.00  0.00    -0.352 N 
ATOM      5  O   UNL A   1      35.903  29.544  30.956  1.00  0.00    -0.269 OA
ATOM      6  C   UNL A   1      36.983  29.826  31.471  1.00  0.00     0.251 C 
ATOM      7  H   UNL A   1      36.115  30.762  33.005  1.00  0.00     0.163 HD
BRANCH   6   8
ATOM      8  C   UNL A   1      38.243  29.382  30.831  1.00  0.00     0.039 A 
ATOM      9  C   UNL A   1      39.103  28.493  31.472  1.00  0.00     0.014 A 
ATOM     10  C   UNL A   1      38.570  29.859  29.557  1.00  0.00     0.014 A 
ATOM     11  C   UNL A   1      40.370  28.260  30.951  1.00  0.00     0.010 A 
ATOM     12  C   UNL A   1      39.801  29.524  28.977  1.00  0.00     0.010 A 
ATOM     13  C   UNL A   1      40.738  28.768  29.695  1.00  0.00    -0.014 A 
BRANCH  13  14
ATOM     14  C   UNL A   1      42.096  28.466  29.164  1.00  0.00     0.031 A 
ATOM     15  C   UNL A   1      42.417  27.125  28.552  1.00  0.00     0.074 A 
ATOM     16  C   UNL A   1      43.029  29.440  29.172  1.00  0.00     0.049 A 
ATOM     17  N   UNL A   1      43.523  26.733  27.970  1.00  0.00    -0.248 NA
ATOM     18  C   UNL A   1      41.375  26.088  28.608  1.00  0.00     0.031 C 
ATOM     19  C   UNL A   1      42.847  30.778  29.743  1.00  0.00     0.029 A 
ATOM     20  N   UNL A   1      44.297  29.475  28.650  1.00  0.00    -0.354 N 
ATOM     21  C   UNL A   1      43.324  25.401  27.623  1.00  0.00     0.074 A 
ATOM     22  C   UNL A   1      41.997  25.045  28.075  1.00  0.00     0.031 C 
ATOM     23  C   UNL A   1      43.924  31.526  29.466  1.00  0.00     0.029 A 
ATOM     24  C   UNL A   1      44.903  30.705  28.763  1.00  0.00     0.049 A 
ATOM     25  H   UNL A   1      44.732  28.695  28.236  1.00  0.00     0.167 HD
ATOM     26  C   UNL A   1      44.167  24.552  26.985  1.00  0.00     0.031 A 
ATOM     27  C   UNL A   1      46.110  31.133  28.350  1.00  0.00     0.031 A 
ATOM     28  C   UNL A   1      45.479  24.912  26.516  1.00  0.00     0.049 A 
ATOM     29  C   UNL A   1      47.019  30.175  27.637  1.00  0.00     0.074 A 
ATOM     30  C   UNL A   1      46.391  24.133  25.823  1.00  0.00     0.029 A 
ATOM     31  N   UNL A   1      46.069  26.155  26.687  1.00  0.00    -0.354 N 
ATOM     32  N   UNL A   1      46.797  28.928  27.299  1.00  0.00    -0.248 NA
ATOM     33  C   UNL A   1      48.342  30.684  27.252  1.00  0.00     0.031 C 
ATOM     34  C   UNL A   1      47.548  24.891  25.615  1.00  0.00     0.029 A 
ATOM     35  C   UNL A   1      47.339  26.158  26.133  1.00  0.00     0.049 A 
ATOM     36  H   UNL A   1      45.648  26.923  27.138  1.00  0.00     0.167 HD
ATOM     37  C   UNL A   1      47.950  28.504  26.649  1.00  0.00     0.074 A 
ATOM     38  C   UNL A   1      48.856  29.636  26.623  1.00  0.00     0.031 C 
ATOM     39  C   UNL A   1      48.233  27.288  26.122  1.00  0.00     0.031 A 
BRANCH  26  40
ATOM     40  C   UNL A   1      43.706  23.131  26.784  1.00  0.00    -0.014 A 
ATOM     41  C   UNL A   1      43.140  22.388  27.836  1.00  0.00     0.010 A 
ATOM     42  C   UNL A   1      43.806  22.544  25.509  1.00  0.00     0.010 A 
ATOM     43  C   UNL A   1      42.721  21.070  27.625  1.00  0.00     0.020 A 
ATOM     44  C   UNL A   1      43.366  21.235  25.289  1.00  0.00     0.020 A 
ATOM     45  C   UNL A   1      42.844  20.500  26.354  1.00  0.00     0.054 A 
BRANCH  45  46
ATOM     46  S   UNL A   1      42.283  18.792  26.102  1.00  0.00     0.124 S 
ATOM     47  O   UNL A   1      42.533  18.198  27.414  1.00  0.00    -0.237 OA
ATOM     48  O   UNL A   1      40.876  18.963  25.751  1.00  0.00    -0.237 OA
ATOM     49  O   UNL A   1      43.136  18.302  25.023  1.00  0.00    -0.744 OA
ENDBRANCH  45  46
ENDBRANCH  26  40
BRANCH  27  50
ATOM     50  C   UNL A   1      46.518  32.540  28.600  1.00  0.00    -0.014 A 
ATOM     51  C   UNL A   1      47.264  32.875  29.744  1.00  0.00     0.010 A 
ATOM     52  C   UNL A   1      46.194  33.548  27.674  1.00  0.00     0.010 A 
ATOM     53  C   UNL A   1      47.671  34.195  29.960  1.00  0.00     0.020 A 
ATOM     54  C   UNL A   1      46.622  34.862  27.872  1.00  0.00     0.020 A 
ATOM     55  C   UNL A   1      47.349  35.179  29.022  1.00  0.00     0.054 A 
BRANCH  55  56
ATOM     56  S   UNL A   1      47.942  36.874  29.285  1.00  0.00     0.124 S 
ATOM     57  O   UNL A   1      46.693  37.612  29.432  1.00  0.00    -0.237 OA
ATOM     58  O   UNL A   1      48.747  36.744  30.497  1.00  0.00    -0.237 OA
ATOM     59  O   UNL A   1      48.703  37.160  28.071  1.00  0.00    -0.744 OA
ENDBRANCH  55  56
ENDBRANCH  27  50
BRANCH  39  60
ATOM     60  C   UNL A   1      49.569  27.129  25.452  1.00  0.00    -0.014 A 
ATOM     61  C   UNL A   1      49.737  27.422  24.087  1.00  0.00     0.010 A 
ATOM     62  C   UNL A   1      50.676  26.698  26.205  1.00  0.00     0.010 A 
ATOM     63  C   UNL A   1      50.982  27.248  23.477  1.00  0.00     0.020 A 
ATOM     64  C   UNL A   1      51.927  26.546  25.603  1.00  0.00     0.020 A 
ATOM     65  C   UNL A   1      52.068  26.804  24.239  1.00  0.00     0.054 A 
BRANCH  65  66
ATOM     66  S   UNL A   1      53.681  26.605  23.433  1.00  0.00     0.124 S 
ATOM     67  O   UNL A   1      54.243  27.948  23.546  1.00  0.00    -0.237 OA
ATOM     68  O   UNL A   1      54.328  25.582  24.251  1.00  0.00    -0.237 OA
ATOM     69  O   UNL A   1      53.339  26.184  22.076  1.00  0.00    -0.744 OA
ENDBRANCH  65  66
ENDBRANCH  39  60
ENDBRANCH  13  14
ENDBRANCH   6   8
ENDBRANCH   3   4
ENDBRANCH   2   3
ENDBRANCH   1   2
BRANCH   1  70
ATOM     70  N   UNL A   1      38.738  33.574  35.677  1.00  0.00    -0.352 N 
ATOM     71  C   UNL A   1      39.254  34.564  34.880  1.00  0.00     0.253 C 
ATOM     72  H   UNL A   1      38.164  33.887  36.413  1.00  0.00     0.163 HD
ATOM     73  O   UNL A   1      39.045  35.743  35.160  1.00  0.00    -0.269 OA
BRANCH  71  74
ATOM     74  C   UNL A   1      40.071  34.237  33.694  1.00  0.00     0.063 A 
ATOM     75  C   UNL A   1      41.392  33.828  33.939  1.00  0.00     0.016 A 
ATOM     76  C   UNL A   1      39.583  34.359  32.380  1.00  0.00     0.054 A 
ATOM     77  C   UNL A   1      42.222  33.476  32.877  1.00  0.00     0.001 A 
ATOM     78  C   UNL A   1      40.424  33.946  31.334  1.00  0.00     0.027 A 
ATOM     79  C   UNL A   1      41.733  33.519  31.577  1.00  0.00     0.002 A 
BRANCH  76  80
ATOM     80  N   UNL A   1      38.296  34.847  32.110  1.00  0.00    -0.323 N 
ATOM     81  H   UNL A   1      38.172  35.809  32.284  1.00  0.00     0.170 HD
BRANCH  80  82
ATOM     82  C   UNL A   1      37.168  34.189  31.636  1.00  0.00     0.233 A 
ATOM     83  N   UNL A   1      36.146  33.969  32.446  1.00  0.00    -0.182 NA
ATOM     84  N   UNL A   1      37.188  33.840  30.354  1.00  0.00    -0.176 NA
ATOM     85  C   UNL A   1      35.117  33.383  31.861  1.00  0.00     0.228 A 
ATOM     86  C   UNL A   1      36.124  33.186  29.897  1.00  0.00     0.233 A 
ATOM     87  Cl  UNL A   1      33.761  33.078  32.851  1.00  0.00    -0.041 Cl
ATOM     88  N   UNL A   1      35.036  32.957  30.614  1.00  0.00    -0.182 NA
BRANCH  86  89
ATOM     89  N   UNL A   1      36.266  32.621  28.632  1.00  0.00    -0.324 N 
ATOM     90  H   UNL A   1      37.049  32.920  28.115  1.00  0.00     0.170 HD
BRANCH  89  91
ATOM     91  C   UNL A   1      35.441  31.687  28.001  1.00  0.00     0.041 A 
ATOM     92  C   UNL A   1      35.957  30.434  27.655  1.00  0.00     0.028 A 
ATOM     93  C   UNL A   1      34.079  31.922  27.807  1.00  0.00     0.028 A 
ATOM     94  C   UNL A   1      35.124  29.430  27.149  1.00  0.00     0.028 A 
ATOM     95  C   UNL A   1      33.255  30.943  27.245  1.00  0.00     0.028 A 
ATOM     96  C   UNL A   1      33.764  29.679  26.932  1.00  0.00     0.044 A 
BRANCH  96  97
ATOM     97  N   UNL A   1      32.902  28.646  26.463  1.00  0.00    -0.308 N 
ATOM     98  C   UNL A   1      31.787  28.268  27.338  1.00  0.00     0.154 C 
ATOM     99  C   UNL A   1      32.910  28.259  25.117  1.00  0.00     0.253 C 
ATOM    100  C   UNL A   1      31.090  26.986  26.903  1.00  0.00     0.183 C 
ATOM    101  C   UNL A   1      31.826  27.247  24.711  1.00  0.00     0.260 C 
ATOM    102  O   UNL A   1      33.770  28.592  24.299  1.00  0.00    -0.272 OA
ATOM    103  O   UNL A   1      30.686  27.105  25.543  1.00  0.00    -0.370 OA
ENDBRANCH  96  97
ENDBRANCH  89  91
ENDBRANCH  86  89
ENDBRANCH  80  82
ENDBRANCH  76  80
ENDBRANCH  71  74
ENDBRANCH   1  70
TORSDOF 18
ENDMDL
MODEL 3
REMARK VINA RESULT:     -10.5      2.304      5.430
REMARK SMILES O=C(NCCCNC(=O)c1ccccc1Nc1nc(Cl)nc(Nc2ccc(N3CCOCC3=O)cc2)n1)c1ccc(-c2c3nc(c(-c4ccc(S(=O)(=O)[O-])cc4)c4ccc([nH]4)c(-c4ccc(S(=O)(=O)[O-])cc4)c4nc(c(-c5ccc(S(=O)(=O)[O-])cc5)c5ccc2[nH]5)C=C4)C=C3)cc1
REMARK SMILES IDX 6 1 5 2 4 3 3 4 1 5 2 6 38 8 39 9 97 10 40 11 96 12 41 13
REMARK SMILES IDX 42 14 43 15 90 16 44 17 95 18 89 19 91 20 45 21 94 22 88 23
REMARK SMILES IDX 87 24 46 26 76 27 57 28 75 29 58 30 61 31 74 32 92 33 59 34
REMARK SMILES IDX 60 35 73 37 93 38 62 39 47 40 48 41 56 42 49 43 55 44 50 45
REMARK SMILES IDX 51 46 52 47 53 48 54 49 77 50 78 51 86 52 79 53 85 54 80 55
REMARK SMILES IDX 81 56 82 57 83 58 84 59 63 60 64 61 72 62 65 63 71 64 66 65
REMARK SMILES IDX 67 66 68 67 69 68 70 69 7 70 8 71 9 73 10 74 11 75 15 76
REMARK SMILES IDX 12 77 14 78 13 79 16 80 17 82 18 83 37 84 19 85 22 86 20 87
REMARK SMILES IDX 21 88 23 89 24 91 25 92 36 93 26 94 35 95 27 96 28 97 29 98
REMARK SMILES IDX 33 99 30 100 32 101 34 102 31 103
REMARK H PARENT 3 7 91 25 61 36 7 72 16 81 23 90
REMARK Flexibility Score: inf
ROOT
ATOM      1  C   UNL A   1      35.117  33.443  28.420  1.00  0.00     0.118 C 
ENDROOT
BRANCH   1   2
ATOM      2  C   UNL A   1      34.612  32.049  28.080  1.00  0.00     0.042 C 
BRANCH   2   3
ATOM      3  C   UNL A   1      35.563  30.918  28.444  1.00  0.00     0.118 C 
BRANCH   3   4
ATOM      4  N   UNL A   1      35.534  30.558  29.857  1.00  0.00    -0.352 N 
ATOM      5  O   UNL A   1      36.217  29.707  31.822  1.00  0.00    -0.269 OA
ATOM      6  C   UNL A   1      36.514  30.055  30.681  1.00  0.00     0.251 C 
ATOM      7  H   UNL A   1      34.664  30.699  30.295  1.00  0.00     0.163 HD
BRANCH   6   8
ATOM      8  C   UNL A   1      37.904  29.893  30.199  1.00  0.00     0.039 A 
ATOM      9  C   UNL A   1      38.234  30.103  28.862  1.00  0.00     0.014 A 
ATOM     10  C   UNL A   1      38.906  29.528  31.105  1.00  0.00     0.014 A 
ATOM     11  C   UNL A   1      39.491  29.739  28.393  1.00  0.00     0.010 A 
ATOM     12  C   UNL A   1      40.207  29.278  30.650  1.00  0.00     0.010 A 
ATOM     13  C   UNL A   1      40.498  29.325  29.280  1.00  0.00    -0.014 A 
BRANCH  13  14
ATOM     14  C   UNL A   1      41.839  28.974  28.735  1.00  0.00     0.031 A 
ATOM     15  C   UNL A   1      42.980  29.960  28.768  1.00  0.00     0.074 A 
ATOM     16  C   UNL A   1      42.046  27.726  28.267  1.00  0.00     0.049 A 
ATOM     17  N   UNL A   1      44.228  29.782  28.413  1.00  0.00    -0.248 NA
ATOM     18  C   UNL A   1      42.686  31.319  29.251  1.00  0.00     0.031 C 
ATOM     19  C   UNL A   1      41.021  26.681  28.172  1.00  0.00     0.029 A 
ATOM     20  N   UNL A   1      43.187  27.108  27.827  1.00  0.00    -0.354 N 
ATOM     21  C   UNL A   1      44.858  31.009  28.594  1.00  0.00     0.074 A 
ATOM     22  C   UNL A   1      43.851  31.929  29.076  1.00  0.00     0.031 C 
ATOM     23  C   UNL A   1      41.597  25.533  27.786  1.00  0.00     0.029 A 
ATOM     24  C   UNL A   1      43.013  25.774  27.537  1.00  0.00     0.049 A 
ATOM     25  H   UNL A   1      44.049  27.574  27.727  1.00  0.00     0.167 HD
ATOM     26  C   UNL A   1      46.156  31.339  28.382  1.00  0.00     0.031 A 
ATOM     27  C   UNL A   1      43.889  24.843  27.116  1.00  0.00     0.031 A 
ATOM     28  C   UNL A   1      47.163  30.419  27.924  1.00  0.00     0.049 A 
ATOM     29  C   UNL A   1      45.321  25.233  26.899  1.00  0.00     0.074 A 
ATOM     30  C   UNL A   1      48.512  30.650  27.717  1.00  0.00     0.029 A 
ATOM     31  N   UNL A   1      46.934  29.089  27.602  1.00  0.00    -0.354 N 
ATOM     32  N   UNL A   1      45.897  26.393  27.102  1.00  0.00    -0.248 NA
ATOM     33  C   UNL A   1      46.220  24.188  26.395  1.00  0.00     0.031 C 
ATOM     34  C   UNL A   1      49.090  29.473  27.230  1.00  0.00     0.029 A 
ATOM     35  C   UNL A   1      48.112  28.495  27.180  1.00  0.00     0.049 A 
ATOM     36  H   UNL A   1      46.063  28.635  27.664  1.00  0.00     0.167 HD
ATOM     37  C   UNL A   1      47.232  26.215  26.761  1.00  0.00     0.074 A 
ATOM     38  C   UNL A   1      47.380  24.830  26.361  1.00  0.00     0.031 C 
ATOM     39  C   UNL A   1      48.243  27.117  26.776  1.00  0.00     0.031 A 
BRANCH  26  40
ATOM     40  C   UNL A   1      46.557  32.774  28.612  1.00  0.00    -0.014 A 
ATOM     41  C   UNL A   1      46.445  33.740  27.596  1.00  0.00     0.010 A 
ATOM     42  C   UNL A   1      47.017  33.169  29.883  1.00  0.00     0.010 A 
ATOM     43  C   UNL A   1      46.826  35.065  27.834  1.00  0.00     0.020 A 
ATOM     44  C   UNL A   1      47.375  34.498  30.132  1.00  0.00     0.020 A 
ATOM     45  C   UNL A   1      47.295  35.433  29.099  1.00  0.00     0.054 A 
BRANCH  45  46
ATOM     46  S   UNL A   1      47.772  37.161  29.387  1.00  0.00     0.124 S 
ATOM     47  O   UNL A   1      47.884  37.672  28.022  1.00  0.00    -0.237 OA
ATOM     48  O   UNL A   1      46.647  37.681  30.160  1.00  0.00    -0.237 OA
ATOM     49  O   UNL A   1      49.031  37.056  30.119  1.00  0.00    -0.744 OA
ENDBRANCH  45  46
ENDBRANCH  26  40
BRANCH  27  50
ATOM     50  C   UNL A   1      43.427  23.450  26.882  1.00  0.00    -0.014 A 
ATOM     51  C   UNL A   1      43.389  22.920  25.580  1.00  0.00     0.010 A 
ATOM     52  C   UNL A   1      43.056  22.633  27.965  1.00  0.00     0.010 A 
ATOM     53  C   UNL A   1      42.981  21.600  25.366  1.00  0.00     0.020 A 
ATOM     54  C   UNL A   1      42.675  21.306  27.759  1.00  0.00     0.020 A 
ATOM     55  C   UNL A   1      42.629  20.800  26.458  1.00  0.00     0.054 A 
BRANCH  55  56
ATOM     56  S   UNL A   1      42.167  19.070  26.169  1.00  0.00     0.124 S 
ATOM     57  O   UNL A   1      42.444  18.462  27.466  1.00  0.00    -0.237 OA
ATOM     58  O   UNL A   1      40.756  19.174  25.806  1.00  0.00    -0.237 OA
ATOM     59  O   UNL A   1      43.052  18.659  25.082  1.00  0.00    -0.744 OA
ENDBRANCH  55  56
ENDBRANCH  27  50
BRANCH  39  60
ATOM     60  C   UNL A   1      49.604  26.624  26.371  1.00  0.00    -0.014 A 
ATOM     61  C   UNL A   1      50.449  25.982  27.293  1.00  0.00     0.010 A 
ATOM     62  C   UNL A   1      50.034  26.788  25.042  1.00  0.00     0.010 A 
ATOM     63  C   UNL A   1      51.719  25.548  26.903  1.00  0.00     0.020 A 
ATOM     64  C   UNL A   1      51.294  26.335  24.642  1.00  0.00     0.020 A 
ATOM     65  C   UNL A   1      52.135  25.734  25.581  1.00  0.00     0.054 A 
BRANCH  65  66
ATOM     66  S   UNL A   1      53.779  25.146  25.088  1.00  0.00     0.124 S 
ATOM     67  O   UNL A   1      53.562  23.707  24.971  1.00  0.00    -0.237 OA
ATOM     68  O   UNL A   1      54.012  25.851  23.830  1.00  0.00    -0.237 OA
ATOM     69  O   UNL A   1      54.639  25.560  26.194  1.00  0.00    -0.744 OA
ENDBRANCH  65  66
ENDBRANCH  39  60
ENDBRANCH  13  14
ENDBRANCH   6   8
ENDBRANCH   3   4
ENDBRANCH   2   3
ENDBRANCH   1   2
BRANCH   1  70
ATOM     70  N   UNL A   1      34.845  33.831  29.798  1.00  0.00    -0.352 N 
ATOM     71  C   UNL A   1      35.701  33.953  30.863  1.00  0.00     0.253 C 
ATOM     72  H   UNL A   1      33.902  34.038  29.995  1.00  0.00     0.163 HD
ATOM     73  O   UNL A   1      35.256  34.226  31.976  1.00  0.00    -0.269 OA
BRANCH  71  74
ATOM     74  C   UNL A   1      37.154  33.747  30.697  1.00  0.00     0.063 A 
ATOM     75  C   UNL A   1      37.716  34.198  29.492  1.00  0.00     0.016 A 
ATOM     76  C   UNL A   1      37.944  33.101  31.667  1.00  0.00     0.054 A 
ATOM     77  C   UNL A   1      39.084  34.066  29.266  1.00  0.00     0.001 A 
ATOM     78  C   UNL A   1      39.328  33.031  31.435  1.00  0.00     0.027 A 
ATOM     79  C   UNL A   1      39.892  33.497  30.244  1.00  0.00     0.002 A 
BRANCH  76  80
ATOM     80  N   UNL A   1      37.389  32.567  32.839  1.00  0.00    -0.323 N 
ATOM     81  H   UNL A   1      36.464  32.239  32.748  1.00  0.00     0.170 HD
BRANCH  80  82
ATOM     82  C   UNL A   1      37.936  32.427  34.108  1.00  0.00     0.233 A 
ATOM     83  N   UNL A   1      37.250  32.823  35.167  1.00  0.00    -0.182 NA
ATOM     84  N   UNL A   1      39.138  31.863  34.170  1.00  0.00    -0.176 NA
ATOM     85  C   UNL A   1      37.858  32.588  36.316  1.00  0.00     0.228 A 
ATOM     86  C   UNL A   1      39.681  31.749  35.378  1.00  0.00     0.233 A 
ATOM     87  Cl  UNL A   1      37.020  33.068  37.724  1.00  0.00    -0.041 Cl
ATOM     88  N   UNL A   1      39.060  32.074  36.500  1.00  0.00    -0.182 NA
BRANCH  86  89
ATOM     89  N   UNL A   1      41.026  31.385  35.398  1.00  0.00    -0.324 N 
ATOM     90  H   UNL A   1      41.603  31.914  35.996  1.00  0.00     0.170 HD
BRANCH  89  91
ATOM     91  C   UNL A   1      41.661  30.370  34.680  1.00  0.00     0.041 A 
ATOM     92  C   UNL A   1      42.737  30.687  33.844  1.00  0.00     0.028 A 
ATOM     93  C   UNL A   1      41.330  29.027  34.858  1.00  0.00     0.028 A 
ATOM     94  C   UNL A   1      43.480  29.679  33.219  1.00  0.00     0.028 A 
ATOM     95  C   UNL A   1      42.031  28.020  34.188  1.00  0.00     0.028 A 
ATOM     96  C   UNL A   1      43.128  28.334  33.381  1.00  0.00     0.044 A 
BRANCH  96  97
ATOM     97  N   UNL A   1      43.912  27.303  32.787  1.00  0.00    -0.308 N 
ATOM     98  C   UNL A   1      43.591  26.945  31.400  1.00  0.00     0.154 C 
ATOM     99  C   UNL A   1      45.125  26.901  33.360  1.00  0.00     0.253 C 
ATOM    100  C   UNL A   1      44.272  25.664  30.938  1.00  0.00     0.183 C 
ATOM    101  C   UNL A   1      45.946  25.893  32.538  1.00  0.00     0.260 C 
ATOM    102  O   UNL A   1      45.503  27.217  34.490  1.00  0.00    -0.272 OA
ATOM    103  O   UNL A   1      45.675  25.771  31.151  1.00  0.00    -0.370 OA
ENDBRANCH  96  97
ENDBRANCH  89  91
ENDBRANCH  86  89
ENDBRANCH  80  82
ENDBRANCH  76  80
ENDBRANCH  71  74
ENDBRANCH   1  70
TORSDOF 18
ENDMDL
