MODEL 1
REMARK VINA RESULT:     -11.8      0.000      0.000
REMARK SMILES O=C(NCCCNC(=O)[C@H]1CCCN(C(=O)c2ccc(NC(=O)c3ccccc3)cc2)C1)c1ccc(-c2c3nc(c(-c4ccc(S(=O)(=O)[O-])cc4)c4ccc([nH]4)c(-c4ccc(S(=O)(=O)[O-])cc4)c4nc(c(-c5ccc(S(=O)(=O)[O-])cc5)c5ccc2[nH]5)C=C4)C=C3)cc1
REMARK SMILES IDX 5 1 4 2 3 3 1 4 2 5 33 7 34 8 92 9 35 10 91 11 36 12 37 13
REMARK SMILES IDX 38 14 85 15 39 16 90 17 84 18 86 19 40 20 89 21 83 22 82 23
REMARK SMILES IDX 41 25 71 26 52 27 70 28 53 29 56 30 69 31 87 32 54 33 55 34
REMARK SMILES IDX 68 36 88 37 57 38 42 39 43 40 51 41 44 42 50 43 45 44 46 45
REMARK SMILES IDX 47 46 48 47 49 48 72 49 73 50 81 51 74 52 80 53 75 54 76 55
REMARK SMILES IDX 77 56 78 57 79 58 58 59 59 60 67 61 60 62 66 63 61 64 62 65
REMARK SMILES IDX 63 66 64 67 65 68 6 69 7 70 8 71 9 73 10 74 11 75 32 76
REMARK SMILES IDX 12 77 14 78 13 79 15 80 16 81 17 82 18 83 31 84 19 85 30 86
REMARK SMILES IDX 20 87 21 88 22 89 23 91 24 92 25 93 29 94 26 95 28 96 27 97
REMARK H PARENT 3 6 86 24 56 35 7 72 21 90
REMARK Flexibility Score: inf
ROOT
ATOM      1  C   UNL A   1      38.215  20.467  25.132  1.00  0.00     0.042 C 
ENDROOT
BRANCH   1   2
ATOM      2  C   UNL A   1      39.345  20.765  26.102  1.00  0.00     0.118 C 
BRANCH   2   3
ATOM      3  N   UNL A   1      40.337  19.696  26.134  1.00  0.00    -0.352 N 
ATOM      4  O   UNL A   1      42.410  18.812  25.957  1.00  0.00    -0.269 OA
ATOM      5  C   UNL A   1      41.710  19.801  26.143  1.00  0.00     0.251 C 
ATOM      6  H   UNL A   1      39.978  18.780  26.152  1.00  0.00     0.163 HD
BRANCH   5   7
ATOM      7  C   UNL A   1      42.317  21.129  26.356  1.00  0.00     0.039 A 
ATOM      8  C   UNL A   1      42.638  21.541  27.650  1.00  0.00     0.014 A 
ATOM      9  C   UNL A   1      42.527  21.980  25.268  1.00  0.00     0.014 A 
ATOM     10  C   UNL A   1      42.997  22.858  27.881  1.00  0.00     0.010 A 
ATOM     11  C   UNL A   1      43.011  23.271  25.493  1.00  0.00     0.010 A 
ATOM     12  C   UNL A   1      43.228  23.726  26.803  1.00  0.00    -0.014 A 
BRANCH  12  13
ATOM     13  C   UNL A   1      43.821  25.056  27.075  1.00  0.00     0.031 A 
ATOM     14  C   UNL A   1      45.264  25.349  26.783  1.00  0.00     0.074 A 
ATOM     15  C   UNL A   1      43.014  26.004  27.592  1.00  0.00     0.049 A 
ATOM     16  N   UNL A   1      45.931  26.454  27.002  1.00  0.00    -0.248 NA
ATOM     17  C   UNL A   1      46.068  24.274  26.181  1.00  0.00     0.031 C 
ATOM     18  C   UNL A   1      41.595  25.815  27.922  1.00  0.00     0.029 A 
ATOM     19  N   UNL A   1      43.255  27.311  27.921  1.00  0.00    -0.354 N 
ATOM     20  C   UNL A   1      47.237  26.198  26.602  1.00  0.00     0.074 A 
ATOM     21  C   UNL A   1      47.271  24.832  26.125  1.00  0.00     0.031 C 
ATOM     22  C   UNL A   1      41.085  26.973  28.364  1.00  0.00     0.029 A 
ATOM     23  C   UNL A   1      42.154  27.957  28.433  1.00  0.00     0.049 A 
ATOM     24  H   UNL A   1      44.131  27.746  27.803  1.00  0.00     0.167 HD
ATOM     25  C   UNL A   1      48.304  27.031  26.641  1.00  0.00     0.031 A 
ATOM     26  C   UNL A   1      42.023  29.192  28.946  1.00  0.00     0.031 A 
ATOM     27  C   UNL A   1      48.243  28.394  27.103  1.00  0.00     0.049 A 
ATOM     28  C   UNL A   1      43.230  30.078  29.000  1.00  0.00     0.074 A 
ATOM     29  C   UNL A   1      49.253  29.340  27.117  1.00  0.00     0.029 A 
ATOM     30  N   UNL A   1      47.119  29.001  27.641  1.00  0.00    -0.354 N 
ATOM     31  N   UNL A   1      44.443  29.834  28.569  1.00  0.00    -0.248 NA
ATOM     32  C   UNL A   1      43.056  31.395  29.623  1.00  0.00     0.031 C 
ATOM     33  C   UNL A   1      48.754  30.502  27.717  1.00  0.00     0.029 A 
ATOM     34  C   UNL A   1      47.420  30.294  28.031  1.00  0.00     0.049 A 
ATOM     35  H   UNL A   1      46.236  28.574  27.733  1.00  0.00     0.167 HD
ATOM     36  C   UNL A   1      45.182  30.968  28.869  1.00  0.00     0.074 A 
ATOM     37  C   UNL A   1      44.272  31.910  29.492  1.00  0.00     0.031 C 
ATOM     38  C   UNL A   1      46.499  31.207  28.659  1.00  0.00     0.031 A 
BRANCH  25  39
ATOM     39  C   UNL A   1      49.642  26.495  26.209  1.00  0.00    -0.014 A 
ATOM     40  C   UNL A   1      50.180  26.793  24.945  1.00  0.00     0.010 A 
ATOM     41  C   UNL A   1      50.415  25.751  27.122  1.00  0.00     0.010 A 
ATOM     42  C   UNL A   1      51.457  26.343  24.596  1.00  0.00     0.020 A 
ATOM     43  C   UNL A   1      51.698  25.315  26.784  1.00  0.00     0.020 A 
ATOM     44  C   UNL A   1      52.209  25.606  25.518  1.00  0.00     0.054 A 
BRANCH  44  45
ATOM     45  S   UNL A   1      53.881  25.072  25.055  1.00  0.00     0.124 S 
ATOM     46  O   UNL A   1      54.100  25.814  23.815  1.00  0.00    -0.237 OA
ATOM     47  O   UNL A   1      54.684  25.507  26.195  1.00  0.00    -0.237 OA
ATOM     48  O   UNL A   1      53.754  23.626  24.900  1.00  0.00    -0.744 OA
ENDBRANCH  44  45
ENDBRANCH  25  39
BRANCH  26  49
ATOM     49  C   UNL A   1      40.716  29.619  29.510  1.00  0.00    -0.014 A 
ATOM     50  C   UNL A   1      39.713  30.149  28.683  1.00  0.00     0.010 A 
ATOM     51  C   UNL A   1      40.458  29.457  30.885  1.00  0.00     0.010 A 
ATOM     52  C   UNL A   1      38.480  30.525  29.224  1.00  0.00     0.020 A 
ATOM     53  C   UNL A   1      39.218  29.803  31.423  1.00  0.00     0.020 A 
ATOM     54  C   UNL A   1      38.240  30.350  30.591  1.00  0.00     0.054 A 
BRANCH  54  55
ATOM     55  S   UNL A   1      36.619  30.799  31.266  1.00  0.00     0.124 S 
ATOM     56  O   UNL A   1      36.311  29.643  32.102  1.00  0.00    -0.237 OA
ATOM     57  O   UNL A   1      36.904  32.040  31.982  1.00  0.00    -0.237 OA
ATOM     58  O   UNL A   1      35.786  30.954  30.076  1.00  0.00    -0.744 OA
ENDBRANCH  54  55
ENDBRANCH  26  49
BRANCH  38  59
ATOM     59  C   UNL A   1      47.028  32.538  29.106  1.00  0.00    -0.014 A 
ATOM     60  C   UNL A   1      47.433  32.738  30.437  1.00  0.00     0.010 A 
ATOM     61  C   UNL A   1      47.173  33.581  28.175  1.00  0.00     0.010 A 
ATOM     62  C   UNL A   1      47.957  33.968  30.836  1.00  0.00     0.020 A 
ATOM     63  C   UNL A   1      47.720  34.805  28.563  1.00  0.00     0.020 A 
ATOM     64  C   UNL A   1      48.100  34.994  29.895  1.00  0.00     0.054 A 
BRANCH  64  65
ATOM     65  S   UNL A   1      48.840  36.564  30.422  1.00  0.00     0.124 S 
ATOM     66  O   UNL A   1      50.219  36.171  30.699  1.00  0.00    -0.237 OA
ATOM     67  O   UNL A   1      48.653  37.416  29.250  1.00  0.00    -0.237 OA
ATOM     68  O   UNL A   1      48.051  36.941  31.592  1.00  0.00    -0.744 OA
ENDBRANCH  64  65
ENDBRANCH  38  59
ENDBRANCH  12  13
ENDBRANCH   5   7
ENDBRANCH   2   3
ENDBRANCH   1   2
BRANCH   1  69
ATOM     69  C   UNL A   1      37.255  21.632  25.040  1.00  0.00     0.117 C 
BRANCH  69  70
ATOM     70  N   UNL A   1      36.281  21.619  26.116  1.00  0.00    -0.356 N 
ATOM     71  C   UNL A   1      34.943  21.395  26.078  1.00  0.00     0.224 C 
ATOM     72  H   UNL A   1      36.647  21.799  27.012  1.00  0.00     0.163 HD
ATOM     73  O   UNL A   1      34.331  21.403  27.149  1.00  0.00    -0.275 OA
BRANCH  71  74
ATOM     74  C   UNL A   1      34.205  21.177  24.774  1.00  0.00     0.098 C 
ATOM     75  C   UNL A   1      33.337  19.920  24.766  1.00  0.00     0.017 C 
ATOM     76  C   UNL A   1      33.404  22.393  24.336  1.00  0.00     0.133 C 
ATOM     77  C   UNL A   1      32.738  19.721  23.374  1.00  0.00     0.022 C 
ATOM     78  N   UNL A   1      32.839  22.201  23.009  1.00  0.00    -0.338 N 
ATOM     79  C   UNL A   1      32.049  20.977  22.827  1.00  0.00     0.120 C 
BRANCH  78  80
ATOM     80  C   UNL A   1      32.978  23.264  22.124  1.00  0.00     0.253 C 
ATOM     81  O   UNL A   1      33.526  23.159  21.027  1.00  0.00    -0.269 OA
BRANCH  80  82
ATOM     82  C   UNL A   1      32.399  24.580  22.432  1.00  0.00     0.040 A 
ATOM     83  C   UNL A   1      33.222  25.683  22.210  1.00  0.00     0.016 A 
ATOM     84  C   UNL A   1      31.139  24.755  23.005  1.00  0.00     0.016 A 
ATOM     85  C   UNL A   1      32.753  26.963  22.477  1.00  0.00     0.027 A 
ATOM     86  C   UNL A   1      30.659  26.050  23.234  1.00  0.00     0.027 A 
ATOM     87  C   UNL A   1      31.441  27.165  22.910  1.00  0.00     0.041 A 
BRANCH  87  88
ATOM     88  N   UNL A   1      30.861  28.439  23.053  1.00  0.00    -0.322 N 
ATOM     89  C   UNL A   1      30.840  29.306  24.128  1.00  0.00     0.255 C 
ATOM     90  H   UNL A   1      30.392  28.769  22.251  1.00  0.00     0.170 HD
ATOM     91  O   UNL A   1      30.113  30.298  24.116  1.00  0.00    -0.269 OA
BRANCH  89  92
ATOM     92  C   UNL A   1      31.732  29.093  25.287  1.00  0.00     0.040 A 
ATOM     93  C   UNL A   1      32.940  29.796  25.342  1.00  0.00     0.014 A 
ATOM     94  C   UNL A   1      31.341  28.266  26.348  1.00  0.00     0.014 A 
ATOM     95  C   UNL A   1      33.719  29.731  26.498  1.00  0.00     0.001 A 
ATOM     96  C   UNL A   1      32.123  28.209  27.502  1.00  0.00     0.001 A 
ATOM     97  C   UNL A   1      33.302  28.952  27.581  1.00  0.00     0.000 A 
ENDBRANCH  89  92
ENDBRANCH  87  88
ENDBRANCH  80  82
ENDBRANCH  78  80
ENDBRANCH  71  74
ENDBRANCH  69  70
ENDBRANCH   1  69
TORSDOF 17
ENDMDL
MODEL 2
REMARK VINA RESULT:     -11.8      2.129      8.817
REMARK SMILES O=C(NCCCNC(=O)[C@H]1CCCN(C(=O)c2ccc(NC(=O)c3ccccc3)cc2)C1)c1ccc(-c2c3nc(c(-c4ccc(S(=O)(=O)[O-])cc4)c4ccc([nH]4)c(-c4ccc(S(=O)(=O)[O-])cc4)c4nc(c(-c5ccc(S(=O)(=O)[O-])cc5)c5ccc2[nH]5)C=C4)C=C3)cc1
REMARK SMILES IDX 5 1 4 2 3 3 1 4 2 5 33 7 34 8 92 9 35 10 91 11 36 12 37 13
REMARK SMILES IDX 38 14 85 15 39 16 90 17 84 18 86 19 40 20 89 21 83 22 82 23
REMARK SMILES IDX 41 25 71 26 52 27 70 28 53 29 56 30 69 31 87 32 54 33 55 34
REMARK SMILES IDX 68 36 88 37 57 38 42 39 43 40 51 41 44 42 50 43 45 44 46 45
REMARK SMILES IDX 47 46 48 47 49 48 72 49 73 50 81 51 74 52 80 53 75 54 76 55
REMARK SMILES IDX 77 56 78 57 79 58 58 59 59 60 67 61 60 62 66 63 61 64 62 65
REMARK SMILES IDX 63 66 64 67 65 68 6 69 7 70 8 71 9 73 10 74 11 75 32 76
REMARK SMILES IDX 12 77 14 78 13 79 15 80 16 81 17 82 18 83 31 84 19 85 30 86
REMARK SMILES IDX 20 87 21 88 22 89 23 91 24 92 25 93 29 94 26 95 28 96 27 97
REMARK H PARENT 3 6 86 24 56 35 7 72 21 90
REMARK Flexibility Score: inf
ROOT
ATOM      1  C   UNL A   1      34.559  29.718  26.725  1.00  0.00     0.042 C 
ENDROOT
BRANCH   1   2
ATOM      2  C   UNL A   1      35.430  29.302  27.897  1.00  0.00     0.118 C 
BRANCH   2   3
ATOM      3  N   UNL A   1      35.292  30.208  29.032  1.00  0.00    -0.352 N 
ATOM      4  O   UNL A   1      35.938  31.201  30.958  1.00  0.00    -0.269 OA
ATOM      5  C   UNL A   1      36.253  30.603  29.935  1.00  0.00     0.251 C 
ATOM      6  H   UNL A   1      34.394  30.587  29.170  1.00  0.00     0.163 HD
BRANCH   5   7
ATOM      7  C   UNL A   1      37.664  30.270  29.659  1.00  0.00     0.039 A 
ATOM      8  C   UNL A   1      38.141  30.325  28.348  1.00  0.00     0.014 A 
ATOM      9  C   UNL A   1      38.499  29.861  30.701  1.00  0.00     0.014 A 
ATOM     10  C   UNL A   1      39.390  29.804  28.051  1.00  0.00     0.010 A 
ATOM     11  C   UNL A   1      39.805  29.455  30.413  1.00  0.00     0.010 A 
ATOM     12  C   UNL A   1      40.250  29.402  29.083  1.00  0.00    -0.014 A 
BRANCH  12  13
ATOM     13  C   UNL A   1      41.652  29.060  28.748  1.00  0.00     0.031 A 
ATOM     14  C   UNL A   1      42.742  30.091  28.769  1.00  0.00     0.074 A 
ATOM     15  C   UNL A   1      41.920  27.778  28.425  1.00  0.00     0.049 A 
ATOM     16  N   UNL A   1      44.007  29.946  28.463  1.00  0.00    -0.248 NA
ATOM     17  C   UNL A   1      42.376  31.458  29.170  1.00  0.00     0.031 C 
ATOM     18  C   UNL A   1      40.926  26.698  28.365  1.00  0.00     0.029 A 
ATOM     19  N   UNL A   1      43.096  27.157  28.099  1.00  0.00    -0.354 N 
ATOM     20  C   UNL A   1      44.579  31.206  28.599  1.00  0.00     0.074 A 
ATOM     21  C   UNL A   1      43.525  32.106  29.015  1.00  0.00     0.031 C 
ATOM     22  C   UNL A   1      41.541  25.546  28.067  1.00  0.00     0.029 A 
ATOM     23  C   UNL A   1      42.950  25.817  27.829  1.00  0.00     0.049 A 
ATOM     24  H   UNL A   1      43.962  27.625  28.063  1.00  0.00     0.167 HD
ATOM     25  C   UNL A   1      45.866  31.569  28.385  1.00  0.00     0.031 A 
ATOM     26  C   UNL A   1      43.840  24.910  27.390  1.00  0.00     0.031 A 
ATOM     27  C   UNL A   1      46.904  30.652  27.988  1.00  0.00     0.049 A 
ATOM     28  C   UNL A   1      45.248  25.351  27.137  1.00  0.00     0.074 A 
ATOM     29  C   UNL A   1      48.253  30.908  27.813  1.00  0.00     0.029 A 
ATOM     30  N   UNL A   1      46.710  29.311  27.694  1.00  0.00    -0.354 N 
ATOM     31  N   UNL A   1      45.780  26.534  27.321  1.00  0.00    -0.248 NA
ATOM     32  C   UNL A   1      46.171  24.343  26.603  1.00  0.00     0.031 C 
ATOM     33  C   UNL A   1      48.864  29.734  27.358  1.00  0.00     0.029 A 
ATOM     34  C   UNL A   1      47.905  28.736  27.297  1.00  0.00     0.049 A 
ATOM     35  H   UNL A   1      45.849  28.838  27.758  1.00  0.00     0.167 HD
ATOM     36  C   UNL A   1      47.103  26.416  26.923  1.00  0.00     0.074 A 
ATOM     37  C   UNL A   1      47.298  25.038  26.517  1.00  0.00     0.031 C 
ATOM     38  C   UNL A   1      48.069  27.365  26.887  1.00  0.00     0.031 A 
BRANCH  25  39
ATOM     39  C   UNL A   1      46.231  33.021  28.536  1.00  0.00    -0.014 A 
ATOM     40  C   UNL A   1      46.708  33.536  29.754  1.00  0.00     0.010 A 
ATOM     41  C   UNL A   1      46.181  33.865  27.410  1.00  0.00     0.010 A 
ATOM     42  C   UNL A   1      47.109  34.872  29.848  1.00  0.00     0.020 A 
ATOM     43  C   UNL A   1      46.598  35.197  27.496  1.00  0.00     0.020 A 
ATOM     44  C   UNL A   1      47.051  35.695  28.718  1.00  0.00     0.054 A 
BRANCH  44  45
ATOM     45  S   UNL A   1      47.620  37.413  28.857  1.00  0.00     0.124 S 
ATOM     46  O   UNL A   1      47.537  37.641  30.298  1.00  0.00    -0.237 OA
ATOM     47  O   UNL A   1      48.974  37.348  28.311  1.00  0.00    -0.237 OA
ATOM     48  O   UNL A   1      46.661  38.163  28.052  1.00  0.00    -0.744 OA
ENDBRANCH  44  45
ENDBRANCH  25  39
BRANCH  26  49
ATOM     49  C   UNL A   1      43.392  23.522  27.100  1.00  0.00    -0.014 A 
ATOM     50  C   UNL A   1      43.140  22.615  28.141  1.00  0.00     0.010 A 
ATOM     51  C   UNL A   1      43.178  23.118  25.768  1.00  0.00     0.010 A 
ATOM     52  C   UNL A   1      42.697  21.320  27.854  1.00  0.00     0.020 A 
ATOM     53  C   UNL A   1      42.708  21.837  25.480  1.00  0.00     0.020 A 
ATOM     54  C   UNL A   1      42.484  20.939  26.525  1.00  0.00     0.054 A 
BRANCH  54  55
ATOM     55  S   UNL A   1      41.865  19.272  26.174  1.00  0.00     0.124 S 
ATOM     56  O   UNL A   1      42.183  18.566  27.411  1.00  0.00    -0.237 OA
ATOM     57  O   UNL A   1      40.444  19.504  25.925  1.00  0.00    -0.237 OA
ATOM     58  O   UNL A   1      42.635  18.863  25.001  1.00  0.00    -0.744 OA
ENDBRANCH  54  55
ENDBRANCH  26  49
BRANCH  38  59
ATOM     59  C   UNL A   1      49.421  26.940  26.391  1.00  0.00    -0.014 A 
ATOM     60  C   UNL A   1      50.389  26.447  27.284  1.00  0.00     0.010 A 
ATOM     61  C   UNL A   1      49.706  26.982  25.016  1.00  0.00     0.010 A 
ATOM     62  C   UNL A   1      51.630  26.021  26.810  1.00  0.00     0.020 A 
ATOM     63  C   UNL A   1      50.937  26.532  24.535  1.00  0.00     0.020 A 
ATOM     64  C   UNL A   1      51.895  26.063  25.437  1.00  0.00     0.054 A 
BRANCH  64  65
ATOM     65  S   UNL A   1      53.492  25.447  24.838  1.00  0.00     0.124 S 
ATOM     66  O   UNL A   1      54.431  26.111  25.738  1.00  0.00    -0.237 OA
ATOM     67  O   UNL A   1      53.366  24.003  25.017  1.00  0.00    -0.237 OA
ATOM     68  O   UNL A   1      53.535  25.895  23.449  1.00  0.00    -0.744 OA
ENDBRANCH  64  65
ENDBRANCH  38  59
ENDBRANCH  12  13
ENDBRANCH   5   7
ENDBRANCH   2   3
ENDBRANCH   1   2
BRANCH   1  69
ATOM     69  C   UNL A   1      33.117  29.883  27.150  1.00  0.00     0.117 C 
BRANCH  69  70
ATOM     70  N   UNL A   1      32.522  28.621  27.553  1.00  0.00    -0.356 N 
ATOM     71  C   UNL A   1      31.877  27.686  26.811  1.00  0.00     0.224 C 
ATOM     72  H   UNL A   1      32.599  28.412  28.511  1.00  0.00     0.163 HD
ATOM     73  O   UNL A   1      31.488  26.667  27.388  1.00  0.00    -0.275 OA
BRANCH  71  74
ATOM     74  C   UNL A   1      31.603  27.884  25.335  1.00  0.00     0.098 C 
ATOM     75  C   UNL A   1      31.052  29.267  24.995  1.00  0.00     0.017 C 
ATOM     76  C   UNL A   1      32.800  27.546  24.460  1.00  0.00     0.133 C 
ATOM     77  C   UNL A   1      30.691  29.325  23.512  1.00  0.00     0.022 C 
ATOM     78  N   UNL A   1      32.450  27.598  23.048  1.00  0.00    -0.338 N 
ATOM     79  C   UNL A   1      31.823  28.845  22.595  1.00  0.00     0.120 C 
BRANCH  78  80
ATOM     80  C   UNL A   1      32.892  26.535  22.268  1.00  0.00     0.253 C 
ATOM     81  O   UNL A   1      33.645  26.674  21.305  1.00  0.00    -0.269 OA
BRANCH  80  82
ATOM     82  C   UNL A   1      32.530  25.150  22.610  1.00  0.00     0.040 A 
ATOM     83  C   UNL A   1      33.467  24.170  22.284  1.00  0.00     0.016 A 
ATOM     84  C   UNL A   1      31.293  24.784  23.140  1.00  0.00     0.016 A 
ATOM     85  C   UNL A   1      33.203  22.838  22.571  1.00  0.00     0.027 A 
ATOM     86  C   UNL A   1      31.051  23.443  23.462  1.00  0.00     0.027 A 
ATOM     87  C   UNL A   1      32.033  22.470  23.238  1.00  0.00     0.041 A 
BRANCH  87  88
ATOM     88  N   UNL A   1      31.777  21.162  23.689  1.00  0.00    -0.322 N 
ATOM     89  C   UNL A   1      32.532  20.315  24.477  1.00  0.00     0.255 C 
ATOM     90  H   UNL A   1      30.914  20.788  23.396  1.00  0.00     0.170 HD
ATOM     91  O   UNL A   1      32.217  19.134  24.604  1.00  0.00    -0.269 OA
BRANCH  89  92
ATOM     92  C   UNL A   1      33.698  20.824  25.230  1.00  0.00     0.040 A 
ATOM     93  C   UNL A   1      34.981  20.501  24.779  1.00  0.00     0.014 A 
ATOM     94  C   UNL A   1      33.524  21.678  26.328  1.00  0.00     0.014 A 
ATOM     95  C   UNL A   1      36.091  21.099  25.378  1.00  0.00     0.001 A 
ATOM     96  C   UNL A   1      34.637  22.275  26.920  1.00  0.00     0.001 A 
ATOM     97  C   UNL A   1      35.916  21.997  26.435  1.00  0.00     0.000 A 
ENDBRANCH  89  92
ENDBRANCH  87  88
ENDBRANCH  80  82
ENDBRANCH  78  80
ENDBRANCH  71  74
ENDBRANCH  69  70
ENDBRANCH   1  69
TORSDOF 17
ENDMDL
MODEL 3
REMARK VINA RESULT:     -11.4      5.469     11.255
REMARK SMILES O=C(NCCCNC(=O)[C@H]1CCCN(C(=O)c2ccc(NC(=O)c3ccccc3)cc2)C1)c1ccc(-c2c3nc(c(-c4ccc(S(=O)(=O)[O-])cc4)c4ccc([nH]4)c(-c4ccc(S(=O)(=O)[O-])cc4)c4nc(c(-c5ccc(S(=O)(=O)[O-])cc5)c5ccc2[nH]5)C=C4)C=C3)cc1
REMARK SMILES IDX 5 1 4 2 3 3 1 4 2 5 33 7 34 8 92 9 35 10 91 11 36 12 37 13
REMARK SMILES IDX 38 14 85 15 39 16 90 17 84 18 86 19 40 20 89 21 83 22 82 23
REMARK SMILES IDX 41 25 71 26 52 27 70 28 53 29 56 30 69 31 87 32 54 33 55 34
REMARK SMILES IDX 68 36 88 37 57 38 42 39 43 40 51 41 44 42 50 43 45 44 46 45
REMARK SMILES IDX 47 46 48 47 49 48 72 49 73 50 81 51 74 52 80 53 75 54 76 55
REMARK SMILES IDX 77 56 78 57 79 58 58 59 59 60 67 61 60 62 66 63 61 64 62 65
REMARK SMILES IDX 63 66 64 67 65 68 6 69 7 70 8 71 9 73 10 74 11 75 32 76
REMARK SMILES IDX 12 77 14 78 13 79 15 80 16 81 17 82 18 83 31 84 19 85 30 86
REMARK SMILES IDX 20 87 21 88 22 89 23 91 24 92 25 93 29 94 26 95 28 96 27 97
REMARK H PARENT 3 6 86 24 56 35 7 72 21 90
REMARK Flexibility Score: inf
ROOT
ATOM      1  C   UNL A   1      46.361  24.248  26.838  1.00  0.00     0.042 C 
ENDROOT
BRANCH   1   2
ATOM      2  C   UNL A   1      45.361  25.368  27.064  1.00  0.00     0.118 C 
BRANCH   2   3
ATOM      3  N   UNL A   1      44.437  25.514  25.945  1.00  0.00    -0.352 N 
ATOM      4  O   UNL A   1      42.439  25.923  24.971  1.00  0.00    -0.269 OA
ATOM      5  C   UNL A   1      43.175  26.062  25.941  1.00  0.00     0.251 C 
ATOM      6  H   UNL A   1      44.759  25.176  25.078  1.00  0.00     0.163 HD
BRANCH   5   7
ATOM      7  C   UNL A   1      42.719  26.798  27.136  1.00  0.00     0.039 A 
ATOM      8  C   UNL A   1      43.140  28.113  27.338  1.00  0.00     0.014 A 
ATOM      9  C   UNL A   1      41.905  26.162  28.076  1.00  0.00     0.014 A 
ATOM     10  C   UNL A   1      42.902  28.730  28.556  1.00  0.00     0.010 A 
ATOM     11  C   UNL A   1      41.560  26.835  29.251  1.00  0.00     0.010 A 
ATOM     12  C   UNL A   1      42.076  28.115  29.508  1.00  0.00    -0.014 A 
BRANCH  12  13
ATOM     13  C   UNL A   1      41.664  28.893  30.700  1.00  0.00     0.031 A 
ATOM     14  C   UNL A   1      40.437  29.758  30.691  1.00  0.00     0.074 A 
ATOM     15  C   UNL A   1      42.431  28.792  31.804  1.00  0.00     0.049 A 
ATOM     16  N   UNL A   1      39.973  30.523  31.646  1.00  0.00    -0.248 NA
ATOM     17  C   UNL A   1      39.631  29.781  29.460  1.00  0.00     0.031 C 
ATOM     18  C   UNL A   1      43.652  27.984  31.912  1.00  0.00     0.029 A 
ATOM     19  N   UNL A   1      42.301  29.355  33.046  1.00  0.00    -0.354 N 
ATOM     20  C   UNL A   1      38.847  31.146  31.122  1.00  0.00     0.074 A 
ATOM     21  C   UNL A   1      38.694  30.671  29.764  1.00  0.00     0.031 C 
ATOM     22  C   UNL A   1      44.131  28.070  33.160  1.00  0.00     0.029 A 
ATOM     23  C   UNL A   1      43.308  29.004  33.913  1.00  0.00     0.049 A 
ATOM     24  H   UNL A   1      41.558  29.953  33.293  1.00  0.00     0.167 HD
ATOM     25  C   UNL A   1      38.027  32.039  31.726  1.00  0.00     0.031 A 
ATOM     26  C   UNL A   1      43.573  29.419  35.163  1.00  0.00     0.031 A 
ATOM     27  C   UNL A   1      38.186  32.486  33.087  1.00  0.00     0.049 A 
ATOM     28  C   UNL A   1      42.661  30.428  35.791  1.00  0.00     0.074 A 
ATOM     29  C   UNL A   1      37.369  33.334  33.812  1.00  0.00     0.029 A 
ATOM     30  N   UNL A   1      39.236  32.131  33.921  1.00  0.00    -0.354 N 
ATOM     31  N   UNL A   1      41.573  30.966  35.298  1.00  0.00    -0.248 NA
ATOM     32  C   UNL A   1      43.020  30.899  37.134  1.00  0.00     0.031 C 
ATOM     33  C   UNL A   1      37.955  33.538  35.067  1.00  0.00     0.029 A 
ATOM     34  C   UNL A   1      39.111  32.777  35.139  1.00  0.00     0.049 A 
ATOM     35  H   UNL A   1      39.962  31.510  33.682  1.00  0.00     0.167 HD
ATOM     36  C   UNL A   1      41.114  31.843  36.269  1.00  0.00     0.074 A 
ATOM     37  C   UNL A   1      42.028  31.741  37.391  1.00  0.00     0.031 C 
ATOM     38  C   UNL A   1      40.040  32.667  36.234  1.00  0.00     0.031 A 
BRANCH  25  39
ATOM     39  C   UNL A   1      36.900  32.629  30.922  1.00  0.00    -0.014 A 
ATOM     40  C   UNL A   1      35.576  32.181  31.073  1.00  0.00     0.010 A 
ATOM     41  C   UNL A   1      37.160  33.715  30.063  1.00  0.00     0.010 A 
ATOM     42  C   UNL A   1      34.537  32.795  30.367  1.00  0.00     0.020 A 
ATOM     43  C   UNL A   1      36.122  34.343  29.370  1.00  0.00     0.020 A 
ATOM     44  C   UNL A   1      34.816  33.873  29.519  1.00  0.00     0.054 A 
BRANCH  44  45
ATOM     45  S   UNL A   1      33.442  34.679  28.649  1.00  0.00     0.124 S 
ATOM     46  O   UNL A   1      34.105  35.833  28.045  1.00  0.00    -0.237 OA
ATOM     47  O   UNL A   1      33.006  33.646  27.712  1.00  0.00    -0.237 OA
ATOM     48  O   UNL A   1      32.494  34.993  29.714  1.00  0.00    -0.744 OA
ENDBRANCH  44  45
ENDBRANCH  25  39
BRANCH  26  49
ATOM     49  C   UNL A   1      44.791  28.929  35.859  1.00  0.00    -0.014 A 
ATOM     50  C   UNL A   1      46.014  29.606  35.732  1.00  0.00     0.010 A 
ATOM     51  C   UNL A   1      44.717  27.793  36.689  1.00  0.00     0.010 A 
ATOM     52  C   UNL A   1      47.147  29.146  36.411  1.00  0.00     0.020 A 
ATOM     53  C   UNL A   1      45.838  27.349  37.391  1.00  0.00     0.020 A 
ATOM     54  C   UNL A   1      47.051  28.020  37.235  1.00  0.00     0.054 A 
BRANCH  54  55
ATOM     55  S   UNL A   1      48.519  27.466  38.144  1.00  0.00     0.124 S 
ATOM     56  O   UNL A   1      48.083  26.172  38.659  1.00  0.00    -0.237 OA
ATOM     57  O   UNL A   1      49.542  27.420  37.102  1.00  0.00    -0.237 OA
ATOM     58  O   UNL A   1      48.711  28.510  39.148  1.00  0.00    -0.744 OA
ENDBRANCH  54  55
ENDBRANCH  26  49
BRANCH  38  59
ATOM     59  C   UNL A   1      39.798  33.520  37.445  1.00  0.00    -0.014 A 
ATOM     60  C   UNL A   1      40.275  34.841  37.499  1.00  0.00     0.010 A 
ATOM     61  C   UNL A   1      39.040  33.014  38.516  1.00  0.00     0.010 A 
ATOM     62  C   UNL A   1      40.014  35.638  38.614  1.00  0.00     0.020 A 
ATOM     63  C   UNL A   1      38.756  33.817  39.622  1.00  0.00     0.020 A 
ATOM     64  C   UNL A   1      39.253  35.122  39.668  1.00  0.00     0.054 A 
BRANCH  64  65
ATOM     65  S   UNL A   1      38.876  36.196  41.079  1.00  0.00     0.124 S 
ATOM     66  O   UNL A   1      40.132  36.173  41.823  1.00  0.00    -0.237 OA
ATOM     67  O   UNL A   1      38.550  37.467  40.437  1.00  0.00    -0.237 OA
ATOM     68  O   UNL A   1      37.752  35.528  41.730  1.00  0.00    -0.744 OA
ENDBRANCH  64  65
ENDBRANCH  38  59
ENDBRANCH  12  13
ENDBRANCH   5   7
ENDBRANCH   2   3
ENDBRANCH   1   2
BRANCH   1  69
ATOM     69  C   UNL A   1      45.658  22.945  26.526  1.00  0.00     0.117 C 
BRANCH  69  70
ATOM     70  N   UNL A   1      45.408  22.790  25.105  1.00  0.00    -0.356 N 
ATOM     71  C   UNL A   1      44.385  22.175  24.462  1.00  0.00     0.224 C 
ATOM     72  H   UNL A   1      46.086  23.195  24.517  1.00  0.00     0.163 HD
ATOM     73  O   UNL A   1      44.380  22.210  23.229  1.00  0.00    -0.275 OA
BRANCH  71  74
ATOM     74  C   UNL A   1      43.297  21.435  25.213  1.00  0.00     0.098 C 
ATOM     75  C   UNL A   1      43.672  20.000  25.576  1.00  0.00     0.017 C 
ATOM     76  C   UNL A   1      42.801  22.192  26.434  1.00  0.00     0.133 C 
ATOM     77  C   UNL A   1      42.471  19.303  26.213  1.00  0.00     0.022 C 
ATOM     78  N   UNL A   1      41.654  21.527  27.036  1.00  0.00    -0.338 N 
ATOM     79  C   UNL A   1      41.842  20.107  27.357  1.00  0.00     0.120 C 
BRANCH  78  80
ATOM     80  C   UNL A   1      40.583  22.344  27.379  1.00  0.00     0.253 C 
ATOM     81  O   UNL A   1      40.572  23.053  28.385  1.00  0.00    -0.269 OA
BRANCH  80  82
ATOM     82  C   UNL A   1      39.411  22.458  26.497  1.00  0.00     0.040 A 
ATOM     83  C   UNL A   1      38.758  23.690  26.496  1.00  0.00     0.016 A 
ATOM     84  C   UNL A   1      38.892  21.394  25.760  1.00  0.00     0.016 A 
ATOM     85  C   UNL A   1      37.642  23.882  25.693  1.00  0.00     0.027 A 
ATOM     86  C   UNL A   1      37.790  21.607  24.923  1.00  0.00     0.027 A 
ATOM     87  C   UNL A   1      37.199  22.873  24.837  1.00  0.00     0.041 A 
BRANCH  87  88
ATOM     88  N   UNL A   1      36.171  23.055  23.892  1.00  0.00    -0.322 N 
ATOM     89  C   UNL A   1      34.802  22.915  24.009  1.00  0.00     0.255 C 
ATOM     90  H   UNL A   1      36.479  23.330  22.998  1.00  0.00     0.170 HD
ATOM     91  O   UNL A   1      34.085  22.935  23.011  1.00  0.00    -0.269 OA
BRANCH  89  92
ATOM     92  C   UNL A   1      34.166  22.796  25.338  1.00  0.00     0.040 A 
ATOM     93  C   UNL A   1      33.277  23.793  25.748  1.00  0.00     0.014 A 
ATOM     94  C   UNL A   1      34.387  21.667  26.139  1.00  0.00     0.014 A 
ATOM     95  C   UNL A   1      32.547  23.621  26.925  1.00  0.00     0.001 A 
ATOM     96  C   UNL A   1      33.652  21.500  27.312  1.00  0.00     0.001 A 
ATOM     97  C   UNL A   1      32.723  22.469  27.696  1.00  0.00     0.000 A 
ENDBRANCH  89  92
ENDBRANCH  87  88
ENDBRANCH  80  82
ENDBRANCH  78  80
ENDBRANCH  71  74
ENDBRANCH  69  70
ENDBRANCH   1  69
TORSDOF 17
ENDMDL
