MODEL 1
REMARK VINA RESULT:     -10.3      0.000      0.000
REMARK SMILES O=C(C[C@@H]1CCC[N@@H+](Cc2nccs2)C1)NCCCNC(=O)c1ccc(-c2c3nc(c(-c4ccc(S(=O)(=O)[O-])cc4)c4ccc([nH]4)c(-c4ccc(S(=O)(=O)[O-])cc4)c4nc(c(-c5ccc(S(=O)(=O)[O-])cc5)c5ccc2[nH]5)C=C4)C=C3)cc1
REMARK SMILES IDX 18 1 17 2 16 3 1 4 2 5 3 7 4 8 5 9 15 10 6 11 8 12 7 13 9 15
REMARK SMILES IDX 10 16 11 17 14 18 12 19 13 20 19 21 20 22 21 23 22 25 23 26
REMARK SMILES IDX 24 27 82 28 25 29 81 30 26 31 27 32 28 33 75 34 29 35 80 36
REMARK SMILES IDX 74 37 76 38 30 39 79 40 73 41 72 42 31 44 61 45 42 46 60 47
REMARK SMILES IDX 43 48 46 49 59 50 77 51 44 52 45 53 58 55 78 56 47 57 32 58
REMARK SMILES IDX 33 59 41 60 34 61 40 62 35 63 36 64 37 65 38 66 39 67 62 68
REMARK SMILES IDX 63 69 71 70 64 71 70 72 65 73 66 74 67 75 68 76 69 77 48 78
REMARK SMILES IDX 49 79 57 80 50 81 56 82 51 83 52 84 53 85 54 86 55 87
REMARK H PARENT 16 6 8 14 20 24 76 43 46 54
REMARK Flexibility Score: inf
ROOT
ATOM      1  C   UNL A   1      31.810  27.962  27.517  1.00  0.00     0.042 C 
ENDROOT
BRANCH   1   2
ATOM      2  C   UNL A   1      31.349  26.940  26.482  1.00  0.00     0.117 C 
BRANCH   2   3
ATOM      3  N   UNL A   1      32.347  25.915  26.254  1.00  0.00    -0.356 N 
ATOM      4  O   UNL A   1      31.190  24.183  27.230  1.00  0.00    -0.275 OA
ATOM      5  C   UNL A   1      32.183  24.606  26.650  1.00  0.00     0.220 C 
ATOM      6  H   UNL A   1      33.181  26.165  25.793  1.00  0.00     0.163 HD
BRANCH   5   7
ATOM      7  C   UNL A   1      33.375  23.724  26.336  1.00  0.00     0.109 C 
BRANCH   7   8
ATOM      8  C   UNL A   1      33.047  22.625  25.309  1.00  0.00     0.054 C 
ATOM      9  C   UNL A   1      34.276  21.788  24.923  1.00  0.00     0.016 C 
ATOM     10  C   UNL A   1      32.416  23.233  24.048  1.00  0.00     0.266 C 
ATOM     11  C   UNL A   1      35.233  22.552  24.010  1.00  0.00     0.062 C 
ATOM     12  N   UNL A   1      33.390  24.033  23.293  1.00  0.00    -0.329 N 
ATOM     13  C   UNL A   1      34.505  23.200  22.830  1.00  0.00     0.262 C 
ATOM     14  H   UNL A   1      33.779  24.733  23.925  1.00  0.00     0.348 HD
BRANCH  12  15
ATOM     15  C   UNL A   1      32.747  24.786  22.191  1.00  0.00     0.331 C 
BRANCH  15  16
ATOM     16  C   UNL A   1      32.367  26.217  22.503  1.00  0.00     0.147 A 
ATOM     17  N   UNL A   1      31.152  26.713  22.365  1.00  0.00    -0.244 NA
ATOM     18  S   UNL A   1      33.550  27.335  23.070  1.00  0.00    -0.122 S 
ATOM     19  C   UNL A   1      31.155  28.059  22.659  1.00  0.00     0.123 A 
ATOM     20  C   UNL A   1      32.367  28.574  23.063  1.00  0.00     0.087 A 
ENDBRANCH  15  16
ENDBRANCH  12  15
ENDBRANCH   7   8
ENDBRANCH   5   7
ENDBRANCH   2   3
ENDBRANCH   1   2
BRANCH   1  21
ATOM     21  C   UNL A   1      33.205  28.535  27.277  1.00  0.00     0.118 C 
BRANCH  21  22
ATOM     22  N   UNL A   1      33.267  29.982  27.430  1.00  0.00    -0.352 N 
ATOM     23  C   UNL A   1      34.279  30.779  27.906  1.00  0.00     0.251 C 
ATOM     24  H   UNL A   1      32.456  30.464  27.149  1.00  0.00     0.163 HD
ATOM     25  O   UNL A   1      34.064  31.978  28.085  1.00  0.00    -0.269 OA
BRANCH  23  26
ATOM     26  C   UNL A   1      35.608  30.214  28.230  1.00  0.00     0.039 A 
ATOM     27  C   UNL A   1      36.580  30.169  27.226  1.00  0.00     0.014 A 
ATOM     28  C   UNL A   1      35.901  29.715  29.502  1.00  0.00     0.014 A 
ATOM     29  C   UNL A   1      37.865  29.703  27.519  1.00  0.00     0.010 A 
ATOM     30  C   UNL A   1      37.202  29.318  29.811  1.00  0.00     0.010 A 
ATOM     31  C   UNL A   1      38.202  29.317  28.827  1.00  0.00    -0.014 A 
BRANCH  31  32
ATOM     32  C   UNL A   1      39.600  28.957  29.188  1.00  0.00     0.031 A 
ATOM     33  C   UNL A   1      40.508  29.961  29.846  1.00  0.00     0.074 A 
ATOM     34  C   UNL A   1      40.074  27.737  28.862  1.00  0.00     0.049 A 
ATOM     35  N   UNL A   1      41.770  29.838  30.177  1.00  0.00    -0.248 NA
ATOM     36  C   UNL A   1      39.934  31.279  30.155  1.00  0.00     0.031 C 
ATOM     37  C   UNL A   1      39.308  26.684  28.190  1.00  0.00     0.029 A 
ATOM     38  N   UNL A   1      41.315  27.178  29.042  1.00  0.00    -0.354 N 
ATOM     39  C   UNL A   1      42.142  31.062  30.720  1.00  0.00     0.074 A 
ATOM     40  C   UNL A   1      40.987  31.929  30.632  1.00  0.00     0.031 C 
ATOM     41  C   UNL A   1      40.086  25.601  28.041  1.00  0.00     0.029 A 
ATOM     42  C   UNL A   1      41.419  25.895  28.556  1.00  0.00     0.049 A 
ATOM     43  H   UNL A   1      42.060  27.650  29.479  1.00  0.00     0.167 HD
ATOM     44  C   UNL A   1      43.332  31.427  31.257  1.00  0.00     0.031 A 
ATOM     45  C   UNL A   1      42.469  25.052  28.514  1.00  0.00     0.031 A 
ATOM     46  C   UNL A   1      44.481  30.562  31.341  1.00  0.00     0.049 A 
ATOM     47  C   UNL A   1      43.790  25.492  29.085  1.00  0.00     0.074 A 
ATOM     48  C   UNL A   1      45.714  30.826  31.915  1.00  0.00     0.029 A 
ATOM     49  N   UNL A   1      44.547  29.275  30.832  1.00  0.00    -0.354 N 
ATOM     50  N   UNL A   1      44.100  26.632  29.657  1.00  0.00    -0.248 NA
ATOM     51  C   UNL A   1      44.897  24.531  29.014  1.00  0.00     0.031 C 
ATOM     52  C   UNL A   1      46.544  29.722  31.695  1.00  0.00     0.029 A 
ATOM     53  C   UNL A   1      45.809  28.743  31.047  1.00  0.00     0.049 A 
ATOM     54  H   UNL A   1      43.806  28.807  30.383  1.00  0.00     0.167 HD
ATOM     55  C   UNL A   1      45.433  26.513  30.035  1.00  0.00     0.074 A 
ATOM     56  C   UNL A   1      45.862  25.185  29.646  1.00  0.00     0.031 C 
ATOM     57  C   UNL A   1      46.229  27.422  30.650  1.00  0.00     0.031 A 
BRANCH  44  58
ATOM     58  C   UNL A   1      43.460  32.834  31.787  1.00  0.00    -0.014 A 
ATOM     59  C   UNL A   1      43.239  33.124  33.146  1.00  0.00     0.010 A 
ATOM     60  C   UNL A   1      43.855  33.873  30.924  1.00  0.00     0.010 A 
ATOM     61  C   UNL A   1      43.372  34.431  33.622  1.00  0.00     0.020 A 
ATOM     62  C   UNL A   1      44.019  35.176  31.402  1.00  0.00     0.020 A 
ATOM     63  C   UNL A   1      43.760  35.450  32.747  1.00  0.00     0.054 A 
BRANCH  63  64
ATOM     64  S   UNL A   1      43.945  37.132  33.399  1.00  0.00     0.124 S 
ATOM     65  O   UNL A   1      44.179  37.903  32.180  1.00  0.00    -0.237 OA
ATOM     66  O   UNL A   1      42.658  37.366  34.051  1.00  0.00    -0.237 OA
ATOM     67  O   UNL A   1      45.090  37.031  34.301  1.00  0.00    -0.744 OA
ENDBRANCH  63  64
ENDBRANCH  44  58
BRANCH  45  68
ATOM     68  C   UNL A   1      42.313  23.701  27.906  1.00  0.00    -0.014 A 
ATOM     69  C   UNL A   1      42.621  23.486  26.551  1.00  0.00     0.010 A 
ATOM     70  C   UNL A   1      41.864  22.618  28.685  1.00  0.00     0.010 A 
ATOM     71  C   UNL A   1      42.465  22.218  25.981  1.00  0.00     0.020 A 
ATOM     72  C   UNL A   1      41.737  21.342  28.127  1.00  0.00     0.020 A 
ATOM     73  C   UNL A   1      42.027  21.153  26.775  1.00  0.00     0.054 A 
BRANCH  73  74
ATOM     74  S   UNL A   1      41.883  19.507  26.025  1.00  0.00     0.124 S 
ATOM     75  O   UNL A   1      42.774  19.618  24.876  1.00  0.00    -0.237 OA
ATOM     76  O   UNL A   1      42.341  18.631  27.100  1.00  0.00    -0.237 OA
ATOM     77  O   UNL A   1      40.461  19.400  25.708  1.00  0.00    -0.744 OA
ENDBRANCH  73  74
ENDBRANCH  45  68
BRANCH  57  78
ATOM     78  C   UNL A   1      47.642  27.005  30.969  1.00  0.00    -0.014 A 
ATOM     79  C   UNL A   1      47.969  26.413  32.203  1.00  0.00     0.010 A 
ATOM     80  C   UNL A   1      48.649  27.163  29.998  1.00  0.00     0.010 A 
ATOM     81  C   UNL A   1      49.282  26.019  32.472  1.00  0.00     0.020 A 
ATOM     82  C   UNL A   1      49.956  26.741  30.252  1.00  0.00     0.020 A 
ATOM     83  C   UNL A   1      50.268  26.185  31.493  1.00  0.00     0.054 A 
BRANCH  83  84
ATOM     84  S   UNL A   1      51.956  25.625  31.853  1.00  0.00     0.124 S 
ATOM     85  O   UNL A   1      51.764  24.192  32.060  1.00  0.00    -0.237 OA
ATOM     86  O   UNL A   1      52.680  25.993  30.639  1.00  0.00    -0.237 OA
ATOM     87  O   UNL A   1      52.326  26.382  33.047  1.00  0.00    -0.744 OA
ENDBRANCH  83  84
ENDBRANCH  57  78
ENDBRANCH  31  32
ENDBRANCH  23  26
ENDBRANCH  21  22
ENDBRANCH   1  21
TORSDOF 16
ENDMDL
MODEL 2
REMARK VINA RESULT:     -10.2      1.551      2.710
REMARK SMILES O=C(C[C@@H]1CCC[N@@H+](Cc2nccs2)C1)NCCCNC(=O)c1ccc(-c2c3nc(c(-c4ccc(S(=O)(=O)[O-])cc4)c4ccc([nH]4)c(-c4ccc(S(=O)(=O)[O-])cc4)c4nc(c(-c5ccc(S(=O)(=O)[O-])cc5)c5ccc2[nH]5)C=C4)C=C3)cc1
REMARK SMILES IDX 18 1 17 2 16 3 1 4 2 5 3 7 4 8 5 9 15 10 6 11 8 12 7 13 9 15
REMARK SMILES IDX 10 16 11 17 14 18 12 19 13 20 19 21 20 22 21 23 22 25 23 26
REMARK SMILES IDX 24 27 82 28 25 29 81 30 26 31 27 32 28 33 75 34 29 35 80 36
REMARK SMILES IDX 74 37 76 38 30 39 79 40 73 41 72 42 31 44 61 45 42 46 60 47
REMARK SMILES IDX 43 48 46 49 59 50 77 51 44 52 45 53 58 55 78 56 47 57 32 58
REMARK SMILES IDX 33 59 41 60 34 61 40 62 35 63 36 64 37 65 38 66 39 67 62 68
REMARK SMILES IDX 63 69 71 70 64 71 70 72 65 73 66 74 67 75 68 76 69 77 48 78
REMARK SMILES IDX 49 79 57 80 50 81 56 82 51 83 52 84 53 85 54 86 55 87
REMARK H PARENT 16 6 8 14 20 24 76 43 46 54
REMARK Flexibility Score: inf
ROOT
ATOM      1  C   UNL A   1      32.245  27.887  27.381  1.00  0.00     0.042 C 
ENDROOT
BRANCH   1   2
ATOM      2  C   UNL A   1      31.577  27.304  26.140  1.00  0.00     0.117 C 
BRANCH   2   3
ATOM      3  N   UNL A   1      32.342  26.208  25.579  1.00  0.00    -0.356 N 
ATOM      4  O   UNL A   1      31.541  24.570  26.980  1.00  0.00    -0.275 OA
ATOM      5  C   UNL A   1      32.260  24.917  26.050  1.00  0.00     0.220 C 
ATOM      6  H   UNL A   1      32.948  26.396  24.826  1.00  0.00     0.163 HD
BRANCH   5   7
ATOM      7  C   UNL A   1      33.179  23.950  25.332  1.00  0.00     0.109 C 
BRANCH   7   8
ATOM      8  C   UNL A   1      34.502  23.718  26.083  1.00  0.00     0.054 C 
ATOM      9  C   UNL A   1      35.718  24.285  25.333  1.00  0.00     0.016 C 
ATOM     10  C   UNL A   1      34.714  22.222  26.359  1.00  0.00     0.266 C 
ATOM     11  C   UNL A   1      36.095  23.438  24.119  1.00  0.00     0.062 C 
ATOM     12  N   UNL A   1      34.969  21.479  25.118  1.00  0.00    -0.329 N 
ATOM     13  C   UNL A   1      36.196  21.951  24.467  1.00  0.00     0.262 C 
ATOM     14  H   UNL A   1      34.198  21.664  24.477  1.00  0.00     0.348 HD
BRANCH  12  15
ATOM     15  C   UNL A   1      34.974  20.014  25.345  1.00  0.00     0.331 C 
BRANCH  15  16
ATOM     16  C   UNL A   1      34.044  19.207  24.465  1.00  0.00     0.147 A 
ATOM     17  N   UNL A   1      32.940  19.677  23.918  1.00  0.00    -0.244 NA
ATOM     18  S   UNL A   1      34.381  17.552  24.120  1.00  0.00    -0.122 S 
ATOM     19  C   UNL A   1      32.283  18.673  23.241  1.00  0.00     0.123 A 
ATOM     20  C   UNL A   1      32.915  17.449  23.239  1.00  0.00     0.087 A 
ENDBRANCH  15  16
ENDBRANCH  12  15
ENDBRANCH   7   8
ENDBRANCH   5   7
ENDBRANCH   2   3
ENDBRANCH   1   2
BRANCH   1  21
ATOM     21  C   UNL A   1      33.579  28.585  27.126  1.00  0.00     0.118 C 
BRANCH  21  22
ATOM     22  N   UNL A   1      33.579  29.987  27.516  1.00  0.00    -0.352 N 
ATOM     23  C   UNL A   1      34.544  30.731  28.150  1.00  0.00     0.251 C 
ATOM     24  H   UNL A   1      32.758  30.481  27.290  1.00  0.00     0.163 HD
ATOM     25  O   UNL A   1      34.277  31.876  28.515  1.00  0.00    -0.269 OA
BRANCH  23  26
ATOM     26  C   UNL A   1      35.885  30.166  28.423  1.00  0.00     0.039 A 
ATOM     27  C   UNL A   1      36.845  30.200  27.406  1.00  0.00     0.014 A 
ATOM     28  C   UNL A   1      36.201  29.592  29.656  1.00  0.00     0.014 A 
ATOM     29  C   UNL A   1      38.141  29.737  27.655  1.00  0.00     0.010 A 
ATOM     30  C   UNL A   1      37.511  29.197  29.926  1.00  0.00     0.010 A 
ATOM     31  C   UNL A   1      38.499  29.274  28.932  1.00  0.00    -0.014 A 
BRANCH  31  32
ATOM     32  C   UNL A   1      39.907  28.913  29.254  1.00  0.00     0.031 A 
ATOM     33  C   UNL A   1      40.834  29.917  29.886  1.00  0.00     0.074 A 
ATOM     34  C   UNL A   1      40.370  27.693  28.916  1.00  0.00     0.049 A 
ATOM     35  N   UNL A   1      42.104  29.793  30.181  1.00  0.00    -0.248 NA
ATOM     36  C   UNL A   1      40.269  31.236  30.209  1.00  0.00     0.031 C 
ATOM     37  C   UNL A   1      39.585  26.640  28.267  1.00  0.00     0.029 A 
ATOM     38  N   UNL A   1      41.615  27.133  29.061  1.00  0.00    -0.354 N 
ATOM     39  C   UNL A   1      42.492  31.018  30.712  1.00  0.00     0.074 A 
ATOM     40  C   UNL A   1      41.335  31.885  30.656  1.00  0.00     0.031 C 
ATOM     41  C   UNL A   1      40.358  25.556  28.096  1.00  0.00     0.029 A 
ATOM     42  C   UNL A   1      41.705  25.849  28.573  1.00  0.00     0.049 A 
ATOM     43  H   UNL A   1      42.373  27.605  29.476  1.00  0.00     0.167 HD
ATOM     44  C   UNL A   1      43.697  31.383  31.215  1.00  0.00     0.031 A 
ATOM     45  C   UNL A   1      42.753  25.005  28.502  1.00  0.00     0.031 A 
ATOM     46  C   UNL A   1      44.848  30.517  31.267  1.00  0.00     0.049 A 
ATOM     47  C   UNL A   1      44.089  25.446  29.036  1.00  0.00     0.074 A 
ATOM     48  C   UNL A   1      46.096  30.781  31.806  1.00  0.00     0.029 A 
ATOM     49  N   UNL A   1      44.898  29.229  30.758  1.00  0.00    -0.354 N 
ATOM     50  N   UNL A   1      44.417  26.586  29.598  1.00  0.00    -0.248 NA
ATOM     51  C   UNL A   1      45.194  24.483  28.935  1.00  0.00     0.031 C 
ATOM     52  C   UNL A   1      46.919  29.676  31.564  1.00  0.00     0.029 A 
ATOM     53  C   UNL A   1      46.165  28.697  30.938  1.00  0.00     0.049 A 
ATOM     54  H   UNL A   1      44.144  28.761  30.330  1.00  0.00     0.167 HD
ATOM     55  C   UNL A   1      45.759  26.466  29.939  1.00  0.00     0.074 A 
ATOM     56  C   UNL A   1      46.177  25.138  29.539  1.00  0.00     0.031 C 
ATOM     57  C   UNL A   1      46.574  27.376  30.530  1.00  0.00     0.031 A 
BRANCH  44  58
ATOM     58  C   UNL A   1      43.840  32.790  31.740  1.00  0.00    -0.014 A 
ATOM     59  C   UNL A   1      43.572  33.096  33.086  1.00  0.00     0.010 A 
ATOM     60  C   UNL A   1      44.298  33.811  30.886  1.00  0.00     0.010 A 
ATOM     61  C   UNL A   1      43.720  34.403  33.559  1.00  0.00     0.020 A 
ATOM     62  C   UNL A   1      44.477  35.113  31.362  1.00  0.00     0.020 A 
ATOM     63  C   UNL A   1      44.170  35.405  32.693  1.00  0.00     0.054 A 
BRANCH  63  64
ATOM     64  S   UNL A   1      44.374  37.086  33.341  1.00  0.00     0.124 S 
ATOM     65  O   UNL A   1      43.444  37.844  32.506  1.00  0.00    -0.237 OA
ATOM     66  O   UNL A   1      43.982  36.939  34.741  1.00  0.00    -0.237 OA
ATOM     67  O   UNL A   1      45.788  37.376  33.118  1.00  0.00    -0.744 OA
ENDBRANCH  63  64
ENDBRANCH  44  58
BRANCH  45  68
ATOM     68  C   UNL A   1      42.579  23.654  27.901  1.00  0.00    -0.014 A 
ATOM     69  C   UNL A   1      42.206  22.558  28.698  1.00  0.00     0.010 A 
ATOM     70  C   UNL A   1      42.778  23.459  26.521  1.00  0.00     0.010 A 
ATOM     71  C   UNL A   1      42.052  21.289  28.131  1.00  0.00     0.020 A 
ATOM     72  C   UNL A   1      42.594  22.198  25.945  1.00  0.00     0.020 A 
ATOM     73  C   UNL A   1      42.244  21.118  26.757  1.00  0.00     0.054 A 
BRANCH  73  74
ATOM     74  S   UNL A   1      41.988  19.473  26.037  1.00  0.00     0.124 S 
ATOM     75  O   UNL A   1      42.469  18.598  27.101  1.00  0.00    -0.237 OA
ATOM     76  O   UNL A   1      40.546  19.453  25.803  1.00  0.00    -0.237 OA
ATOM     77  O   UNL A   1      42.808  19.497  24.828  1.00  0.00    -0.744 OA
ENDBRANCH  73  74
ENDBRANCH  45  68
BRANCH  57  78
ATOM     78  C   UNL A   1      47.994  26.958  30.809  1.00  0.00    -0.014 A 
ATOM     79  C   UNL A   1      49.022  27.192  29.877  1.00  0.00     0.010 A 
ATOM     80  C   UNL A   1      48.314  26.367  32.045  1.00  0.00     0.010 A 
ATOM     81  C   UNL A   1      50.336  26.811  30.163  1.00  0.00     0.020 A 
ATOM     82  C   UNL A   1      49.632  26.014  32.348  1.00  0.00     0.020 A 
ATOM     83  C   UNL A   1      50.632  26.224  31.398  1.00  0.00     0.054 A 
BRANCH  83  84
ATOM     84  S   UNL A   1      52.353  25.778  31.761  1.00  0.00     0.124 S 
ATOM     85  O   UNL A   1      53.011  26.038  30.483  1.00  0.00    -0.237 OA
ATOM     86  O   UNL A   1      52.700  26.696  32.843  1.00  0.00    -0.237 OA
ATOM     87  O   UNL A   1      52.274  24.371  32.145  1.00  0.00    -0.744 OA
ENDBRANCH  83  84
ENDBRANCH  57  78
ENDBRANCH  31  32
ENDBRANCH  23  26
ENDBRANCH  21  22
ENDBRANCH   1  21
TORSDOF 16
ENDMDL
MODEL 3
REMARK VINA RESULT:     -10.1      4.694     10.512
REMARK SMILES O=C(C[C@@H]1CCC[N@@H+](Cc2nccs2)C1)NCCCNC(=O)c1ccc(-c2c3nc(c(-c4ccc(S(=O)(=O)[O-])cc4)c4ccc([nH]4)c(-c4ccc(S(=O)(=O)[O-])cc4)c4nc(c(-c5ccc(S(=O)(=O)[O-])cc5)c5ccc2[nH]5)C=C4)C=C3)cc1
REMARK SMILES IDX 18 1 17 2 16 3 1 4 2 5 3 7 4 8 5 9 15 10 6 11 8 12 7 13 9 15
REMARK SMILES IDX 10 16 11 17 14 18 12 19 13 20 19 21 20 22 21 23 22 25 23 26
REMARK SMILES IDX 24 27 82 28 25 29 81 30 26 31 27 32 28 33 75 34 29 35 80 36
REMARK SMILES IDX 74 37 76 38 30 39 79 40 73 41 72 42 31 44 61 45 42 46 60 47
REMARK SMILES IDX 43 48 46 49 59 50 77 51 44 52 45 53 58 55 78 56 47 57 32 58
REMARK SMILES IDX 33 59 41 60 34 61 40 62 35 63 36 64 37 65 38 66 39 67 62 68
REMARK SMILES IDX 63 69 71 70 64 71 70 72 65 73 66 74 67 75 68 76 69 77 48 78
REMARK SMILES IDX 49 79 57 80 50 81 56 82 51 83 52 84 53 85 54 86 55 87
REMARK H PARENT 16 6 8 14 20 24 76 43 46 54
REMARK Flexibility Score: inf
ROOT
ATOM      1  C   UNL A   1      39.870  22.441  27.254  1.00  0.00     0.042 C 
ENDROOT
BRANCH   1   2
ATOM      2  C   UNL A   1      39.330  21.948  25.916  1.00  0.00     0.117 C 
BRANCH   2   3
ATOM      3  N   UNL A   1      37.903  21.699  25.968  1.00  0.00    -0.356 N 
ATOM      4  O   UNL A   1      37.245  23.898  26.121  1.00  0.00    -0.275 OA
ATOM      5  C   UNL A   1      36.968  22.705  26.066  1.00  0.00     0.220 C 
ATOM      6  H   UNL A   1      37.588  20.767  25.930  1.00  0.00     0.163 HD
BRANCH   5   7
ATOM      7  C   UNL A   1      35.541  22.201  26.141  1.00  0.00     0.109 C 
BRANCH   7   8
ATOM      8  C   UNL A   1      34.591  22.961  25.197  1.00  0.00     0.054 C 
ATOM      9  C   UNL A   1      33.449  23.667  25.945  1.00  0.00     0.016 C 
ATOM     10  C   UNL A   1      34.010  22.016  24.135  1.00  0.00     0.266 C 
ATOM     11  C   UNL A   1      32.392  22.685  26.446  1.00  0.00     0.062 C 
ATOM     12  N   UNL A   1      33.084  21.045  24.732  1.00  0.00    -0.329 N 
ATOM     13  C   UNL A   1      31.938  21.723  25.345  1.00  0.00     0.262 C 
ATOM     14  H   UNL A   1      33.579  20.556  25.478  1.00  0.00     0.348 HD
BRANCH  12  15
ATOM     15  C   UNL A   1      32.675  20.005  23.758  1.00  0.00     0.331 C 
BRANCH  15  16
ATOM     16  C   UNL A   1      32.769  18.574  24.243  1.00  0.00     0.147 A 
ATOM     17  N   UNL A   1      32.279  18.141  25.389  1.00  0.00    -0.244 NA
ATOM     18  S   UNL A   1      33.564  17.377  23.291  1.00  0.00    -0.122 S 
ATOM     19  C   UNL A   1      32.596  16.812  25.566  1.00  0.00     0.123 A 
ATOM     20  C   UNL A   1      33.290  16.226  24.530  1.00  0.00     0.087 A 
ENDBRANCH  15  16
ENDBRANCH  12  15
ENDBRANCH   7   8
ENDBRANCH   5   7
ENDBRANCH   2   3
ENDBRANCH   1   2
BRANCH   1  21
ATOM     21  C   UNL A   1      41.273  23.042  27.198  1.00  0.00     0.118 C 
BRANCH  21  22
ATOM     22  N   UNL A   1      41.460  23.966  26.089  1.00  0.00    -0.352 N 
ATOM     23  C   UNL A   1      41.426  25.339  26.065  1.00  0.00     0.251 C 
ATOM     24  H   UNL A   1      41.639  23.541  25.219  1.00  0.00     0.163 HD
ATOM     25  O   UNL A   1      41.467  25.922  24.982  1.00  0.00    -0.269 OA
BRANCH  23  26
ATOM     26  C   UNL A   1      41.311  26.121  27.317  1.00  0.00     0.039 A 
ATOM     27  C   UNL A   1      42.420  26.855  27.752  1.00  0.00     0.014 A 
ATOM     28  C   UNL A   1      40.136  26.128  28.072  1.00  0.00     0.014 A 
ATOM     29  C   UNL A   1      42.322  27.657  28.893  1.00  0.00     0.010 A 
ATOM     30  C   UNL A   1      40.017  26.983  29.168  1.00  0.00     0.010 A 
ATOM     31  C   UNL A   1      41.105  27.766  29.585  1.00  0.00    -0.014 A 
BRANCH  31  32
ATOM     32  C   UNL A   1      40.942  28.723  30.713  1.00  0.00     0.031 A 
ATOM     33  C   UNL A   1      41.790  28.606  31.951  1.00  0.00     0.074 A 
ATOM     34  C   UNL A   1      39.979  29.665  30.646  1.00  0.00     0.049 A 
ATOM     35  N   UNL A   1      41.743  29.315  33.051  1.00  0.00    -0.248 NA
ATOM     36  C   UNL A   1      42.806  27.543  31.966  1.00  0.00     0.031 C 
ATOM     37  C   UNL A   1      39.066  29.863  29.517  1.00  0.00     0.029 A 
ATOM     38  N   UNL A   1      39.600  30.627  31.549  1.00  0.00    -0.354 N 
ATOM     39  C   UNL A   1      42.713  28.780  33.890  1.00  0.00     0.074 A 
ATOM     40  C   UNL A   1      43.299  27.656  33.191  1.00  0.00     0.031 C 
ATOM     41  C   UNL A   1      38.254  30.898  29.784  1.00  0.00     0.029 A 
ATOM     42  C   UNL A   1      38.550  31.406  31.119  1.00  0.00     0.049 A 
ATOM     43  H   UNL A   1      40.039  30.750  32.422  1.00  0.00     0.167 HD
ATOM     44  C   UNL A   1      43.091  29.193  35.125  1.00  0.00     0.031 A 
ATOM     45  C   UNL A   1      37.886  32.405  31.733  1.00  0.00     0.031 A 
ATOM     46  C   UNL A   1      42.504  30.310  35.820  1.00  0.00     0.049 A 
ATOM     47  C   UNL A   1      38.302  32.824  33.117  1.00  0.00     0.074 A 
ATOM     48  C   UNL A   1      42.855  30.837  37.051  1.00  0.00     0.029 A 
ATOM     49  N   UNL A   1      41.440  31.066  35.353  1.00  0.00    -0.354 N 
ATOM     50  N   UNL A   1      39.268  32.347  33.866  1.00  0.00    -0.248 NA
ATOM     51  C   UNL A   1      37.545  33.921  33.734  1.00  0.00     0.031 C 
ATOM     52  C   UNL A   1      41.963  31.869  37.357  1.00  0.00     0.029 A 
ATOM     53  C   UNL A   1      41.099  32.033  36.286  1.00  0.00     0.049 A 
ATOM     54  H   UNL A   1      40.991  30.936  34.486  1.00  0.00     0.167 HD
ATOM     55  C   UNL A   1      39.250  33.103  35.032  1.00  0.00     0.074 A 
ATOM     56  C   UNL A   1      38.191  34.081  34.881  1.00  0.00     0.031 C 
ATOM     57  C   UNL A   1      40.039  32.997  36.130  1.00  0.00     0.031 A 
BRANCH  44  58
ATOM     58  C   UNL A   1      44.188  28.423  35.816  1.00  0.00    -0.014 A 
ATOM     59  C   UNL A   1      45.539  28.786  35.667  1.00  0.00     0.010 A 
ATOM     60  C   UNL A   1      43.861  27.351  36.668  1.00  0.00     0.010 A 
ATOM     61  C   UNL A   1      46.543  28.068  36.323  1.00  0.00     0.020 A 
ATOM     62  C   UNL A   1      44.859  26.650  37.351  1.00  0.00     0.020 A 
ATOM     63  C   UNL A   1      46.197  27.003  37.160  1.00  0.00     0.054 A 
BRANCH  63  64
ATOM     64  S   UNL A   1      47.520  26.105  38.015  1.00  0.00     0.124 S 
ATOM     65  O   UNL A   1      46.801  25.511  39.141  1.00  0.00    -0.237 OA
ATOM     66  O   UNL A   1      47.977  25.161  36.996  1.00  0.00    -0.237 OA
ATOM     67  O   UNL A   1      48.477  27.149  38.369  1.00  0.00    -0.744 OA
ENDBRANCH  63  64
ENDBRANCH  44  58
BRANCH  45  68
ATOM     68  C   UNL A   1      36.755  33.082  31.039  1.00  0.00    -0.014 A 
ATOM     69  C   UNL A   1      36.995  33.959  29.966  1.00  0.00     0.010 A 
ATOM     70  C   UNL A   1      35.428  32.844  31.442  1.00  0.00     0.010 A 
ATOM     71  C   UNL A   1      35.931  34.599  29.322  1.00  0.00     0.020 A 
ATOM     72  C   UNL A   1      34.360  33.457  30.780  1.00  0.00     0.020 A 
ATOM     73  C   UNL A   1      34.620  34.340  29.732  1.00  0.00     0.054 A 
BRANCH  73  74
ATOM     74  S   UNL A   1      33.255  35.143  28.847  1.00  0.00     0.124 S 
ATOM     75  O   UNL A   1      32.457  35.682  29.944  1.00  0.00    -0.237 OA
ATOM     76  O   UNL A   1      33.950  36.130  28.024  1.00  0.00    -0.237 OA
ATOM     77  O   UNL A   1      32.638  34.047  28.103  1.00  0.00    -0.744 OA
ENDBRANCH  73  74
ENDBRANCH  45  68
BRANCH  57  78
ATOM     78  C   UNL A   1      39.809  33.982  37.248  1.00  0.00    -0.014 A 
ATOM     79  C   UNL A   1      39.088  33.624  38.402  1.00  0.00     0.010 A 
ATOM     80  C   UNL A   1      40.367  35.271  37.163  1.00  0.00     0.010 A 
ATOM     81  C   UNL A   1      38.901  34.548  39.434  1.00  0.00     0.020 A 
ATOM     82  C   UNL A   1      40.209  36.187  38.207  1.00  0.00     0.020 A 
ATOM     83  C   UNL A   1      39.464  35.824  39.329  1.00  0.00     0.054 A 
BRANCH  83  84
ATOM     84  S   UNL A   1      39.242  36.990  40.702  1.00  0.00     0.124 S 
ATOM     85  O   UNL A   1      38.597  36.153  41.710  1.00  0.00    -0.237 OA
ATOM     86  O   UNL A   1      40.613  37.392  41.004  1.00  0.00    -0.237 OA
ATOM     87  O   UNL A   1      38.400  38.040  40.133  1.00  0.00    -0.744 OA
ENDBRANCH  83  84
ENDBRANCH  57  78
ENDBRANCH  31  32
ENDBRANCH  23  26
ENDBRANCH  21  22
ENDBRANCH   1  21
TORSDOF 16
ENDMDL
