MODEL 1
REMARK VINA RESULT:     -12.5      0.000      0.000
REMARK SMILES CC1(C)[C@@]2(C(=O)NCCCNC(=O)c3ccc(-c4c5nc(c(-c6ccc(S(=O)(=O)[O-])cc6)c6ccc([nH]6)c(-c6ccc(S(=O)(=O)[O-])cc6)c6nc(c(-c7ccc(S(=O)(=O)[O-])cc7)c7ccc4[nH]7)C=C6)C=C5)cc3)CC[C@]1(C)/C(=N/NC(=O)c1ccc(Cl)cc1)C2
REMARK SMILES IDX 9 1 8 2 7 3 5 4 6 5 4 7 1 8 2 9 3 10 76 11 74 12 90 13 75 14
REMARK SMILES IDX 77 15 78 16 79 17 80 18 81 19 82 21 83 22 84 23 89 24 85 25
REMARK SMILES IDX 88 26 86 27 87 28 10 29 11 30 12 31 13 33 14 34 15 35 73 36
REMARK SMILES IDX 16 37 72 38 17 39 18 40 19 41 66 42 20 43 71 44 65 45 67 46
REMARK SMILES IDX 21 47 70 48 64 49 63 50 22 52 52 53 33 54 51 55 34 56 37 57
REMARK SMILES IDX 50 58 68 59 35 60 36 61 49 63 69 64 38 65 23 66 24 67 32 68
REMARK SMILES IDX 25 69 31 70 26 71 27 72 28 73 29 74 30 75 53 76 54 77 62 78
REMARK SMILES IDX 55 79 61 80 56 81 57 82 58 83 59 84 60 85 39 86 40 87 48 88
REMARK SMILES IDX 41 89 47 90 42 91 43 92 44 93 45 94 46 95
REMARK H PARENT 7 6 80 20 11 32 67 51 37 62
REMARK Flexibility Score: inf
ROOT
ATOM      1  C   UNL A   1      34.829  29.118  27.288  1.00  0.00     0.042 C 
ENDROOT
BRANCH   1   2
ATOM      2  C   UNL A   1      34.030  29.466  26.018  1.00  0.00     0.117 C 
BRANCH   2   3
ATOM      3  N   UNL A   1      34.381  28.774  24.787  1.00  0.00    -0.356 N 
ATOM      4  C   UNL A   1      33.594  28.196  23.830  1.00  0.00     0.227 C 
ATOM      5  O   UNL A   1      33.997  28.310  22.669  1.00  0.00    -0.274 OA
ATOM      6  H   UNL A   1      35.349  28.712  24.614  1.00  0.00     0.163 HD
BRANCH   4   7
ATOM      7  C   UNL A   1      32.378  27.320  24.155  1.00  0.00     0.060 C 
ATOM      8  C   UNL A   1      30.578  29.184  24.493  1.00  0.00     0.013 C 
ATOM      9  C   UNL A   1      30.969  27.892  23.735  1.00  0.00    -0.010 C 
ATOM     10  C   UNL A   1      30.715  28.167  22.237  1.00  0.00     0.013 C 
ATOM     11  C   UNL A   1      30.228  26.607  24.218  1.00  0.00     0.014 C 
ATOM     12  C   UNL A   1      32.140  26.931  25.645  1.00  0.00     0.019 C 
ATOM     13  C   UNL A   1      32.460  25.994  23.360  1.00  0.00     0.071 C 
ATOM     14  C   UNL A   1      30.658  26.498  25.693  1.00  0.00     0.014 C 
ATOM     15  C   UNL A   1      28.731  26.525  24.000  1.00  0.00     0.018 C 
ATOM     16  C   UNL A   1      31.061  25.494  23.527  1.00  0.00     0.046 C 
ATOM     17  N   UNL A   1      30.526  24.337  23.329  1.00  0.00    -0.181 NA
BRANCH  17  18
ATOM     18  N   UNL A   1      31.010  23.157  22.872  1.00  0.00    -0.243 N 
ATOM     19  C   UNL A   1      32.122  22.350  22.949  1.00  0.00     0.271 C 
ATOM     20  H   UNL A   1      30.340  22.734  22.288  1.00  0.00     0.194 HD
ATOM     21  O   UNL A   1      32.143  21.304  22.301  1.00  0.00    -0.267 OA
BRANCH  19  22
ATOM     22  C   UNL A   1      33.322  22.655  23.719  1.00  0.00     0.041 A 
ATOM     23  C   UNL A   1      34.530  22.872  23.047  1.00  0.00     0.015 A 
ATOM     24  C   UNL A   1      33.296  22.581  25.109  1.00  0.00     0.015 A 
ATOM     25  C   UNL A   1      35.671  23.217  23.772  1.00  0.00     0.021 A 
ATOM     26  C   UNL A   1      34.430  22.964  25.824  1.00  0.00     0.021 A 
ATOM     27  C   UNL A   1      35.598  23.324  25.157  1.00  0.00     0.041 A 
ATOM     28  Cl  UNL A   1      36.937  23.935  26.045  1.00  0.00    -0.084 Cl
ENDBRANCH  19  22
ENDBRANCH  17  18
ENDBRANCH   4   7
ENDBRANCH   2   3
ENDBRANCH   1   2
BRANCH   1  29
ATOM     29  C   UNL A   1      35.719  30.202  27.922  1.00  0.00     0.118 C 
BRANCH  29  30
ATOM     30  N   UNL A   1      35.987  29.917  29.321  1.00  0.00    -0.352 N 
ATOM     31  C   UNL A   1      37.019  29.260  29.946  1.00  0.00     0.251 C 
ATOM     32  H   UNL A   1      35.301  30.261  29.938  1.00  0.00     0.163 HD
ATOM     33  O   UNL A   1      36.837  28.920  31.116  1.00  0.00    -0.269 OA
BRANCH  31  34
ATOM     34  C   UNL A   1      38.333  28.952  29.310  1.00  0.00     0.039 A 
ATOM     35  C   UNL A   1      39.364  28.504  30.152  1.00  0.00     0.014 A 
ATOM     36  C   UNL A   1      38.645  29.260  27.982  1.00  0.00     0.014 A 
ATOM     37  C   UNL A   1      40.681  28.388  29.684  1.00  0.00     0.010 A 
ATOM     38  C   UNL A   1      39.964  29.107  27.503  1.00  0.00     0.010 A 
ATOM     39  C   UNL A   1      41.005  28.697  28.354  1.00  0.00    -0.014 A 
BRANCH  39  40
ATOM     40  C   UNL A   1      42.429  28.617  27.901  1.00  0.00     0.031 A 
ATOM     41  C   UNL A   1      43.375  29.784  28.072  1.00  0.00     0.074 A 
ATOM     42  C   UNL A   1      42.905  27.473  27.365  1.00  0.00     0.049 A 
ATOM     43  N   UNL A   1      44.662  29.850  27.821  1.00  0.00    -0.248 NA
ATOM     44  C   UNL A   1      42.804  31.038  28.583  1.00  0.00     0.031 C 
ATOM     45  C   UNL A   1      42.116  26.266  27.118  1.00  0.00     0.029 A 
ATOM     46  N   UNL A   1      44.171  27.133  26.946  1.00  0.00    -0.354 N 
ATOM     47  C   UNL A   1      45.052  31.149  28.135  1.00  0.00     0.074 A 
ATOM     48  C   UNL A   1      43.855  31.847  28.560  1.00  0.00     0.031 C 
ATOM     49  C   UNL A   1      42.917  25.312  26.617  1.00  0.00     0.029 A 
ATOM     50  C   UNL A   1      44.273  25.839  26.487  1.00  0.00     0.049 A 
ATOM     51  H   UNL A   1      44.932  27.757  26.971  1.00  0.00     0.167 HD
ATOM     52  C   UNL A   1      46.287  31.711  28.089  1.00  0.00     0.031 A 
ATOM     53  C   UNL A   1      45.333  25.145  26.024  1.00  0.00     0.031 A 
ATOM     54  C   UNL A   1      47.486  31.028  27.673  1.00  0.00     0.049 A 
ATOM     55  C   UNL A   1      46.695  25.784  25.989  1.00  0.00     0.074 A 
ATOM     56  C   UNL A   1      48.785  31.512  27.639  1.00  0.00     0.029 A 
ATOM     57  N   UNL A   1      47.541  29.721  27.216  1.00  0.00    -0.354 N 
ATOM     58  N   UNL A   1      47.046  26.994  26.352  1.00  0.00    -0.248 NA
ATOM     59  C   UNL A   1      47.807  24.954  25.504  1.00  0.00     0.031 C 
ATOM     60  C   UNL A   1      49.617  30.512  27.122  1.00  0.00     0.029 A 
ATOM     61  C   UNL A   1      48.845  29.388  26.884  1.00  0.00     0.049 A 
ATOM     62  H   UNL A   1      46.766  29.118  27.140  1.00  0.00     0.167 HD
ATOM     63  C   UNL A   1      48.424  27.060  26.166  1.00  0.00     0.074 A 
ATOM     64  C   UNL A   1      48.844  25.765  25.671  1.00  0.00     0.031 C 
ATOM     65  C   UNL A   1      49.264  28.100  26.390  1.00  0.00     0.031 A 
BRANCH  52  66
ATOM     66  C   UNL A   1      46.409  33.160  28.496  1.00  0.00    -0.014 A 
ATOM     67  C   UNL A   1      46.195  34.196  27.568  1.00  0.00     0.010 A 
ATOM     68  C   UNL A   1      46.687  33.491  29.835  1.00  0.00     0.010 A 
ATOM     69  C   UNL A   1      46.304  35.533  27.960  1.00  0.00     0.020 A 
ATOM     70  C   UNL A   1      46.771  34.828  30.238  1.00  0.00     0.020 A 
ATOM     71  C   UNL A   1      46.600  35.842  29.292  1.00  0.00     0.054 A 
BRANCH  71  72
ATOM     72  S   UNL A   1      46.729  37.585  29.777  1.00  0.00     0.124 S 
ATOM     73  O   UNL A   1      48.030  37.954  29.225  1.00  0.00    -0.237 OA
ATOM     74  O   UNL A   1      45.575  38.190  29.117  1.00  0.00    -0.237 OA
ATOM     75  O   UNL A   1      46.659  37.546  31.235  1.00  0.00    -0.744 OA
ENDBRANCH  71  72
ENDBRANCH  52  66
BRANCH  53  76
ATOM     76  C   UNL A   1      45.152  23.735  25.578  1.00  0.00    -0.014 A 
ATOM     77  C   UNL A   1      45.363  22.669  26.470  1.00  0.00     0.010 A 
ATOM     78  C   UNL A   1      44.755  23.455  24.258  1.00  0.00     0.010 A 
ATOM     79  C   UNL A   1      45.192  21.348  26.047  1.00  0.00     0.020 A 
ATOM     80  C   UNL A   1      44.559  22.136  23.839  1.00  0.00     0.020 A 
ATOM     81  C   UNL A   1      44.788  21.090  24.734  1.00  0.00     0.054 A 
BRANCH  81  82
ATOM     82  S   UNL A   1      44.508  19.371  24.225  1.00  0.00     0.124 S 
ATOM     83  O   UNL A   1      45.635  18.682  24.849  1.00  0.00    -0.237 OA
ATOM     84  O   UNL A   1      43.194  19.080  24.796  1.00  0.00    -0.237 OA
ATOM     85  O   UNL A   1      44.543  19.437  22.768  1.00  0.00    -0.744 OA
ENDBRANCH  81  82
ENDBRANCH  53  76
BRANCH  65  86
ATOM     86  C   UNL A   1      50.733  27.877  26.141  1.00  0.00    -0.014 A 
ATOM     87  C   UNL A   1      51.582  27.386  27.150  1.00  0.00     0.010 A 
ATOM     88  C   UNL A   1      51.267  28.132  24.865  1.00  0.00     0.010 A 
ATOM     89  C   UNL A   1      52.944  27.193  26.898  1.00  0.00     0.020 A 
ATOM     90  C   UNL A   1      52.624  27.918  24.602  1.00  0.00     0.020 A 
ATOM     91  C   UNL A   1      53.458  27.467  25.627  1.00  0.00     0.054 A 
BRANCH  91  92
ATOM     92  S   UNL A   1      55.224  27.186  25.315  1.00  0.00     0.124 S 
ATOM     93  O   UNL A   1      55.728  26.904  26.655  1.00  0.00    -0.237 OA
ATOM     94  O   UNL A   1      55.213  26.051  24.395  1.00  0.00    -0.237 OA
ATOM     95  O   UNL A   1      55.676  28.448  24.732  1.00  0.00    -0.744 OA
ENDBRANCH  91  92
ENDBRANCH  65  86
ENDBRANCH  39  40
ENDBRANCH  31  34
ENDBRANCH  29  30
ENDBRANCH   1  29
TORSDOF 15
ENDMDL
MODEL 2
REMARK VINA RESULT:     -12.4      3.687      4.994
REMARK SMILES CC1(C)[C@@]2(C(=O)NCCCNC(=O)c3ccc(-c4c5nc(c(-c6ccc(S(=O)(=O)[O-])cc6)c6ccc([nH]6)c(-c6ccc(S(=O)(=O)[O-])cc6)c6nc(c(-c7ccc(S(=O)(=O)[O-])cc7)c7ccc4[nH]7)C=C6)C=C5)cc3)CC[C@]1(C)/C(=N/NC(=O)c1ccc(Cl)cc1)C2
REMARK SMILES IDX 9 1 8 2 7 3 5 4 6 5 4 7 1 8 2 9 3 10 76 11 74 12 90 13 75 14
REMARK SMILES IDX 77 15 78 16 79 17 80 18 81 19 82 21 83 22 84 23 89 24 85 25
REMARK SMILES IDX 88 26 86 27 87 28 10 29 11 30 12 31 13 33 14 34 15 35 73 36
REMARK SMILES IDX 16 37 72 38 17 39 18 40 19 41 66 42 20 43 71 44 65 45 67 46
REMARK SMILES IDX 21 47 70 48 64 49 63 50 22 52 52 53 33 54 51 55 34 56 37 57
REMARK SMILES IDX 50 58 68 59 35 60 36 61 49 63 69 64 38 65 23 66 24 67 32 68
REMARK SMILES IDX 25 69 31 70 26 71 27 72 28 73 29 74 30 75 53 76 54 77 62 78
REMARK SMILES IDX 55 79 61 80 56 81 57 82 58 83 59 84 60 85 39 86 40 87 48 88
REMARK SMILES IDX 41 89 47 90 42 91 43 92 44 93 45 94 46 95
REMARK H PARENT 7 6 80 20 11 32 67 51 37 62
REMARK Flexibility Score: inf
ROOT
ATOM      1  C   UNL A   1      31.547  27.920  27.353  1.00  0.00     0.042 C 
ENDROOT
BRANCH   1   2
ATOM      2  C   UNL A   1      31.015  26.968  26.265  1.00  0.00     0.117 C 
BRANCH   2   3
ATOM      3  N   UNL A   1      30.823  25.571  26.624  1.00  0.00    -0.356 N 
ATOM      4  C   UNL A   1      31.723  24.550  26.761  1.00  0.00     0.227 C 
ATOM      5  O   UNL A   1      31.485  23.749  27.668  1.00  0.00    -0.274 OA
ATOM      6  H   UNL A   1      29.887  25.317  26.798  1.00  0.00     0.163 HD
BRANCH   4   7
ATOM      7  C   UNL A   1      32.867  24.298  25.771  1.00  0.00     0.060 C 
ATOM      8  C   UNL A   1      34.179  22.459  27.084  1.00  0.00     0.013 C 
ATOM      9  C   UNL A   1      33.477  22.843  25.759  1.00  0.00    -0.010 C 
ATOM     10  C   UNL A   1      32.541  21.668  25.401  1.00  0.00     0.013 C 
ATOM     11  C   UNL A   1      34.446  23.185  24.586  1.00  0.00     0.014 C 
ATOM     12  C   UNL A   1      34.143  25.185  25.894  1.00  0.00     0.019 C 
ATOM     13  C   UNL A   1      32.351  24.465  24.321  1.00  0.00     0.071 C 
ATOM     14  C   UNL A   1      35.230  24.394  25.131  1.00  0.00     0.014 C 
ATOM     15  C   UNL A   1      35.319  22.075  24.037  1.00  0.00     0.018 C 
ATOM     16  C   UNL A   1      33.472  23.831  23.562  1.00  0.00     0.046 C 
ATOM     17  N   UNL A   1      33.797  23.857  22.314  1.00  0.00    -0.181 NA
BRANCH  17  18
ATOM     18  N   UNL A   1      33.238  24.432  21.222  1.00  0.00    -0.243 N 
ATOM     19  C   UNL A   1      32.537  25.553  20.839  1.00  0.00     0.271 C 
ATOM     20  H   UNL A   1      33.383  23.854  20.438  1.00  0.00     0.194 HD
ATOM     21  O   UNL A   1      32.182  25.659  19.665  1.00  0.00    -0.267 OA
BRANCH  19  22
ATOM     22  C   UNL A   1      32.134  26.631  21.734  1.00  0.00     0.041 A 
ATOM     23  C   UNL A   1      33.116  27.410  22.354  1.00  0.00     0.015 A 
ATOM     24  C   UNL A   1      30.794  26.784  22.082  1.00  0.00     0.015 A 
ATOM     25  C   UNL A   1      32.739  28.477  23.170  1.00  0.00     0.021 A 
ATOM     26  C   UNL A   1      30.423  27.876  22.865  1.00  0.00     0.021 A 
ATOM     27  C   UNL A   1      31.389  28.744  23.370  1.00  0.00     0.041 A 
ATOM     28  Cl  UNL A   1      30.907  30.165  24.208  1.00  0.00    -0.084 Cl
ENDBRANCH  19  22
ENDBRANCH  17  18
ENDBRANCH   4   7
ENDBRANCH   2   3
ENDBRANCH   1   2
BRANCH   1  29
ATOM     29  C   UNL A   1      33.040  28.293  27.343  1.00  0.00     0.118 C 
BRANCH  29  30
ATOM     30  N   UNL A   1      33.234  29.711  27.590  1.00  0.00    -0.352 N 
ATOM     31  C   UNL A   1      34.303  30.423  28.078  1.00  0.00     0.251 C 
ATOM     32  H   UNL A   1      32.454  30.268  27.363  1.00  0.00     0.163 HD
ATOM     33  O   UNL A   1      34.082  31.577  28.449  1.00  0.00    -0.269 OA
BRANCH  31  34
ATOM     34  C   UNL A   1      35.697  29.899  28.168  1.00  0.00     0.039 A 
ATOM     35  C   UNL A   1      36.111  29.387  29.408  1.00  0.00     0.014 A 
ATOM     36  C   UNL A   1      36.655  30.062  27.162  1.00  0.00     0.014 A 
ATOM     37  C   UNL A   1      37.456  29.066  29.646  1.00  0.00     0.010 A 
ATOM     38  C   UNL A   1      38.001  29.703  27.391  1.00  0.00     0.010 A 
ATOM     39  C   UNL A   1      38.425  29.228  28.644  1.00  0.00    -0.014 A 
BRANCH  39  40
ATOM     40  C   UNL A   1      39.860  28.929  28.947  1.00  0.00     0.031 A 
ATOM     41  C   UNL A   1      40.737  29.931  29.662  1.00  0.00     0.074 A 
ATOM     42  C   UNL A   1      40.384  27.730  28.620  1.00  0.00     0.049 A 
ATOM     43  N   UNL A   1      41.973  29.797  30.085  1.00  0.00    -0.248 NA
ATOM     44  C   UNL A   1      40.158  31.255  29.931  1.00  0.00     0.031 C 
ATOM     45  C   UNL A   1      39.674  26.664  27.912  1.00  0.00     0.029 A 
ATOM     46  N   UNL A   1      41.633  27.198  28.851  1.00  0.00    -0.354 N 
ATOM     47  C   UNL A   1      42.320  31.016  30.661  1.00  0.00     0.074 A 
ATOM     48  C   UNL A   1      41.176  31.889  30.499  1.00  0.00     0.031 C 
ATOM     49  C   UNL A   1      40.485  25.600  27.791  1.00  0.00     0.029 A 
ATOM     50  C   UNL A   1      41.780  25.909  28.393  1.00  0.00     0.049 A 
ATOM     51  H   UNL A   1      42.354  27.695  29.301  1.00  0.00     0.167 HD
ATOM     52  C   UNL A   1      43.474  31.377  31.279  1.00  0.00     0.031 A 
ATOM     53  C   UNL A   1      42.828  25.061  28.454  1.00  0.00     0.031 A 
ATOM     54  C   UNL A   1      44.619  30.518  31.451  1.00  0.00     0.049 A 
ATOM     55  C   UNL A   1      44.094  25.479  29.151  1.00  0.00     0.074 A 
ATOM     56  C   UNL A   1      45.811  30.793  32.104  1.00  0.00     0.029 A 
ATOM     57  N   UNL A   1      44.722  29.223  30.970  1.00  0.00    -0.354 N 
ATOM     58  N   UNL A   1      44.372  26.615  29.742  1.00  0.00    -0.248 NA
ATOM     59  C   UNL A   1      45.180  24.489  29.207  1.00  0.00     0.031 C 
ATOM     60  C   UNL A   1      46.649  29.679  31.980  1.00  0.00     0.029 A 
ATOM     61  C   UNL A   1      45.960  28.692  31.296  1.00  0.00     0.049 A 
ATOM     62  H   UNL A   1      44.018  28.750  30.470  1.00  0.00     0.167 HD
ATOM     63  C   UNL A   1      45.653  26.466  30.266  1.00  0.00     0.074 A 
ATOM     64  C   UNL A   1      46.090  25.126  29.933  1.00  0.00     0.031 C 
ATOM     65  C   UNL A   1      46.396  27.359  30.964  1.00  0.00     0.031 A 
BRANCH  52  66
ATOM     66  C   UNL A   1      43.565  32.785  31.816  1.00  0.00    -0.014 A 
ATOM     67  C   UNL A   1      43.998  33.847  31.001  1.00  0.00     0.010 A 
ATOM     68  C   UNL A   1      43.163  33.060  33.136  1.00  0.00     0.010 A 
ATOM     69  C   UNL A   1      44.071  35.147  31.509  1.00  0.00     0.020 A 
ATOM     70  C   UNL A   1      43.209  34.363  33.641  1.00  0.00     0.020 A 
ATOM     71  C   UNL A   1      43.684  35.397  32.830  1.00  0.00     0.054 A 
BRANCH  71  72
ATOM     72  S   UNL A   1      43.781  37.094  33.463  1.00  0.00     0.124 S 
ATOM     73  O   UNL A   1      45.025  37.057  34.227  1.00  0.00    -0.237 OA
ATOM     74  O   UNL A   1      43.819  37.893  32.241  1.00  0.00    -0.237 OA
ATOM     75  O   UNL A   1      42.565  37.238  34.260  1.00  0.00    -0.744 OA
ENDBRANCH  71  72
ENDBRANCH  52  66
BRANCH  53  76
ATOM     76  C   UNL A   1      42.710  23.701  27.858  1.00  0.00    -0.014 A 
ATOM     77  C   UNL A   1      42.274  22.614  28.634  1.00  0.00     0.010 A 
ATOM     78  C   UNL A   1      43.024  23.492  26.502  1.00  0.00     0.010 A 
ATOM     79  C   UNL A   1      42.166  21.339  28.070  1.00  0.00     0.020 A 
ATOM     80  C   UNL A   1      42.893  22.224  25.928  1.00  0.00     0.020 A 
ATOM     81  C   UNL A   1      42.473  21.153  26.719  1.00  0.00     0.054 A 
BRANCH  81  82
ATOM     82  S   UNL A   1      42.262  19.505  25.990  1.00  0.00     0.124 S 
ATOM     83  O   UNL A   1      43.150  19.571  24.831  1.00  0.00    -0.237 OA
ATOM     84  O   UNL A   1      42.699  18.622  27.070  1.00  0.00    -0.237 OA
ATOM     85  O   UNL A   1      40.837  19.446  25.686  1.00  0.00    -0.744 OA
ENDBRANCH  81  82
ENDBRANCH  53  76
BRANCH  65  86
ATOM     86  C   UNL A   1      47.750  26.910  31.453  1.00  0.00    -0.014 A 
ATOM     87  C   UNL A   1      48.924  27.210  30.739  1.00  0.00     0.010 A 
ATOM     88  C   UNL A   1      47.850  26.202  32.665  1.00  0.00     0.010 A 
ATOM     89  C   UNL A   1      50.168  26.777  31.209  1.00  0.00     0.020 A 
ATOM     90  C   UNL A   1      49.094  25.788  33.149  1.00  0.00     0.020 A 
ATOM     91  C   UNL A   1      50.245  26.062  32.408  1.00  0.00     0.054 A 
BRANCH  91  92
ATOM     92  S   UNL A   1      51.873  25.531  33.011  1.00  0.00     0.124 S 
ATOM     93  O   UNL A   1      52.101  26.453  34.119  1.00  0.00    -0.237 OA
ATOM     94  O   UNL A   1      51.639  24.139  33.389  1.00  0.00    -0.237 OA
ATOM     95  O   UNL A   1      52.747  25.717  31.854  1.00  0.00    -0.744 OA
ENDBRANCH  91  92
ENDBRANCH  65  86
ENDBRANCH  39  40
ENDBRANCH  31  34
ENDBRANCH  29  30
ENDBRANCH   1  29
TORSDOF 15
ENDMDL
MODEL 3
REMARK VINA RESULT:     -12.3      6.649     12.137
REMARK SMILES CC1(C)[C@@]2(C(=O)NCCCNC(=O)c3ccc(-c4c5nc(c(-c6ccc(S(=O)(=O)[O-])cc6)c6ccc([nH]6)c(-c6ccc(S(=O)(=O)[O-])cc6)c6nc(c(-c7ccc(S(=O)(=O)[O-])cc7)c7ccc4[nH]7)C=C6)C=C5)cc3)CC[C@]1(C)/C(=N/NC(=O)c1ccc(Cl)cc1)C2
REMARK SMILES IDX 9 1 8 2 7 3 5 4 6 5 4 7 1 8 2 9 3 10 76 11 74 12 90 13 75 14
REMARK SMILES IDX 77 15 78 16 79 17 80 18 81 19 82 21 83 22 84 23 89 24 85 25
REMARK SMILES IDX 88 26 86 27 87 28 10 29 11 30 12 31 13 33 14 34 15 35 73 36
REMARK SMILES IDX 16 37 72 38 17 39 18 40 19 41 66 42 20 43 71 44 65 45 67 46
REMARK SMILES IDX 21 47 70 48 64 49 63 50 22 52 52 53 33 54 51 55 34 56 37 57
REMARK SMILES IDX 50 58 68 59 35 60 36 61 49 63 69 64 38 65 23 66 24 67 32 68
REMARK SMILES IDX 25 69 31 70 26 71 27 72 28 73 29 74 30 75 53 76 54 77 62 78
REMARK SMILES IDX 55 79 61 80 56 81 57 82 58 83 59 84 60 85 39 86 40 87 48 88
REMARK SMILES IDX 41 89 47 90 42 91 43 92 44 93 45 94 46 95
REMARK H PARENT 7 6 80 20 11 32 67 51 37 62
REMARK Flexibility Score: inf
ROOT
ATOM      1  C   UNL A   1      40.090  21.784  26.254  1.00  0.00     0.042 C 
ENDROOT
BRANCH   1   2
ATOM      2  C   UNL A   1      38.640  21.897  25.745  1.00  0.00     0.117 C 
BRANCH   2   3
ATOM      3  N   UNL A   1      38.029  23.218  25.734  1.00  0.00    -0.356 N 
ATOM      4  C   UNL A   1      36.721  23.600  25.854  1.00  0.00     0.227 C 
ATOM      5  O   UNL A   1      36.528  24.645  26.480  1.00  0.00    -0.274 OA
ATOM      6  H   UNL A   1      38.664  23.962  25.620  1.00  0.00     0.163 HD
BRANCH   4   7
ATOM      7  C   UNL A   1      35.567  22.891  25.135  1.00  0.00     0.060 C 
ATOM      8  C   UNL A   1      34.485  21.652  27.165  1.00  0.00     0.013 C 
ATOM      9  C   UNL A   1      34.264  22.630  25.985  1.00  0.00    -0.010 C 
ATOM     10  C   UNL A   1      33.518  23.852  26.562  1.00  0.00     0.013 C 
ATOM     11  C   UNL A   1      33.509  22.016  24.767  1.00  0.00     0.014 C 
ATOM     12  C   UNL A   1      35.845  21.483  24.525  1.00  0.00     0.019 C 
ATOM     13  C   UNL A   1      35.047  23.778  23.977  1.00  0.00     0.071 C 
ATOM     14  C   UNL A   1      34.440  20.870  24.328  1.00  0.00     0.014 C 
ATOM     15  C   UNL A   1      32.064  21.603  24.960  1.00  0.00     0.018 C 
ATOM     16  C   UNL A   1      33.749  23.099  23.680  1.00  0.00     0.046 C 
ATOM     17  N   UNL A   1      32.943  23.173  22.675  1.00  0.00    -0.181 NA
BRANCH  17  18
ATOM     18  N   UNL A   1      32.946  23.906  21.536  1.00  0.00    -0.243 N 
ATOM     19  C   UNL A   1      32.785  25.199  21.090  1.00  0.00     0.271 C 
ATOM     20  H   UNL A   1      33.122  23.315  20.768  1.00  0.00     0.194 HD
ATOM     21  O   UNL A   1      32.846  25.421  19.880  1.00  0.00    -0.267 OA
BRANCH  19  22
ATOM     22  C   UNL A   1      32.504  26.347  21.943  1.00  0.00     0.041 A 
ATOM     23  C   UNL A   1      31.212  26.885  21.962  1.00  0.00     0.015 A 
ATOM     24  C   UNL A   1      33.542  26.990  22.611  1.00  0.00     0.015 A 
ATOM     25  C   UNL A   1      30.921  27.950  22.815  1.00  0.00     0.021 A 
ATOM     26  C   UNL A   1      33.235  28.028  23.490  1.00  0.00     0.021 A 
ATOM     27  C   UNL A   1      31.923  28.475  23.625  1.00  0.00     0.041 A 
ATOM     28  Cl  UNL A   1      31.538  29.651  24.818  1.00  0.00    -0.084 Cl
ENDBRANCH  19  22
ENDBRANCH  17  18
ENDBRANCH   4   7
ENDBRANCH   2   3
ENDBRANCH   1   2
BRANCH   1  29
ATOM     29  C   UNL A   1      40.688  22.960  27.048  1.00  0.00     0.118 C 
BRANCH  29  30
ATOM     30  N   UNL A   1      41.453  23.846  26.187  1.00  0.00    -0.352 N 
ATOM     31  C   UNL A   1      41.531  25.215  26.113  1.00  0.00     0.251 C 
ATOM     32  H   UNL A   1      42.024  23.378  25.536  1.00  0.00     0.163 HD
ATOM     33  O   UNL A   1      42.041  25.691  25.097  1.00  0.00    -0.269 OA
BRANCH  31  34
ATOM     34  C   UNL A   1      41.059  26.149  27.177  1.00  0.00     0.039 A 
ATOM     35  C   UNL A   1      41.781  27.340  27.352  1.00  0.00     0.014 A 
ATOM     36  C   UNL A   1      40.076  25.822  28.117  1.00  0.00     0.014 A 
ATOM     37  C   UNL A   1      41.543  28.175  28.454  1.00  0.00     0.010 A 
ATOM     38  C   UNL A   1      39.812  26.683  29.204  1.00  0.00     0.010 A 
ATOM     39  C   UNL A   1      40.561  27.855  29.403  1.00  0.00    -0.014 A 
BRANCH  39  40
ATOM     40  C   UNL A   1      40.369  28.739  30.596  1.00  0.00     0.031 A 
ATOM     41  C   UNL A   1      41.236  28.597  31.827  1.00  0.00     0.074 A 
ATOM     42  C   UNL A   1      39.435  29.713  30.574  1.00  0.00     0.049 A 
ATOM     43  N   UNL A   1      41.266  29.340  32.908  1.00  0.00    -0.248 NA
ATOM     44  C   UNL A   1      42.186  27.476  31.849  1.00  0.00     0.031 C 
ATOM     45  C   UNL A   1      38.509  29.967  29.470  1.00  0.00     0.029 A 
ATOM     46  N   UNL A   1      39.121  30.682  31.499  1.00  0.00    -0.354 N 
ATOM     47  C   UNL A   1      42.228  28.773  33.741  1.00  0.00     0.074 A 
ATOM     48  C   UNL A   1      42.731  27.603  33.052  1.00  0.00     0.031 C 
ATOM     49  C   UNL A   1      37.751  31.034  29.769  1.00  0.00     0.029 A 
ATOM     50  C   UNL A   1      38.119  31.533  31.092  1.00  0.00     0.049 A 
ATOM     51  H   UNL A   1      39.570  30.758  32.372  1.00  0.00     0.167 HD
ATOM     52  C   UNL A   1      42.665  29.190  34.957  1.00  0.00     0.031 A 
ATOM     53  C   UNL A   1      37.561  32.600  31.700  1.00  0.00     0.031 A 
ATOM     54  C   UNL A   1      42.177  30.354  35.652  1.00  0.00     0.049 A 
ATOM     55  C   UNL A   1      38.067  33.050  33.044  1.00  0.00     0.074 A 
ATOM     56  C   UNL A   1      42.598  30.871  36.868  1.00  0.00     0.029 A 
ATOM     57  N   UNL A   1      41.162  31.184  35.202  1.00  0.00    -0.354 N 
ATOM     58  N   UNL A   1      39.021  32.533  33.780  1.00  0.00    -0.248 NA
ATOM     59  C   UNL A   1      37.433  34.241  33.629  1.00  0.00     0.031 C 
ATOM     60  C   UNL A   1      41.808  31.986  37.172  1.00  0.00     0.029 A 
ATOM     61  C   UNL A   1      40.933  32.196  36.121  1.00  0.00     0.049 A 
ATOM     62  H   UNL A   1      40.677  31.070  34.353  1.00  0.00     0.167 HD
ATOM     63  C   UNL A   1      39.121  33.354  34.900  1.00  0.00     0.074 A 
ATOM     64  C   UNL A   1      38.141  34.407  34.739  1.00  0.00     0.031 C 
ATOM     65  C   UNL A   1      39.956  33.244  35.962  1.00  0.00     0.031 A 
BRANCH  52  66
ATOM     66  C   UNL A   1      43.735  28.365  35.633  1.00  0.00    -0.014 A 
ATOM     67  C   UNL A   1      45.098  28.682  35.485  1.00  0.00     0.010 A 
ATOM     68  C   UNL A   1      43.371  27.294  36.469  1.00  0.00     0.010 A 
ATOM     69  C   UNL A   1      46.077  27.915  36.122  1.00  0.00     0.020 A 
ATOM     70  C   UNL A   1      44.346  26.540  37.130  1.00  0.00     0.020 A 
ATOM     71  C   UNL A   1      45.696  26.842  36.935  1.00  0.00     0.054 A 
BRANCH  71  72
ATOM     72  S   UNL A   1      46.986  25.867  37.757  1.00  0.00     0.124 S 
ATOM     73  O   UNL A   1      47.467  26.801  38.771  1.00  0.00    -0.237 OA
ATOM     74  O   UNL A   1      46.244  24.716  38.267  1.00  0.00    -0.237 OA
ATOM     75  O   UNL A   1      47.932  25.568  36.685  1.00  0.00    -0.744 OA
ENDBRANCH  71  72
ENDBRANCH  52  66
BRANCH  53  76
ATOM     76  C   UNL A   1      36.468  33.348  31.019  1.00  0.00    -0.014 A 
ATOM     77  C   UNL A   1      36.669  33.911  29.747  1.00  0.00     0.010 A 
ATOM     78  C   UNL A   1      35.212  33.489  31.639  1.00  0.00     0.010 A 
ATOM     79  C   UNL A   1      35.640  34.611  29.111  1.00  0.00     0.020 A 
ATOM     80  C   UNL A   1      34.173  34.167  30.995  1.00  0.00     0.020 A 
ATOM     81  C   UNL A   1      34.397  34.733  29.739  1.00  0.00     0.054 A 
BRANCH  81  82
ATOM     82  S   UNL A   1      33.054  35.589  28.869  1.00  0.00     0.124 S 
ATOM     83  O   UNL A   1      32.465  34.508  28.082  1.00  0.00    -0.237 OA
ATOM     84  O   UNL A   1      32.233  36.091  29.969  1.00  0.00    -0.237 OA
ATOM     85  O   UNL A   1      33.747  36.618  28.101  1.00  0.00    -0.744 OA
ENDBRANCH  81  82
ENDBRANCH  53  76
BRANCH  65  86
ATOM     86  C   UNL A   1      39.878  34.311  37.024  1.00  0.00    -0.014 A 
ATOM     87  C   UNL A   1      40.584  35.522  36.899  1.00  0.00     0.010 A 
ATOM     88  C   UNL A   1      39.059  34.111  38.150  1.00  0.00     0.010 A 
ATOM     89  C   UNL A   1      40.501  36.495  37.900  1.00  0.00     0.020 A 
ATOM     90  C   UNL A   1      38.956  35.091  39.141  1.00  0.00     0.020 A 
ATOM     91  C   UNL A   1      39.693  36.271  39.019  1.00  0.00     0.054 A 
BRANCH  91  92
ATOM     92  S   UNL A   1      39.582  37.558  40.295  1.00  0.00     0.124 S 
ATOM     93  O   UNL A   1      40.979  37.954  40.447  1.00  0.00    -0.237 OA
ATOM     94  O   UNL A   1      38.710  38.553  39.675  1.00  0.00    -0.237 OA
ATOM     95  O   UNL A   1      39.004  36.859  41.441  1.00  0.00    -0.744 OA
ENDBRANCH  91  92
ENDBRANCH  65  86
ENDBRANCH  39  40
ENDBRANCH  31  34
ENDBRANCH  29  30
ENDBRANCH   1  29
TORSDOF 15
ENDMDL
