MODEL 1
REMARK VINA RESULT:     -11.6      0.000      0.000
REMARK SMILES N#Cc1ccccc1S(=O)(=O)N1CCC(C(=O)NCCCNC(=O)c2ccc(-c3c4nc(c(-c5ccc(S(=O)(=O)[O-])cc5)c5ccc([nH]5)c(-c5ccc(S(=O)(=O)[O-])cc5)c5nc(c(-c6ccc(S(=O)(=O)[O-])cc6)c6ccc3[nH]6)C=C5)C=C4)cc2)CC1
REMARK SMILES IDX 20 1 19 2 18 3 16 4 17 5 15 7 12 8 13 9 86 10 14 11 85 12
REMARK SMILES IDX 9 13 10 14 11 15 8 16 3 17 4 18 5 19 7 20 6 21 2 22 1 23
REMARK SMILES IDX 21 24 22 25 23 26 24 28 25 29 26 30 84 31 27 32 83 33 28 34
REMARK SMILES IDX 29 35 30 36 77 37 31 38 82 39 76 40 78 41 32 42 81 43 75 44
REMARK SMILES IDX 74 45 33 47 63 48 44 49 62 50 45 51 48 52 61 53 79 54 46 55
REMARK SMILES IDX 47 56 60 58 80 59 49 60 34 61 35 62 43 63 36 64 42 65 37 66
REMARK SMILES IDX 38 67 39 68 40 69 41 70 64 71 65 72 73 73 66 74 72 75 67 76
REMARK SMILES IDX 68 77 69 78 70 79 71 80 50 81 51 82 59 83 52 84 58 85 53 86
REMARK SMILES IDX 54 87 55 88 56 89 57 90
REMARK H PARENT 18 6 22 27 78 46 48 57
REMARK Flexibility Score: inf
ROOT
ATOM      1  C   UNL A   1      38.262  19.735  25.176  1.00  0.00     0.042 C 
ENDROOT
BRANCH   1   2
ATOM      2  C   UNL A   1      37.070  20.674  25.119  1.00  0.00     0.117 C 
BRANCH   2   3
ATOM      3  N   UNL A   1      37.200  21.663  24.058  1.00  0.00    -0.356 N 
ATOM      4  C   UNL A   1      36.347  22.634  23.635  1.00  0.00     0.223 C 
ATOM      5  O   UNL A   1      36.685  23.328  22.675  1.00  0.00    -0.275 OA
ATOM      6  H   UNL A   1      38.051  21.622  23.563  1.00  0.00     0.163 HD
BRANCH   4   7
ATOM      7  C   UNL A   1      35.024  22.874  24.344  1.00  0.00     0.081 C 
ATOM      8  N   UNL A   1      32.733  24.574  24.938  1.00  0.00    -0.198 NA
ATOM      9  C   UNL A   1      33.866  24.597  25.877  1.00  0.00     0.103 C 
ATOM     10  C   UNL A   1      32.605  23.566  23.874  1.00  0.00     0.103 C 
ATOM     11  C   UNL A   1      35.154  23.990  25.370  1.00  0.00     0.030 C 
ATOM     12  C   UNL A   1      33.908  23.040  23.324  1.00  0.00     0.030 C 
BRANCH   8  13
ATOM     13  S   UNL A   1      31.293  25.267  25.496  1.00  0.00     0.244 S 
ATOM     14  O   UNL A   1      31.130  24.846  26.873  1.00  0.00    -0.207 OA
ATOM     15  O   UNL A   1      30.264  25.003  24.512  1.00  0.00    -0.207 OA
BRANCH  13  16
ATOM     16  C   UNL A   1      31.425  27.046  25.572  1.00  0.00     0.100 A 
ATOM     17  C   UNL A   1      31.317  27.971  24.531  1.00  0.00     0.072 A 
ATOM     18  C   UNL A   1      31.506  29.342  24.807  1.00  0.00     0.021 A 
ATOM     19  C   UNL A   1      31.776  29.794  26.094  1.00  0.00     0.001 A 
ATOM     20  C   UNL A   1      31.690  27.521  26.876  1.00  0.00     0.023 A 
ATOM     21  C   UNL A   1      31.860  28.881  27.134  1.00  0.00     0.001 A 
BRANCH  17  22
ATOM     22  C   UNL A   1      31.014  27.703  23.163  1.00  0.00     0.101 C 
ATOM     23  N   UNL A   1      30.659  27.463  22.089  1.00  0.00    -0.192 NA
ENDBRANCH  17  22
ENDBRANCH  13  16
ENDBRANCH   8  13
ENDBRANCH   4   7
ENDBRANCH   2   3
ENDBRANCH   1   2
BRANCH   1  24
ATOM     24  C   UNL A   1      39.388  20.253  26.050  1.00  0.00     0.118 C 
BRANCH  24  25
ATOM     25  N   UNL A   1      40.501  19.318  26.114  1.00  0.00    -0.352 N 
ATOM     26  C   UNL A   1      41.848  19.567  26.144  1.00  0.00     0.251 C 
ATOM     27  H   UNL A   1      40.249  18.366  26.140  1.00  0.00     0.163 HD
ATOM     28  O   UNL A   1      42.638  18.651  25.937  1.00  0.00    -0.269 OA
BRANCH  26  29
ATOM     29  C   UNL A   1      42.339  20.933  26.420  1.00  0.00     0.039 A 
ATOM     30  C   UNL A   1      42.549  21.325  27.743  1.00  0.00     0.014 A 
ATOM     31  C   UNL A   1      42.570  21.834  25.376  1.00  0.00     0.014 A 
ATOM     32  C   UNL A   1      43.020  22.610  28.011  1.00  0.00     0.010 A 
ATOM     33  C   UNL A   1      43.155  23.065  25.637  1.00  0.00     0.010 A 
ATOM     34  C   UNL A   1      43.347  23.484  26.959  1.00  0.00    -0.014 A 
BRANCH  34  35
ATOM     35  C   UNL A   1      43.833  24.858  27.228  1.00  0.00     0.031 A 
ATOM     36  C   UNL A   1      45.289  25.191  27.022  1.00  0.00     0.074 A 
ATOM     37  C   UNL A   1      42.976  25.794  27.678  1.00  0.00     0.049 A 
ATOM     38  N   UNL A   1      45.905  26.333  27.193  1.00  0.00    -0.248 NA
ATOM     39  C   UNL A   1      46.177  24.094  26.596  1.00  0.00     0.031 C 
ATOM     40  C   UNL A   1      41.555  25.576  27.962  1.00  0.00     0.029 A 
ATOM     41  N   UNL A   1      43.172  27.120  27.966  1.00  0.00    -0.354 N 
ATOM     42  C   UNL A   1      47.244  26.087  26.910  1.00  0.00     0.074 A 
ATOM     43  C   UNL A   1      47.366  24.676  26.626  1.00  0.00     0.031 C 
ATOM     44  C   UNL A   1      40.999  26.739  28.337  1.00  0.00     0.029 A 
ATOM     45  C   UNL A   1      42.028  27.773  28.361  1.00  0.00     0.049 A 
ATOM     46  H   UNL A   1      44.048  27.562  27.897  1.00  0.00     0.167 HD
ATOM     47  C   UNL A   1      48.276  26.961  26.860  1.00  0.00     0.031 A 
ATOM     48  C   UNL A   1      41.831  29.062  28.698  1.00  0.00     0.031 A 
ATOM     49  C   UNL A   1      48.145  28.367  27.132  1.00  0.00     0.049 A 
ATOM     50  C   UNL A   1      42.994  30.014  28.635  1.00  0.00     0.074 A 
ATOM     51  C   UNL A   1      49.116  29.351  27.064  1.00  0.00     0.029 A 
ATOM     52  N   UNL A   1      46.970  28.990  27.525  1.00  0.00    -0.354 N 
ATOM     53  N   UNL A   1      44.240  29.776  28.302  1.00  0.00    -0.248 NA
ATOM     54  C   UNL A   1      42.715  31.416  28.970  1.00  0.00     0.031 C 
ATOM     55  C   UNL A   1      48.541  30.558  27.472  1.00  0.00     0.029 A 
ATOM     56  C   UNL A   1      47.194  30.341  27.722  1.00  0.00     0.049 A 
ATOM     57  H   UNL A   1      46.104  28.537  27.646  1.00  0.00     0.167 HD
ATOM     58  C   UNL A   1      44.888  31.006  28.352  1.00  0.00     0.074 A 
ATOM     59  C   UNL A   1      43.888  31.985  28.730  1.00  0.00     0.031 C 
ATOM     60  C   UNL A   1      46.188  31.301  28.102  1.00  0.00     0.031 A 
BRANCH  47  61
ATOM     61  C   UNL A   1      49.635  26.416  26.499  1.00  0.00    -0.014 A 
ATOM     62  C   UNL A   1      50.461  25.812  27.466  1.00  0.00     0.010 A 
ATOM     63  C   UNL A   1      50.082  26.478  25.167  1.00  0.00     0.010 A 
ATOM     64  C   UNL A   1      51.722  25.321  27.118  1.00  0.00     0.020 A 
ATOM     65  C   UNL A   1      51.328  25.957  24.806  1.00  0.00     0.020 A 
ATOM     66  C   UNL A   1      52.148  25.397  25.789  1.00  0.00     0.054 A 
BRANCH  66  67
ATOM     67  S   UNL A   1      53.776  24.724  25.359  1.00  0.00     0.124 S 
ATOM     68  O   UNL A   1      54.513  24.899  26.609  1.00  0.00    -0.237 OA
ATOM     69  O   UNL A   1      53.467  23.343  25.002  1.00  0.00    -0.237 OA
ATOM     70  O   UNL A   1      54.221  25.568  24.253  1.00  0.00    -0.744 OA
ENDBRANCH  66  67
ENDBRANCH  47  61
BRANCH  48  71
ATOM     71  C   UNL A   1      40.473  29.529  29.093  1.00  0.00    -0.014 A 
ATOM     72  C   UNL A   1      39.469  29.718  28.127  1.00  0.00     0.010 A 
ATOM     73  C   UNL A   1      40.175  29.782  30.445  1.00  0.00     0.010 A 
ATOM     74  C   UNL A   1      38.203  30.178  28.500  1.00  0.00     0.020 A 
ATOM     75  C   UNL A   1      38.901  30.209  30.826  1.00  0.00     0.020 A 
ATOM     76  C   UNL A   1      37.926  30.418  29.849  1.00  0.00     0.054 A 
BRANCH  76  77
ATOM     77  S   UNL A   1      36.265  30.977  30.314  1.00  0.00     0.124 S 
ATOM     78  O   UNL A   1      35.530  30.823  29.062  1.00  0.00    -0.237 OA
ATOM     79  O   UNL A   1      35.906  30.043  31.379  1.00  0.00    -0.237 OA
ATOM     80  O   UNL A   1      36.477  32.356  30.750  1.00  0.00    -0.744 OA
ENDBRANCH  76  77
ENDBRANCH  48  71
BRANCH  60  81
ATOM     81  C   UNL A   1      46.591  32.751  28.176  1.00  0.00    -0.014 A 
ATOM     82  C   UNL A   1      47.124  33.312  29.350  1.00  0.00     0.010 A 
ATOM     83  C   UNL A   1      46.452  33.561  27.033  1.00  0.00     0.010 A 
ATOM     84  C   UNL A   1      47.452  34.669  29.398  1.00  0.00     0.020 A 
ATOM     85  C   UNL A   1      46.814  34.909  27.066  1.00  0.00     0.020 A 
ATOM     86  C   UNL A   1      47.290  35.460  28.256  1.00  0.00     0.054 A 
BRANCH  86  87
ATOM     87  S   UNL A   1      47.726  37.218  28.342  1.00  0.00     0.124 S 
ATOM     88  O   UNL A   1      47.817  37.577  26.929  1.00  0.00    -0.237 OA
ATOM     89  O   UNL A   1      46.595  37.793  29.065  1.00  0.00    -0.237 OA
ATOM     90  O   UNL A   1      48.993  37.226  29.070  1.00  0.00    -0.744 OA
ENDBRANCH  86  87
ENDBRANCH  60  81
ENDBRANCH  34  35
ENDBRANCH  26  29
ENDBRANCH  24  25
ENDBRANCH   1  24
TORSDOF 16
ENDMDL
MODEL 2
REMARK VINA RESULT:     -11.5      2.141      9.052
REMARK SMILES N#Cc1ccccc1S(=O)(=O)N1CCC(C(=O)NCCCNC(=O)c2ccc(-c3c4nc(c(-c5ccc(S(=O)(=O)[O-])cc5)c5ccc([nH]5)c(-c5ccc(S(=O)(=O)[O-])cc5)c5nc(c(-c6ccc(S(=O)(=O)[O-])cc6)c6ccc3[nH]6)C=C5)C=C4)cc2)CC1
REMARK SMILES IDX 20 1 19 2 18 3 16 4 17 5 15 7 12 8 13 9 86 10 14 11 85 12
REMARK SMILES IDX 9 13 10 14 11 15 8 16 3 17 4 18 5 19 7 20 6 21 2 22 1 23
REMARK SMILES IDX 21 24 22 25 23 26 24 28 25 29 26 30 84 31 27 32 83 33 28 34
REMARK SMILES IDX 29 35 30 36 77 37 31 38 82 39 76 40 78 41 32 42 81 43 75 44
REMARK SMILES IDX 74 45 33 47 63 48 44 49 62 50 45 51 48 52 61 53 79 54 46 55
REMARK SMILES IDX 47 56 60 58 80 59 49 60 34 61 35 62 43 63 36 64 42 65 37 66
REMARK SMILES IDX 38 67 39 68 40 69 41 70 64 71 65 72 73 73 66 74 72 75 67 76
REMARK SMILES IDX 68 77 69 78 70 79 71 80 50 81 51 82 59 83 52 84 58 85 53 86
REMARK SMILES IDX 54 87 55 88 56 89 57 90
REMARK H PARENT 18 6 22 27 78 46 48 57
REMARK Flexibility Score: inf
ROOT
ATOM      1  C   UNL A   1      35.012  29.749  27.384  1.00  0.00     0.042 C 
ENDROOT
BRANCH   1   2
ATOM      2  C   UNL A   1      33.631  30.239  26.983  1.00  0.00     0.117 C 
BRANCH   2   3
ATOM      3  N   UNL A   1      32.570  29.431  27.569  1.00  0.00    -0.356 N 
ATOM      4  C   UNL A   1      31.979  28.286  27.134  1.00  0.00     0.223 C 
ATOM      5  O   UNL A   1      31.063  27.813  27.808  1.00  0.00    -0.275 OA
ATOM      6  H   UNL A   1      32.222  29.772  28.425  1.00  0.00     0.163 HD
BRANCH   4   7
ATOM      7  C   UNL A   1      32.454  27.595  25.867  1.00  0.00     0.081 C 
ATOM      8  N   UNL A   1      32.849  25.177  24.289  1.00  0.00    -0.198 NA
ATOM      9  C   UNL A   1      33.977  25.658  25.102  1.00  0.00     0.103 C 
ATOM     10  C   UNL A   1      31.644  25.986  24.049  1.00  0.00     0.103 C 
ATOM     11  C   UNL A   1      33.638  26.685  26.157  1.00  0.00     0.030 C 
ATOM     12  C   UNL A   1      31.277  26.943  25.157  1.00  0.00     0.030 C 
BRANCH   8  13
ATOM     13  S   UNL A   1      33.221  24.014  23.116  1.00  0.00     0.244 S 
ATOM     14  O   UNL A   1      33.900  24.706  22.039  1.00  0.00    -0.207 OA
ATOM     15  O   UNL A   1      32.024  23.240  22.864  1.00  0.00    -0.207 OA
BRANCH  13  16
ATOM     16  C   UNL A   1      34.417  22.841  23.735  1.00  0.00     0.100 A 
ATOM     17  C   UNL A   1      34.195  21.696  24.502  1.00  0.00     0.072 A 
ATOM     18  C   UNL A   1      35.300  20.929  24.929  1.00  0.00     0.021 A 
ATOM     19  C   UNL A   1      36.602  21.276  24.586  1.00  0.00     0.001 A 
ATOM     20  C   UNL A   1      35.745  23.176  23.386  1.00  0.00     0.023 A 
ATOM     21  C   UNL A   1      36.825  22.399  23.805  1.00  0.00     0.001 A 
BRANCH  17  22
ATOM     22  C   UNL A   1      32.938  21.165  24.920  1.00  0.00     0.101 C 
ATOM     23  N   UNL A   1      31.885  20.746  25.149  1.00  0.00    -0.192 NA
ENDBRANCH  17  22
ENDBRANCH  13  16
ENDBRANCH   8  13
ENDBRANCH   4   7
ENDBRANCH   2   3
ENDBRANCH   1   2
BRANCH   1  24
ATOM     24  C   UNL A   1      35.809  30.780  28.158  1.00  0.00     0.118 C 
BRANCH  24  25
ATOM     25  N   UNL A   1      35.747  30.551  29.593  1.00  0.00    -0.352 N 
ATOM     26  C   UNL A   1      36.620  29.877  30.406  1.00  0.00     0.251 C 
ATOM     27  H   UNL A   1      34.963  30.938  30.046  1.00  0.00     0.163 HD
ATOM     28  O   UNL A   1      36.272  29.567  31.542  1.00  0.00    -0.269 OA
BRANCH  26  29
ATOM     29  C   UNL A   1      37.967  29.526  29.912  1.00  0.00     0.039 A 
ATOM     30  C   UNL A   1      38.237  29.626  28.547  1.00  0.00     0.014 A 
ATOM     31  C   UNL A   1      38.956  29.076  30.792  1.00  0.00     0.014 A 
ATOM     32  C   UNL A   1      39.508  29.304  28.073  1.00  0.00     0.010 A 
ATOM     33  C   UNL A   1      40.252  28.875  30.337  1.00  0.00     0.010 A 
ATOM     34  C   UNL A   1      40.532  28.946  28.967  1.00  0.00    -0.014 A 
BRANCH  34  35
ATOM     35  C   UNL A   1      41.885  28.585  28.479  1.00  0.00     0.031 A 
ATOM     36  C   UNL A   1      42.962  29.638  28.406  1.00  0.00     0.074 A 
ATOM     37  C   UNL A   1      42.135  27.323  28.079  1.00  0.00     0.049 A 
ATOM     38  N   UNL A   1      44.205  29.518  28.017  1.00  0.00    -0.248 NA
ATOM     39  C   UNL A   1      42.588  31.010  28.794  1.00  0.00     0.031 C 
ATOM     40  C   UNL A   1      41.159  26.230  28.057  1.00  0.00     0.029 A 
ATOM     41  N   UNL A   1      43.292  26.744  27.624  1.00  0.00    -0.354 N 
ATOM     42  C   UNL A   1      44.752  30.794  28.101  1.00  0.00     0.074 A 
ATOM     43  C   UNL A   1      43.690  31.686  28.509  1.00  0.00     0.031 C 
ATOM     44  C   UNL A   1      41.770  25.104  27.657  1.00  0.00     0.029 A 
ATOM     45  C   UNL A   1      43.167  25.401  27.356  1.00  0.00     0.049 A 
ATOM     46  H   UNL A   1      44.132  27.242  27.502  1.00  0.00     0.167 HD
ATOM     47  C   UNL A   1      46.029  31.186  27.888  1.00  0.00     0.031 A 
ATOM     48  C   UNL A   1      44.077  24.510  26.921  1.00  0.00     0.031 A 
ATOM     49  C   UNL A   1      47.084  30.292  27.493  1.00  0.00     0.049 A 
ATOM     50  C   UNL A   1      45.491  24.969  26.692  1.00  0.00     0.074 A 
ATOM     51  C   UNL A   1      48.424  30.575  27.297  1.00  0.00     0.029 A 
ATOM     52  N   UNL A   1      46.917  28.939  27.236  1.00  0.00    -0.354 N 
ATOM     53  N   UNL A   1      46.005  26.168  26.838  1.00  0.00    -0.248 NA
ATOM     54  C   UNL A   1      46.453  23.948  26.260  1.00  0.00     0.031 C 
ATOM     55  C   UNL A   1      49.056  29.405  26.864  1.00  0.00     0.029 A 
ATOM     56  C   UNL A   1      48.126  28.377  26.863  1.00  0.00     0.049 A 
ATOM     57  H   UNL A   1      46.065  28.451  27.307  1.00  0.00     0.167 HD
ATOM     58  C   UNL A   1      47.359  26.037  26.553  1.00  0.00     0.074 A 
ATOM     59  C   UNL A   1      47.585  24.639  26.243  1.00  0.00     0.031 C 
ATOM     60  C   UNL A   1      48.330  26.984  26.554  1.00  0.00     0.031 A 
BRANCH  47  61
ATOM     61  C   UNL A   1      46.351  32.648  28.076  1.00  0.00    -0.014 A 
ATOM     62  C   UNL A   1      46.245  33.563  27.012  1.00  0.00     0.010 A 
ATOM     63  C   UNL A   1      46.733  33.121  29.345  1.00  0.00     0.010 A 
ATOM     64  C   UNL A   1      46.557  34.912  27.200  1.00  0.00     0.020 A 
ATOM     65  C   UNL A   1      47.013  34.477  29.546  1.00  0.00     0.020 A 
ATOM     66  C   UNL A   1      46.939  35.360  28.468  1.00  0.00     0.054 A 
BRANCH  66  67
ATOM     67  S   UNL A   1      47.308  37.122  28.690  1.00  0.00     0.124 S 
ATOM     68  O   UNL A   1      47.764  37.160  30.078  1.00  0.00    -0.237 OA
ATOM     69  O   UNL A   1      48.340  37.362  27.685  1.00  0.00    -0.237 OA
ATOM     70  O   UNL A   1      46.030  37.780  28.438  1.00  0.00    -0.744 OA
ENDBRANCH  66  67
ENDBRANCH  47  61
BRANCH  48  71
ATOM     71  C   UNL A   1      43.685  23.089  26.707  1.00  0.00    -0.014 A 
ATOM     72  C   UNL A   1      42.876  22.418  27.641  1.00  0.00     0.010 A 
ATOM     73  C   UNL A   1      44.116  22.398  25.559  1.00  0.00     0.010 A 
ATOM     74  C   UNL A   1      42.528  21.079  27.447  1.00  0.00     0.020 A 
ATOM     75  C   UNL A   1      43.744  21.069  25.345  1.00  0.00     0.020 A 
ATOM     76  C   UNL A   1      42.963  20.413  26.297  1.00  0.00     0.054 A 
BRANCH  76  77
ATOM     77  S   UNL A   1      42.468  18.686  26.047  1.00  0.00     0.124 S 
ATOM     78  O   UNL A   1      43.340  18.275  24.951  1.00  0.00    -0.237 OA
ATOM     79  O   UNL A   1      42.756  18.085  27.347  1.00  0.00    -0.237 OA
ATOM     80  O   UNL A   1      41.048  18.782  25.715  1.00  0.00    -0.744 OA
ENDBRANCH  76  77
ENDBRANCH  48  71
BRANCH  60  81
ATOM     81  C   UNL A   1      49.737  26.528  26.262  1.00  0.00    -0.014 A 
ATOM     82  C   UNL A   1      50.283  26.595  24.968  1.00  0.00     0.010 A 
ATOM     83  C   UNL A   1      50.534  26.043  27.316  1.00  0.00     0.010 A 
ATOM     84  C   UNL A   1      51.577  26.128  24.723  1.00  0.00     0.020 A 
ATOM     85  C   UNL A   1      51.840  25.611  27.082  1.00  0.00     0.020 A 
ATOM     86  C   UNL A   1      52.345  25.634  25.781  1.00  0.00     0.054 A 
BRANCH  86  87
ATOM     87  S   UNL A   1      54.023  25.037  25.438  1.00  0.00     0.124 S 
ATOM     88  O   UNL A   1      54.649  25.120  26.755  1.00  0.00    -0.237 OA
ATOM     89  O   UNL A   1      53.785  23.685  24.939  1.00  0.00    -0.237 OA
ATOM     90  O   UNL A   1      54.531  25.982  24.446  1.00  0.00    -0.744 OA
ENDBRANCH  86  87
ENDBRANCH  60  81
ENDBRANCH  34  35
ENDBRANCH  26  29
ENDBRANCH  24  25
ENDBRANCH   1  24
TORSDOF 16
ENDMDL
MODEL 3
REMARK VINA RESULT:     -11.3      6.228     12.064
REMARK SMILES N#Cc1ccccc1S(=O)(=O)N1CCC(C(=O)NCCCNC(=O)c2ccc(-c3c4nc(c(-c5ccc(S(=O)(=O)[O-])cc5)c5ccc([nH]5)c(-c5ccc(S(=O)(=O)[O-])cc5)c5nc(c(-c6ccc(S(=O)(=O)[O-])cc6)c6ccc3[nH]6)C=C5)C=C4)cc2)CC1
REMARK SMILES IDX 20 1 19 2 18 3 16 4 17 5 15 7 12 8 13 9 86 10 14 11 85 12
REMARK SMILES IDX 9 13 10 14 11 15 8 16 3 17 4 18 5 19 7 20 6 21 2 22 1 23
REMARK SMILES IDX 21 24 22 25 23 26 24 28 25 29 26 30 84 31 27 32 83 33 28 34
REMARK SMILES IDX 29 35 30 36 77 37 31 38 82 39 76 40 78 41 32 42 81 43 75 44
REMARK SMILES IDX 74 45 33 47 63 48 44 49 62 50 45 51 48 52 61 53 79 54 46 55
REMARK SMILES IDX 47 56 60 58 80 59 49 60 34 61 35 62 43 63 36 64 42 65 37 66
REMARK SMILES IDX 38 67 39 68 40 69 41 70 64 71 65 72 73 73 66 74 72 75 67 76
REMARK SMILES IDX 68 77 69 78 70 79 71 80 50 81 51 82 59 83 52 84 58 85 53 86
REMARK SMILES IDX 54 87 55 88 56 89 57 90
REMARK H PARENT 18 6 22 27 78 46 48 57
REMARK Flexibility Score: inf
ROOT
ATOM      1  C   UNL A   1      31.728  32.266  26.733  1.00  0.00     0.042 C 
ENDROOT
BRANCH   1   2
ATOM      2  C   UNL A   1      31.787  30.768  26.489  1.00  0.00     0.117 C 
BRANCH   2   3
ATOM      3  N   UNL A   1      31.396  30.418  25.129  1.00  0.00    -0.356 N 
ATOM      4  C   UNL A   1      31.316  29.211  24.509  1.00  0.00     0.223 C 
ATOM      5  O   UNL A   1      30.989  29.188  23.321  1.00  0.00    -0.275 OA
ATOM      6  H   UNL A   1      31.148  31.187  24.565  1.00  0.00     0.163 HD
BRANCH   4   7
ATOM      7  C   UNL A   1      31.597  27.923  25.266  1.00  0.00     0.081 C 
ATOM      8  N   UNL A   1      32.335  25.104  25.295  1.00  0.00    -0.198 NA
ATOM      9  C   UNL A   1      30.901  25.439  25.303  1.00  0.00     0.103 C 
ATOM     10  C   UNL A   1      33.384  26.110  25.522  1.00  0.00     0.103 C 
ATOM     11  C   UNL A   1      30.555  26.864  24.938  1.00  0.00     0.030 C 
ATOM     12  C   UNL A   1      33.047  27.509  25.068  1.00  0.00     0.030 C 
BRANCH   8  13
ATOM     13  S   UNL A   1      32.725  23.505  25.688  1.00  0.00     0.244 S 
ATOM     14  O   UNL A   1      31.781  22.657  24.987  1.00  0.00    -0.207 OA
ATOM     15  O   UNL A   1      32.869  23.426  27.127  1.00  0.00    -0.207 OA
BRANCH  13  16
ATOM     16  C   UNL A   1      34.324  23.055  25.031  1.00  0.00     0.100 A 
ATOM     17  C   UNL A   1      34.787  23.168  23.718  1.00  0.00     0.072 A 
ATOM     18  C   UNL A   1      36.081  22.702  23.404  1.00  0.00     0.021 A 
ATOM     19  C   UNL A   1      36.912  22.154  24.374  1.00  0.00     0.001 A 
ATOM     20  C   UNL A   1      35.183  22.505  26.008  1.00  0.00     0.023 A 
ATOM     21  C   UNL A   1      36.465  22.062  25.682  1.00  0.00     0.001 A 
BRANCH  17  22
ATOM     22  C   UNL A   1      34.098  23.731  22.603  1.00  0.00     0.101 C 
ATOM     23  N   UNL A   1      33.480  24.086  21.692  1.00  0.00    -0.192 NA
ENDBRANCH  17  22
ENDBRANCH  13  16
ENDBRANCH   8  13
ENDBRANCH   4   7
ENDBRANCH   2   3
ENDBRANCH   1   2
BRANCH   1  24
ATOM     24  C   UNL A   1      33.006  32.823  27.329  1.00  0.00     0.118 C 
BRANCH  24  25
ATOM     25  N   UNL A   1      32.839  34.193  27.789  1.00  0.00    -0.352 N 
ATOM     26  C   UNL A   1      33.409  34.828  28.862  1.00  0.00     0.251 C 
ATOM     27  H   UNL A   1      32.227  34.746  27.251  1.00  0.00     0.163 HD
ATOM     28  O   UNL A   1      32.953  35.901  29.243  1.00  0.00    -0.269 OA
BRANCH  26  29
ATOM     29  C   UNL A   1      34.563  34.215  29.553  1.00  0.00     0.039 A 
ATOM     30  C   UNL A   1      35.853  34.496  29.100  1.00  0.00     0.014 A 
ATOM     31  C   UNL A   1      34.372  33.348  30.633  1.00  0.00     0.014 A 
ATOM     32  C   UNL A   1      36.947  33.928  29.751  1.00  0.00     0.010 A 
ATOM     33  C   UNL A   1      35.463  32.885  31.354  1.00  0.00     0.010 A 
ATOM     34  C   UNL A   1      36.762  33.135  30.897  1.00  0.00    -0.014 A 
BRANCH  34  35
ATOM     35  C   UNL A   1      37.914  32.512  31.592  1.00  0.00     0.031 A 
ATOM     36  C   UNL A   1      38.354  33.038  32.935  1.00  0.00     0.074 A 
ATOM     37  C   UNL A   1      38.575  31.495  31.007  1.00  0.00     0.049 A 
ATOM     38  N   UNL A   1      39.329  32.624  33.703  1.00  0.00    -0.248 NA
ATOM     39  C   UNL A   1      37.623  34.199  33.475  1.00  0.00     0.031 C 
ATOM     40  C   UNL A   1      38.273  30.933  29.688  1.00  0.00     0.029 A 
ATOM     41  N   UNL A   1      39.634  30.746  31.453  1.00  0.00    -0.354 N 
ATOM     42  C   UNL A   1      39.335  33.477  34.801  1.00  0.00     0.074 A 
ATOM     43  C   UNL A   1      38.315  34.475  34.569  1.00  0.00     0.031 C 
ATOM     44  C   UNL A   1      39.095  29.898  29.453  1.00  0.00     0.029 A 
ATOM     45  C   UNL A   1      40.007  29.749  30.582  1.00  0.00     0.049 A 
ATOM     46  H   UNL A   1      40.083  30.905  32.313  1.00  0.00     0.167 HD
ATOM     47  C   UNL A   1      40.097  33.419  35.917  1.00  0.00     0.031 A 
ATOM     48  C   UNL A   1      40.973  28.816  30.686  1.00  0.00     0.031 A 
ATOM     49  C   UNL A   1      41.102  32.416  36.147  1.00  0.00     0.049 A 
ATOM     50  C   UNL A   1      41.808  28.772  31.936  1.00  0.00     0.074 A 
ATOM     51  C   UNL A   1      41.899  32.237  37.263  1.00  0.00     0.029 A 
ATOM     52  N   UNL A   1      41.447  31.423  35.243  1.00  0.00    -0.354 N 
ATOM     53  N   UNL A   1      41.756  29.548  32.992  1.00  0.00    -0.248 NA
ATOM     54  C   UNL A   1      42.818  27.709  32.016  1.00  0.00     0.031 C 
ATOM     55  C   UNL A   1      42.767  31.170  37.010  1.00  0.00     0.029 A 
ATOM     56  C   UNL A   1      42.459  30.638  35.767  1.00  0.00     0.049 A 
ATOM     57  H   UNL A   1      41.034  31.295  34.359  1.00  0.00     0.167 HD
ATOM     58  C   UNL A   1      42.700  29.044  33.880  1.00  0.00     0.074 A 
ATOM     59  C   UNL A   1      43.295  27.887  33.241  1.00  0.00     0.031 C 
ATOM     60  C   UNL A   1      43.041  29.492  35.114  1.00  0.00     0.031 A 
BRANCH  47  61
ATOM     61  C   UNL A   1      39.872  34.474  36.971  1.00  0.00    -0.014 A 
ATOM     62  C   UNL A   1      39.041  34.234  38.082  1.00  0.00     0.010 A 
ATOM     63  C   UNL A   1      40.527  35.716  36.868  1.00  0.00     0.010 A 
ATOM     64  C   UNL A   1      38.834  35.225  39.044  1.00  0.00     0.020 A 
ATOM     65  C   UNL A   1      40.350  36.699  37.846  1.00  0.00     0.020 A 
ATOM     66  C   UNL A   1      39.491  36.454  38.919  1.00  0.00     0.054 A 
BRANCH  66  67
ATOM     67  S   UNL A   1      39.228  37.712  40.198  1.00  0.00     0.124 S 
ATOM     68  O   UNL A   1      40.530  38.374  40.241  1.00  0.00    -0.237 OA
ATOM     69  O   UNL A   1      38.137  38.508  39.644  1.00  0.00    -0.237 OA
ATOM     70  O   UNL A   1      38.888  36.934  41.387  1.00  0.00    -0.744 OA
ENDBRANCH  66  67
ENDBRANCH  47  61
BRANCH  48  71
ATOM     71  C   UNL A   1      41.179  27.831  29.587  1.00  0.00    -0.014 A 
ATOM     72  C   UNL A   1      42.297  27.925  28.739  1.00  0.00     0.010 A 
ATOM     73  C   UNL A   1      40.257  26.788  29.387  1.00  0.00     0.010 A 
ATOM     74  C   UNL A   1      42.474  27.011  27.696  1.00  0.00     0.020 A 
ATOM     75  C   UNL A   1      40.448  25.853  28.366  1.00  0.00     0.020 A 
ATOM     76  C   UNL A   1      41.548  25.979  27.517  1.00  0.00     0.054 A 
BRANCH  76  77
ATOM     77  S   UNL A   1      41.820  24.783  26.181  1.00  0.00     0.124 S 
ATOM     78  O   UNL A   1      40.748  23.819  26.414  1.00  0.00    -0.237 OA
ATOM     79  O   UNL A   1      41.680  25.611  24.986  1.00  0.00    -0.237 OA
ATOM     80  O   UNL A   1      43.172  24.289  26.433  1.00  0.00    -0.744 OA
ENDBRANCH  76  77
ENDBRANCH  48  71
BRANCH  60  81
ATOM     81  C   UNL A   1      44.068  28.694  35.877  1.00  0.00    -0.014 A 
ATOM     82  C   UNL A   1      45.436  29.018  35.836  1.00  0.00     0.010 A 
ATOM     83  C   UNL A   1      43.645  27.611  36.669  1.00  0.00     0.010 A 
ATOM     84  C   UNL A   1      46.367  28.235  36.524  1.00  0.00     0.020 A 
ATOM     85  C   UNL A   1      44.568  26.849  37.387  1.00  0.00     0.020 A 
ATOM     86  C   UNL A   1      45.927  27.152  37.291  1.00  0.00     0.054 A 
BRANCH  86  87
ATOM     87  S   UNL A   1      47.154  26.153  38.176  1.00  0.00     0.124 S 
ATOM     88  O   UNL A   1      48.181  25.961  37.156  1.00  0.00    -0.237 OA
ATOM     89  O   UNL A   1      47.528  27.021  39.290  1.00  0.00    -0.237 OA
ATOM     90  O   UNL A   1      46.415  24.949  38.552  1.00  0.00    -0.744 OA
ENDBRANCH  86  87
ENDBRANCH  60  81
ENDBRANCH  34  35
ENDBRANCH  26  29
ENDBRANCH  24  25
ENDBRANCH   1  24
TORSDOF 16
ENDMDL
