MODEL 1
REMARK VINA RESULT:     -11.3      0.000      0.000
REMARK SMILES C[C@@H](C(=O)NCCCNC(=O)c1ccc(-c2c3nc(c(-c4ccc(S(=O)(=O)[O-])cc4)c4ccc([nH]4)c(-c4ccc(S(=O)(=O)[O-])cc4)c4nc(c(-c5ccc(S(=O)(=O)[O-])cc5)c5ccc2[nH]5)C=C4)C=C3)cc1)c1ccc(C[C@H]2CCC[C@@H]2O)cc1F
REMARK SMILES IDX 6 1 5 2 3 3 4 4 2 6 1 7 72 8 73 9 84 10 74 11 83 12 85 13
REMARK SMILES IDX 75 14 76 15 77 16 78 17 81 18 79 19 80 20 82 21 7 23 8 24
REMARK SMILES IDX 9 25 10 26 11 28 12 29 13 30 71 31 14 32 70 33 15 34 16 35
REMARK SMILES IDX 17 36 64 37 18 38 69 39 63 40 65 41 19 42 68 43 62 44 61 45
REMARK SMILES IDX 20 47 50 48 31 49 49 50 32 51 35 52 48 53 66 54 33 55 34 56
REMARK SMILES IDX 47 58 67 59 36 60 21 61 22 62 30 63 23 64 29 65 24 66 25 67
REMARK SMILES IDX 26 68 27 69 28 70 51 71 52 72 60 73 53 74 59 75 54 76 55 77
REMARK SMILES IDX 56 78 57 79 58 80 37 81 38 82 46 83 39 84 45 85 40 86 41 87
REMARK SMILES IDX 42 88 43 89 44 90
REMARK H PARENT 5 5 82 22 9 27 65 46 35 57
REMARK Flexibility Score: inf
ROOT
ATOM      1  C   UNL A   1      31.910  28.263  25.343  1.00  0.00     0.117 C 
ENDROOT
BRANCH   1   2
ATOM      2  N   UNL A   1      30.882  27.365  24.856  1.00  0.00    -0.356 N 
ATOM      3  C   UNL A   1      30.982  26.272  24.046  1.00  0.00     0.227 C 
ATOM      4  O   UNL A   1      29.926  25.747  23.688  1.00  0.00    -0.274 OA
ATOM      5  H   UNL A   1      29.968  27.576  25.158  1.00  0.00     0.163 HD
BRANCH   3   6
ATOM      6  C   UNL A   1      32.364  25.710  23.688  1.00  0.00     0.108 C 
ATOM      7  C   UNL A   1      32.808  26.090  22.271  1.00  0.00     0.023 C 
BRANCH   6   8
ATOM      8  C   UNL A   1      32.426  24.214  23.956  1.00  0.00    -0.000 A 
ATOM      9  C   UNL A   1      32.485  23.331  22.868  1.00  0.00     0.008 A 
ATOM     10  C   UNL A   1      32.466  23.670  25.243  1.00  0.00     0.127 A 
ATOM     11  C   UNL A   1      32.495  21.950  23.070  1.00  0.00     0.004 A 
ATOM     12  C   UNL A   1      32.438  22.295  25.448  1.00  0.00     0.043 A 
ATOM     13  F   UNL A   1      32.493  24.462  26.323  1.00  0.00    -0.207 F 
ATOM     14  C   UNL A   1      32.402  21.418  24.359  1.00  0.00    -0.045 A 
BRANCH  14  15
ATOM     15  C   UNL A   1      32.216  19.939  24.582  1.00  0.00     0.041 C 
BRANCH  15  16
ATOM     16  C   UNL A   1      33.235  19.034  23.863  1.00  0.00     0.022 C 
ATOM     17  C   UNL A   1      34.508  18.686  24.657  1.00  0.00     0.007 C 
ATOM     18  C   UNL A   1      32.709  17.676  23.385  1.00  0.00     0.117 C 
ATOM     19  C   UNL A   1      34.878  17.253  24.256  1.00  0.00     0.003 C 
ATOM     20  C   UNL A   1      33.988  16.918  23.069  1.00  0.00     0.032 C 
BRANCH  18  21
ATOM     21  O   UNL A   1      31.894  17.793  22.234  1.00  0.00    -0.393 OA
ATOM     22  H   UNL A   1      31.038  17.369  22.399  1.00  0.00     0.210 HD
ENDBRANCH  18  21
ENDBRANCH  15  16
ENDBRANCH  14  15
ENDBRANCH   6   8
ENDBRANCH   3   6
ENDBRANCH   1   2
BRANCH   1  23
ATOM     23  C   UNL A   1      32.384  27.857  26.735  1.00  0.00     0.042 C 
BRANCH  23  24
ATOM     24  C   UNL A   1      33.746  28.435  27.112  1.00  0.00     0.118 C 
BRANCH  24  25
ATOM     25  N   UNL A   1      33.667  29.842  27.481  1.00  0.00    -0.352 N 
ATOM     26  C   UNL A   1      34.571  30.621  28.156  1.00  0.00     0.251 C 
ATOM     27  H   UNL A   1      32.842  30.301  27.205  1.00  0.00     0.163 HD
ATOM     28  O   UNL A   1      34.228  31.735  28.554  1.00  0.00    -0.269 OA
BRANCH  26  29
ATOM     29  C   UNL A   1      35.938  30.127  28.421  1.00  0.00     0.039 A 
ATOM     30  C   UNL A   1      36.880  30.161  27.390  1.00  0.00     0.014 A 
ATOM     31  C   UNL A   1      36.288  29.612  29.672  1.00  0.00     0.014 A 
ATOM     32  C   UNL A   1      38.189  29.735  27.633  1.00  0.00     0.010 A 
ATOM     33  C   UNL A   1      37.610  29.262  29.934  1.00  0.00     0.010 A 
ATOM     34  C   UNL A   1      38.574  29.315  28.917  1.00  0.00    -0.014 A 
BRANCH  34  35
ATOM     35  C   UNL A   1      39.978  28.934  29.213  1.00  0.00     0.031 A 
ATOM     36  C   UNL A   1      40.920  29.931  29.834  1.00  0.00     0.074 A 
ATOM     37  C   UNL A   1      40.422  27.709  28.866  1.00  0.00     0.049 A 
ATOM     38  N   UNL A   1      42.193  29.798  30.113  1.00  0.00    -0.248 NA
ATOM     39  C   UNL A   1      40.369  31.255  30.162  1.00  0.00     0.031 C 
ATOM     40  C   UNL A   1      39.618  26.667  28.224  1.00  0.00     0.029 A 
ATOM     41  N   UNL A   1      41.662  27.135  28.999  1.00  0.00    -0.354 N 
ATOM     42  C   UNL A   1      42.596  31.023  30.633  1.00  0.00     0.074 A 
ATOM     43  C   UNL A   1      41.446  31.901  30.585  1.00  0.00     0.031 C 
ATOM     44  C   UNL A   1      40.376  25.573  28.044  1.00  0.00     0.029 A 
ATOM     45  C   UNL A   1      41.730  25.849  28.514  1.00  0.00     0.049 A 
ATOM     46  H   UNL A   1      42.430  27.599  29.402  1.00  0.00     0.167 HD
ATOM     47  C   UNL A   1      43.807  31.380  31.123  1.00  0.00     0.031 A 
ATOM     48  C   UNL A   1      42.766  24.991  28.445  1.00  0.00     0.031 A 
ATOM     49  C   UNL A   1      44.946  30.501  31.175  1.00  0.00     0.049 A 
ATOM     50  C   UNL A   1      44.106  25.416  28.981  1.00  0.00     0.074 A 
ATOM     51  C   UNL A   1      46.201  30.751  31.701  1.00  0.00     0.029 A 
ATOM     52  N   UNL A   1      44.971  29.206  30.679  1.00  0.00    -0.354 N 
ATOM     53  N   UNL A   1      44.450  26.557  29.529  1.00  0.00    -0.248 NA
ATOM     54  C   UNL A   1      45.196  24.433  28.898  1.00  0.00     0.031 C 
ATOM     55  C   UNL A   1      47.003  29.628  31.472  1.00  0.00     0.029 A 
ATOM     56  C   UNL A   1      46.227  28.653  30.863  1.00  0.00     0.049 A 
ATOM     57  H   UNL A   1      44.208  28.747  30.258  1.00  0.00     0.167 HD
ATOM     58  C   UNL A   1      45.786  26.418  29.885  1.00  0.00     0.074 A 
ATOM     59  C   UNL A   1      46.184  25.079  29.502  1.00  0.00     0.031 C 
ATOM     60  C   UNL A   1      46.609  27.317  30.479  1.00  0.00     0.031 A 
BRANCH  47  61
ATOM     61  C   UNL A   1      43.966  32.788  31.637  1.00  0.00    -0.014 A 
ATOM     62  C   UNL A   1      44.167  33.867  30.756  1.00  0.00     0.010 A 
ATOM     63  C   UNL A   1      43.868  33.044  33.017  1.00  0.00     0.010 A 
ATOM     64  C   UNL A   1      44.310  35.166  31.248  1.00  0.00     0.020 A 
ATOM     65  C   UNL A   1      43.979  34.348  33.511  1.00  0.00     0.020 A 
ATOM     66  C   UNL A   1      44.218  35.399  32.623  1.00  0.00     0.054 A 
BRANCH  66  67
ATOM     67  S   UNL A   1      44.384  37.100  33.229  1.00  0.00     0.124 S 
ATOM     68  O   UNL A   1      42.991  37.474  33.460  1.00  0.00    -0.237 OA
ATOM     69  O   UNL A   1      45.197  36.934  34.430  1.00  0.00    -0.237 OA
ATOM     70  O   UNL A   1      45.040  37.799  32.127  1.00  0.00    -0.744 OA
ENDBRANCH  66  67
ENDBRANCH  47  61
BRANCH  48  71
ATOM     71  C   UNL A   1      42.571  23.637  27.857  1.00  0.00    -0.014 A 
ATOM     72  C   UNL A   1      42.510  23.465  26.463  1.00  0.00     0.010 A 
ATOM     73  C   UNL A   1      42.460  22.507  28.689  1.00  0.00     0.010 A 
ATOM     74  C   UNL A   1      42.322  22.194  25.912  1.00  0.00     0.020 A 
ATOM     75  C   UNL A   1      42.302  21.232  28.142  1.00  0.00     0.020 A 
ATOM     76  C   UNL A   1      42.222  21.083  26.757  1.00  0.00     0.054 A 
BRANCH  76  77
ATOM     77  S   UNL A   1      42.028  19.438  26.018  1.00  0.00     0.124 S 
ATOM     78  O   UNL A   1      40.589  19.378  25.783  1.00  0.00    -0.237 OA
ATOM     79  O   UNL A   1      42.863  19.530  24.822  1.00  0.00    -0.237 OA
ATOM     80  O   UNL A   1      42.533  18.538  27.052  1.00  0.00    -0.744 OA
ENDBRANCH  76  77
ENDBRANCH  48  71
BRANCH  60  81
ATOM     81  C   UNL A   1      48.014  26.874  30.793  1.00  0.00    -0.014 A 
ATOM     82  C   UNL A   1      49.070  27.093  29.891  1.00  0.00     0.010 A 
ATOM     83  C   UNL A   1      48.289  26.280  32.039  1.00  0.00     0.010 A 
ATOM     84  C   UNL A   1      50.371  26.698  30.218  1.00  0.00     0.020 A 
ATOM     85  C   UNL A   1      49.591  25.912  32.382  1.00  0.00     0.020 A 
ATOM     86  C   UNL A   1      50.624  26.112  31.463  1.00  0.00     0.054 A 
BRANCH  86  87
ATOM     87  S   UNL A   1      52.327  25.652  31.882  1.00  0.00     0.124 S 
ATOM     88  O   UNL A   1      52.188  24.235  32.208  1.00  0.00    -0.237 OA
ATOM     89  O   UNL A   1      53.051  25.944  30.646  1.00  0.00    -0.237 OA
ATOM     90  O   UNL A   1      52.654  26.521  33.009  1.00  0.00    -0.744 OA
ENDBRANCH  86  87
ENDBRANCH  60  81
ENDBRANCH  34  35
ENDBRANCH  26  29
ENDBRANCH  24  25
ENDBRANCH  23  24
ENDBRANCH   1  23
TORSDOF 17
ENDMDL
MODEL 2
REMARK VINA RESULT:     -11.1      2.815      3.717
REMARK SMILES C[C@@H](C(=O)NCCCNC(=O)c1ccc(-c2c3nc(c(-c4ccc(S(=O)(=O)[O-])cc4)c4ccc([nH]4)c(-c4ccc(S(=O)(=O)[O-])cc4)c4nc(c(-c5ccc(S(=O)(=O)[O-])cc5)c5ccc2[nH]5)C=C4)C=C3)cc1)c1ccc(C[C@H]2CCC[C@@H]2O)cc1F
REMARK SMILES IDX 6 1 5 2 3 3 4 4 2 6 1 7 72 8 73 9 84 10 74 11 83 12 85 13
REMARK SMILES IDX 75 14 76 15 77 16 78 17 81 18 79 19 80 20 82 21 7 23 8 24
REMARK SMILES IDX 9 25 10 26 11 28 12 29 13 30 71 31 14 32 70 33 15 34 16 35
REMARK SMILES IDX 17 36 64 37 18 38 69 39 63 40 65 41 19 42 68 43 62 44 61 45
REMARK SMILES IDX 20 47 50 48 31 49 49 50 32 51 35 52 48 53 66 54 33 55 34 56
REMARK SMILES IDX 47 58 67 59 36 60 21 61 22 62 30 63 23 64 29 65 24 66 25 67
REMARK SMILES IDX 26 68 27 69 28 70 51 71 52 72 60 73 53 74 59 75 54 76 55 77
REMARK SMILES IDX 56 78 57 79 58 80 37 81 38 82 46 83 39 84 45 85 40 86 41 87
REMARK SMILES IDX 42 88 43 89 44 90
REMARK H PARENT 5 5 82 22 9 27 65 46 35 57
REMARK Flexibility Score: inf
ROOT
ATOM      1  C   UNL A   1      34.344  29.251  27.058  1.00  0.00     0.117 C 
ENDROOT
BRANCH   1   2
ATOM      2  N   UNL A   1      33.141  28.767  27.704  1.00  0.00    -0.356 N 
ATOM      3  C   UNL A   1      32.134  27.988  27.214  1.00  0.00     0.227 C 
ATOM      4  O   UNL A   1      31.158  27.815  27.947  1.00  0.00    -0.274 OA
ATOM      5  H   UNL A   1      33.033  29.043  28.643  1.00  0.00     0.163 HD
BRANCH   3   6
ATOM      6  C   UNL A   1      32.286  27.316  25.843  1.00  0.00     0.108 C 
ATOM      7  C   UNL A   1      31.052  27.499  24.954  1.00  0.00     0.023 C 
BRANCH   6   8
ATOM      8  C   UNL A   1      32.703  25.861  25.998  1.00  0.00    -0.000 A 
ATOM      9  C   UNL A   1      34.052  25.519  25.824  1.00  0.00     0.008 A 
ATOM     10  C   UNL A   1      31.809  24.844  26.346  1.00  0.00     0.127 A 
ATOM     11  C   UNL A   1      34.468  24.189  25.912  1.00  0.00     0.004 A 
ATOM     12  C   UNL A   1      32.213  23.513  26.398  1.00  0.00     0.043 A 
ATOM     13  F   UNL A   1      30.524  25.117  26.604  1.00  0.00    -0.207 F 
ATOM     14  C   UNL A   1      33.541  23.166  26.131  1.00  0.00    -0.045 A 
BRANCH  14  15
ATOM     15  C   UNL A   1      33.941  21.716  26.035  1.00  0.00     0.041 C 
BRANCH  15  16
ATOM     16  C   UNL A   1      32.922  20.799  25.330  1.00  0.00     0.022 C 
ATOM     17  C   UNL A   1      32.708  21.058  23.827  1.00  0.00     0.007 C 
ATOM     18  C   UNL A   1      33.199  19.294  25.415  1.00  0.00     0.117 C 
ATOM     19  C   UNL A   1      32.454  19.686  23.193  1.00  0.00     0.003 C 
ATOM     20  C   UNL A   1      32.266  18.726  24.358  1.00  0.00     0.032 C 
BRANCH  18  21
ATOM     21  O   UNL A   1      32.896  18.767  26.692  1.00  0.00    -0.393 OA
ATOM     22  H   UNL A   1      33.655  18.892  27.283  1.00  0.00     0.210 HD
ENDBRANCH  18  21
ENDBRANCH  15  16
ENDBRANCH  14  15
ENDBRANCH   6   8
ENDBRANCH   3   6
ENDBRANCH   1   2
BRANCH   1  23
ATOM     23  C   UNL A   1      34.506  30.756  27.246  1.00  0.00     0.042 C 
BRANCH  23  24
ATOM     24  C   UNL A   1      35.737  31.144  28.060  1.00  0.00     0.118 C 
BRANCH  24  25
ATOM     25  N   UNL A   1      35.572  30.867  29.480  1.00  0.00    -0.352 N 
ATOM     26  C   UNL A   1      36.429  30.255  30.358  1.00  0.00     0.251 C 
ATOM     27  H   UNL A   1      34.718  31.165  29.868  1.00  0.00     0.163 HD
ATOM     28  O   UNL A   1      36.018  29.928  31.472  1.00  0.00    -0.269 OA
BRANCH  26  29
ATOM     29  C   UNL A   1      37.826  29.972  29.969  1.00  0.00     0.039 A 
ATOM     30  C   UNL A   1      38.791  29.836  30.969  1.00  0.00     0.014 A 
ATOM     31  C   UNL A   1      38.192  29.862  28.624  1.00  0.00     0.014 A 
ATOM     32  C   UNL A   1      40.110  29.529  30.624  1.00  0.00     0.010 A 
ATOM     33  C   UNL A   1      39.488  29.479  28.286  1.00  0.00     0.010 A 
ATOM     34  C   UNL A   1      40.462  29.314  29.281  1.00  0.00    -0.014 A 
BRANCH  34  35
ATOM     35  C   UNL A   1      41.840  28.910  28.902  1.00  0.00     0.031 A 
ATOM     36  C   UNL A   1      42.954  29.922  28.902  1.00  0.00     0.074 A 
ATOM     37  C   UNL A   1      42.075  27.646  28.496  1.00  0.00     0.049 A 
ATOM     38  N   UNL A   1      44.206  29.770  28.549  1.00  0.00    -0.248 NA
ATOM     39  C   UNL A   1      42.616  31.288  29.334  1.00  0.00     0.031 C 
ATOM     40  C   UNL A   1      41.071  26.582  28.415  1.00  0.00     0.029 A 
ATOM     41  N   UNL A   1      43.232  27.042  28.071  1.00  0.00    -0.354 N 
ATOM     42  C   UNL A   1      44.797  31.019  28.700  1.00  0.00     0.074 A 
ATOM     43  C   UNL A   1      43.757  31.929  29.129  1.00  0.00     0.031 C 
ATOM     44  C   UNL A   1      41.661  25.451  27.994  1.00  0.00     0.029 A 
ATOM     45  C   UNL A   1      43.071  25.719  27.730  1.00  0.00     0.049 A 
ATOM     46  H   UNL A   1      44.095  27.511  28.013  1.00  0.00     0.167 HD
ATOM     47  C   UNL A   1      46.092  31.373  28.516  1.00  0.00     0.031 A 
ATOM     48  C   UNL A   1      43.956  24.822  27.252  1.00  0.00     0.031 A 
ATOM     49  C   UNL A   1      47.124  30.463  28.095  1.00  0.00     0.049 A 
ATOM     50  C   UNL A   1      45.384  25.244  27.040  1.00  0.00     0.074 A 
ATOM     51  C   UNL A   1      48.475  30.712  27.932  1.00  0.00     0.029 A 
ATOM     52  N   UNL A   1      46.921  29.130  27.767  1.00  0.00    -0.354 N 
ATOM     53  N   UNL A   1      45.937  26.414  27.251  1.00  0.00    -0.248 NA
ATOM     54  C   UNL A   1      46.310  24.220  26.535  1.00  0.00     0.031 C 
ATOM     55  C   UNL A   1      49.079  29.546  27.449  1.00  0.00     0.029 A 
ATOM     56  C   UNL A   1      48.116  28.552  27.377  1.00  0.00     0.049 A 
ATOM     57  H   UNL A   1      46.054  28.665  27.806  1.00  0.00     0.167 HD
ATOM     58  C   UNL A   1      47.282  26.259  26.935  1.00  0.00     0.074 A 
ATOM     59  C   UNL A   1      47.460  24.879  26.531  1.00  0.00     0.031 C 
ATOM     60  C   UNL A   1      48.280  27.176  26.978  1.00  0.00     0.031 A 
BRANCH  47  61
ATOM     61  C   UNL A   1      46.464  32.813  28.762  1.00  0.00    -0.014 A 
ATOM     62  C   UNL A   1      46.895  33.248  30.029  1.00  0.00     0.010 A 
ATOM     63  C   UNL A   1      46.424  33.736  27.701  1.00  0.00     0.010 A 
ATOM     64  C   UNL A   1      47.237  34.585  30.241  1.00  0.00     0.020 A 
ATOM     65  C   UNL A   1      46.797  35.070  27.902  1.00  0.00     0.020 A 
ATOM     66  C   UNL A   1      47.184  35.489  29.176  1.00  0.00     0.054 A 
BRANCH  66  67
ATOM     67  S   UNL A   1      47.658  37.213  29.476  1.00  0.00     0.124 S 
ATOM     68  O   UNL A   1      47.425  37.344  30.912  1.00  0.00    -0.237 OA
ATOM     69  O   UNL A   1      49.058  37.238  29.062  1.00  0.00    -0.237 OA
ATOM     70  O   UNL A   1      46.746  37.977  28.627  1.00  0.00    -0.744 OA
ENDBRANCH  66  67
ENDBRANCH  47  61
BRANCH  48  71
ATOM     71  C   UNL A   1      43.516  23.431  26.954  1.00  0.00    -0.014 A 
ATOM     72  C   UNL A   1      43.480  22.961  25.629  1.00  0.00     0.010 A 
ATOM     73  C   UNL A   1      43.142  22.562  27.996  1.00  0.00     0.010 A 
ATOM     74  C   UNL A   1      43.061  21.657  25.350  1.00  0.00     0.020 A 
ATOM     75  C   UNL A   1      42.753  21.249  27.724  1.00  0.00     0.020 A 
ATOM     76  C   UNL A   1      42.702  20.807  26.401  1.00  0.00     0.054 A 
BRANCH  76  77
ATOM     77  S   UNL A   1      42.211  19.103  26.019  1.00  0.00     0.124 S 
ATOM     78  O   UNL A   1      42.619  18.391  27.225  1.00  0.00    -0.237 OA
ATOM     79  O   UNL A   1      40.769  19.230  25.814  1.00  0.00    -0.237 OA
ATOM     80  O   UNL A   1      42.977  18.789  24.815  1.00  0.00    -0.744 OA
ENDBRANCH  76  77
ENDBRANCH  48  71
BRANCH  60  81
ATOM     81  C   UNL A   1      49.668  26.712  26.620  1.00  0.00    -0.014 A 
ATOM     82  C   UNL A   1      50.519  26.138  27.580  1.00  0.00     0.010 A 
ATOM     83  C   UNL A   1      50.102  26.801  25.284  1.00  0.00     0.010 A 
ATOM     84  C   UNL A   1      51.792  25.689  27.217  1.00  0.00     0.020 A 
ATOM     85  C   UNL A   1      51.361  26.326  24.912  1.00  0.00     0.020 A 
ATOM     86  C   UNL A   1      52.205  25.784  25.884  1.00  0.00     0.054 A 
BRANCH  86  87
ATOM     87  S   UNL A   1      53.842  25.151  25.428  1.00  0.00     0.124 S 
ATOM     88  O   UNL A   1      54.354  26.218  24.573  1.00  0.00    -0.237 OA
ATOM     89  O   UNL A   1      54.503  25.014  26.724  1.00  0.00    -0.237 OA
ATOM     90  O   UNL A   1      53.551  23.892  24.747  1.00  0.00    -0.744 OA
ENDBRANCH  86  87
ENDBRANCH  60  81
ENDBRANCH  34  35
ENDBRANCH  26  29
ENDBRANCH  24  25
ENDBRANCH  23  24
ENDBRANCH   1  23
TORSDOF 17
ENDMDL
MODEL 3
REMARK VINA RESULT:     -11.0      2.972      9.727
REMARK SMILES C[C@@H](C(=O)NCCCNC(=O)c1ccc(-c2c3nc(c(-c4ccc(S(=O)(=O)[O-])cc4)c4ccc([nH]4)c(-c4ccc(S(=O)(=O)[O-])cc4)c4nc(c(-c5ccc(S(=O)(=O)[O-])cc5)c5ccc2[nH]5)C=C4)C=C3)cc1)c1ccc(C[C@H]2CCC[C@@H]2O)cc1F
REMARK SMILES IDX 6 1 5 2 3 3 4 4 2 6 1 7 72 8 73 9 84 10 74 11 83 12 85 13
REMARK SMILES IDX 75 14 76 15 77 16 78 17 81 18 79 19 80 20 82 21 7 23 8 24
REMARK SMILES IDX 9 25 10 26 11 28 12 29 13 30 71 31 14 32 70 33 15 34 16 35
REMARK SMILES IDX 17 36 64 37 18 38 69 39 63 40 65 41 19 42 68 43 62 44 61 45
REMARK SMILES IDX 20 47 50 48 31 49 49 50 32 51 35 52 48 53 66 54 33 55 34 56
REMARK SMILES IDX 47 58 67 59 36 60 21 61 22 62 30 63 23 64 29 65 24 66 25 67
REMARK SMILES IDX 26 68 27 69 28 70 51 71 52 72 60 73 53 74 59 75 54 76 55 77
REMARK SMILES IDX 56 78 57 79 58 80 37 81 38 82 46 83 39 84 45 85 40 86 41 87
REMARK SMILES IDX 42 88 43 89 44 90
REMARK H PARENT 5 5 82 22 9 27 65 46 35 57
REMARK Flexibility Score: inf
ROOT
ATOM      1  C   UNL A   1      34.829  22.249  24.755  1.00  0.00     0.117 C 
ENDROOT
BRANCH   1   2
ATOM      2  N   UNL A   1      33.603  22.589  24.060  1.00  0.00    -0.356 N 
ATOM      3  C   UNL A   1      32.548  23.352  24.464  1.00  0.00     0.227 C 
ATOM      4  O   UNL A   1      31.569  23.388  23.715  1.00  0.00    -0.274 OA
ATOM      5  H   UNL A   1      33.520  22.210  23.155  1.00  0.00     0.163 HD
BRANCH   3   6
ATOM      6  C   UNL A   1      32.648  24.173  25.757  1.00  0.00     0.108 C 
ATOM      7  C   UNL A   1      31.783  23.605  26.887  1.00  0.00     0.023 C 
BRANCH   6   8
ATOM      8  C   UNL A   1      32.386  25.646  25.483  1.00  0.00    -0.000 A 
ATOM      9  C   UNL A   1      31.279  26.262  26.083  1.00  0.00     0.008 A 
ATOM     10  C   UNL A   1      33.222  26.435  24.687  1.00  0.00     0.127 A 
ATOM     11  C   UNL A   1      30.977  27.599  25.821  1.00  0.00     0.004 A 
ATOM     12  C   UNL A   1      32.904  27.757  24.393  1.00  0.00     0.043 A 
ATOM     13  F   UNL A   1      34.339  25.927  24.150  1.00  0.00    -0.207 F 
ATOM     14  C   UNL A   1      31.747  28.340  24.919  1.00  0.00    -0.045 A 
BRANCH  14  15
ATOM     15  C   UNL A   1      31.323  29.717  24.478  1.00  0.00     0.041 C 
BRANCH  15  16
ATOM     16  C   UNL A   1      30.014  29.773  23.667  1.00  0.00     0.022 C 
ATOM     17  C   UNL A   1      29.147  31.030  23.870  1.00  0.00     0.007 C 
ATOM     18  C   UNL A   1      30.159  29.660  22.145  1.00  0.00     0.117 C 
ATOM     19  C   UNL A   1      28.502  31.324  22.511  1.00  0.00     0.003 C 
ATOM     20  C   UNL A   1      28.792  30.104  21.649  1.00  0.00     0.032 C 
BRANCH  18  21
ATOM     21  O   UNL A   1      30.441  28.337  21.732  1.00  0.00    -0.393 OA
ATOM     22  H   UNL A   1      30.549  28.315  20.769  1.00  0.00     0.210 HD
ENDBRANCH  18  21
ENDBRANCH  15  16
ENDBRANCH  14  15
ENDBRANCH   6   8
ENDBRANCH   3   6
ENDBRANCH   1   2
BRANCH   1  23
ATOM     23  C   UNL A   1      35.939  23.244  24.436  1.00  0.00     0.042 C 
BRANCH  23  24
ATOM     24  C   UNL A   1      36.803  23.607  25.641  1.00  0.00     0.118 C 
BRANCH  24  25
ATOM     25  N   UNL A   1      37.929  22.700  25.809  1.00  0.00    -0.352 N 
ATOM     26  C   UNL A   1      39.192  22.950  26.280  1.00  0.00     0.251 C 
ATOM     27  H   UNL A   1      37.758  21.768  25.544  1.00  0.00     0.163 HD
ATOM     28  O   UNL A   1      40.066  22.093  26.148  1.00  0.00    -0.269 OA
BRANCH  26  29
ATOM     29  C   UNL A   1      39.510  24.241  26.926  1.00  0.00     0.039 A 
ATOM     30  C   UNL A   1      39.146  24.436  28.260  1.00  0.00     0.014 A 
ATOM     31  C   UNL A   1      40.146  25.264  26.217  1.00  0.00     0.014 A 
ATOM     32  C   UNL A   1      39.473  25.635  28.900  1.00  0.00     0.010 A 
ATOM     33  C   UNL A   1      40.540  26.425  26.877  1.00  0.00     0.010 A 
ATOM     34  C   UNL A   1      40.205  26.626  28.223  1.00  0.00    -0.014 A 
BRANCH  34  35
ATOM     35  C   UNL A   1      40.630  27.872  28.910  1.00  0.00     0.031 A 
ATOM     36  C   UNL A   1      41.987  27.958  29.555  1.00  0.00     0.074 A 
ATOM     37  C   UNL A   1      39.769  28.906  29.006  1.00  0.00     0.049 A 
ATOM     38  N   UNL A   1      42.511  28.939  30.245  1.00  0.00    -0.248 NA
ATOM     39  C   UNL A   1      42.862  26.781  29.429  1.00  0.00     0.031 C 
ATOM     40  C   UNL A   1      38.412  28.931  28.455  1.00  0.00     0.029 A 
ATOM     41  N   UNL A   1      39.907  30.132  29.606  1.00  0.00    -0.354 N 
ATOM     42  C   UNL A   1      43.765  28.493  30.647  1.00  0.00     0.074 A 
ATOM     43  C   UNL A   1      43.904  27.135  30.167  1.00  0.00     0.031 C 
ATOM     44  C   UNL A   1      37.852  30.123  28.720  1.00  0.00     0.029 A 
ATOM     45  C   UNL A   1      38.790  30.928  29.497  1.00  0.00     0.049 A 
ATOM     46  H   UNL A   1      40.725  30.416  30.072  1.00  0.00     0.167 HD
ATOM     47  C   UNL A   1      44.722  29.159  31.339  1.00  0.00     0.031 A 
ATOM     48  C   UNL A   1      38.542  32.164  29.974  1.00  0.00     0.031 A 
ATOM     49  C   UNL A   1      44.581  30.511  31.809  1.00  0.00     0.049 A 
ATOM     50  C   UNL A   1      39.614  32.876  30.753  1.00  0.00     0.074 A 
ATOM     51  C   UNL A   1      45.512  31.292  32.472  1.00  0.00     0.029 A 
ATOM     52  N   UNL A   1      43.437  31.284  31.672  1.00  0.00    -0.354 N 
ATOM     53  N   UNL A   1      40.818  32.461  31.066  1.00  0.00    -0.248 NA
ATOM     54  C   UNL A   1      39.297  34.228  31.234  1.00  0.00     0.031 C 
ATOM     55  C   UNL A   1      44.912  32.515  32.787  1.00  0.00     0.029 A 
ATOM     56  C   UNL A   1      43.629  32.523  32.260  1.00  0.00     0.049 A 
ATOM     57  H   UNL A   1      42.610  30.994  31.222  1.00  0.00     0.167 HD
ATOM     58  C   UNL A   1      41.414  33.513  31.753  1.00  0.00     0.074 A 
ATOM     59  C   UNL A   1      40.442  34.586  31.798  1.00  0.00     0.031 C 
ATOM     60  C   UNL A   1      42.654  33.584  32.296  1.00  0.00     0.031 A 
BRANCH  47  61
ATOM     61  C   UNL A   1      46.006  28.427  31.635  1.00  0.00    -0.014 A 
ATOM     62  C   UNL A   1      46.148  27.647  32.797  1.00  0.00     0.010 A 
ATOM     63  C   UNL A   1      47.070  28.484  30.717  1.00  0.00     0.010 A 
ATOM     64  C   UNL A   1      47.344  26.973  33.057  1.00  0.00     0.020 A 
ATOM     65  C   UNL A   1      48.258  27.785  30.958  1.00  0.00     0.020 A 
ATOM     66  C   UNL A   1      48.393  27.048  32.137  1.00  0.00     0.054 A 
BRANCH  66  67
ATOM     67  S   UNL A   1      49.924  26.144  32.490  1.00  0.00     0.124 S 
ATOM     68  O   UNL A   1      50.750  26.487  31.335  1.00  0.00    -0.237 OA
ATOM     69  O   UNL A   1      50.352  26.722  33.761  1.00  0.00    -0.237 OA
ATOM     70  O   UNL A   1      49.496  24.748  32.556  1.00  0.00    -0.744 OA
ENDBRANCH  66  67
ENDBRANCH  47  61
BRANCH  48  71
ATOM     71  C   UNL A   1      37.225  32.810  29.716  1.00  0.00    -0.014 A 
ATOM     72  C   UNL A   1      36.166  32.664  30.628  1.00  0.00     0.010 A 
ATOM     73  C   UNL A   1      37.028  33.588  28.560  1.00  0.00     0.010 A 
ATOM     74  C   UNL A   1      34.929  33.267  30.382  1.00  0.00     0.020 A 
ATOM     75  C   UNL A   1      35.803  34.218  28.325  1.00  0.00     0.020 A 
ATOM     76  C   UNL A   1      34.756  34.043  29.232  1.00  0.00     0.054 A 
BRANCH  76  77
ATOM     77  S   UNL A   1      33.158  34.856  28.958  1.00  0.00     0.124 S 
ATOM     78  O   UNL A   1      33.565  36.164  28.454  1.00  0.00    -0.237 OA
ATOM     79  O   UNL A   1      32.517  33.973  27.986  1.00  0.00    -0.237 OA
ATOM     80  O   UNL A   1      32.545  34.858  30.284  1.00  0.00    -0.744 OA
ENDBRANCH  76  77
ENDBRANCH  48  71
BRANCH  60  81
ATOM     81  C   UNL A   1      43.055  34.880  32.950  1.00  0.00    -0.014 A 
ATOM     82  C   UNL A   1      42.901  35.081  34.333  1.00  0.00     0.010 A 
ATOM     83  C   UNL A   1      43.648  35.892  32.172  1.00  0.00     0.010 A 
ATOM     84  C   UNL A   1      43.307  36.282  34.921  1.00  0.00     0.020 A 
ATOM     85  C   UNL A   1      44.083  37.081  32.761  1.00  0.00     0.020 A 
ATOM     86  C   UNL A   1      43.898  37.274  34.131  1.00  0.00     0.054 A 
BRANCH  86  87
ATOM     87  S   UNL A   1      44.459  38.805  34.926  1.00  0.00     0.124 S 
ATOM     88  O   UNL A   1      43.761  39.825  34.149  1.00  0.00    -0.237 OA
ATOM     89  O   UNL A   1      43.997  38.638  36.303  1.00  0.00    -0.237 OA
ATOM     90  O   UNL A   1      45.909  38.774  34.754  1.00  0.00    -0.744 OA
ENDBRANCH  86  87
ENDBRANCH  60  81
ENDBRANCH  34  35
ENDBRANCH  26  29
ENDBRANCH  24  25
ENDBRANCH  23  24
ENDBRANCH   1  23
TORSDOF 17
ENDMDL
