MODEL 1
REMARK VINA RESULT:     -12.5      0.000      0.000
REMARK SMILES O=C(NCCCNC(=O)c1ccccc1/N=C/c1coc2ccccc2c1=O)c1ccc(-c2c3nc(c(-c4ccc(S(=O)(=O)[O-])cc4)c4ccc([nH]4)c(-c4ccc(S(=O)(=O)[O-])cc4)c4nc(c(-c5ccc(S(=O)(=O)[O-])cc5)c5ccc2[nH]5)C=C4)C=C3)cc1
REMARK SMILES IDX 4 1 3 2 1 3 2 4 29 6 30 7 88 8 31 9 87 10 32 11 33 12 34 13
REMARK SMILES IDX 81 14 35 15 86 16 80 17 82 18 36 19 85 20 79 21 78 22 37 24
REMARK SMILES IDX 67 25 48 26 66 27 49 28 52 29 65 30 83 31 50 32 51 33 64 35
REMARK SMILES IDX 84 36 53 37 38 38 39 39 47 40 40 41 46 42 41 43 42 44 43 45
REMARK SMILES IDX 44 46 45 47 68 48 69 49 77 50 70 51 76 52 71 53 72 54 73 55
REMARK SMILES IDX 74 56 75 57 54 58 55 59 63 60 56 61 62 62 57 63 58 64 59 65
REMARK SMILES IDX 60 66 61 67 5 68 6 69 7 70 8 71 9 73 10 74 11 75 15 76 12 77
REMARK SMILES IDX 14 78 13 79 16 80 17 81 18 82 19 83 27 84 20 85 26 86 28 87
REMARK SMILES IDX 21 88 25 89 22 90 24 91 23 92
REMARK H PARENT 3 5 82 23 52 34 7 72
REMARK Flexibility Score: inf
ROOT
ATOM      1  C   UNL A   1      33.591  28.941  27.258  1.00  0.00     0.118 C 
ENDROOT
BRANCH   1   2
ATOM      2  N   UNL A   1      33.663  30.216  27.950  1.00  0.00    -0.352 N 
ATOM      3  O   UNL A   1      34.668  31.950  29.008  1.00  0.00    -0.269 OA
ATOM      4  C   UNL A   1      34.767  30.828  28.516  1.00  0.00     0.251 C 
ATOM      5  H   UNL A   1      32.815  30.710  28.027  1.00  0.00     0.163 HD
BRANCH   4   6
ATOM      6  C   UNL A   1      36.064  30.106  28.626  1.00  0.00     0.039 A 
ATOM      7  C   UNL A   1      36.473  29.459  29.792  1.00  0.00     0.014 A 
ATOM      8  C   UNL A   1      36.927  30.136  27.521  1.00  0.00     0.014 A 
ATOM      9  C   UNL A   1      37.796  29.036  29.925  1.00  0.00     0.010 A 
ATOM     10  C   UNL A   1      38.234  29.648  27.630  1.00  0.00     0.010 A 
ATOM     11  C   UNL A   1      38.702  29.167  28.860  1.00  0.00    -0.014 A 
BRANCH  11  12
ATOM     12  C   UNL A   1      40.145  28.894  29.095  1.00  0.00     0.031 A 
ATOM     13  C   UNL A   1      40.755  27.593  28.636  1.00  0.00     0.074 A 
ATOM     14  C   UNL A   1      40.936  29.843  29.626  1.00  0.00     0.049 A 
ATOM     15  N   UNL A   1      42.014  27.227  28.643  1.00  0.00    -0.248 NA
ATOM     16  C   UNL A   1      39.838  26.572  28.105  1.00  0.00     0.031 C 
ATOM     17  C   UNL A   1      40.482  31.144  30.121  1.00  0.00     0.029 A 
ATOM     18  N   UNL A   1      42.299  29.879  29.786  1.00  0.00    -0.354 N 
ATOM     19  C   UNL A   1      42.032  25.921  28.166  1.00  0.00     0.074 A 
ATOM     20  C   UNL A   1      40.663  25.563  27.865  1.00  0.00     0.031 C 
ATOM     21  C   UNL A   1      41.555  31.882  30.451  1.00  0.00     0.029 A 
ATOM     22  C   UNL A   1      42.765  31.102  30.200  1.00  0.00     0.049 A 
ATOM     23  H   UNL A   1      42.884  29.104  29.621  1.00  0.00     0.167 HD
ATOM     24  C   UNL A   1      43.087  25.089  27.993  1.00  0.00     0.031 A 
ATOM     25  C   UNL A   1      44.023  31.566  30.322  1.00  0.00     0.031 A 
ATOM     26  C   UNL A   1      44.457  25.442  28.233  1.00  0.00     0.049 A 
ATOM     27  C   UNL A   1      45.187  30.678  29.993  1.00  0.00     0.074 A 
ATOM     28  C   UNL A   1      45.590  24.656  28.110  1.00  0.00     0.029 A 
ATOM     29  N   UNL A   1      44.885  26.703  28.616  1.00  0.00    -0.354 N 
ATOM     30  N   UNL A   1      45.179  29.435  29.578  1.00  0.00    -0.248 NA
ATOM     31  C   UNL A   1      46.528  31.262  30.141  1.00  0.00     0.031 C 
ATOM     32  C   UNL A   1      46.708  25.450  28.405  1.00  0.00     0.029 A 
ATOM     33  C   UNL A   1      46.266  26.727  28.709  1.00  0.00     0.049 A 
ATOM     34  H   UNL A   1      44.294  27.469  28.795  1.00  0.00     0.167 HD
ATOM     35  C   UNL A   1      46.514  29.082  29.425  1.00  0.00     0.074 A 
ATOM     36  C   UNL A   1      47.302  30.249  29.771  1.00  0.00     0.031 C 
ATOM     37  C   UNL A   1      47.039  27.893  29.044  1.00  0.00     0.031 A 
BRANCH  24  38
ATOM     38  C   UNL A   1      42.771  23.696  27.532  1.00  0.00    -0.014 A 
ATOM     39  C   UNL A   1      42.511  22.674  28.460  1.00  0.00     0.010 A 
ATOM     40  C   UNL A   1      42.769  23.401  26.158  1.00  0.00     0.010 A 
ATOM     41  C   UNL A   1      42.297  21.365  28.022  1.00  0.00     0.020 A 
ATOM     42  C   UNL A   1      42.549  22.094  25.716  1.00  0.00     0.020 A 
ATOM     43  C   UNL A   1      42.338  21.080  26.654  1.00  0.00     0.054 A 
BRANCH  43  44
ATOM     44  S   UNL A   1      42.097  19.376  26.080  1.00  0.00     0.124 S 
ATOM     45  O   UNL A   1      40.659  19.348  25.823  1.00  0.00    -0.237 OA
ATOM     46  O   UNL A   1      42.945  19.297  24.892  1.00  0.00    -0.237 OA
ATOM     47  O   UNL A   1      42.546  18.573  27.213  1.00  0.00    -0.744 OA
ENDBRANCH  43  44
ENDBRANCH  24  38
BRANCH  25  48
ATOM     48  C   UNL A   1      44.232  32.983  30.702  1.00  0.00    -0.014 A 
ATOM     49  C   UNL A   1      44.271  33.972  29.704  1.00  0.00     0.010 A 
ATOM     50  C   UNL A   1      44.323  33.356  32.053  1.00  0.00     0.010 A 
ATOM     51  C   UNL A   1      44.383  35.320  30.050  1.00  0.00     0.020 A 
ATOM     52  C   UNL A   1      44.432  34.704  32.402  1.00  0.00     0.020 A 
ATOM     53  C   UNL A   1      44.461  35.678  31.398  1.00  0.00     0.054 A 
BRANCH  53  54
ATOM     54  S   UNL A   1      44.510  37.431  31.866  1.00  0.00     0.124 S 
ATOM     55  O   UNL A   1      43.717  37.440  33.091  1.00  0.00    -0.237 OA
ATOM     56  O   UNL A   1      45.937  37.695  32.034  1.00  0.00    -0.237 OA
ATOM     57  O   UNL A   1      43.898  38.090  30.713  1.00  0.00    -0.744 OA
ENDBRANCH  53  54
ENDBRANCH  25  48
BRANCH  37  58
ATOM     58  C   UNL A   1      48.533  27.792  28.989  1.00  0.00    -0.014 A 
ATOM     59  C   UNL A   1      49.260  27.428  30.136  1.00  0.00     0.010 A 
ATOM     60  C   UNL A   1      49.216  28.040  27.787  1.00  0.00     0.010 A 
ATOM     61  C   UNL A   1      50.653  27.332  30.087  1.00  0.00     0.020 A 
ATOM     62  C   UNL A   1      50.609  27.942  27.734  1.00  0.00     0.020 A 
ATOM     63  C   UNL A   1      51.320  27.602  28.889  1.00  0.00     0.054 A 
BRANCH  63  64
ATOM     64  S   UNL A   1      53.127  27.454  28.816  1.00  0.00     0.124 S 
ATOM     65  O   UNL A   1      53.558  28.698  29.448  1.00  0.00    -0.237 OA
ATOM     66  O   UNL A   1      53.397  26.237  29.579  1.00  0.00    -0.237 OA
ATOM     67  O   UNL A   1      53.397  27.352  27.384  1.00  0.00    -0.744 OA
ENDBRANCH  63  64
ENDBRANCH  37  58
ENDBRANCH  11  12
ENDBRANCH   4   6
ENDBRANCH   1   2
BRANCH   1  68
ATOM     68  C   UNL A   1      32.229  28.536  26.705  1.00  0.00     0.042 C 
BRANCH  68  69
ATOM     69  C   UNL A   1      31.578  29.466  25.689  1.00  0.00     0.118 C 
BRANCH  69  70
ATOM     70  N   UNL A   1      32.074  29.327  24.332  1.00  0.00    -0.352 N 
ATOM     71  C   UNL A   1      31.357  29.143  23.178  1.00  0.00     0.253 C 
ATOM     72  H   UNL A   1      33.052  29.370  24.226  1.00  0.00     0.163 HD
ATOM     73  O   UNL A   1      31.929  29.118  22.090  1.00  0.00    -0.269 OA
BRANCH  71  74
ATOM     74  C   UNL A   1      29.901  28.916  23.212  1.00  0.00     0.065 A 
ATOM     75  C   UNL A   1      29.094  30.033  22.937  1.00  0.00     0.016 A 
ATOM     76  C   UNL A   1      29.314  27.685  23.534  1.00  0.00     0.076 A 
ATOM     77  C   UNL A   1      27.703  29.919  22.927  1.00  0.00     0.001 A 
ATOM     78  C   UNL A   1      27.913  27.591  23.502  1.00  0.00     0.029 A 
ATOM     79  C   UNL A   1      27.111  28.692  23.202  1.00  0.00     0.002 A 
BRANCH  76  80
ATOM     80  N   UNL A   1      29.974  26.475  23.764  1.00  0.00    -0.255 NA
ATOM     81  C   UNL A   1      29.945  25.866  24.904  1.00  0.00     0.127 C 
BRANCH  81  82
ATOM     82  C   UNL A   1      30.629  24.562  24.953  1.00  0.00     0.076 A 
ATOM     83  C   UNL A   1      30.785  23.948  23.770  1.00  0.00     0.209 A 
ATOM     84  C   UNL A   1      31.671  24.316  25.974  1.00  0.00     0.201 A 
ATOM     85  O   UNL A   1      31.848  23.115  23.462  1.00  0.00    -0.463 OA
ATOM     86  C   UNL A   1      32.988  24.001  25.399  1.00  0.00     0.065 A 
ATOM     87  O   UNL A   1      31.477  24.479  27.168  1.00  0.00    -0.288 OA
ATOM     88  C   UNL A   1      33.017  23.427  24.126  1.00  0.00     0.137 A 
ATOM     89  C   UNL A   1      34.160  24.418  26.028  1.00  0.00     0.016 A 
ATOM     90  C   UNL A   1      34.231  23.246  23.471  1.00  0.00     0.048 A 
ATOM     91  C   UNL A   1      35.371  24.284  25.349  1.00  0.00     0.001 A 
ATOM     92  C   UNL A   1      35.406  23.698  24.078  1.00  0.00     0.004 A 
ENDBRANCH  81  82
ENDBRANCH  76  80
ENDBRANCH  71  74
ENDBRANCH  69  70
ENDBRANCH  68  69
ENDBRANCH   1  68
TORSDOF 15
ENDMDL
MODEL 2
REMARK VINA RESULT:     -12.1      1.464      8.191
REMARK SMILES O=C(NCCCNC(=O)c1ccccc1/N=C/c1coc2ccccc2c1=O)c1ccc(-c2c3nc(c(-c4ccc(S(=O)(=O)[O-])cc4)c4ccc([nH]4)c(-c4ccc(S(=O)(=O)[O-])cc4)c4nc(c(-c5ccc(S(=O)(=O)[O-])cc5)c5ccc2[nH]5)C=C4)C=C3)cc1
REMARK SMILES IDX 4 1 3 2 1 3 2 4 29 6 30 7 88 8 31 9 87 10 32 11 33 12 34 13
REMARK SMILES IDX 81 14 35 15 86 16 80 17 82 18 36 19 85 20 79 21 78 22 37 24
REMARK SMILES IDX 67 25 48 26 66 27 49 28 52 29 65 30 83 31 50 32 51 33 64 35
REMARK SMILES IDX 84 36 53 37 38 38 39 39 47 40 40 41 46 42 41 43 42 44 43 45
REMARK SMILES IDX 44 46 45 47 68 48 69 49 77 50 70 51 76 52 71 53 72 54 73 55
REMARK SMILES IDX 74 56 75 57 54 58 55 59 63 60 56 61 62 62 57 63 58 64 59 65
REMARK SMILES IDX 60 66 61 67 5 68 6 69 7 70 8 71 9 73 10 74 11 75 15 76 12 77
REMARK SMILES IDX 14 78 13 79 16 80 17 81 18 82 19 83 27 84 20 85 26 86 28 87
REMARK SMILES IDX 21 88 25 89 22 90 24 91 23 92
REMARK H PARENT 3 5 82 23 52 34 7 72
REMARK Flexibility Score: inf
ROOT
ATOM      1  C   UNL A   1      33.631  30.038  26.888  1.00  0.00     0.118 C 
ENDROOT
BRANCH   1   2
ATOM      2  N   UNL A   1      33.657  30.998  27.978  1.00  0.00    -0.352 N 
ATOM      3  O   UNL A   1      34.580  32.206  29.659  1.00  0.00    -0.269 OA
ATOM      4  C   UNL A   1      34.704  31.312  28.825  1.00  0.00     0.251 C 
ATOM      5  H   UNL A   1      32.819  31.491  28.134  1.00  0.00     0.163 HD
BRANCH   4   6
ATOM      6  C   UNL A   1      35.961  30.513  28.809  1.00  0.00     0.039 A 
ATOM      7  C   UNL A   1      36.355  29.702  29.874  1.00  0.00     0.014 A 
ATOM      8  C   UNL A   1      36.803  30.638  27.695  1.00  0.00     0.014 A 
ATOM      9  C   UNL A   1      37.654  29.195  29.917  1.00  0.00     0.010 A 
ATOM     10  C   UNL A   1      38.082  30.070  27.708  1.00  0.00     0.010 A 
ATOM     11  C   UNL A   1      38.546  29.412  28.855  1.00  0.00    -0.014 A 
BRANCH  11  12
ATOM     12  C   UNL A   1      39.975  29.034  29.016  1.00  0.00     0.031 A 
ATOM     13  C   UNL A   1      40.902  29.901  29.831  1.00  0.00     0.074 A 
ATOM     14  C   UNL A   1      40.426  27.867  28.523  1.00  0.00     0.049 A 
ATOM     15  N   UNL A   1      42.143  29.674  30.183  1.00  0.00    -0.248 NA
ATOM     16  C   UNL A   1      40.370  31.188  30.307  1.00  0.00     0.031 C 
ATOM     17  C   UNL A   1      39.645  26.933  27.711  1.00  0.00     0.029 A 
ATOM     18  N   UNL A   1      41.639  27.243  28.681  1.00  0.00    -0.354 N 
ATOM     19  C   UNL A   1      42.554  30.806  30.878  1.00  0.00     0.074 A 
ATOM     20  C   UNL A   1      41.428  31.713  30.910  1.00  0.00     0.031 C 
ATOM     21  C   UNL A   1      40.369  25.818  27.513  1.00  0.00     0.029 A 
ATOM     22  C   UNL A   1      41.663  25.967  28.175  1.00  0.00     0.049 A 
ATOM     23  H   UNL A   1      42.413  27.668  29.115  1.00  0.00     0.167 HD
ATOM     24  C   UNL A   1      43.758  31.074  31.439  1.00  0.00     0.031 A 
ATOM     25  C   UNL A   1      42.600  25.004  28.268  1.00  0.00     0.031 A 
ATOM     26  C   UNL A   1      44.870  30.168  31.466  1.00  0.00     0.049 A 
ATOM     27  C   UNL A   1      43.874  25.265  29.014  1.00  0.00     0.074 A 
ATOM     28  C   UNL A   1      46.137  30.364  31.989  1.00  0.00     0.029 A 
ATOM     29  N   UNL A   1      44.837  28.874  30.974  1.00  0.00    -0.354 N 
ATOM     30  N   UNL A   1      44.255  26.356  29.632  1.00  0.00    -0.248 NA
ATOM     31  C   UNL A   1      44.841  24.160  29.081  1.00  0.00     0.031 C 
ATOM     32  C   UNL A   1      46.867  29.178  31.825  1.00  0.00     0.029 A 
ATOM     33  C   UNL A   1      46.051  28.249  31.203  1.00  0.00     0.049 A 
ATOM     34  H   UNL A   1      44.064  28.460  30.526  1.00  0.00     0.167 HD
ATOM     35  C   UNL A   1      45.512  26.073  30.153  1.00  0.00     0.074 A 
ATOM     36  C   UNL A   1      45.818  24.702  29.797  1.00  0.00     0.031 C 
ATOM     37  C   UNL A   1      46.341  26.884  30.853  1.00  0.00     0.031 A 
BRANCH  24  38
ATOM     38  C   UNL A   1      43.919  32.434  32.056  1.00  0.00    -0.014 A 
ATOM     39  C   UNL A   1      43.614  32.649  33.410  1.00  0.00     0.010 A 
ATOM     40  C   UNL A   1      44.347  33.512  31.261  1.00  0.00     0.010 A 
ATOM     41  C   UNL A   1      43.692  33.935  33.952  1.00  0.00     0.020 A 
ATOM     42  C   UNL A   1      44.431  34.797  31.802  1.00  0.00     0.020 A 
ATOM     43  C   UNL A   1      44.080  35.003  33.139  1.00  0.00     0.054 A 
BRANCH  43  44
ATOM     44  S   UNL A   1      44.149  36.682  33.825  1.00  0.00     0.124 S 
ATOM     45  O   UNL A   1      44.412  37.482  32.632  1.00  0.00    -0.237 OA
ATOM     46  O   UNL A   1      42.823  36.859  34.416  1.00  0.00    -0.237 OA
ATOM     47  O   UNL A   1      45.247  36.606  34.784  1.00  0.00    -0.744 OA
ENDBRANCH  43  44
ENDBRANCH  24  38
BRANCH  25  48
ATOM     48  C   UNL A   1      42.312  23.666  27.700  1.00  0.00    -0.014 A 
ATOM     49  C   UNL A   1      42.844  23.313  26.448  1.00  0.00     0.010 A 
ATOM     50  C   UNL A   1      41.571  22.722  28.430  1.00  0.00     0.010 A 
ATOM     51  C   UNL A   1      42.652  22.028  25.936  1.00  0.00     0.020 A 
ATOM     52  C   UNL A   1      41.381  21.435  27.922  1.00  0.00     0.020 A 
ATOM     53  C   UNL A   1      41.923  21.096  26.678  1.00  0.00     0.054 A 
BRANCH  53  54
ATOM     54  S   UNL A   1      41.749  19.395  26.070  1.00  0.00     0.124 S 
ATOM     55  O   UNL A   1      42.211  18.615  27.213  1.00  0.00    -0.237 OA
ATOM     56  O   UNL A   1      40.323  19.289  25.768  1.00  0.00    -0.237 OA
ATOM     57  O   UNL A   1      42.625  19.379  24.899  1.00  0.00    -0.744 OA
ENDBRANCH  53  54
ENDBRANCH  25  48
BRANCH  37  58
ATOM     58  C   UNL A   1      47.661  26.311  31.272  1.00  0.00    -0.014 A 
ATOM     59  C   UNL A   1      48.770  26.385  30.411  1.00  0.00     0.010 A 
ATOM     60  C   UNL A   1      47.806  25.716  32.536  1.00  0.00     0.010 A 
ATOM     61  C   UNL A   1      50.002  25.853  30.800  1.00  0.00     0.020 A 
ATOM     62  C   UNL A   1      49.037  25.185  32.930  1.00  0.00     0.020 A 
ATOM     63  C   UNL A   1      50.124  25.245  32.052  1.00  0.00     0.054 A 
BRANCH  63  64
ATOM     64  S   UNL A   1      51.730  24.576  32.571  1.00  0.00     0.124 S 
ATOM     65  O   UNL A   1      51.794  24.992  33.969  1.00  0.00    -0.237 OA
ATOM     66  O   UNL A   1      51.581  23.138  32.352  1.00  0.00    -0.237 OA
ATOM     67  O   UNL A   1      52.674  25.239  31.675  1.00  0.00    -0.744 OA
ENDBRANCH  63  64
ENDBRANCH  37  58
ENDBRANCH  11  12
ENDBRANCH   4   6
ENDBRANCH   1   2
BRANCH   1  68
ATOM     68  C   UNL A   1      32.700  28.841  27.050  1.00  0.00     0.042 C 
BRANCH  68  69
ATOM     69  C   UNL A   1      31.699  28.574  25.933  1.00  0.00     0.118 C 
BRANCH  69  70
ATOM     70  N   UNL A   1      32.224  28.746  24.591  1.00  0.00    -0.352 N 
ATOM     71  C   UNL A   1      31.530  28.882  23.416  1.00  0.00     0.253 C 
ATOM     72  H   UNL A   1      33.205  28.768  24.513  1.00  0.00     0.163 HD
ATOM     73  O   UNL A   1      32.128  29.096  22.364  1.00  0.00    -0.269 OA
BRANCH  71  74
ATOM     74  C   UNL A   1      30.066  28.721  23.372  1.00  0.00     0.065 A 
ATOM     75  C   UNL A   1      29.322  29.889  23.127  1.00  0.00     0.016 A 
ATOM     76  C   UNL A   1      29.410  27.503  23.595  1.00  0.00     0.076 A 
ATOM     77  C   UNL A   1      27.930  29.841  23.048  1.00  0.00     0.001 A 
ATOM     78  C   UNL A   1      28.009  27.477  23.495  1.00  0.00     0.029 A 
ATOM     79  C   UNL A   1      27.272  28.629  23.224  1.00  0.00     0.002 A 
BRANCH  76  80
ATOM     80  N   UNL A   1      30.004  26.253  23.782  1.00  0.00    -0.255 NA
ATOM     81  C   UNL A   1      30.134  25.705  24.947  1.00  0.00     0.127 C 
BRANCH  81  82
ATOM     82  C   UNL A   1      30.712  24.350  24.958  1.00  0.00     0.076 A 
ATOM     83  C   UNL A   1      30.926  23.805  23.752  1.00  0.00     0.209 A 
ATOM     84  C   UNL A   1      31.638  23.956  26.042  1.00  0.00     0.201 A 
ATOM     85  O   UNL A   1      31.947  22.911  23.474  1.00  0.00    -0.463 OA
ATOM     86  C   UNL A   1      32.974  23.574  25.559  1.00  0.00     0.065 A 
ATOM     87  O   UNL A   1      31.351  24.056  27.225  1.00  0.00    -0.288 OA
ATOM     88  C   UNL A   1      33.073  23.084  24.254  1.00  0.00     0.137 A 
ATOM     89  C   UNL A   1      34.113  23.853  26.311  1.00  0.00     0.016 A 
ATOM     90  C   UNL A   1      34.323  22.849  23.691  1.00  0.00     0.048 A 
ATOM     91  C   UNL A   1      35.366  23.667  25.727  1.00  0.00     0.001 A 
ATOM     92  C   UNL A   1      35.470  23.165  24.425  1.00  0.00     0.004 A 
ENDBRANCH  81  82
ENDBRANCH  76  80
ENDBRANCH  71  74
ENDBRANCH  69  70
ENDBRANCH  68  69
ENDBRANCH   1  68
TORSDOF 15
ENDMDL
MODEL 3
REMARK VINA RESULT:     -12.1      3.102      8.673
REMARK SMILES O=C(NCCCNC(=O)c1ccccc1/N=C/c1coc2ccccc2c1=O)c1ccc(-c2c3nc(c(-c4ccc(S(=O)(=O)[O-])cc4)c4ccc([nH]4)c(-c4ccc(S(=O)(=O)[O-])cc4)c4nc(c(-c5ccc(S(=O)(=O)[O-])cc5)c5ccc2[nH]5)C=C4)C=C3)cc1
REMARK SMILES IDX 4 1 3 2 1 3 2 4 29 6 30 7 88 8 31 9 87 10 32 11 33 12 34 13
REMARK SMILES IDX 81 14 35 15 86 16 80 17 82 18 36 19 85 20 79 21 78 22 37 24
REMARK SMILES IDX 67 25 48 26 66 27 49 28 52 29 65 30 83 31 50 32 51 33 64 35
REMARK SMILES IDX 84 36 53 37 38 38 39 39 47 40 40 41 46 42 41 43 42 44 43 45
REMARK SMILES IDX 44 46 45 47 68 48 69 49 77 50 70 51 76 52 71 53 72 54 73 55
REMARK SMILES IDX 74 56 75 57 54 58 55 59 63 60 56 61 62 62 57 63 58 64 59 65
REMARK SMILES IDX 60 66 61 67 5 68 6 69 7 70 8 71 9 73 10 74 11 75 15 76 12 77
REMARK SMILES IDX 14 78 13 79 16 80 17 81 18 82 19 83 27 84 20 85 26 86 28 87
REMARK SMILES IDX 21 88 25 89 22 90 24 91 23 92
REMARK H PARENT 3 5 82 23 52 34 7 72
REMARK Flexibility Score: inf
ROOT
ATOM      1  C   UNL A   1      37.462  23.068  25.102  1.00  0.00     0.118 C 
ENDROOT
BRANCH   1   2
ATOM      2  N   UNL A   1      38.686  22.379  25.472  1.00  0.00    -0.352 N 
ATOM      3  O   UNL A   1      40.639  22.065  26.579  1.00  0.00    -0.269 OA
ATOM      4  C   UNL A   1      39.694  22.806  26.316  1.00  0.00     0.251 C 
ATOM      5  H   UNL A   1      38.815  21.490  25.068  1.00  0.00     0.163 HD
BRANCH   4   6
ATOM      6  C   UNL A   1      39.706  24.199  26.844  1.00  0.00     0.039 A 
ATOM      7  C   UNL A   1      40.255  25.270  26.139  1.00  0.00     0.014 A 
ATOM      8  C   UNL A   1      39.192  24.416  28.130  1.00  0.00     0.014 A 
ATOM      9  C   UNL A   1      40.479  26.486  26.787  1.00  0.00     0.010 A 
ATOM     10  C   UNL A   1      39.353  25.658  28.756  1.00  0.00     0.010 A 
ATOM     11  C   UNL A   1      40.070  26.677  28.116  1.00  0.00    -0.014 A 
BRANCH  11  12
ATOM     12  C   UNL A   1      40.498  27.905  28.839  1.00  0.00     0.031 A 
ATOM     13  C   UNL A   1      41.954  28.125  29.166  1.00  0.00     0.074 A 
ATOM     14  C   UNL A   1      39.606  28.873  29.114  1.00  0.00     0.049 A 
ATOM     15  N   UNL A   1      42.532  29.183  29.680  1.00  0.00    -0.248 NA
ATOM     16  C   UNL A   1      42.880  27.015  28.885  1.00  0.00     0.031 C 
ATOM     17  C   UNL A   1      38.167  28.795  28.861  1.00  0.00     0.029 A 
ATOM     18  N   UNL A   1      39.791  30.136  29.619  1.00  0.00    -0.354 N 
ATOM     19  C   UNL A   1      43.873  28.849  29.828  1.00  0.00     0.074 A 
ATOM     20  C   UNL A   1      44.028  27.497  29.338  1.00  0.00     0.031 C 
ATOM     21  C   UNL A   1      37.612  29.988  29.133  1.00  0.00     0.029 A 
ATOM     22  C   UNL A   1      38.654  30.906  29.587  1.00  0.00     0.049 A 
ATOM     23  H   UNL A   1      40.653  30.458  29.969  1.00  0.00     0.167 HD
ATOM     24  C   UNL A   1      44.888  29.594  30.327  1.00  0.00     0.031 A 
ATOM     25  C   UNL A   1      38.474  32.214  29.848  1.00  0.00     0.031 A 
ATOM     26  C   UNL A   1      44.768  30.955  30.768  1.00  0.00     0.049 A 
ATOM     27  C   UNL A   1      39.635  33.065  30.266  1.00  0.00     0.074 A 
ATOM     28  C   UNL A   1      45.737  31.780  31.313  1.00  0.00     0.029 A 
ATOM     29  N   UNL A   1      43.606  31.705  30.683  1.00  0.00    -0.354 N 
ATOM     30  N   UNL A   1      40.888  32.719  30.434  1.00  0.00    -0.248 NA
ATOM     31  C   UNL A   1      39.358  34.486  30.522  1.00  0.00     0.031 C 
ATOM     32  C   UNL A   1      45.162  33.038  31.544  1.00  0.00     0.029 A 
ATOM     33  C   UNL A   1      43.838  32.991  31.139  1.00  0.00     0.049 A 
ATOM     34  H   UNL A   1      42.743  31.372  30.346  1.00  0.00     0.167 HD
ATOM     35  C   UNL A   1      41.548  33.877  30.826  1.00  0.00     0.074 A 
ATOM     36  C   UNL A   1      40.562  34.939  30.850  1.00  0.00     0.031 C 
ATOM     37  C   UNL A   1      42.854  34.040  31.150  1.00  0.00     0.031 A 
BRANCH  24  38
ATOM     38  C   UNL A   1      46.224  28.917  30.433  1.00  0.00    -0.014 A 
ATOM     39  C   UNL A   1      46.588  28.224  31.600  1.00  0.00     0.010 A 
ATOM     40  C   UNL A   1      47.136  29.007  29.367  1.00  0.00     0.010 A 
ATOM     41  C   UNL A   1      47.864  27.667  31.717  1.00  0.00     0.020 A 
ATOM     42  C   UNL A   1      48.410  28.445  29.479  1.00  0.00     0.020 A 
ATOM     43  C   UNL A   1      48.773  27.799  30.664  1.00  0.00     0.054 A 
BRANCH  43  44
ATOM     44  S   UNL A   1      50.444  27.109  30.823  1.00  0.00     0.124 S 
ATOM     45  O   UNL A   1      51.233  28.051  30.033  1.00  0.00    -0.237 OA
ATOM     46  O   UNL A   1      50.688  27.144  32.263  1.00  0.00    -0.237 OA
ATOM     47  O   UNL A   1      50.309  25.772  30.252  1.00  0.00    -0.744 OA
ENDBRANCH  43  44
ENDBRANCH  24  38
BRANCH  25  48
ATOM     48  C   UNL A   1      37.134  32.811  29.632  1.00  0.00    -0.014 A 
ATOM     49  C   UNL A   1      36.315  33.098  30.737  1.00  0.00     0.010 A 
ATOM     50  C   UNL A   1      36.703  33.154  28.340  1.00  0.00     0.010 A 
ATOM     51  C   UNL A   1      35.085  33.736  30.557  1.00  0.00     0.020 A 
ATOM     52  C   UNL A   1      35.476  33.796  28.158  1.00  0.00     0.020 A 
ATOM     53  C   UNL A   1      34.675  34.083  29.268  1.00  0.00     0.054 A 
BRANCH  53  54
ATOM     54  S   UNL A   1      33.125  34.998  29.029  1.00  0.00     0.124 S 
ATOM     55  O   UNL A   1      33.608  36.294  28.565  1.00  0.00    -0.237 OA
ATOM     56  O   UNL A   1      32.411  34.198  28.036  1.00  0.00    -0.237 OA
ATOM     57  O   UNL A   1      32.534  34.985  30.365  1.00  0.00    -0.744 OA
ENDBRANCH  53  54
ENDBRANCH  25  48
BRANCH  37  58
ATOM     58  C   UNL A   1      43.287  35.414  31.564  1.00  0.00    -0.014 A 
ATOM     59  C   UNL A   1      43.207  35.804  32.911  1.00  0.00     0.010 A 
ATOM     60  C   UNL A   1      43.797  36.312  30.612  1.00  0.00     0.010 A 
ATOM     61  C   UNL A   1      43.612  37.084  33.300  1.00  0.00     0.020 A 
ATOM     62  C   UNL A   1      44.206  37.592  30.998  1.00  0.00     0.020 A 
ATOM     63  C   UNL A   1      44.097  37.974  32.338  1.00  0.00     0.054 A 
BRANCH  63  64
ATOM     64  S   UNL A   1      44.647  39.628  32.844  1.00  0.00     0.124 S 
ATOM     65  O   UNL A   1      43.547  40.468  32.377  1.00  0.00    -0.237 OA
ATOM     66  O   UNL A   1      44.774  39.512  34.295  1.00  0.00    -0.237 OA
ATOM     67  O   UNL A   1      45.910  39.794  32.128  1.00  0.00    -0.744 OA
ENDBRANCH  63  64
ENDBRANCH  37  58
ENDBRANCH  11  12
ENDBRANCH   4   6
ENDBRANCH   1   2
BRANCH   1  68
ATOM     68  C   UNL A   1      36.417  22.254  24.348  1.00  0.00     0.042 C 
BRANCH  68  69
ATOM     69  C   UNL A   1      36.044  20.891  24.917  1.00  0.00     0.118 C 
BRANCH  69  70
ATOM     70  N   UNL A   1      34.998  20.917  25.924  1.00  0.00    -0.352 N 
ATOM     71  C   UNL A   1      33.770  20.309  25.892  1.00  0.00     0.253 C 
ATOM     72  H   UNL A   1      35.196  21.440  26.734  1.00  0.00     0.163 HD
ATOM     73  O   UNL A   1      33.022  20.369  26.866  1.00  0.00    -0.269 OA
BRANCH  71  74
ATOM     74  C   UNL A   1      33.291  19.620  24.680  1.00  0.00     0.065 A 
ATOM     75  C   UNL A   1      33.567  18.244  24.601  1.00  0.00     0.016 A 
ATOM     76  C   UNL A   1      32.631  20.267  23.627  1.00  0.00     0.076 A 
ATOM     77  C   UNL A   1      33.140  17.496  23.502  1.00  0.00     0.001 A 
ATOM     78  C   UNL A   1      32.198  19.491  22.540  1.00  0.00     0.029 A 
ATOM     79  C   UNL A   1      32.446  18.120  22.473  1.00  0.00     0.002 A 
BRANCH  76  80
ATOM     80  N   UNL A   1      32.227  21.604  23.586  1.00  0.00    -0.255 NA
ATOM     81  C   UNL A   1      32.742  22.468  22.772  1.00  0.00     0.127 C 
BRANCH  81  82
ATOM     82  C   UNL A   1      32.147  23.816  22.805  1.00  0.00     0.076 A 
ATOM     83  C   UNL A   1      30.913  23.888  23.326  1.00  0.00     0.209 A 
ATOM     84  C   UNL A   1      33.017  24.998  22.984  1.00  0.00     0.201 A 
ATOM     85  O   UNL A   1      30.421  24.989  24.008  1.00  0.00    -0.463 OA
ATOM     86  C   UNL A   1      32.698  25.781  24.189  1.00  0.00     0.065 A 
ATOM     87  O   UNL A   1      33.978  25.227  22.266  1.00  0.00    -0.288 OA
ATOM     88  C   UNL A   1      31.389  25.715  24.673  1.00  0.00     0.137 A 
ATOM     89  C   UNL A   1      33.702  26.421  24.912  1.00  0.00     0.016 A 
ATOM     90  C   UNL A   1      31.065  26.310  25.888  1.00  0.00     0.048 A 
ATOM     91  C   UNL A   1      33.388  26.972  26.155  1.00  0.00     0.001 A 
ATOM     92  C   UNL A   1      32.076  26.919  26.639  1.00  0.00     0.004 A 
ENDBRANCH  81  82
ENDBRANCH  76  80
ENDBRANCH  71  74
ENDBRANCH  69  70
ENDBRANCH  68  69
ENDBRANCH   1  68
TORSDOF 15
ENDMDL
