MODEL 1
REMARK VINA RESULT:     -10.8      0.000      0.000
REMARK SMILES C[NH2+][C@]1(C(=O)NCCCNC(=O)c2ccc(-c3c4nc(c(-c5ccc(S(=O)(=O)[O-])cc5)c5ccc([nH]5)c(-c5ccc(S(=O)(=O)[O-])cc5)c5nc(c(-c6ccc(S(=O)(=O)[O-])cc6)c6ccc3[nH]6)C=C5)C=C4)cc2)CC[C@H](SC2CCCCC2)C1
REMARK SMILES IDX 8 1 7 2 6 3 4 4 5 5 3 7 73 8 83 9 74 10 75 11 2 12 1 13
REMARK SMILES IDX 76 16 77 17 78 18 82 19 79 20 81 21 80 22 9 23 10 24 11 25
REMARK SMILES IDX 12 27 13 28 14 29 72 30 15 31 71 32 16 33 17 34 18 35 65 36
REMARK SMILES IDX 19 37 70 38 64 39 66 40 20 41 69 42 63 43 62 44 21 46 51 47
REMARK SMILES IDX 32 48 50 49 33 50 36 51 49 52 67 53 34 54 35 55 48 57 68 58
REMARK SMILES IDX 37 59 22 60 23 61 31 62 24 63 30 64 25 65 26 66 27 67 28 68
REMARK SMILES IDX 29 69 52 70 53 71 61 72 54 73 60 74 55 75 56 76 57 77 58 78
REMARK SMILES IDX 59 79 38 80 39 81 47 82 40 83 46 84 41 85 42 86 43 87 44 88
REMARK SMILES IDX 45 89
REMARK H PARENT 6 6 2 14 2 15 10 26 66 45 36 56
REMARK Flexibility Score: inf
ROOT
ATOM      1  C   UNL A   1      33.849  27.586  26.109  1.00  0.00     0.042 C 
ENDROOT
BRANCH   1   2
ATOM      2  C   UNL A   1      32.890  26.633  25.399  1.00  0.00     0.118 C 
BRANCH   2   3
ATOM      3  N   UNL A   1      32.117  25.819  26.325  1.00  0.00    -0.351 N 
ATOM      4  C   UNL A   1      31.842  24.485  26.406  1.00  0.00     0.281 C 
ATOM      5  O   UNL A   1      31.137  24.168  27.371  1.00  0.00    -0.268 OA
ATOM      6  H   UNL A   1      31.703  26.344  27.048  1.00  0.00     0.163 HD
BRANCH   4   7
ATOM      7  C   UNL A   1      32.399  23.430  25.385  1.00  0.00     0.176 C 
ATOM      8  C   UNL A   1      33.928  23.324  25.470  1.00  0.00     0.080 C 
ATOM      9  C   UNL A   1      31.935  21.992  25.687  1.00  0.00     0.093 C 
ATOM     10  C   UNL A   1      34.269  21.943  24.936  1.00  0.00     0.022 C 
ATOM     11  C   UNL A   1      33.045  21.054  25.177  1.00  0.00     0.054 C 
BRANCH   7  12
ATOM     12  N   UNL A   1      32.117  23.846  23.978  1.00  0.00    -0.336 N 
ATOM     13  C   UNL A   1      30.721  23.791  23.569  1.00  0.00     0.331 C 
ATOM     14  H   UNL A   1      32.438  24.807  23.866  1.00  0.00     0.346 HD
ATOM     15  H   UNL A   1      32.606  23.174  23.387  1.00  0.00     0.346 HD
ENDBRANCH   7  12
BRANCH  11  16
ATOM     16  S   UNL A   1      32.485  20.181  23.660  1.00  0.00    -0.155 SA
BRANCH  16  17
ATOM     17  C   UNL A   1      32.699  18.400  24.073  1.00  0.00     0.047 C 
ATOM     18  C   UNL A   1      33.917  17.759  23.405  1.00  0.00     0.014 C 
ATOM     19  C   UNL A   1      32.665  18.126  25.580  1.00  0.00     0.014 C 
ATOM     20  C   UNL A   1      33.988  16.262  23.687  1.00  0.00     0.001 C 
ATOM     21  C   UNL A   1      32.764  16.623  25.863  1.00  0.00     0.001 C 
ATOM     22  C   UNL A   1      33.983  15.996  25.190  1.00  0.00     0.000 C 
ENDBRANCH  16  17
ENDBRANCH  11  16
ENDBRANCH   4   7
ENDBRANCH   2   3
ENDBRANCH   1   2
BRANCH   1  23
ATOM     23  C   UNL A   1      33.281  28.221  27.371  1.00  0.00     0.118 C 
BRANCH  23  24
ATOM     24  N   UNL A   1      33.273  29.675  27.303  1.00  0.00    -0.352 N 
ATOM     25  C   UNL A   1      34.220  30.582  27.704  1.00  0.00     0.251 C 
ATOM     26  H   UNL A   1      32.462  30.069  26.907  1.00  0.00     0.163 HD
ATOM     27  O   UNL A   1      33.916  31.778  27.760  1.00  0.00    -0.269 OA
BRANCH  25  28
ATOM     28  C   UNL A   1      35.583  30.149  28.081  1.00  0.00     0.039 A 
ATOM     29  C   UNL A   1      36.612  30.262  27.143  1.00  0.00     0.014 A 
ATOM     30  C   UNL A   1      35.847  29.597  29.338  1.00  0.00     0.014 A 
ATOM     31  C   UNL A   1      37.911  29.875  27.484  1.00  0.00     0.010 A 
ATOM     32  C   UNL A   1      37.155  29.291  29.705  1.00  0.00     0.010 A 
ATOM     33  C   UNL A   1      38.200  29.417  28.778  1.00  0.00    -0.014 A 
BRANCH  33  34
ATOM     34  C   UNL A   1      39.583  29.055  29.180  1.00  0.00     0.031 A 
ATOM     35  C   UNL A   1      40.452  30.058  29.894  1.00  0.00     0.074 A 
ATOM     36  C   UNL A   1      40.080  27.847  28.849  1.00  0.00     0.049 A 
ATOM     37  N   UNL A   1      41.700  29.947  30.270  1.00  0.00    -0.248 NA
ATOM     38  C   UNL A   1      39.848  31.364  30.201  1.00  0.00     0.031 C 
ATOM     39  C   UNL A   1      39.352  26.802  28.125  1.00  0.00     0.029 A 
ATOM     40  N   UNL A   1      41.316  27.295  29.072  1.00  0.00    -0.354 N 
ATOM     41  C   UNL A   1      42.035  31.171  30.839  1.00  0.00     0.074 A 
ATOM     42  C   UNL A   1      40.875  32.025  30.714  1.00  0.00     0.031 C 
ATOM     43  C   UNL A   1      40.146  25.727  27.987  1.00  0.00     0.029 A 
ATOM     44  C   UNL A   1      41.450  26.020  28.575  1.00  0.00     0.049 A 
ATOM     45  H   UNL A   1      42.039  27.767  29.545  1.00  0.00     0.167 HD
ATOM     46  C   UNL A   1      43.196  31.545  31.428  1.00  0.00     0.031 A 
ATOM     47  C   UNL A   1      42.505  25.182  28.580  1.00  0.00     0.031 A 
ATOM     48  C   UNL A   1      44.345  30.688  31.561  1.00  0.00     0.049 A 
ATOM     49  C   UNL A   1      43.786  25.622  29.233  1.00  0.00     0.074 A 
ATOM     50  C   UNL A   1      45.547  30.953  32.193  1.00  0.00     0.029 A 
ATOM     51  N   UNL A   1      44.436  29.401  31.049  1.00  0.00    -0.354 N 
ATOM     52  N   UNL A   1      44.060  26.760  29.824  1.00  0.00    -0.248 NA
ATOM     53  C   UNL A   1      44.897  24.660  29.229  1.00  0.00     0.031 C 
ATOM     54  C   UNL A   1      46.384  29.845  32.018  1.00  0.00     0.029 A 
ATOM     55  C   UNL A   1      45.683  28.869  31.330  1.00  0.00     0.049 A 
ATOM     56  H   UNL A   1      43.720  28.936  30.560  1.00  0.00     0.167 HD
ATOM     57  C   UNL A   1      45.368  26.642  30.285  1.00  0.00     0.074 A 
ATOM     58  C   UNL A   1      45.821  25.316  29.916  1.00  0.00     0.031 C 
ATOM     59  C   UNL A   1      46.122  27.549  30.953  1.00  0.00     0.031 A 
BRANCH  46  60
ATOM     60  C   UNL A   1      43.282  32.949  31.969  1.00  0.00    -0.014 A 
ATOM     61  C   UNL A   1      43.678  34.022  31.148  1.00  0.00     0.010 A 
ATOM     62  C   UNL A   1      42.934  33.207  33.308  1.00  0.00     0.010 A 
ATOM     63  C   UNL A   1      43.769  35.315  31.668  1.00  0.00     0.020 A 
ATOM     64  C   UNL A   1      42.995  34.504  33.823  1.00  0.00     0.020 A 
ATOM     65  C   UNL A   1      43.431  35.548  33.005  1.00  0.00     0.054 A 
BRANCH  65  66
ATOM     66  S   UNL A   1      43.545  37.240  33.649  1.00  0.00     0.124 S 
ATOM     67  O   UNL A   1      44.720  37.154  34.513  1.00  0.00    -0.237 OA
ATOM     68  O   UNL A   1      43.716  38.034  32.435  1.00  0.00    -0.237 OA
ATOM     69  O   UNL A   1      42.275  37.433  34.344  1.00  0.00    -0.744 OA
ENDBRANCH  65  66
ENDBRANCH  46  60
BRANCH  47  70
ATOM     70  C   UNL A   1      42.383  23.835  27.961  1.00  0.00    -0.014 A 
ATOM     71  C   UNL A   1      42.730  23.635  26.612  1.00  0.00     0.010 A 
ATOM     72  C   UNL A   1      41.941  22.737  28.722  1.00  0.00     0.010 A 
ATOM     73  C   UNL A   1      42.624  22.367  26.034  1.00  0.00     0.020 A 
ATOM     74  C   UNL A   1      41.860  21.462  28.154  1.00  0.00     0.020 A 
ATOM     75  C   UNL A   1      42.194  21.288  26.810  1.00  0.00     0.054 A 
BRANCH  75  76
ATOM     76  S   UNL A   1      42.123  19.639  26.054  1.00  0.00     0.124 S 
ATOM     77  O   UNL A   1      42.602  18.787  27.137  1.00  0.00    -0.237 OA
ATOM     78  O   UNL A   1      40.708  19.506  25.721  1.00  0.00    -0.237 OA
ATOM     79  O   UNL A   1      43.017  19.754  24.903  1.00  0.00    -0.744 OA
ENDBRANCH  75  76
ENDBRANCH  47  70
BRANCH  59  80
ATOM     80  C   UNL A   1      47.509  27.129  31.359  1.00  0.00    -0.014 A 
ATOM     81  C   UNL A   1      48.634  27.493  30.597  1.00  0.00     0.010 A 
ATOM     82  C   UNL A   1      47.695  26.408  32.552  1.00  0.00     0.010 A 
ATOM     83  C   UNL A   1      49.915  27.114  31.004  1.00  0.00     0.020 A 
ATOM     84  C   UNL A   1      48.976  26.052  32.979  1.00  0.00     0.020 A 
ATOM     85  C   UNL A   1      50.078  26.396  32.194  1.00  0.00     0.054 A 
BRANCH  85  86
ATOM     86  S   UNL A   1      51.755  25.955  32.724  1.00  0.00     0.124 S 
ATOM     87  O   UNL A   1      52.294  27.249  33.134  1.00  0.00    -0.237 OA
ATOM     88  O   UNL A   1      51.511  25.005  33.807  1.00  0.00    -0.237 OA
ATOM     89  O   UNL A   1      52.359  25.381  31.525  1.00  0.00    -0.744 OA
ENDBRANCH  85  86
ENDBRANCH  59  80
ENDBRANCH  33  34
ENDBRANCH  25  28
ENDBRANCH  23  24
ENDBRANCH   1  23
TORSDOF 16
ENDMDL
MODEL 2
REMARK VINA RESULT:     -10.5      4.300     11.289
REMARK SMILES C[NH2+][C@]1(C(=O)NCCCNC(=O)c2ccc(-c3c4nc(c(-c5ccc(S(=O)(=O)[O-])cc5)c5ccc([nH]5)c(-c5ccc(S(=O)(=O)[O-])cc5)c5nc(c(-c6ccc(S(=O)(=O)[O-])cc6)c6ccc3[nH]6)C=C5)C=C4)cc2)CC[C@H](SC2CCCCC2)C1
REMARK SMILES IDX 8 1 7 2 6 3 4 4 5 5 3 7 73 8 83 9 74 10 75 11 2 12 1 13
REMARK SMILES IDX 76 16 77 17 78 18 82 19 79 20 81 21 80 22 9 23 10 24 11 25
REMARK SMILES IDX 12 27 13 28 14 29 72 30 15 31 71 32 16 33 17 34 18 35 65 36
REMARK SMILES IDX 19 37 70 38 64 39 66 40 20 41 69 42 63 43 62 44 21 46 51 47
REMARK SMILES IDX 32 48 50 49 33 50 36 51 49 52 67 53 34 54 35 55 48 57 68 58
REMARK SMILES IDX 37 59 22 60 23 61 31 62 24 63 30 64 25 65 26 66 27 67 28 68
REMARK SMILES IDX 29 69 52 70 53 71 61 72 54 73 60 74 55 75 56 76 57 77 58 78
REMARK SMILES IDX 59 79 38 80 39 81 47 82 40 83 46 84 41 85 42 86 43 87 44 88
REMARK SMILES IDX 45 89
REMARK H PARENT 6 6 2 14 2 15 10 26 66 45 36 56
REMARK Flexibility Score: inf
ROOT
ATOM      1  C   UNL A   1      41.806  20.850  26.563  1.00  0.00     0.042 C 
ENDROOT
BRANCH   1   2
ATOM      2  C   UNL A   1      42.591  21.712  25.577  1.00  0.00     0.118 C 
BRANCH   2   3
ATOM      3  N   UNL A   1      44.017  21.423  25.588  1.00  0.00    -0.351 N 
ATOM      4  C   UNL A   1      45.129  22.168  25.854  1.00  0.00     0.281 C 
ATOM      5  O   UNL A   1      46.194  21.543  25.766  1.00  0.00    -0.268 OA
ATOM      6  H   UNL A   1      44.224  20.489  25.353  1.00  0.00     0.163 HD
BRANCH   4   7
ATOM      7  C   UNL A   1      45.070  23.679  26.272  1.00  0.00     0.176 C 
ATOM      8  C   UNL A   1      46.395  24.138  26.897  1.00  0.00     0.080 C 
ATOM      9  C   UNL A   1      44.905  24.632  25.072  1.00  0.00     0.093 C 
ATOM     10  C   UNL A   1      46.437  25.644  26.698  1.00  0.00     0.022 C 
ATOM     11  C   UNL A   1      45.584  25.958  25.465  1.00  0.00     0.054 C 
BRANCH   7  12
ATOM     12  N   UNL A   1      44.043  23.902  27.333  1.00  0.00    -0.336 N 
ATOM     13  C   UNL A   1      44.368  23.372  28.650  1.00  0.00     0.331 C 
ATOM     14  H   UNL A   1      43.903  24.908  27.428  1.00  0.00     0.346 HD
ATOM     15  H   UNL A   1      43.213  23.395  27.027  1.00  0.00     0.346 HD
ENDBRANCH   7  12
BRANCH  11  16
ATOM     16  S   UNL A   1      44.314  27.247  25.783  1.00  0.00    -0.155 SA
BRANCH  16  17
ATOM     17  C   UNL A   1      45.244  28.576  26.654  1.00  0.00     0.047 C 
ATOM     18  C   UNL A   1      46.556  28.958  25.965  1.00  0.00     0.014 C 
ATOM     19  C   UNL A   1      44.384  29.806  26.961  1.00  0.00     0.014 C 
ATOM     20  C   UNL A   1      47.340  29.979  26.780  1.00  0.00     0.001 C 
ATOM     21  C   UNL A   1      45.182  30.844  27.757  1.00  0.00     0.001 C 
ATOM     22  C   UNL A   1      46.489  31.214  27.059  1.00  0.00     0.000 C 
ENDBRANCH  16  17
ENDBRANCH  11  16
ENDBRANCH   4   7
ENDBRANCH   2   3
ENDBRANCH   1   2
BRANCH   1  23
ATOM     23  C   UNL A   1      40.674  21.582  27.272  1.00  0.00     0.118 C 
BRANCH  23  24
ATOM     24  N   UNL A   1      39.566  21.884  26.379  1.00  0.00    -0.352 N 
ATOM     25  C   UNL A   1      38.836  23.036  26.235  1.00  0.00     0.251 C 
ATOM     26  H   UNL A   1      39.297  21.146  25.785  1.00  0.00     0.163 HD
ATOM     27  O   UNL A   1      37.792  23.004  25.576  1.00  0.00    -0.269 OA
BRANCH  25  28
ATOM     28  C   UNL A   1      39.272  24.301  26.866  1.00  0.00     0.039 A 
ATOM     29  C   UNL A   1      38.869  24.578  28.175  1.00  0.00     0.014 A 
ATOM     30  C   UNL A   1      40.042  25.233  26.165  1.00  0.00     0.014 A 
ATOM     31  C   UNL A   1      39.283  25.759  28.796  1.00  0.00     0.010 A 
ATOM     32  C   UNL A   1      40.523  26.368  26.811  1.00  0.00     0.010 A 
ATOM     33  C   UNL A   1      40.140  26.649  28.131  1.00  0.00    -0.014 A 
BRANCH  33  34
ATOM     34  C   UNL A   1      40.640  27.882  28.792  1.00  0.00     0.031 A 
ATOM     35  C   UNL A   1      42.043  27.934  29.339  1.00  0.00     0.074 A 
ATOM     36  C   UNL A   1      39.813  28.933  28.956  1.00  0.00     0.049 A 
ATOM     37  N   UNL A   1      42.635  28.896  29.998  1.00  0.00    -0.248 NA
ATOM     38  C   UNL A   1      42.879  26.739  29.142  1.00  0.00     0.031 C 
ATOM     39  C   UNL A   1      38.420  28.993  28.506  1.00  0.00     0.029 A 
ATOM     40  N   UNL A   1      40.020  30.151  29.552  1.00  0.00    -0.354 N 
ATOM     41  C   UNL A   1      43.903  28.417  30.310  1.00  0.00     0.074 A 
ATOM     42  C   UNL A   1      43.976  27.062  29.811  1.00  0.00     0.031 C 
ATOM     43  C   UNL A   1      37.907  30.195  28.818  1.00  0.00     0.029 A 
ATOM     44  C   UNL A   1      38.918  30.974  29.526  1.00  0.00     0.049 A 
ATOM     45  H   UNL A   1      40.877  30.412  29.960  1.00  0.00     0.167 HD
ATOM     46  C   UNL A   1      44.921  29.053  30.939  1.00  0.00     0.031 A 
ATOM     47  C   UNL A   1      38.736  32.212  30.023  1.00  0.00     0.031 A 
ATOM     48  C   UNL A   1      44.848  30.406  31.424  1.00  0.00     0.049 A 
ATOM     49  C   UNL A   1      39.877  32.896  30.725  1.00  0.00     0.074 A 
ATOM     50  C   UNL A   1      45.842  31.160  32.022  1.00  0.00     0.029 A 
ATOM     51  N   UNL A   1      43.716  31.206  31.371  1.00  0.00    -0.354 N 
ATOM     52  N   UNL A   1      41.089  32.449  30.951  1.00  0.00    -0.248 NA
ATOM     53  C   UNL A   1      39.629  34.254  31.228  1.00  0.00     0.031 C 
ATOM     54  C   UNL A   1      45.296  32.398  32.377  1.00  0.00     0.029 A 
ATOM     55  C   UNL A   1      43.980  32.437  31.948  1.00  0.00     0.049 A 
ATOM     56  H   UNL A   1      42.852  30.939  30.980  1.00  0.00     0.167 HD
ATOM     57  C   UNL A   1      41.757  33.482  31.601  1.00  0.00     0.074 A 
ATOM     58  C   UNL A   1      40.817  34.579  31.717  1.00  0.00     0.031 C 
ATOM     59  C   UNL A   1      43.033  33.518  32.059  1.00  0.00     0.031 A 
BRANCH  46  60
ATOM     60  C   UNL A   1      46.201  28.285  31.144  1.00  0.00    -0.014 A 
ATOM     61  C   UNL A   1      46.401  27.496  32.293  1.00  0.00     0.010 A 
ATOM     62  C   UNL A   1      47.208  28.327  30.162  1.00  0.00     0.010 A 
ATOM     63  C   UNL A   1      47.599  26.803  32.477  1.00  0.00     0.020 A 
ATOM     64  C   UNL A   1      48.396  27.611  30.329  1.00  0.00     0.020 A 
ATOM     65  C   UNL A   1      48.593  26.869  31.495  1.00  0.00     0.054 A 
BRANCH  65  66
ATOM     66  S   UNL A   1      50.133  25.948  31.754  1.00  0.00     0.124 S 
ATOM     67  O   UNL A   1      50.127  25.026  30.620  1.00  0.00    -0.237 OA
ATOM     68  O   UNL A   1      51.148  26.998  31.704  1.00  0.00    -0.237 OA
ATOM     69  O   UNL A   1      49.949  25.324  33.063  1.00  0.00    -0.744 OA
ENDBRANCH  65  66
ENDBRANCH  46  60
BRANCH  47  70
ATOM     70  C   UNL A   1      37.422  32.891  29.857  1.00  0.00    -0.014 A 
ATOM     71  C   UNL A   1      37.122  33.585  28.671  1.00  0.00     0.010 A 
ATOM     72  C   UNL A   1      36.453  32.828  30.876  1.00  0.00     0.010 A 
ATOM     73  C   UNL A   1      35.884  34.214  28.513  1.00  0.00     0.020 A 
ATOM     74  C   UNL A   1      35.204  33.433  30.710  1.00  0.00     0.020 A 
ATOM     75  C   UNL A   1      34.931  34.131  29.532  1.00  0.00     0.054 A 
BRANCH  75  76
ATOM     76  S   UNL A   1      33.308  34.904  29.278  1.00  0.00     0.124 S 
ATOM     77  O   UNL A   1      32.720  34.821  30.611  1.00  0.00    -0.237 OA
ATOM     78  O   UNL A   1      33.666  36.245  28.825  1.00  0.00    -0.237 OA
ATOM     79  O   UNL A   1      32.684  34.059  28.263  1.00  0.00    -0.744 OA
ENDBRANCH  75  76
ENDBRANCH  47  70
BRANCH  59  80
ATOM     80  C   UNL A   1      43.501  34.796  32.702  1.00  0.00    -0.014 A 
ATOM     81  C   UNL A   1      44.081  35.826  31.940  1.00  0.00     0.010 A 
ATOM     82  C   UNL A   1      43.305  34.991  34.082  1.00  0.00     0.010 A 
ATOM     83  C   UNL A   1      44.486  37.014  32.553  1.00  0.00     0.020 A 
ATOM     84  C   UNL A   1      43.682  36.188  34.693  1.00  0.00     0.020 A 
ATOM     85  C   UNL A   1      44.284  37.188  33.927  1.00  0.00     0.054 A 
BRANCH  85  86
ATOM     86  S   UNL A   1      44.777  38.758  34.690  1.00  0.00     0.124 S 
ATOM     87  O   UNL A   1      44.924  38.381  36.093  1.00  0.00    -0.237 OA
ATOM     88  O   UNL A   1      46.020  39.078  33.992  1.00  0.00    -0.237 OA
ATOM     89  O   UNL A   1      43.659  39.651  34.399  1.00  0.00    -0.744 OA
ENDBRANCH  85  86
ENDBRANCH  59  80
ENDBRANCH  33  34
ENDBRANCH  25  28
ENDBRANCH  23  24
ENDBRANCH   1  23
TORSDOF 16
ENDMDL
MODEL 3
REMARK VINA RESULT:     -10.5      4.053      6.866
REMARK SMILES C[NH2+][C@]1(C(=O)NCCCNC(=O)c2ccc(-c3c4nc(c(-c5ccc(S(=O)(=O)[O-])cc5)c5ccc([nH]5)c(-c5ccc(S(=O)(=O)[O-])cc5)c5nc(c(-c6ccc(S(=O)(=O)[O-])cc6)c6ccc3[nH]6)C=C5)C=C4)cc2)CC[C@H](SC2CCCCC2)C1
REMARK SMILES IDX 8 1 7 2 6 3 4 4 5 5 3 7 73 8 83 9 74 10 75 11 2 12 1 13
REMARK SMILES IDX 76 16 77 17 78 18 82 19 79 20 81 21 80 22 9 23 10 24 11 25
REMARK SMILES IDX 12 27 13 28 14 29 72 30 15 31 71 32 16 33 17 34 18 35 65 36
REMARK SMILES IDX 19 37 70 38 64 39 66 40 20 41 69 42 63 43 62 44 21 46 51 47
REMARK SMILES IDX 32 48 50 49 33 50 36 51 49 52 67 53 34 54 35 55 48 57 68 58
REMARK SMILES IDX 37 59 22 60 23 61 31 62 24 63 30 64 25 65 26 66 27 67 28 68
REMARK SMILES IDX 29 69 52 70 53 71 61 72 54 73 60 74 55 75 56 76 57 77 58 78
REMARK SMILES IDX 59 79 38 80 39 81 47 82 40 83 46 84 41 85 42 86 43 87 44 88
REMARK SMILES IDX 45 89
REMARK H PARENT 6 6 2 14 2 15 10 26 66 45 36 56
REMARK Flexibility Score: inf
ROOT
ATOM      1  C   UNL A   1      35.417  32.760  29.144  1.00  0.00     0.042 C 
ENDROOT
BRANCH   1   2
ATOM      2  C   UNL A   1      34.695  32.427  30.448  1.00  0.00     0.118 C 
BRANCH   2   3
ATOM      3  N   UNL A   1      34.135  33.603  31.097  1.00  0.00    -0.351 N 
ATOM      4  C   UNL A   1      34.525  34.374  32.153  1.00  0.00     0.281 C 
ATOM      5  O   UNL A   1      33.767  35.319  32.401  1.00  0.00    -0.268 OA
ATOM      6  H   UNL A   1      33.294  33.908  30.686  1.00  0.00     0.163 HD
BRANCH   4   7
ATOM      7  C   UNL A   1      35.842  34.111  32.967  1.00  0.00     0.176 C 
ATOM      8  C   UNL A   1      35.654  34.446  34.454  1.00  0.00     0.080 C 
ATOM      9  C   UNL A   1      36.248  32.625  32.996  1.00  0.00     0.093 C 
ATOM     10  C   UNL A   1      36.701  33.625  35.189  1.00  0.00     0.022 C 
ATOM     11  C   UNL A   1      37.000  32.398  34.321  1.00  0.00     0.054 C 
BRANCH   7  12
ATOM     12  N   UNL A   1      36.945  35.004  32.505  1.00  0.00    -0.336 N 
ATOM     13  C   UNL A   1      37.785  34.474  31.440  1.00  0.00     0.331 C 
ATOM     14  H   UNL A   1      36.526  35.872  32.170  1.00  0.00     0.346 HD
ATOM     15  H   UNL A   1      37.561  35.125  33.309  1.00  0.00     0.346 HD
ENDBRANCH   7  12
BRANCH  11  16
ATOM     16  S   UNL A   1      38.794  32.173  33.997  1.00  0.00    -0.155 SA
BRANCH  16  17
ATOM     17  C   UNL A   1      38.983  30.351  33.815  1.00  0.00     0.047 C 
ATOM     18  C   UNL A   1      37.914  29.710  32.927  1.00  0.00     0.014 C 
ATOM     19  C   UNL A   1      40.396  29.933  33.395  1.00  0.00     0.014 C 
ATOM     20  C   UNL A   1      38.046  28.191  32.897  1.00  0.00     0.001 C 
ATOM     21  C   UNL A   1      40.520  28.407  33.338  1.00  0.00     0.001 C 
ATOM     22  C   UNL A   1      39.447  27.782  32.450  1.00  0.00     0.000 C 
ENDBRANCH  16  17
ENDBRANCH  11  16
ENDBRANCH   4   7
ENDBRANCH   2   3
ENDBRANCH   1   2
BRANCH   1  23
ATOM     23  C   UNL A   1      34.531  32.712  27.907  1.00  0.00     0.118 C 
BRANCH  23  24
ATOM     24  N   UNL A   1      33.851  31.433  27.763  1.00  0.00    -0.352 N 
ATOM     25  C   UNL A   1      34.363  30.162  27.715  1.00  0.00     0.251 C 
ATOM     26  H   UNL A   1      32.871  31.490  27.687  1.00  0.00     0.163 HD
ATOM     27  O   UNL A   1      33.627  29.235  27.362  1.00  0.00    -0.269 OA
BRANCH  25  28
ATOM     28  C   UNL A   1      35.774  29.892  28.064  1.00  0.00     0.039 A 
ATOM     29  C   UNL A   1      36.077  29.427  29.347  1.00  0.00     0.014 A 
ATOM     30  C   UNL A   1      36.805  30.129  27.151  1.00  0.00     0.014 A 
ATOM     31  C   UNL A   1      37.402  29.148  29.692  1.00  0.00     0.010 A 
ATOM     32  C   UNL A   1      38.113  29.772  27.466  1.00  0.00     0.010 A 
ATOM     33  C   UNL A   1      38.428  29.288  28.745  1.00  0.00    -0.014 A 
BRANCH  33  34
ATOM     34  C   UNL A   1      39.835  28.942  29.072  1.00  0.00     0.031 A 
ATOM     35  C   UNL A   1      40.739  29.965  29.709  1.00  0.00     0.074 A 
ATOM     36  C   UNL A   1      40.318  27.729  28.739  1.00  0.00     0.049 A 
ATOM     37  N   UNL A   1      42.008  29.869  30.012  1.00  0.00    -0.248 NA
ATOM     38  C   UNL A   1      40.146  31.275  30.022  1.00  0.00     0.031 C 
ATOM     39  C   UNL A   1      39.555  26.664  28.083  1.00  0.00     0.029 A 
ATOM     40  N   UNL A   1      41.569  27.188  28.900  1.00  0.00    -0.354 N 
ATOM     41  C   UNL A   1      42.369  31.107  30.532  1.00  0.00     0.074 A 
ATOM     42  C   UNL A   1      41.198  31.952  30.458  1.00  0.00     0.031 C 
ATOM     43  C   UNL A   1      40.346  25.590  27.923  1.00  0.00     0.029 A 
ATOM     44  C   UNL A   1      41.681  25.903  28.424  1.00  0.00     0.049 A 
ATOM     45  H   UNL A   1      42.316  27.674  29.318  1.00  0.00     0.167 HD
ATOM     46  C   UNL A   1      43.560  31.500  31.042  1.00  0.00     0.031 A 
ATOM     47  C   UNL A   1      42.739  25.070  28.386  1.00  0.00     0.031 A 
ATOM     48  C   UNL A   1      44.721  30.652  31.125  1.00  0.00     0.049 A 
ATOM     49  C   UNL A   1      44.054  25.531  28.951  1.00  0.00     0.074 A 
ATOM     50  C   UNL A   1      45.957  30.937  31.677  1.00  0.00     0.029 A 
ATOM     51  N   UNL A   1      44.789  29.354  30.638  1.00  0.00    -0.354 N 
ATOM     52  N   UNL A   1      44.357  26.684  29.498  1.00  0.00    -0.248 NA
ATOM     53  C   UNL A   1      45.169  24.574  28.902  1.00  0.00     0.031 C 
ATOM     54  C   UNL A   1      46.788  29.830  31.479  1.00  0.00     0.029 A 
ATOM     55  C   UNL A   1      46.053  28.834  30.855  1.00  0.00     0.049 A 
ATOM     56  H   UNL A   1      44.047  28.874  30.203  1.00  0.00     0.167 HD
ATOM     57  C   UNL A   1      45.690  26.582  29.882  1.00  0.00     0.074 A 
ATOM     58  C   UNL A   1      46.129  25.250  29.517  1.00  0.00     0.031 C 
ATOM     59  C   UNL A   1      46.477  27.508  30.483  1.00  0.00     0.031 A 
BRANCH  46  60
ATOM     60  C   UNL A   1      43.670  32.917  31.544  1.00  0.00    -0.014 A 
ATOM     61  C   UNL A   1      44.116  33.954  30.704  1.00  0.00     0.010 A 
ATOM     62  C   UNL A   1      43.293  33.222  32.865  1.00  0.00     0.010 A 
ATOM     63  C   UNL A   1      44.229  35.259  31.189  1.00  0.00     0.020 A 
ATOM     64  C   UNL A   1      43.376  34.533  33.345  1.00  0.00     0.020 A 
ATOM     65  C   UNL A   1      43.862  35.540  32.510  1.00  0.00     0.054 A 
BRANCH  65  66
ATOM     66  S   UNL A   1      44.005  37.246  33.107  1.00  0.00     0.124 S 
ATOM     67  O   UNL A   1      42.888  37.331  34.045  1.00  0.00    -0.237 OA
ATOM     68  O   UNL A   1      45.335  37.264  33.712  1.00  0.00    -0.237 OA
ATOM     69  O   UNL A   1      43.862  38.051  31.897  1.00  0.00    -0.744 OA
ENDBRANCH  65  66
ENDBRANCH  46  60
BRANCH  47  70
ATOM     70  C   UNL A   1      42.589  23.708  27.806  1.00  0.00    -0.014 A 
ATOM     71  C   UNL A   1      42.841  23.482  26.440  1.00  0.00     0.010 A 
ATOM     72  C   UNL A   1      42.214  22.624  28.620  1.00  0.00     0.010 A 
ATOM     73  C   UNL A   1      42.708  22.201  25.898  1.00  0.00     0.020 A 
ATOM     74  C   UNL A   1      42.107  21.335  28.086  1.00  0.00     0.020 A 
ATOM     75  C   UNL A   1      42.347  21.135  26.726  1.00  0.00     0.054 A 
BRANCH  75  76
ATOM     76  S   UNL A   1      42.241  19.469  26.012  1.00  0.00     0.124 S 
ATOM     77  O   UNL A   1      43.120  19.579  24.853  1.00  0.00    -0.237 OA
ATOM     78  O   UNL A   1      42.729  18.628  27.101  1.00  0.00    -0.237 OA
ATOM     79  O   UNL A   1      40.819  19.318  25.709  1.00  0.00    -0.744 OA
ENDBRANCH  75  76
ENDBRANCH  47  70
BRANCH  59  80
ATOM     80  C   UNL A   1      47.889  27.104  30.815  1.00  0.00    -0.014 A 
ATOM     81  C   UNL A   1      48.186  26.380  31.983  1.00  0.00     0.010 A 
ATOM     82  C   UNL A   1      48.926  27.406  29.914  1.00  0.00     0.010 A 
ATOM     83  C   UNL A   1      49.499  25.994  32.260  1.00  0.00     0.020 A 
ATOM     84  C   UNL A   1      50.236  26.997  30.172  1.00  0.00     0.020 A 
ATOM     85  C   UNL A   1      50.517  26.305  31.351  1.00  0.00     0.054 A 
BRANCH  85  86
ATOM     86  S   UNL A   1      52.207  25.753  31.711  1.00  0.00     0.124 S 
ATOM     87  O   UNL A   1      52.599  26.659  32.787  1.00  0.00    -0.237 OA
ATOM     88  O   UNL A   1      52.013  24.359  32.103  1.00  0.00    -0.237 OA
ATOM     89  O   UNL A   1      52.911  25.946  30.447  1.00  0.00    -0.744 OA
ENDBRANCH  85  86
ENDBRANCH  59  80
ENDBRANCH  33  34
ENDBRANCH  25  28
ENDBRANCH  23  24
ENDBRANCH   1  23
TORSDOF 16
ENDMDL
