MODEL 1
REMARK VINA RESULT:      -8.5      0.000      0.000
REMARK SMILES C[C@@H](C(=O)NCCCNC(=O)c1ccc(-c2c3nc(c(-c4ccc(S(=O)(=O)[O-])cc4)c4ccc([nH]4)c(-c4ccc(S(=O)(=O)[O-])cc4)c4nc(c(-c5ccc(S(=O)(=O)[O-])cc5)c5ccc2[nH]5)C=C4)C=C3)cc1)c1ccc(-c2cccc(OC(=O)NCCCc3ccccc3)c2)c(F)c1
REMARK SMILES IDX 1 1 2 2 3 3 4 4 5 5 6 7 7 8 8 9 9 10 10 11 11 13 12 14 13 15
REMARK SMILES IDX 71 16 14 17 70 18 15 19 16 20 17 21 64 22 18 23 69 24 63 25
REMARK SMILES IDX 65 26 19 27 68 28 62 29 61 30 20 32 50 33 31 34 49 35 32 36
REMARK SMILES IDX 35 37 48 38 66 39 33 40 34 41 47 43 67 44 36 45 21 46 22 47
REMARK SMILES IDX 30 48 23 49 29 50 24 51 25 52 26 53 27 54 28 55 51 56 52 57
REMARK SMILES IDX 60 58 53 59 59 60 54 61 55 62 56 63 57 64 58 65 37 66 38 67
REMARK SMILES IDX 46 68 39 69 45 70 40 71 41 72 42 73 43 74 44 75 72 76 73 77
REMARK SMILES IDX 97 78 74 79 95 80 75 81 96 82 76 83 77 84 94 85 78 86 80 87
REMARK SMILES IDX 79 88 81 89 82 90 83 91 84 92 85 94 86 95 87 96 88 97 89 98
REMARK SMILES IDX 93 99 90 100 92 101 91 102
REMARK H PARENT 5 6 9 12 65 31 35 42 84 93
REMARK Flexibility Score: inf
ROOT
ATOM      1  C   UNL A   1      38.194  34.350  29.805  1.00  0.00     0.023 C 
ATOM      2  C   UNL A   1      37.770  33.133  30.635  1.00  0.00     0.105 C 
ENDROOT
BRANCH   2   3
ATOM      3  C   UNL A   1      36.250  33.058  30.853  1.00  0.00     0.227 C 
ATOM      4  O   UNL A   1      35.424  33.312  29.973  1.00  0.00    -0.274 OA
ATOM      5  N   UNL A   1      35.752  32.653  32.054  1.00  0.00    -0.356 N 
ATOM      6  H   UNL A   1      34.776  32.526  32.075  1.00  0.00     0.163 HD
BRANCH   5   7
ATOM      7  C   UNL A   1      36.429  32.381  33.304  1.00  0.00     0.117 C 
BRANCH   7   8
ATOM      8  C   UNL A   1      36.055  33.404  34.373  1.00  0.00     0.042 C 
BRANCH   8   9
ATOM      9  C   UNL A   1      37.192  33.749  35.332  1.00  0.00     0.118 C 
BRANCH   9  10
ATOM     10  N   UNL A   1      37.185  32.915  36.524  1.00  0.00    -0.352 N 
ATOM     11  C   UNL A   1      37.929  31.807  36.838  1.00  0.00     0.251 C 
ATOM     12  H   UNL A   1      36.543  33.191  37.217  1.00  0.00     0.163 HD
ATOM     13  O   UNL A   1      37.606  31.132  37.812  1.00  0.00    -0.269 OA
BRANCH  11  14
ATOM     14  C   UNL A   1      39.095  31.412  36.015  1.00  0.00     0.039 A 
ATOM     15  C   UNL A   1      38.875  30.601  34.899  1.00  0.00     0.014 A 
ATOM     16  C   UNL A   1      40.397  31.789  36.355  1.00  0.00     0.014 A 
ATOM     17  C   UNL A   1      39.951  30.218  34.096  1.00  0.00     0.010 A 
ATOM     18  C   UNL A   1      41.461  31.469  35.510  1.00  0.00     0.010 A 
ATOM     19  C   UNL A   1      41.249  30.679  34.373  1.00  0.00    -0.014 A 
BRANCH  19  20
ATOM     20  C   UNL A   1      42.376  30.355  33.459  1.00  0.00     0.031 A 
ATOM     21  C   UNL A   1      42.836  31.340  32.419  1.00  0.00     0.074 A 
ATOM     22  C   UNL A   1      42.970  29.148  33.553  1.00  0.00     0.049 A 
ATOM     23  N   UNL A   1      43.807  31.224  31.549  1.00  0.00    -0.248 NA
ATOM     24  C   UNL A   1      42.103  32.613  32.330  1.00  0.00     0.031 C 
ATOM     25  C   UNL A   1      42.583  28.085  34.486  1.00  0.00     0.029 A 
ATOM     26  N   UNL A   1      44.025  28.610  32.861  1.00  0.00    -0.354 N 
ATOM     27  C   UNL A   1      43.803  32.402  30.812  1.00  0.00     0.074 A 
ATOM     28  C   UNL A   1      42.697  33.198  31.298  1.00  0.00     0.031 C 
ATOM     29  C   UNL A   1      43.409  27.039  34.329  1.00  0.00     0.029 A 
ATOM     30  C   UNL A   1      44.357  27.336  33.260  1.00  0.00     0.049 A 
ATOM     31  H   UNL A   1      44.500  29.090  32.144  1.00  0.00     0.167 HD
ATOM     32  C   UNL A   1      44.654  32.797  29.834  1.00  0.00     0.031 A 
ATOM     33  C   UNL A   1      45.312  26.497  32.817  1.00  0.00     0.031 A 
ATOM     34  C   UNL A   1      45.752  32.001  29.348  1.00  0.00     0.049 A 
ATOM     35  C   UNL A   1      46.237  26.955  31.723  1.00  0.00     0.074 A 
ATOM     36  C   UNL A   1      46.694  32.330  28.388  1.00  0.00     0.029 A 
ATOM     37  N   UNL A   1      46.055  30.718  29.778  1.00  0.00    -0.354 N 
ATOM     38  N   UNL A   1      46.256  28.102  31.087  1.00  0.00    -0.248 NA
ATOM     39  C   UNL A   1      47.279  26.011  31.299  1.00  0.00     0.031 C 
ATOM     40  C   UNL A   1      47.533  31.226  28.200  1.00  0.00     0.029 A 
ATOM     41  C   UNL A   1      47.154  30.232  29.088  1.00  0.00     0.049 A 
ATOM     42  H   UNL A   1      45.561  30.225  30.473  1.00  0.00     0.167 HD
ATOM     43  C   UNL A   1      47.323  28.023  30.199  1.00  0.00     0.074 A 
ATOM     44  C   UNL A   1      47.942  26.729  30.404  1.00  0.00     0.031 C 
ATOM     45  C   UNL A   1      47.751  28.937  29.291  1.00  0.00     0.031 A 
BRANCH  32  46
ATOM     46  C   UNL A   1      44.437  34.159  29.225  1.00  0.00    -0.014 A 
ATOM     47  C   UNL A   1      45.175  35.273  29.666  1.00  0.00     0.010 A 
ATOM     48  C   UNL A   1      43.531  34.319  28.160  1.00  0.00     0.010 A 
ATOM     49  C   UNL A   1      44.989  36.526  29.075  1.00  0.00     0.020 A 
ATOM     50  C   UNL A   1      43.363  35.564  27.548  1.00  0.00     0.020 A 
ATOM     51  C   UNL A   1      44.084  36.664  28.018  1.00  0.00     0.054 A 
BRANCH  51  52
ATOM     52  S   UNL A   1      43.894  38.294  27.247  1.00  0.00     0.124 S 
ATOM     53  O   UNL A   1      45.128  38.408  26.474  1.00  0.00    -0.237 OA
ATOM     54  O   UNL A   1      42.674  38.134  26.460  1.00  0.00    -0.237 OA
ATOM     55  O   UNL A   1      43.784  39.206  28.383  1.00  0.00    -0.744 OA
ENDBRANCH  51  52
ENDBRANCH  32  46
BRANCH  33  56
ATOM     56  C   UNL A   1      45.442  25.137  33.410  1.00  0.00    -0.014 A 
ATOM     57  C   UNL A   1      46.335  24.893  34.467  1.00  0.00     0.010 A 
ATOM     58  C   UNL A   1      44.662  24.075  32.915  1.00  0.00     0.010 A 
ATOM     59  C   UNL A   1      46.467  23.607  35.000  1.00  0.00     0.020 A 
ATOM     60  C   UNL A   1      44.768  22.796  33.466  1.00  0.00     0.020 A 
ATOM     61  C   UNL A   1      45.681  22.567  34.496  1.00  0.00     0.054 A 
BRANCH  61  62
ATOM     62  S   UNL A   1      45.837  20.915  35.230  1.00  0.00     0.124 S 
ATOM     63  O   UNL A   1      45.920  21.221  36.654  1.00  0.00    -0.237 OA
ATOM     64  O   UNL A   1      44.607  20.257  34.794  1.00  0.00    -0.237 OA
ATOM     65  O   UNL A   1      47.061  20.389  34.629  1.00  0.00    -0.744 OA
ENDBRANCH  61  62
ENDBRANCH  33  56
BRANCH  45  66
ATOM     66  C   UNL A   1      48.956  28.572  28.466  1.00  0.00    -0.014 A 
ATOM     67  C   UNL A   1      48.821  27.924  27.225  1.00  0.00     0.010 A 
ATOM     68  C   UNL A   1      50.244  28.897  28.931  1.00  0.00     0.010 A 
ATOM     69  C   UNL A   1      49.953  27.564  26.488  1.00  0.00     0.020 A 
ATOM     70  C   UNL A   1      51.376  28.568  28.181  1.00  0.00     0.020 A 
ATOM     71  C   UNL A   1      51.224  27.884  26.974  1.00  0.00     0.054 A 
BRANCH  71  72
ATOM     72  S   UNL A   1      52.676  27.417  25.994  1.00  0.00     0.124 S 
ATOM     73  O   UNL A   1      53.460  26.651  26.958  1.00  0.00    -0.237 OA
ATOM     74  O   UNL A   1      52.091  26.643  24.902  1.00  0.00    -0.237 OA
ATOM     75  O   UNL A   1      53.256  28.699  25.599  1.00  0.00    -0.744 OA
ENDBRANCH  71  72
ENDBRANCH  45  66
ENDBRANCH  19  20
ENDBRANCH  11  14
ENDBRANCH   9  10
ENDBRANCH   8   9
ENDBRANCH   7   8
ENDBRANCH   5   7
ENDBRANCH   2   3
BRANCH   2  76
ATOM     76  C   UNL A   1      38.307  31.865  29.985  1.00  0.00    -0.033 A 
ATOM     77  C   UNL A   1      37.696  31.332  28.841  1.00  0.00     0.005 A 
ATOM     78  C   UNL A   1      39.413  31.200  30.531  1.00  0.00     0.044 A 
ATOM     79  C   UNL A   1      38.158  30.134  28.282  1.00  0.00     0.012 A 
ATOM     80  C   UNL A   1      39.868  30.017  29.968  1.00  0.00     0.131 A 
ATOM     81  C   UNL A   1      39.238  29.445  28.854  1.00  0.00     0.018 A 
ATOM     82  F   UNL A   1      40.916  29.405  30.544  1.00  0.00    -0.206 F 
BRANCH  81  83
ATOM     83  C   UNL A   1      39.624  28.112  28.384  1.00  0.00    -0.012 A 
ATOM     84  C   UNL A   1      39.324  26.942  29.093  1.00  0.00     0.009 A 
ATOM     85  C   UNL A   1      40.339  28.005  27.179  1.00  0.00     0.056 A 
ATOM     86  C   UNL A   1      39.723  25.694  28.603  1.00  0.00     0.004 A 
ATOM     87  C   UNL A   1      40.748  26.768  26.701  1.00  0.00     0.133 A 
ATOM     88  C   UNL A   1      40.436  25.607  27.407  1.00  0.00     0.047 A 
BRANCH  87  89
ATOM     89  O   UNL A   1      41.449  26.589  25.488  1.00  0.00    -0.410 OA
BRANCH  89  90
ATOM     90  C   UNL A   1      42.403  27.464  24.969  1.00  0.00     0.412 C 
ATOM     91  O   UNL A   1      42.257  28.654  24.726  1.00  0.00    -0.224 OA
ATOM     92  N   UNL A   1      43.613  26.866  24.755  1.00  0.00    -0.321 N 
ATOM     93  H   UNL A   1      44.296  27.389  24.277  1.00  0.00     0.167 HD
BRANCH  92  94
ATOM     94  C   UNL A   1      43.974  25.535  25.171  1.00  0.00     0.120 C 
BRANCH  94  95
ATOM     95  C   UNL A   1      45.450  25.358  25.519  1.00  0.00     0.026 C 
BRANCH  95  96
ATOM     96  C   UNL A   1      45.911  25.696  26.942  1.00  0.00     0.037 C 
BRANCH  96  97
ATOM     97  C   UNL A   1      44.919  26.158  27.986  1.00  0.00    -0.048 A 
ATOM     98  C   UNL A   1      44.314  25.328  28.934  1.00  0.00     0.004 A 
ATOM     99  C   UNL A   1      44.531  27.510  27.955  1.00  0.00     0.004 A 
ATOM    100  C   UNL A   1      43.349  25.826  29.815  1.00  0.00     0.000 A 
ATOM    101  C   UNL A   1      43.576  28.012  28.841  1.00  0.00     0.000 A 
ATOM    102  C   UNL A   1      42.980  27.167  29.769  1.00  0.00     0.000 A 
ENDBRANCH  96  97
ENDBRANCH  95  96
ENDBRANCH  94  95
ENDBRANCH  92  94
ENDBRANCH  89  90
ENDBRANCH  87  89
ENDBRANCH  81  83
ENDBRANCH   2  76
TORSDOF 21
ENDMDL
MODEL 2
REMARK VINA RESULT:      -7.7      3.820      7.488
REMARK SMILES C[C@@H](C(=O)NCCCNC(=O)c1ccc(-c2c3nc(c(-c4ccc(S(=O)(=O)[O-])cc4)c4ccc([nH]4)c(-c4ccc(S(=O)(=O)[O-])cc4)c4nc(c(-c5ccc(S(=O)(=O)[O-])cc5)c5ccc2[nH]5)C=C4)C=C3)cc1)c1ccc(-c2cccc(OC(=O)NCCCc3ccccc3)c2)c(F)c1
REMARK SMILES IDX 1 1 2 2 3 3 4 4 5 5 6 7 7 8 8 9 9 10 10 11 11 13 12 14 13 15
REMARK SMILES IDX 71 16 14 17 70 18 15 19 16 20 17 21 64 22 18 23 69 24 63 25
REMARK SMILES IDX 65 26 19 27 68 28 62 29 61 30 20 32 50 33 31 34 49 35 32 36
REMARK SMILES IDX 35 37 48 38 66 39 33 40 34 41 47 43 67 44 36 45 21 46 22 47
REMARK SMILES IDX 30 48 23 49 29 50 24 51 25 52 26 53 27 54 28 55 51 56 52 57
REMARK SMILES IDX 60 58 53 59 59 60 54 61 55 62 56 63 57 64 58 65 37 66 38 67
REMARK SMILES IDX 46 68 39 69 45 70 40 71 41 72 42 73 43 74 44 75 72 76 73 77
REMARK SMILES IDX 97 78 74 79 95 80 75 81 96 82 76 83 77 84 94 85 78 86 80 87
REMARK SMILES IDX 79 88 81 89 82 90 83 91 84 92 85 94 86 95 87 96 88 97 89 98
REMARK SMILES IDX 93 99 90 100 92 101 91 102
REMARK H PARENT 5 6 9 12 65 31 35 42 84 93
REMARK Flexibility Score: inf
ROOT
ATOM      1  C   UNL A   1      34.535  33.192  32.627  1.00  0.00     0.023 C 
ATOM      2  C   UNL A   1      34.774  33.671  31.191  1.00  0.00     0.105 C 
ENDROOT
BRANCH   2   3
ATOM      3  C   UNL A   1      34.021  34.970  30.860  1.00  0.00     0.227 C 
ATOM      4  O   UNL A   1      33.515  35.699  31.717  1.00  0.00    -0.274 OA
ATOM      5  N   UNL A   1      33.922  35.392  29.569  1.00  0.00    -0.356 N 
ATOM      6  H   UNL A   1      33.522  36.285  29.455  1.00  0.00     0.163 HD
BRANCH   5   7
ATOM      7  C   UNL A   1      34.309  34.736  28.339  1.00  0.00     0.117 C 
BRANCH   7   8
ATOM      8  C   UNL A   1      33.354  33.597  27.991  1.00  0.00     0.042 C 
BRANCH   8   9
ATOM      9  C   UNL A   1      33.759  32.244  28.570  1.00  0.00     0.118 C 
BRANCH   9  10
ATOM     10  N   UNL A   1      33.574  31.156  27.623  1.00  0.00    -0.352 N 
ATOM     11  C   UNL A   1      34.439  30.172  27.220  1.00  0.00     0.251 C 
ATOM     12  H   UNL A   1      32.684  31.121  27.203  1.00  0.00     0.163 HD
ATOM     13  O   UNL A   1      34.143  29.483  26.247  1.00  0.00    -0.269 OA
BRANCH  11  14
ATOM     14  C   UNL A   1      35.719  29.943  27.929  1.00  0.00     0.039 A 
ATOM     15  C   UNL A   1      35.674  29.564  29.273  1.00  0.00     0.014 A 
ATOM     16  C   UNL A   1      36.953  30.142  27.303  1.00  0.00     0.014 A 
ATOM     17  C   UNL A   1      36.862  29.330  29.969  1.00  0.00     0.010 A 
ATOM     18  C   UNL A   1      38.136  29.834  27.976  1.00  0.00     0.010 A 
ATOM     19  C   UNL A   1      38.103  29.428  29.317  1.00  0.00    -0.014 A 
BRANCH  19  20
ATOM     20  C   UNL A   1      39.360  29.080  30.030  1.00  0.00     0.031 A 
ATOM     21  C   UNL A   1      39.773  29.818  31.275  1.00  0.00     0.074 A 
ATOM     22  C   UNL A   1      40.149  28.106  29.532  1.00  0.00     0.049 A 
ATOM     23  N   UNL A   1      40.830  29.638  32.025  1.00  0.00    -0.248 NA
ATOM     24  C   UNL A   1      38.897  30.911  31.728  1.00  0.00     0.031 C 
ATOM     25  C   UNL A   1      39.885  27.350  28.304  1.00  0.00     0.029 A 
ATOM     26  N   UNL A   1      41.329  27.581  29.994  1.00  0.00    -0.354 N 
ATOM     27  C   UNL A   1      40.749  30.589  33.034  1.00  0.00     0.074 A 
ATOM     28  C   UNL A   1      39.568  31.383  32.770  1.00  0.00     0.031 C 
ATOM     29  C   UNL A   1      40.856  26.440  28.130  1.00  0.00     0.029 A 
ATOM     30  C   UNL A   1      41.831  26.572  29.207  1.00  0.00     0.049 A 
ATOM     31  H   UNL A   1      41.775  27.899  30.812  1.00  0.00     0.167 HD
ATOM     32  C   UNL A   1      41.568  30.774  34.098  1.00  0.00     0.031 A 
ATOM     33  C   UNL A   1      42.952  25.836  29.331  1.00  0.00     0.031 A 
ATOM     34  C   UNL A   1      42.747  29.986  34.357  1.00  0.00     0.049 A 
ATOM     35  C   UNL A   1      43.851  26.067  30.514  1.00  0.00     0.074 A 
ATOM     36  C   UNL A   1      43.619  30.070  35.428  1.00  0.00     0.029 A 
ATOM     37  N   UNL A   1      43.221  28.973  33.536  1.00  0.00    -0.354 N 
ATOM     38  N   UNL A   1      43.717  26.929  31.494  1.00  0.00    -0.248 NA
ATOM     39  C   UNL A   1      45.043  25.216  30.615  1.00  0.00     0.031 C 
ATOM     40  C   UNL A   1      44.650  29.144  35.228  1.00  0.00     0.029 A 
ATOM     41  C   UNL A   1      44.385  28.440  34.065  1.00  0.00     0.049 A 
ATOM     42  H   UNL A   1      42.792  28.676  32.701  1.00  0.00     0.167 HD
ATOM     43  C   UNL A   1      44.801  26.711  32.338  1.00  0.00     0.074 A 
ATOM     44  C   UNL A   1      45.560  25.616  31.769  1.00  0.00     0.031 C 
ATOM     45  C   UNL A   1      45.140  27.360  33.480  1.00  0.00     0.031 A 
BRANCH  32  46
ATOM     46  C   UNL A   1      41.216  31.870  35.071  1.00  0.00    -0.014 A 
ATOM     47  C   UNL A   1      40.341  31.628  36.146  1.00  0.00     0.010 A 
ATOM     48  C   UNL A   1      41.813  33.139  34.949  1.00  0.00     0.010 A 
ATOM     49  C   UNL A   1      40.044  32.642  37.060  1.00  0.00     0.020 A 
ATOM     50  C   UNL A   1      41.540  34.147  35.878  1.00  0.00     0.020 A 
ATOM     51  C   UNL A   1      40.647  33.896  36.922  1.00  0.00     0.054 A 
BRANCH  51  52
ATOM     52  S   UNL A   1      40.272  35.179  38.148  1.00  0.00     0.124 S 
ATOM     53  O   UNL A   1      41.569  35.372  38.790  1.00  0.00    -0.237 OA
ATOM     54  O   UNL A   1      39.812  36.289  37.318  1.00  0.00    -0.237 OA
ATOM     55  O   UNL A   1      39.246  34.567  38.989  1.00  0.00    -0.744 OA
ENDBRANCH  51  52
ENDBRANCH  32  46
BRANCH  33  56
ATOM     56  C   UNL A   1      43.285  24.809  28.305  1.00  0.00    -0.014 A 
ATOM     57  C   UNL A   1      42.815  23.490  28.426  1.00  0.00     0.010 A 
ATOM     58  C   UNL A   1      44.078  25.154  27.194  1.00  0.00     0.010 A 
ATOM     59  C   UNL A   1      43.155  22.528  27.469  1.00  0.00     0.020 A 
ATOM     60  C   UNL A   1      44.392  24.202  26.221  1.00  0.00     0.020 A 
ATOM     61  C   UNL A   1      43.941  22.891  26.372  1.00  0.00     0.054 A 
BRANCH  61  62
ATOM     62  S   UNL A   1      44.335  21.637  25.122  1.00  0.00     0.124 S 
ATOM     63  O   UNL A   1      45.712  21.294  25.459  1.00  0.00    -0.237 OA
ATOM     64  O   UNL A   1      43.340  20.600  25.390  1.00  0.00    -0.237 OA
ATOM     65  O   UNL A   1      44.156  22.347  23.858  1.00  0.00    -0.744 OA
ENDBRANCH  61  62
ENDBRANCH  33  56
BRANCH  45  66
ATOM     66  C   UNL A   1      46.378  26.889  34.195  1.00  0.00    -0.014 A 
ATOM     67  C   UNL A   1      46.298  26.241  35.441  1.00  0.00     0.010 A 
ATOM     68  C   UNL A   1      47.640  27.080  33.604  1.00  0.00     0.010 A 
ATOM     69  C   UNL A   1      47.460  25.840  36.106  1.00  0.00     0.020 A 
ATOM     70  C   UNL A   1      48.802  26.651  34.250  1.00  0.00     0.020 A 
ATOM     71  C   UNL A   1      48.706  26.051  35.508  1.00  0.00     0.054 A 
BRANCH  71  72
ATOM     72  S   UNL A   1      50.198  25.510  36.384  1.00  0.00     0.124 S 
ATOM     73  O   UNL A   1      49.862  24.134  36.735  1.00  0.00    -0.237 OA
ATOM     74  O   UNL A   1      51.239  25.663  35.370  1.00  0.00    -0.237 OA
ATOM     75  O   UNL A   1      50.294  26.435  37.511  1.00  0.00    -0.744 OA
ENDBRANCH  71  72
ENDBRANCH  45  66
ENDBRANCH  19  20
ENDBRANCH  11  14
ENDBRANCH   9  10
ENDBRANCH   8   9
ENDBRANCH   7   8
ENDBRANCH   5   7
ENDBRANCH   2   3
BRANCH   2  76
ATOM     76  C   UNL A   1      36.271  33.814  30.947  1.00  0.00    -0.033 A 
ATOM     77  C   UNL A   1      37.083  34.504  31.859  1.00  0.00     0.005 A 
ATOM     78  C   UNL A   1      36.858  33.269  29.797  1.00  0.00     0.044 A 
ATOM     79  C   UNL A   1      38.447  34.682  31.601  1.00  0.00     0.012 A 
ATOM     80  C   UNL A   1      38.212  33.446  29.552  1.00  0.00     0.131 A 
ATOM     81  C   UNL A   1      39.027  34.175  30.429  1.00  0.00     0.018 A 
ATOM     82  F   UNL A   1      38.722  32.926  28.424  1.00  0.00    -0.206 F 
BRANCH  81  83
ATOM     83  C   UNL A   1      40.410  34.496  30.065  1.00  0.00    -0.012 A 
ATOM     84  C   UNL A   1      40.736  35.367  29.017  1.00  0.00     0.009 A 
ATOM     85  C   UNL A   1      41.453  33.893  30.788  1.00  0.00     0.056 A 
ATOM     86  C   UNL A   1      42.073  35.633  28.706  1.00  0.00     0.004 A 
ATOM     87  C   UNL A   1      42.780  34.145  30.468  1.00  0.00     0.133 A 
ATOM     88  C   UNL A   1      43.095  35.021  29.431  1.00  0.00     0.047 A 
BRANCH  87  89
ATOM     89  O   UNL A   1      43.874  33.589  31.168  1.00  0.00    -0.410 OA
BRANCH  89  90
ATOM     90  C   UNL A   1      45.032  34.275  31.534  1.00  0.00     0.412 C 
ATOM     91  O   UNL A   1      45.109  35.258  32.257  1.00  0.00    -0.224 OA
ATOM     92  N   UNL A   1      46.166  33.721  31.011  1.00  0.00    -0.321 N 
ATOM     93  H   UNL A   1      47.006  34.221  31.124  1.00  0.00     0.167 HD
BRANCH  92  94
ATOM     94  C   UNL A   1      46.236  32.466  30.306  1.00  0.00     0.120 C 
BRANCH  94  95
ATOM     95  C   UNL A   1      46.359  31.240  31.209  1.00  0.00     0.026 C 
BRANCH  95  96
ATOM     96  C   UNL A   1      45.358  30.093  31.023  1.00  0.00     0.037 C 
BRANCH  96  97
ATOM     97  C   UNL A   1      44.544  29.976  29.753  1.00  0.00    -0.048 A 
ATOM     98  C   UNL A   1      43.308  30.592  29.537  1.00  0.00     0.004 A 
ATOM     99  C   UNL A   1      45.041  29.131  28.743  1.00  0.00     0.004 A 
ATOM    100  C   UNL A   1      42.589  30.369  28.359  1.00  0.00     0.000 A 
ATOM    101  C   UNL A   1      44.330  28.916  27.562  1.00  0.00     0.000 A 
ATOM    102  C   UNL A   1      43.098  29.531  27.371  1.00  0.00     0.000 A 
ENDBRANCH  96  97
ENDBRANCH  95  96
ENDBRANCH  94  95
ENDBRANCH  92  94
ENDBRANCH  89  90
ENDBRANCH  87  89
ENDBRANCH  81  83
ENDBRANCH   2  76
TORSDOF 21
ENDMDL
MODEL 3
REMARK VINA RESULT:      -7.7      4.746      6.961
REMARK SMILES C[C@@H](C(=O)NCCCNC(=O)c1ccc(-c2c3nc(c(-c4ccc(S(=O)(=O)[O-])cc4)c4ccc([nH]4)c(-c4ccc(S(=O)(=O)[O-])cc4)c4nc(c(-c5ccc(S(=O)(=O)[O-])cc5)c5ccc2[nH]5)C=C4)C=C3)cc1)c1ccc(-c2cccc(OC(=O)NCCCc3ccccc3)c2)c(F)c1
REMARK SMILES IDX 1 1 2 2 3 3 4 4 5 5 6 7 7 8 8 9 9 10 10 11 11 13 12 14 13 15
REMARK SMILES IDX 71 16 14 17 70 18 15 19 16 20 17 21 64 22 18 23 69 24 63 25
REMARK SMILES IDX 65 26 19 27 68 28 62 29 61 30 20 32 50 33 31 34 49 35 32 36
REMARK SMILES IDX 35 37 48 38 66 39 33 40 34 41 47 43 67 44 36 45 21 46 22 47
REMARK SMILES IDX 30 48 23 49 29 50 24 51 25 52 26 53 27 54 28 55 51 56 52 57
REMARK SMILES IDX 60 58 53 59 59 60 54 61 55 62 56 63 57 64 58 65 37 66 38 67
REMARK SMILES IDX 46 68 39 69 45 70 40 71 41 72 42 73 43 74 44 75 72 76 73 77
REMARK SMILES IDX 97 78 74 79 95 80 75 81 96 82 76 83 77 84 94 85 78 86 80 87
REMARK SMILES IDX 79 88 81 89 82 90 83 91 84 92 85 94 86 95 87 96 88 97 89 98
REMARK SMILES IDX 93 99 90 100 92 101 91 102
REMARK H PARENT 5 6 9 12 65 31 35 42 84 93
REMARK Flexibility Score: inf
ROOT
ATOM      1  C   UNL A   1      34.630  34.821  27.950  1.00  0.00     0.023 C 
ATOM      2  C   UNL A   1      35.070  33.715  28.915  1.00  0.00     0.105 C 
ENDROOT
BRANCH   2   3
ATOM      3  C   UNL A   1      34.568  33.939  30.350  1.00  0.00     0.227 C 
ATOM      4  O   UNL A   1      33.466  34.424  30.617  1.00  0.00    -0.274 OA
ATOM      5  N   UNL A   1      35.334  33.556  31.409  1.00  0.00    -0.356 N 
ATOM      6  H   UNL A   1      34.895  33.632  32.287  1.00  0.00     0.163 HD
BRANCH   5   7
ATOM      7  C   UNL A   1      36.692  33.056  31.448  1.00  0.00     0.117 C 
BRANCH   7   8
ATOM      8  C   UNL A   1      36.779  31.740  32.217  1.00  0.00     0.042 C 
BRANCH   8   9
ATOM      9  C   UNL A   1      37.818  30.765  31.671  1.00  0.00     0.118 C 
BRANCH   9  10
ATOM     10  N   UNL A   1      37.760  29.467  32.324  1.00  0.00    -0.352 N 
ATOM     11  C   UNL A   1      38.547  28.355  32.165  1.00  0.00     0.251 C 
ATOM     12  H   UNL A   1      37.040  29.371  32.989  1.00  0.00     0.163 HD
ATOM     13  O   UNL A   1      38.183  27.295  32.666  1.00  0.00    -0.269 OA
BRANCH  11  14
ATOM     14  C   UNL A   1      39.807  28.416  31.390  1.00  0.00     0.039 A 
ATOM     15  C   UNL A   1      41.016  28.291  32.079  1.00  0.00     0.014 A 
ATOM     16  C   UNL A   1      39.813  28.642  30.011  1.00  0.00     0.014 A 
ATOM     17  C   UNL A   1      42.223  28.334  31.379  1.00  0.00     0.010 A 
ATOM     18  C   UNL A   1      41.015  28.608  29.302  1.00  0.00     0.010 A 
ATOM     19  C   UNL A   1      42.232  28.456  29.979  1.00  0.00    -0.014 A 
BRANCH  19  20
ATOM     20  C   UNL A   1      43.512  28.399  29.225  1.00  0.00     0.031 A 
ATOM     21  C   UNL A   1      44.463  29.566  29.225  1.00  0.00     0.074 A 
ATOM     22  C   UNL A   1      43.804  27.293  28.511  1.00  0.00     0.049 A 
ATOM     23  N   UNL A   1      45.623  29.681  28.630  1.00  0.00    -0.248 NA
ATOM     24  C   UNL A   1      44.053  30.765  29.974  1.00  0.00     0.031 C 
ATOM     25  C   UNL A   1      42.941  26.114  28.388  1.00  0.00     0.029 A 
ATOM     26  N   UNL A   1      44.905  26.975  27.757  1.00  0.00    -0.354 N 
ATOM     27  C   UNL A   1      46.081  30.958  28.931  1.00  0.00     0.074 A 
ATOM     28  C   UNL A   1      45.049  31.601  29.715  1.00  0.00     0.031 C 
ATOM     29  C   UNL A   1      43.559  25.193  27.633  1.00  0.00     0.029 A 
ATOM     30  C   UNL A   1      44.841  25.726  27.185  1.00  0.00     0.049 A 
ATOM     31  H   UNL A   1      45.668  27.585  27.635  1.00  0.00     0.167 HD
ATOM     32  C   UNL A   1      47.262  31.537  28.605  1.00  0.00     0.031 A 
ATOM     33  C   UNL A   1      45.712  25.080  26.386  1.00  0.00     0.031 A 
ATOM     34  C   UNL A   1      48.287  30.897  27.820  1.00  0.00     0.049 A 
ATOM     35  C   UNL A   1      47.010  25.748  26.029  1.00  0.00     0.074 A 
ATOM     36  C   UNL A   1      49.534  31.386  27.470  1.00  0.00     0.029 A 
ATOM     37  N   UNL A   1      48.185  29.632  27.261  1.00  0.00    -0.354 N 
ATOM     38  N   UNL A   1      47.452  26.933  26.382  1.00  0.00    -0.248 NA
ATOM     39  C   UNL A   1      47.935  24.987  25.179  1.00  0.00     0.031 C 
ATOM     40  C   UNL A   1      50.163  30.439  26.655  1.00  0.00     0.029 A 
ATOM     41  C   UNL A   1      49.335  29.333  26.549  1.00  0.00     0.049 A 
ATOM     42  H   UNL A   1      47.408  29.033  27.356  1.00  0.00     0.167 HD
ATOM     43  C   UNL A   1      48.714  27.050  25.810  1.00  0.00     0.074 A 
ATOM     44  C   UNL A   1      48.976  25.806  25.117  1.00  0.00     0.031 C 
ATOM     45  C   UNL A   1      49.578  28.096  25.851  1.00  0.00     0.031 A 
BRANCH  32  46
ATOM     46  C   UNL A   1      47.517  32.937  29.103  1.00  0.00    -0.014 A 
ATOM     47  C   UNL A   1      47.619  33.207  30.479  1.00  0.00     0.010 A 
ATOM     48  C   UNL A   1      47.717  33.985  28.185  1.00  0.00     0.010 A 
ATOM     49  C   UNL A   1      47.885  34.503  30.930  1.00  0.00     0.020 A 
ATOM     50  C   UNL A   1      48.011  35.277  28.631  1.00  0.00     0.020 A 
ATOM     51  C   UNL A   1      48.081  35.531  30.003  1.00  0.00     0.054 A 
BRANCH  51  52
ATOM     52  S   UNL A   1      48.463  37.193  30.618  1.00  0.00     0.124 S 
ATOM     53  O   UNL A   1      48.716  37.923  29.379  1.00  0.00    -0.237 OA
ATOM     54  O   UNL A   1      47.240  37.562  31.325  1.00  0.00    -0.237 OA
ATOM     55  O   UNL A   1      49.633  36.989  31.469  1.00  0.00    -0.744 OA
ENDBRANCH  51  52
ENDBRANCH  32  46
BRANCH  33  56
ATOM     56  C   UNL A   1      45.382  23.723  25.869  1.00  0.00    -0.014 A 
ATOM     57  C   UNL A   1      45.503  22.589  26.691  1.00  0.00     0.010 A 
ATOM     58  C   UNL A   1      44.939  23.562  24.543  1.00  0.00     0.010 A 
ATOM     59  C   UNL A   1      45.214  21.317  26.189  1.00  0.00     0.020 A 
ATOM     60  C   UNL A   1      44.619  22.295  24.047  1.00  0.00     0.020 A 
ATOM     61  C   UNL A   1      44.773  21.178  24.869  1.00  0.00     0.054 A 
BRANCH  61  62
ATOM     62  S   UNL A   1      44.364  19.523  24.251  1.00  0.00     0.124 S 
ATOM     63  O   UNL A   1      43.035  19.307  24.814  1.00  0.00    -0.237 OA
ATOM     64  O   UNL A   1      44.416  19.705  22.801  1.00  0.00    -0.237 OA
ATOM     65  O   UNL A   1      45.423  18.681  24.802  1.00  0.00    -0.744 OA
ENDBRANCH  61  62
ENDBRANCH  33  56
BRANCH  45  66
ATOM     66  C   UNL A   1      50.893  27.927  25.139  1.00  0.00    -0.014 A 
ATOM     67  C   UNL A   1      51.088  28.426  23.838  1.00  0.00     0.010 A 
ATOM     68  C   UNL A   1      51.958  27.275  25.788  1.00  0.00     0.010 A 
ATOM     69  C   UNL A   1      52.306  28.230  23.181  1.00  0.00     0.020 A 
ATOM     70  C   UNL A   1      53.188  27.106  25.146  1.00  0.00     0.020 A 
ATOM     71  C   UNL A   1      53.347  27.567  23.837  1.00  0.00     0.054 A 
BRANCH  71  72
ATOM     72  S   UNL A   1      54.921  27.338  22.968  1.00  0.00     0.124 S 
ATOM     73  O   UNL A   1      55.698  26.576  23.942  1.00  0.00    -0.237 OA
ATOM     74  O   UNL A   1      54.523  26.603  21.770  1.00  0.00    -0.237 OA
ATOM     75  O   UNL A   1      55.389  28.701  22.729  1.00  0.00    -0.744 OA
ENDBRANCH  71  72
ENDBRANCH  45  66
ENDBRANCH  19  20
ENDBRANCH  11  14
ENDBRANCH   9  10
ENDBRANCH   8   9
ENDBRANCH   7   8
ENDBRANCH   5   7
ENDBRANCH   2   3
BRANCH   2  76
ATOM     76  C   UNL A   1      34.627  32.363  28.370  1.00  0.00    -0.033 A 
ATOM     77  C   UNL A   1      35.500  31.266  28.378  1.00  0.00     0.005 A 
ATOM     78  C   UNL A   1      33.342  32.199  27.837  1.00  0.00     0.044 A 
ATOM     79  C   UNL A   1      35.108  30.042  27.823  1.00  0.00     0.012 A 
ATOM     80  C   UNL A   1      32.959  30.981  27.294  1.00  0.00     0.131 A 
ATOM     81  C   UNL A   1      33.837  29.889  27.249  1.00  0.00     0.018 A 
ATOM     82  F   UNL A   1      31.725  30.882  26.773  1.00  0.00    -0.206 F 
BRANCH  81  83
ATOM     83  C   UNL A   1      33.474  28.672  26.518  1.00  0.00    -0.012 A 
ATOM     84  C   UNL A   1      34.145  28.254  25.362  1.00  0.00     0.009 A 
ATOM     85  C   UNL A   1      32.399  27.900  26.989  1.00  0.00     0.056 A 
ATOM     86  C   UNL A   1      33.753  27.088  24.697  1.00  0.00     0.004 A 
ATOM     87  C   UNL A   1      32.001  26.751  26.321  1.00  0.00     0.133 A 
ATOM     88  C   UNL A   1      32.680  26.336  25.176  1.00  0.00     0.047 A 
BRANCH  87  89
ATOM     89  O   UNL A   1      30.943  25.919  26.753  1.00  0.00    -0.410 OA
BRANCH  89  90
ATOM     90  C   UNL A   1      30.004  25.309  25.922  1.00  0.00     0.412 C 
ATOM     91  O   UNL A   1      29.272  25.857  25.110  1.00  0.00    -0.224 OA
ATOM     92  N   UNL A   1      29.967  23.951  26.068  1.00  0.00    -0.321 N 
ATOM     93  H   UNL A   1      29.246  23.467  25.605  1.00  0.00     0.167 HD
BRANCH  92  94
ATOM     94  C   UNL A   1      30.896  23.167  26.841  1.00  0.00     0.120 C 
BRANCH  94  95
ATOM     95  C   UNL A   1      32.133  22.709  26.070  1.00  0.00     0.026 C 
BRANCH  95  96
ATOM     96  C   UNL A   1      33.501  23.260  26.491  1.00  0.00     0.037 C 
BRANCH  96  97
ATOM     97  C   UNL A   1      34.683  23.192  25.550  1.00  0.00    -0.048 A 
ATOM     98  C   UNL A   1      36.016  23.382  25.927  1.00  0.00     0.004 A 
ATOM     99  C   UNL A   1      34.412  22.985  24.185  1.00  0.00     0.004 A 
ATOM    100  C   UNL A   1      37.041  23.376  24.976  1.00  0.00     0.000 A 
ATOM    101  C   UNL A   1      35.435  22.967  23.236  1.00  0.00     0.000 A 
ATOM    102  C   UNL A   1      36.752  23.168  23.631  1.00  0.00     0.000 A 
ENDBRANCH  96  97
ENDBRANCH  95  96
ENDBRANCH  94  95
ENDBRANCH  92  94
ENDBRANCH  89  90
ENDBRANCH  87  89
ENDBRANCH  81  83
ENDBRANCH   2  76
TORSDOF 21
ENDMDL
