MODEL 1
REMARK VINA RESULT:     -11.2      0.000      0.000
REMARK SMILES CC(C)(C)OC(=O)N1CCC[C@H]1C(=O)N[C@@H](Cc1ccccc1)C(=O)NCCCNC(=O)c1ccc(-c2c3nc(c(-c4ccc(S(=O)(=O)[O-])cc4)c4ccc([nH]4)c(-c4ccc(S(=O)(=O)[O-])cc4)c4nc(c(-c5ccc(S(=O)(=O)[O-])cc5)c5ccc2[nH]5)C=C4)C=C3)cc1
REMARK SMILES IDX 27 1 26 2 24 3 25 4 16 6 15 7 13 8 14 9 12 11 8 12 9 13
REMARK SMILES IDX 10 14 11 15 6 16 7 17 5 18 2 19 1 20 3 21 4 22 17 23 18 24
REMARK SMILES IDX 19 25 23 26 20 27 22 28 21 29 28 30 29 31 30 32 31 33 32 35
REMARK SMILES IDX 33 36 34 37 92 38 35 39 91 40 36 41 37 42 38 43 85 44 39 45
REMARK SMILES IDX 90 46 84 47 86 48 40 49 89 50 83 51 82 52 41 54 71 55 52 56
REMARK SMILES IDX 70 57 53 58 56 59 69 60 87 61 54 62 55 63 68 65 88 66 57 67
REMARK SMILES IDX 42 68 43 69 51 70 44 71 50 72 45 73 46 74 47 75 48 76 49 77
REMARK SMILES IDX 72 78 73 79 81 80 74 81 80 82 75 83 76 84 77 85 78 86 79 87
REMARK SMILES IDX 58 88 59 89 67 90 60 91 66 92 61 93 62 94 63 95 64 96 65 97
REMARK H PARENT 26 5 15 10 30 34 86 53 56 64
REMARK Flexibility Score: inf
ROOT
ATOM      1  C   UNL A   1      36.657  21.150  25.374  1.00  0.00     0.117 C 
ENDROOT
BRANCH   1   2
ATOM      2  N   UNL A   1      35.847  21.676  26.445  1.00  0.00    -0.354 N 
ATOM      3  C   UNL A   1      34.503  21.850  26.500  1.00  0.00     0.242 C 
ATOM      4  O   UNL A   1      34.038  22.159  27.601  1.00  0.00    -0.273 OA
ATOM      5  H   UNL A   1      36.340  21.950  27.251  1.00  0.00     0.163 HD
BRANCH   3   6
ATOM      6  C   UNL A   1      33.593  21.692  25.268  1.00  0.00     0.175 C 
BRANCH   6   7
ATOM      7  N   UNL A   1      34.282  22.088  24.044  1.00  0.00    -0.342 N 
ATOM      8  C   UNL A   1      34.281  23.270  23.367  1.00  0.00     0.243 C 
ATOM      9  O   UNL A   1      35.102  23.330  22.441  1.00  0.00    -0.273 OA
ATOM     10  H   UNL A   1      34.840  21.384  23.641  1.00  0.00     0.164 HD
BRANCH   8  11
ATOM     11  C   UNL A   1      33.202  24.395  23.528  1.00  0.00     0.178 C 
ATOM     12  N   UNL A   1      33.600  25.748  23.916  1.00  0.00    -0.296 N 
ATOM     13  C   UNL A   1      33.655  26.615  22.759  1.00  0.00     0.124 C 
ATOM     14  C   UNL A   1      32.459  26.126  21.961  1.00  0.00     0.024 C 
ATOM     15  C   UNL A   1      32.479  24.611  22.177  1.00  0.00     0.037 C 
BRANCH  12  16
ATOM     16  C   UNL A   1      33.562  26.189  25.219  1.00  0.00     0.410 C 
ATOM     17  O   UNL A   1      33.923  25.482  26.156  1.00  0.00    -0.224 OA
BRANCH  16  18
ATOM     18  O   UNL A   1      33.210  27.492  25.314  1.00  0.00    -0.444 OA
BRANCH  18  19
ATOM     19  C   UNL A   1      31.894  27.963  25.737  1.00  0.00     0.106 C 
ATOM     20  C   UNL A   1      30.973  26.741  25.692  1.00  0.00     0.056 C 
ATOM     21  C   UNL A   1      31.424  28.980  24.688  1.00  0.00     0.056 C 
ATOM     22  C   UNL A   1      31.799  28.617  27.120  1.00  0.00     0.056 C 
ENDBRANCH  18  19
ENDBRANCH  16  18
ENDBRANCH  12  16
ENDBRANCH   8  11
ENDBRANCH   6   7
BRANCH   6  23
ATOM     23  C   UNL A   1      32.699  20.441  25.158  1.00  0.00     0.070 C 
BRANCH  23  24
ATOM     24  C   UNL A   1      33.209  19.225  24.429  1.00  0.00    -0.045 A 
ATOM     25  C   UNL A   1      34.346  18.540  24.878  1.00  0.00     0.004 A 
ATOM     26  C   UNL A   1      32.524  18.746  23.301  1.00  0.00     0.004 A 
ATOM     27  C   UNL A   1      34.746  17.357  24.251  1.00  0.00     0.000 A 
ATOM     28  C   UNL A   1      32.928  17.564  22.676  1.00  0.00     0.000 A 
ATOM     29  C   UNL A   1      34.028  16.861  23.163  1.00  0.00     0.000 A 
ENDBRANCH  23  24
ENDBRANCH   6  23
ENDBRANCH   3   6
ENDBRANCH   1   2
BRANCH   1  30
ATOM     30  C   UNL A   1      37.845  22.013  25.035  1.00  0.00     0.042 C 
BRANCH  30  31
ATOM     31  C   UNL A   1      38.914  21.968  26.112  1.00  0.00     0.118 C 
BRANCH  31  32
ATOM     32  N   UNL A   1      39.633  20.692  26.164  1.00  0.00    -0.352 N 
ATOM     33  C   UNL A   1      40.984  20.441  26.217  1.00  0.00     0.251 C 
ATOM     34  H   UNL A   1      39.060  19.891  26.159  1.00  0.00     0.163 HD
ATOM     35  O   UNL A   1      41.413  19.302  26.061  1.00  0.00    -0.269 OA
BRANCH  33  36
ATOM     36  C   UNL A   1      41.906  21.571  26.432  1.00  0.00     0.039 A 
ATOM     37  C   UNL A   1      42.263  22.392  25.362  1.00  0.00     0.014 A 
ATOM     38  C   UNL A   1      42.337  21.867  27.725  1.00  0.00     0.014 A 
ATOM     39  C   UNL A   1      42.962  23.574  25.615  1.00  0.00     0.010 A 
ATOM     40  C   UNL A   1      42.887  23.108  27.988  1.00  0.00     0.010 A 
ATOM     41  C   UNL A   1      43.223  23.971  26.937  1.00  0.00    -0.014 A 
BRANCH  41  42
ATOM     42  C   UNL A   1      43.864  25.269  27.260  1.00  0.00     0.031 A 
ATOM     43  C   UNL A   1      43.040  26.365  27.887  1.00  0.00     0.074 A 
ATOM     44  C   UNL A   1      45.147  25.491  26.913  1.00  0.00     0.049 A 
ATOM     45  N   UNL A   1      43.377  27.600  28.152  1.00  0.00    -0.248 NA
ATOM     46  C   UNL A   1      41.640  26.044  28.218  1.00  0.00     0.031 C 
ATOM     47  C   UNL A   1      46.031  24.530  26.247  1.00  0.00     0.029 A 
ATOM     48  N   UNL A   1      45.934  26.605  27.067  1.00  0.00    -0.354 N 
ATOM     49  C   UNL A   1      42.229  28.202  28.655  1.00  0.00     0.074 A 
ATOM     50  C   UNL A   1      41.168  27.226  28.583  1.00  0.00     0.031 C 
ATOM     51  C   UNL A   1      47.247  25.079  26.093  1.00  0.00     0.029 A 
ATOM     52  C   UNL A   1      47.218  26.446  26.598  1.00  0.00     0.049 A 
ATOM     53  H   UNL A   1      45.612  27.440  27.477  1.00  0.00     0.167 HD
ATOM     54  C   UNL A   1      42.077  29.445  29.166  1.00  0.00     0.031 A 
ATOM     55  C   UNL A   1      48.253  27.308  26.572  1.00  0.00     0.031 A 
ATOM     56  C   UNL A   1      43.143  30.403  29.258  1.00  0.00     0.049 A 
ATOM     57  C   UNL A   1      48.058  28.689  27.138  1.00  0.00     0.074 A 
ATOM     58  C   UNL A   1      43.116  31.670  29.811  1.00  0.00     0.029 A 
ATOM     59  N   UNL A   1      44.432  30.196  28.789  1.00  0.00    -0.354 N 
ATOM     60  N   UNL A   1      46.982  29.216  27.676  1.00  0.00    -0.248 NA
ATOM     61  C   UNL A   1      49.219  29.588  27.107  1.00  0.00     0.031 C 
ATOM     62  C   UNL A   1      44.374  32.251  29.624  1.00  0.00     0.029 A 
ATOM     63  C   UNL A   1      45.204  31.320  29.017  1.00  0.00     0.049 A 
ATOM     64  H   UNL A   1      44.750  29.370  28.356  1.00  0.00     0.167 HD
ATOM     65  C   UNL A   1      47.348  30.497  28.076  1.00  0.00     0.074 A 
ATOM     66  C   UNL A   1      48.747  30.657  27.733  1.00  0.00     0.031 C 
ATOM     67  C   UNL A   1      46.596  31.455  28.674  1.00  0.00     0.031 A 
BRANCH  54  68
ATOM     68  C   UNL A   1      40.710  29.828  29.672  1.00  0.00    -0.014 A 
ATOM     69  C   UNL A   1      39.695  30.236  28.787  1.00  0.00     0.010 A 
ATOM     70  C   UNL A   1      40.426  29.755  31.048  1.00  0.00     0.010 A 
ATOM     71  C   UNL A   1      38.438  30.607  29.271  1.00  0.00     0.020 A 
ATOM     72  C   UNL A   1      39.159  30.091  31.533  1.00  0.00     0.020 A 
ATOM     73  C   UNL A   1      38.179  30.531  30.642  1.00  0.00     0.054 A 
BRANCH  73  74
ATOM     74  S   UNL A   1      36.528  30.990  31.236  1.00  0.00     0.124 S 
ATOM     75  O   UNL A   1      36.153  29.815  32.019  1.00  0.00    -0.237 OA
ATOM     76  O   UNL A   1      36.792  32.200  32.010  1.00  0.00    -0.237 OA
ATOM     77  O   UNL A   1      35.760  31.191  30.010  1.00  0.00    -0.744 OA
ENDBRANCH  73  74
ENDBRANCH  54  68
BRANCH  55  78
ATOM     78  C   UNL A   1      49.568  26.889  26.012  1.00  0.00    -0.014 A 
ATOM     79  C   UNL A   1      50.478  26.156  26.796  1.00  0.00     0.010 A 
ATOM     80  C   UNL A   1      49.921  27.218  24.690  1.00  0.00     0.010 A 
ATOM     81  C   UNL A   1      51.725  25.787  26.281  1.00  0.00     0.020 A 
ATOM     82  C   UNL A   1      51.154  26.821  24.160  1.00  0.00     0.020 A 
ATOM     83  C   UNL A   1      52.054  26.122  24.965  1.00  0.00     0.054 A 
BRANCH  83  84
ATOM     84  S   UNL A   1      53.664  25.601  24.310  1.00  0.00     0.124 S 
ATOM     85  O   UNL A   1      54.586  26.442  25.066  1.00  0.00    -0.237 OA
ATOM     86  O   UNL A   1      53.691  24.178  24.636  1.00  0.00    -0.237 OA
ATOM     87  O   UNL A   1      53.566  25.905  22.884  1.00  0.00    -0.744 OA
ENDBRANCH  83  84
ENDBRANCH  55  78
BRANCH  67  88
ATOM     88  C   UNL A   1      47.279  32.746  29.037  1.00  0.00    -0.014 A 
ATOM     89  C   UNL A   1      47.279  33.846  28.161  1.00  0.00     0.010 A 
ATOM     90  C   UNL A   1      47.874  32.876  30.306  1.00  0.00     0.010 A 
ATOM     91  C   UNL A   1      47.892  35.044  28.537  1.00  0.00     0.020 A 
ATOM     92  C   UNL A   1      48.457  34.083  30.698  1.00  0.00     0.020 A 
ATOM     93  C   UNL A   1      48.475  35.155  29.804  1.00  0.00     0.054 A 
BRANCH  93  94
ATOM     94  S   UNL A   1      49.218  36.737  30.284  1.00  0.00     0.124 S 
ATOM     95  O   UNL A   1      48.139  37.679  29.999  1.00  0.00    -0.237 OA
ATOM     96  O   UNL A   1      49.516  36.534  31.700  1.00  0.00    -0.237 OA
ATOM     97  O   UNL A   1      50.388  36.848  29.418  1.00  0.00    -0.744 OA
ENDBRANCH  93  94
ENDBRANCH  67  88
ENDBRANCH  41  42
ENDBRANCH  33  36
ENDBRANCH  31  32
ENDBRANCH  30  31
ENDBRANCH   1  30
TORSDOF 20
ENDMDL
MODEL 2
REMARK VINA RESULT:     -11.2      3.674      9.136
REMARK SMILES CC(C)(C)OC(=O)N1CCC[C@H]1C(=O)N[C@@H](Cc1ccccc1)C(=O)NCCCNC(=O)c1ccc(-c2c3nc(c(-c4ccc(S(=O)(=O)[O-])cc4)c4ccc([nH]4)c(-c4ccc(S(=O)(=O)[O-])cc4)c4nc(c(-c5ccc(S(=O)(=O)[O-])cc5)c5ccc2[nH]5)C=C4)C=C3)cc1
REMARK SMILES IDX 27 1 26 2 24 3 25 4 16 6 15 7 13 8 14 9 12 11 8 12 9 13
REMARK SMILES IDX 10 14 11 15 6 16 7 17 5 18 2 19 1 20 3 21 4 22 17 23 18 24
REMARK SMILES IDX 19 25 23 26 20 27 22 28 21 29 28 30 29 31 30 32 31 33 32 35
REMARK SMILES IDX 33 36 34 37 92 38 35 39 91 40 36 41 37 42 38 43 85 44 39 45
REMARK SMILES IDX 90 46 84 47 86 48 40 49 89 50 83 51 82 52 41 54 71 55 52 56
REMARK SMILES IDX 70 57 53 58 56 59 69 60 87 61 54 62 55 63 68 65 88 66 57 67
REMARK SMILES IDX 42 68 43 69 51 70 44 71 50 72 45 73 46 74 47 75 48 76 49 77
REMARK SMILES IDX 72 78 73 79 81 80 74 81 80 82 75 83 76 84 77 85 78 86 79 87
REMARK SMILES IDX 58 88 59 89 67 90 60 91 66 92 61 93 62 94 63 95 64 96 65 97
REMARK H PARENT 26 5 15 10 30 34 86 53 56 64
REMARK Flexibility Score: inf
ROOT
ATOM      1  C   UNL A   1      32.858  26.236  25.703  1.00  0.00     0.117 C 
ENDROOT
BRANCH   1   2
ATOM      2  N   UNL A   1      32.012  26.050  24.550  1.00  0.00    -0.354 N 
ATOM      3  C   UNL A   1      32.021  25.055  23.629  1.00  0.00     0.242 C 
ATOM      4  O   UNL A   1      31.075  25.039  22.835  1.00  0.00    -0.273 OA
ATOM      5  H   UNL A   1      31.331  26.747  24.411  1.00  0.00     0.163 HD
BRANCH   3   6
ATOM      6  C   UNL A   1      33.144  24.005  23.550  1.00  0.00     0.175 C 
BRANCH   6   7
ATOM      7  N   UNL A   1      32.752  22.868  22.723  1.00  0.00    -0.342 N 
ATOM      8  C   UNL A   1      32.200  21.670  23.064  1.00  0.00     0.243 C 
ATOM      9  O   UNL A   1      31.840  20.979  22.100  1.00  0.00    -0.273 OA
ATOM     10  H   UNL A   1      32.914  22.986  21.759  1.00  0.00     0.164 HD
BRANCH   8  11
ATOM     11  C   UNL A   1      32.215  21.053  24.504  1.00  0.00     0.178 C 
ATOM     12  N   UNL A   1      33.167  19.995  24.843  1.00  0.00    -0.296 N 
ATOM     13  C   UNL A   1      34.295  20.536  25.569  1.00  0.00     0.124 C 
ATOM     14  C   UNL A   1      33.616  21.574  26.446  1.00  0.00     0.024 C 
ATOM     15  C   UNL A   1      32.536  22.161  25.535  1.00  0.00     0.037 C 
BRANCH  12  16
ATOM     16  C   UNL A   1      32.841  18.658  24.791  1.00  0.00     0.410 C 
ATOM     17  O   UNL A   1      31.807  18.261  24.263  1.00  0.00    -0.224 OA
BRANCH  16  18
ATOM     18  O   UNL A   1      33.831  17.867  25.268  1.00  0.00    -0.444 OA
BRANCH  18  19
ATOM     19  C   UNL A   1      34.115  16.520  24.784  1.00  0.00     0.106 C 
ATOM     20  C   UNL A   1      34.193  16.625  23.258  1.00  0.00     0.056 C 
ATOM     21  C   UNL A   1      32.912  15.644  25.162  1.00  0.00     0.056 C 
ATOM     22  C   UNL A   1      35.387  15.843  25.309  1.00  0.00     0.056 C 
ENDBRANCH  18  19
ENDBRANCH  16  18
ENDBRANCH  12  16
ENDBRANCH   8  11
ENDBRANCH   6   7
BRANCH   6  23
ATOM     23  C   UNL A   1      34.600  24.483  23.384  1.00  0.00     0.070 C 
BRANCH  23  24
ATOM     24  C   UNL A   1      35.702  23.784  24.134  1.00  0.00    -0.045 A 
ATOM     25  C   UNL A   1      36.042  24.166  25.439  1.00  0.00     0.004 A 
ATOM     26  C   UNL A   1      36.386  22.712  23.537  1.00  0.00     0.004 A 
ATOM     27  C   UNL A   1      36.997  23.443  26.157  1.00  0.00     0.000 A 
ATOM     28  C   UNL A   1      37.342  21.992  24.258  1.00  0.00     0.000 A 
ATOM     29  C   UNL A   1      37.633  22.347  25.574  1.00  0.00     0.000 A 
ENDBRANCH  23  24
ENDBRANCH   6  23
ENDBRANCH   3   6
ENDBRANCH   1   2
BRANCH   1  30
ATOM     30  C   UNL A   1      33.348  27.651  25.873  1.00  0.00     0.042 C 
BRANCH  30  31
ATOM     31  C   UNL A   1      33.290  28.110  27.319  1.00  0.00     0.118 C 
BRANCH  31  32
ATOM     32  N   UNL A   1      33.234  29.567  27.464  1.00  0.00    -0.352 N 
ATOM     33  C   UNL A   1      34.193  30.448  27.907  1.00  0.00     0.251 C 
ATOM     34  H   UNL A   1      32.379  29.979  27.203  1.00  0.00     0.163 HD
ATOM     35  O   UNL A   1      33.904  31.617  28.143  1.00  0.00    -0.269 OA
BRANCH  33  36
ATOM     36  C   UNL A   1      35.564  29.951  28.125  1.00  0.00     0.039 A 
ATOM     37  C   UNL A   1      36.489  29.979  27.080  1.00  0.00     0.014 A 
ATOM     38  C   UNL A   1      35.952  29.548  29.401  1.00  0.00     0.014 A 
ATOM     39  C   UNL A   1      37.831  29.707  27.351  1.00  0.00     0.010 A 
ATOM     40  C   UNL A   1      37.298  29.433  29.696  1.00  0.00     0.010 A 
ATOM     41  C   UNL A   1      38.255  29.494  28.674  1.00  0.00    -0.014 A 
BRANCH  41  42
ATOM     42  C   UNL A   1      39.684  29.309  29.025  1.00  0.00     0.031 A 
ATOM     43  C   UNL A   1      40.351  27.989  28.735  1.00  0.00     0.074 A 
ATOM     44  C   UNL A   1      40.349  30.282  29.678  1.00  0.00     0.049 A 
ATOM     45  N   UNL A   1      41.553  27.585  29.053  1.00  0.00    -0.248 NA
ATOM     46  C   UNL A   1      39.547  26.971  28.034  1.00  0.00     0.031 C 
ATOM     47  C   UNL A   1      39.794  31.582  30.069  1.00  0.00     0.029 A 
ATOM     48  N   UNL A   1      41.641  30.328  30.137  1.00  0.00    -0.354 N 
ATOM     49  C   UNL A   1      41.635  26.268  28.615  1.00  0.00     0.074 A 
ATOM     50  C   UNL A   1      40.342  25.914  28.082  1.00  0.00     0.031 C 
ATOM     51  C   UNL A   1      40.751  32.311  30.664  1.00  0.00     0.029 A 
ATOM     52  C   UNL A   1      41.970  31.516  30.749  1.00  0.00     0.049 A 
ATOM     53  H   UNL A   1      42.275  29.582  30.037  1.00  0.00     0.167 HD
ATOM     54  C   UNL A   1      42.703  25.437  28.619  1.00  0.00     0.031 A 
ATOM     55  C   UNL A   1      43.124  31.917  31.318  1.00  0.00     0.031 A 
ATOM     56  C   UNL A   1      43.995  25.806  29.128  1.00  0.00     0.049 A 
ATOM     57  C   UNL A   1      44.296  30.972  31.319  1.00  0.00     0.074 A 
ATOM     58  C   UNL A   1      45.162  25.064  29.129  1.00  0.00     0.029 A 
ATOM     59  N   UNL A   1      44.291  27.024  29.721  1.00  0.00    -0.354 N 
ATOM     60  N   UNL A   1      44.375  29.755  30.834  1.00  0.00    -0.248 NA
ATOM     61  C   UNL A   1      45.538  31.458  31.934  1.00  0.00     0.031 C 
ATOM     62  C   UNL A   1      46.150  25.813  29.776  1.00  0.00     0.029 A 
ATOM     63  C   UNL A   1      45.616  27.047  30.115  1.00  0.00     0.049 A 
ATOM     64  H   UNL A   1      43.651  27.763  29.845  1.00  0.00     0.167 HD
ATOM     65  C   UNL A   1      45.684  29.343  31.055  1.00  0.00     0.074 A 
ATOM     66  C   UNL A   1      46.364  30.448  31.703  1.00  0.00     0.031 C 
ATOM     67  C   UNL A   1      46.274  28.160  30.751  1.00  0.00     0.031 A 
BRANCH  54  68
ATOM     68  C   UNL A   1      42.513  24.057  28.048  1.00  0.00    -0.014 A 
ATOM     69  C   UNL A   1      42.181  22.967  28.874  1.00  0.00     0.010 A 
ATOM     70  C   UNL A   1      42.643  23.847  26.663  1.00  0.00     0.010 A 
ATOM     71  C   UNL A   1      42.026  21.687  28.334  1.00  0.00     0.020 A 
ATOM     72  C   UNL A   1      42.455  22.575  26.114  1.00  0.00     0.020 A 
ATOM     73  C   UNL A   1      42.165  21.501  26.956  1.00  0.00     0.054 A 
BRANCH  73  74
ATOM     74  S   UNL A   1      41.929  19.834  26.281  1.00  0.00     0.124 S 
ATOM     75  O   UNL A   1      40.497  19.828  25.991  1.00  0.00    -0.237 OA
ATOM     76  O   UNL A   1      42.805  19.836  25.113  1.00  0.00    -0.237 OA
ATOM     77  O   UNL A   1      42.346  18.955  27.370  1.00  0.00    -0.744 OA
ENDBRANCH  73  74
ENDBRANCH  54  68
BRANCH  55  78
ATOM     78  C   UNL A   1      43.236  33.278  31.913  1.00  0.00    -0.014 A 
ATOM     79  C   UNL A   1      43.229  33.450  33.309  1.00  0.00     0.010 A 
ATOM     80  C   UNL A   1      43.353  34.412  31.088  1.00  0.00     0.010 A 
ATOM     81  C   UNL A   1      43.305  34.730  33.868  1.00  0.00     0.020 A 
ATOM     82  C   UNL A   1      43.463  35.691  31.644  1.00  0.00     0.020 A 
ATOM     83  C   UNL A   1      43.423  35.843  33.031  1.00  0.00     0.054 A 
BRANCH  83  84
ATOM     84  S   UNL A   1      43.555  37.489  33.782  1.00  0.00     0.124 S 
ATOM     85  O   UNL A   1      42.253  37.635  34.425  1.00  0.00    -0.237 OA
ATOM     86  O   UNL A   1      44.693  37.334  34.683  1.00  0.00    -0.237 OA
ATOM     87  O   UNL A   1      43.790  38.368  32.639  1.00  0.00    -0.744 OA
ENDBRANCH  83  84
ENDBRANCH  55  78
BRANCH  67  88
ATOM     88  C   UNL A   1      47.737  28.011  31.073  1.00  0.00    -0.014 A 
ATOM     89  C   UNL A   1      48.731  28.438  30.174  1.00  0.00     0.010 A 
ATOM     90  C   UNL A   1      48.117  27.494  32.325  1.00  0.00     0.010 A 
ATOM     91  C   UNL A   1      50.081  28.319  30.512  1.00  0.00     0.020 A 
ATOM     92  C   UNL A   1      49.465  27.406  32.678  1.00  0.00     0.020 A 
ATOM     93  C   UNL A   1      50.439  27.806  31.763  1.00  0.00     0.054 A 
BRANCH  93  94
ATOM     94  S   UNL A   1      52.197  27.710  32.193  1.00  0.00     0.124 S 
ATOM     95  O   UNL A   1      52.156  27.755  33.652  1.00  0.00    -0.237 OA
ATOM     96  O   UNL A   1      52.599  26.430  31.615  1.00  0.00    -0.237 OA
ATOM     97  O   UNL A   1      52.777  28.887  31.550  1.00  0.00    -0.744 OA
ENDBRANCH  93  94
ENDBRANCH  67  88
ENDBRANCH  41  42
ENDBRANCH  33  36
ENDBRANCH  31  32
ENDBRANCH  30  31
ENDBRANCH   1  30
TORSDOF 20
ENDMDL
MODEL 3
REMARK VINA RESULT:     -11.1      3.488      8.392
REMARK SMILES CC(C)(C)OC(=O)N1CCC[C@H]1C(=O)N[C@@H](Cc1ccccc1)C(=O)NCCCNC(=O)c1ccc(-c2c3nc(c(-c4ccc(S(=O)(=O)[O-])cc4)c4ccc([nH]4)c(-c4ccc(S(=O)(=O)[O-])cc4)c4nc(c(-c5ccc(S(=O)(=O)[O-])cc5)c5ccc2[nH]5)C=C4)C=C3)cc1
REMARK SMILES IDX 27 1 26 2 24 3 25 4 16 6 15 7 13 8 14 9 12 11 8 12 9 13
REMARK SMILES IDX 10 14 11 15 6 16 7 17 5 18 2 19 1 20 3 21 4 22 17 23 18 24
REMARK SMILES IDX 19 25 23 26 20 27 22 28 21 29 28 30 29 31 30 32 31 33 32 35
REMARK SMILES IDX 33 36 34 37 92 38 35 39 91 40 36 41 37 42 38 43 85 44 39 45
REMARK SMILES IDX 90 46 84 47 86 48 40 49 89 50 83 51 82 52 41 54 71 55 52 56
REMARK SMILES IDX 70 57 53 58 56 59 69 60 87 61 54 62 55 63 68 65 88 66 57 67
REMARK SMILES IDX 42 68 43 69 51 70 44 71 50 72 45 73 46 74 47 75 48 76 49 77
REMARK SMILES IDX 72 78 73 79 81 80 74 81 80 82 75 83 76 84 77 85 78 86 79 87
REMARK SMILES IDX 58 88 59 89 67 90 60 91 66 92 61 93 62 94 63 95 64 96 65 97
REMARK H PARENT 26 5 15 10 30 34 86 53 56 64
REMARK Flexibility Score: inf
ROOT
ATOM      1  C   UNL A   1      32.438  28.696  25.743  1.00  0.00     0.117 C 
ENDROOT
BRANCH   1   2
ATOM      2  N   UNL A   1      33.534  28.820  24.814  1.00  0.00    -0.354 N 
ATOM      3  C   UNL A   1      33.539  28.670  23.466  1.00  0.00     0.242 C 
ATOM      4  O   UNL A   1      34.576  29.002  22.885  1.00  0.00    -0.273 OA
ATOM      5  H   UNL A   1      34.404  29.045  25.216  1.00  0.00     0.163 HD
BRANCH   3   6
ATOM      6  C   UNL A   1      32.336  28.104  22.688  1.00  0.00     0.175 C 
BRANCH   6   7
ATOM      7  N   UNL A   1      32.766  27.180  21.643  1.00  0.00    -0.342 N 
ATOM      8  C   UNL A   1      32.896  25.825  21.656  1.00  0.00     0.243 C 
ATOM      9  O   UNL A   1      33.137  25.323  20.548  1.00  0.00    -0.273 OA
ATOM     10  H   UNL A   1      33.001  27.608  20.788  1.00  0.00     0.164 HD
BRANCH   8  11
ATOM     11  C   UNL A   1      32.995  24.945  22.948  1.00  0.00     0.178 C 
ATOM     12  N   UNL A   1      32.227  23.704  23.057  1.00  0.00    -0.296 N 
ATOM     13  C   UNL A   1      33.065  22.559  22.777  1.00  0.00     0.124 C 
ATOM     14  C   UNL A   1      34.370  22.975  23.435  1.00  0.00     0.024 C 
ATOM     15  C   UNL A   1      34.457  24.474  23.140  1.00  0.00     0.037 C 
BRANCH  12  16
ATOM     16  C   UNL A   1      31.003  23.641  23.684  1.00  0.00     0.410 C 
ATOM     17  O   UNL A   1      29.981  24.076  23.161  1.00  0.00    -0.224 OA
BRANCH  16  18
ATOM     18  O   UNL A   1      31.054  22.951  24.848  1.00  0.00    -0.444 OA
BRANCH  18  19
ATOM     19  C   UNL A   1      31.167  23.565  26.167  1.00  0.00     0.106 C 
ATOM     20  C   UNL A   1      32.475  23.041  26.767  1.00  0.00     0.056 C 
ATOM     21  C   UNL A   1      29.991  23.046  27.006  1.00  0.00     0.056 C 
ATOM     22  C   UNL A   1      31.162  25.097  26.226  1.00  0.00     0.056 C 
ENDBRANCH  18  19
ENDBRANCH  16  18
ENDBRANCH  12  16
ENDBRANCH   8  11
ENDBRANCH   6   7
BRANCH   6  23
ATOM     23  C   UNL A   1      31.073  27.690  23.469  1.00  0.00     0.070 C 
BRANCH  23  24
ATOM     24  C   UNL A   1      29.840  28.552  23.398  1.00  0.00    -0.045 A 
ATOM     25  C   UNL A   1      29.927  29.946  23.513  1.00  0.00     0.004 A 
ATOM     26  C   UNL A   1      28.584  27.962  23.186  1.00  0.00     0.004 A 
ATOM     27  C   UNL A   1      28.789  30.737  23.344  1.00  0.00     0.000 A 
ATOM     28  C   UNL A   1      27.447  28.756  23.019  1.00  0.00     0.000 A 
ATOM     29  C   UNL A   1      27.554  30.145  23.080  1.00  0.00     0.000 A 
ENDBRANCH  23  24
ENDBRANCH   6  23
ENDBRANCH   3   6
ENDBRANCH   1   2
BRANCH   1  30
ATOM     30  C   UNL A   1      32.395  29.793  26.776  1.00  0.00     0.042 C 
BRANCH  30  31
ATOM     31  C   UNL A   1      33.778  30.156  27.287  1.00  0.00     0.118 C 
BRANCH  31  32
ATOM     32  N   UNL A   1      33.765  31.239  28.273  1.00  0.00    -0.352 N 
ATOM     33  C   UNL A   1      34.694  31.571  29.233  1.00  0.00     0.251 C 
ATOM     34  H   UNL A   1      32.971  31.819  28.245  1.00  0.00     0.163 HD
ATOM     35  O   UNL A   1      34.426  32.397  30.099  1.00  0.00    -0.269 OA
BRANCH  33  36
ATOM     36  C   UNL A   1      36.002  30.890  29.217  1.00  0.00     0.039 A 
ATOM     37  C   UNL A   1      36.846  31.030  28.115  1.00  0.00     0.014 A 
ATOM     38  C   UNL A   1      36.424  30.192  30.347  1.00  0.00     0.014 A 
ATOM     39  C   UNL A   1      38.158  30.559  28.199  1.00  0.00     0.010 A 
ATOM     40  C   UNL A   1      37.762  29.870  30.485  1.00  0.00     0.010 A 
ATOM     41  C   UNL A   1      38.644  30.033  29.408  1.00  0.00    -0.014 A 
BRANCH  41  42
ATOM     42  C   UNL A   1      40.058  29.621  29.579  1.00  0.00     0.031 A 
ATOM     43  C   UNL A   1      41.060  30.618  30.104  1.00  0.00     0.074 A 
ATOM     44  C   UNL A   1      40.456  28.396  29.183  1.00  0.00     0.049 A 
ATOM     45  N   UNL A   1      42.356  30.496  30.231  1.00  0.00    -0.248 NA
ATOM     46  C   UNL A   1      40.544  31.942  30.496  1.00  0.00     0.031 C 
ATOM     47  C   UNL A   1      39.592  27.363  28.603  1.00  0.00     0.029 A 
ATOM     48  N   UNL A   1      41.697  27.810  29.202  1.00  0.00    -0.354 N 
ATOM     49  C   UNL A   1      42.805  31.729  30.691  1.00  0.00     0.074 A 
ATOM     50  C   UNL A   1      41.661  32.608  30.745  1.00  0.00     0.031 C 
ATOM     51  C   UNL A   1      40.319  26.259  28.367  1.00  0.00     0.029 A 
ATOM     52  C   UNL A   1      41.708  26.519  28.725  1.00  0.00     0.049 A 
ATOM     53  H   UNL A   1      42.504  28.269  29.528  1.00  0.00     0.167 HD
ATOM     54  C   UNL A   1      44.052  32.089  31.072  1.00  0.00     0.031 A 
ATOM     55  C   UNL A   1      42.725  25.646  28.587  1.00  0.00     0.031 A 
ATOM     56  C   UNL A   1      45.180  31.201  31.039  1.00  0.00     0.049 A 
ATOM     57  C   UNL A   1      44.105  26.072  29.009  1.00  0.00     0.074 A 
ATOM     58  C   UNL A   1      46.476  31.442  31.456  1.00  0.00     0.029 A 
ATOM     59  N   UNL A   1      45.145  29.897  30.568  1.00  0.00    -0.354 N 
ATOM     60  N   UNL A   1      44.498  27.220  29.511  1.00  0.00    -0.248 NA
ATOM     61  C   UNL A   1      45.180  25.081  28.858  1.00  0.00     0.031 C 
ATOM     62  C   UNL A   1      47.239  30.303  31.182  1.00  0.00     0.029 A 
ATOM     63  C   UNL A   1      46.402  29.328  30.659  1.00  0.00     0.049 A 
ATOM     64  H   UNL A   1      44.343  29.444  30.217  1.00  0.00     0.167 HD
ATOM     65  C   UNL A   1      45.857  27.077  29.766  1.00  0.00     0.074 A 
ATOM     66  C   UNL A   1      46.214  25.727  29.378  1.00  0.00     0.031 C 
ATOM     67  C   UNL A   1      46.733  27.979  30.274  1.00  0.00     0.031 A 
BRANCH  54  68
ATOM     68  C   UNL A   1      44.250  33.499  31.563  1.00  0.00    -0.014 A 
ATOM     69  C   UNL A   1      44.564  34.542  30.672  1.00  0.00     0.010 A 
ATOM     70  C   UNL A   1      44.096  33.793  32.930  1.00  0.00     0.010 A 
ATOM     71  C   UNL A   1      44.764  35.843  31.143  1.00  0.00     0.020 A 
ATOM     72  C   UNL A   1      44.260  35.099  33.401  1.00  0.00     0.020 A 
ATOM     73  C   UNL A   1      44.610  36.112  32.506  1.00  0.00     0.054 A 
BRANCH  73  74
ATOM     74  S   UNL A   1      44.847  37.815  33.083  1.00  0.00     0.124 S 
ATOM     75  O   UNL A   1      45.826  38.323  32.125  1.00  0.00    -0.237 OA
ATOM     76  O   UNL A   1      43.506  38.380  32.968  1.00  0.00    -0.237 OA
ATOM     77  O   UNL A   1      45.339  37.655  34.449  1.00  0.00    -0.744 OA
ENDBRANCH  73  74
ENDBRANCH  54  68
BRANCH  55  78
ATOM     78  C   UNL A   1      42.476  24.280  28.047  1.00  0.00    -0.014 A 
ATOM     79  C   UNL A   1      42.360  23.179  28.914  1.00  0.00     0.010 A 
ATOM     80  C   UNL A   1      42.352  24.070  26.660  1.00  0.00     0.010 A 
ATOM     81  C   UNL A   1      42.156  21.892  28.406  1.00  0.00     0.020 A 
ATOM     82  C   UNL A   1      42.114  22.790  26.151  1.00  0.00     0.020 A 
ATOM     83  C   UNL A   1      42.033  21.706  27.027  1.00  0.00     0.054 A 
BRANCH  83  84
ATOM     84  S   UNL A   1      41.734  20.032  26.396  1.00  0.00     0.124 S 
ATOM     85  O   UNL A   1      42.658  19.962  25.268  1.00  0.00    -0.237 OA
ATOM     86  O   UNL A   1      42.073  19.197  27.545  1.00  0.00    -0.237 OA
ATOM     87  O   UNL A   1      40.316  20.048  26.043  1.00  0.00    -0.744 OA
ENDBRANCH  83  84
ENDBRANCH  55  78
BRANCH  67  88
ATOM     88  C   UNL A   1      48.152  27.525  30.485  1.00  0.00    -0.014 A 
ATOM     89  C   UNL A   1      49.125  27.674  29.481  1.00  0.00     0.010 A 
ATOM     90  C   UNL A   1      48.528  27.001  31.736  1.00  0.00     0.010 A 
ATOM     91  C   UNL A   1      50.443  27.275  29.715  1.00  0.00     0.020 A 
ATOM     92  C   UNL A   1      49.852  26.633  31.984  1.00  0.00     0.020 A 
ATOM     93  C   UNL A   1      50.799  26.760  30.966  1.00  0.00     0.054 A 
BRANCH  93  94
ATOM     94  S   UNL A   1      52.527  26.297  31.258  1.00  0.00     0.124 S 
ATOM     95  O   UNL A   1      53.082  26.327  29.908  1.00  0.00    -0.237 OA
ATOM     96  O   UNL A   1      52.994  27.354  32.153  1.00  0.00    -0.237 OA
ATOM     97  O   UNL A   1      52.434  24.971  31.865  1.00  0.00    -0.744 OA
ENDBRANCH  93  94
ENDBRANCH  67  88
ENDBRANCH  41  42
ENDBRANCH  33  36
ENDBRANCH  31  32
ENDBRANCH  30  31
ENDBRANCH   1  30
TORSDOF 20
ENDMDL
