MODEL 1
REMARK VINA RESULT:     -11.2      0.000      0.000
REMARK SMILES CC[C@@H]1CCC[C@@](C[C@@H]2CSc3ccccc32)(C(=O)NCCCNC(=O)c2ccc(-c3c4nc(c(-c5ccc(S(=O)(=O)[O-])cc5)c5ccc([nH]5)c(-c5ccc(S(=O)(=O)[O-])cc5)c5nc(c(-c6ccc(S(=O)(=O)[O-])cc6)c6ccc3[nH]6)C=C5)C=C4)cc2)C1
REMARK SMILES IDX 22 1 21 2 20 3 18 4 19 5 7 7 3 8 4 9 87 10 5 11 6 12 2 13
REMARK SMILES IDX 1 14 8 15 9 16 10 17 17 18 11 19 12 20 16 21 13 22 15 23
REMARK SMILES IDX 14 24 23 25 24 26 25 27 26 29 27 30 28 31 86 32 29 33 85 34
REMARK SMILES IDX 30 35 31 36 32 37 79 38 33 39 84 40 78 41 80 42 34 43 83 44
REMARK SMILES IDX 77 45 76 46 35 48 65 49 46 50 64 51 47 52 50 53 63 54 81 55
REMARK SMILES IDX 48 56 49 57 62 59 82 60 51 61 36 62 37 63 45 64 38 65 44 66
REMARK SMILES IDX 39 67 40 68 41 69 42 70 43 71 66 72 67 73 75 74 68 75 74 76
REMARK SMILES IDX 69 77 70 78 71 79 72 80 73 81 52 82 53 83 61 84 54 85 60 86
REMARK SMILES IDX 55 87 56 88 57 89 58 90 59 91
REMARK H PARENT 20 6 24 28 80 47 50 58
REMARK Flexibility Score: inf
ROOT
ATOM      1  C   UNL A   1      36.376  22.722  23.664  1.00  0.00     0.042 C 
ENDROOT
BRANCH   1   2
ATOM      2  C   UNL A   1      35.000  23.307  23.448  1.00  0.00     0.117 C 
BRANCH   2   3
ATOM      3  N   UNL A   1      34.825  24.671  23.876  1.00  0.00    -0.356 N 
ATOM      4  C   UNL A   1      33.704  25.259  24.376  1.00  0.00     0.226 C 
ATOM      5  O   UNL A   1      33.901  26.172  25.186  1.00  0.00    -0.274 OA
ATOM      6  H   UNL A   1      35.617  25.251  23.799  1.00  0.00     0.163 HD
BRANCH   4   7
ATOM      7  C   UNL A   1      32.260  24.829  23.984  1.00  0.00     0.050 C 
ATOM      8  C   UNL A   1      31.904  27.083  22.660  1.00  0.00    -0.010 C 
ATOM      9  C   UNL A   1      31.885  26.307  21.338  1.00  0.00     0.003 C 
ATOM     10  C   UNL A   1      31.449  26.185  23.829  1.00  0.00     0.020 C 
ATOM     11  C   UNL A   1      32.639  24.991  21.440  1.00  0.00     0.001 C 
ATOM     12  C   UNL A   1      32.124  24.143  22.603  1.00  0.00     0.017 C 
BRANCH   8  13
ATOM     13  C   UNL A   1      31.027  28.344  22.519  1.00  0.00     0.000 C 
ATOM     14  C   UNL A   1      29.929  28.452  23.566  1.00  0.00     0.004 C 
ENDBRANCH   8  13
BRANCH   7  15
ATOM     15  C   UNL A   1      31.513  24.081  25.158  1.00  0.00     0.026 C 
BRANCH  15  16
ATOM     16  C   UNL A   1      32.064  22.929  26.041  1.00  0.00     0.032 C 
ATOM     17  C   UNL A   1      33.142  23.378  27.050  1.00  0.00     0.083 C 
ATOM     18  C   UNL A   1      32.527  21.661  25.374  1.00  0.00    -0.030 A 
ATOM     19  S   UNL A   1      34.218  21.949  27.389  1.00  0.00    -0.125 SA
ATOM     20  C   UNL A   1      33.671  21.089  25.943  1.00  0.00     0.011 A 
ATOM     21  C   UNL A   1      31.905  21.022  24.304  1.00  0.00     0.005 A 
ATOM     22  C   UNL A   1      34.286  19.983  25.372  1.00  0.00     0.015 A 
ATOM     23  C   UNL A   1      32.509  19.902  23.729  1.00  0.00     0.000 A 
ATOM     24  C   UNL A   1      33.709  19.401  24.243  1.00  0.00     0.001 A 
ENDBRANCH  15  16
ENDBRANCH   7  15
ENDBRANCH   4   7
ENDBRANCH   2   3
ENDBRANCH   1   2
BRANCH   1  25
ATOM     25  C   UNL A   1      37.046  23.265  24.918  1.00  0.00     0.118 C 
BRANCH  25  26
ATOM     26  N   UNL A   1      38.171  22.449  25.385  1.00  0.00    -0.352 N 
ATOM     27  C   UNL A   1      39.279  22.739  26.147  1.00  0.00     0.251 C 
ATOM     28  H   UNL A   1      38.123  21.509  25.099  1.00  0.00     0.163 HD
ATOM     29  O   UNL A   1      40.151  21.884  26.288  1.00  0.00    -0.269 OA
BRANCH  27  30
ATOM     30  C   UNL A   1      39.454  24.069  26.764  1.00  0.00     0.039 A 
ATOM     31  C   UNL A   1      40.029  25.112  26.049  1.00  0.00     0.014 A 
ATOM     32  C   UNL A   1      39.049  24.279  28.087  1.00  0.00     0.014 A 
ATOM     33  C   UNL A   1      40.452  26.249  26.718  1.00  0.00     0.010 A 
ATOM     34  C   UNL A   1      39.334  25.495  28.718  1.00  0.00     0.010 A 
ATOM     35  C   UNL A   1      40.104  26.464  28.061  1.00  0.00    -0.014 A 
BRANCH  35  36
ATOM     36  C   UNL A   1      40.568  27.710  28.730  1.00  0.00     0.031 A 
ATOM     37  C   UNL A   1      42.026  27.915  29.053  1.00  0.00     0.074 A 
ATOM     38  C   UNL A   1      39.679  28.701  28.947  1.00  0.00     0.049 A 
ATOM     39  N   UNL A   1      42.604  28.963  29.584  1.00  0.00    -0.248 NA
ATOM     40  C   UNL A   1      42.956  26.813  28.754  1.00  0.00     0.031 C 
ATOM     41  C   UNL A   1      38.245  28.621  28.651  1.00  0.00     0.029 A 
ATOM     42  N   UNL A   1      39.848  29.983  29.406  1.00  0.00    -0.354 N 
ATOM     43  C   UNL A   1      43.950  28.636  29.708  1.00  0.00     0.074 A 
ATOM     44  C   UNL A   1      44.104  27.284  29.222  1.00  0.00     0.031 C 
ATOM     45  C   UNL A   1      37.691  29.828  28.827  1.00  0.00     0.029 A 
ATOM     46  C   UNL A   1      38.700  30.741  29.349  1.00  0.00     0.049 A 
ATOM     47  H   UNL A   1      40.706  30.328  29.743  1.00  0.00     0.167 HD
ATOM     48  C   UNL A   1      44.965  29.401  30.173  1.00  0.00     0.031 A 
ATOM     49  C   UNL A   1      38.471  32.026  29.686  1.00  0.00     0.031 A 
ATOM     50  C   UNL A   1      44.805  30.759  30.624  1.00  0.00     0.049 A 
ATOM     51  C   UNL A   1      39.606  32.843  30.223  1.00  0.00     0.074 A 
ATOM     52  C   UNL A   1      45.773  31.617  31.114  1.00  0.00     0.029 A 
ATOM     53  N   UNL A   1      43.609  31.462  30.625  1.00  0.00    -0.354 N 
ATOM     54  N   UNL A   1      40.865  32.502  30.362  1.00  0.00    -0.248 NA
ATOM     55  C   UNL A   1      39.298  34.209  30.662  1.00  0.00     0.031 C 
ATOM     56  C   UNL A   1      45.155  32.819  31.463  1.00  0.00     0.029 A 
ATOM     57  C   UNL A   1      43.812  32.736  31.126  1.00  0.00     0.049 A 
ATOM     58  H   UNL A   1      42.745  31.107  30.316  1.00  0.00     0.167 HD
ATOM     59  C   UNL A   1      41.500  33.610  30.904  1.00  0.00     0.074 A 
ATOM     60  C   UNL A   1      40.493  34.642  31.045  1.00  0.00     0.031 C 
ATOM     61  C   UNL A   1      42.799  33.752  31.263  1.00  0.00     0.031 A 
BRANCH  48  62
ATOM     62  C   UNL A   1      46.348  28.804  30.230  1.00  0.00    -0.014 A 
ATOM     63  C   UNL A   1      46.786  28.173  31.411  1.00  0.00     0.010 A 
ATOM     64  C   UNL A   1      47.255  28.966  29.168  1.00  0.00     0.010 A 
ATOM     65  C   UNL A   1      48.109  27.743  31.541  1.00  0.00     0.020 A 
ATOM     66  C   UNL A   1      48.573  28.512  29.283  1.00  0.00     0.020 A 
ATOM     67  C   UNL A   1      48.997  27.924  30.478  1.00  0.00     0.054 A 
BRANCH  67  68
ATOM     68  S   UNL A   1      50.718  27.379  30.670  1.00  0.00     0.124 S 
ATOM     69  O   UNL A   1      50.605  26.363  31.712  1.00  0.00    -0.237 OA
ATOM     70  O   UNL A   1      51.048  26.884  29.337  1.00  0.00    -0.237 OA
ATOM     71  O   UNL A   1      51.419  28.602  31.060  1.00  0.00    -0.744 OA
ENDBRANCH  67  68
ENDBRANCH  48  62
BRANCH  49  72
ATOM     72  C   UNL A   1      37.104  32.588  29.505  1.00  0.00    -0.014 A 
ATOM     73  C   UNL A   1      36.675  33.015  28.233  1.00  0.00     0.010 A 
ATOM     74  C   UNL A   1      36.270  32.807  30.614  1.00  0.00     0.010 A 
ATOM     75  C   UNL A   1      35.477  33.715  28.085  1.00  0.00     0.020 A 
ATOM     76  C   UNL A   1      35.052  33.479  30.464  1.00  0.00     0.020 A 
ATOM     77  C   UNL A   1      34.681  33.959  29.206  1.00  0.00     0.054 A 
BRANCH  77  78
ATOM     78  S   UNL A   1      33.162  34.931  29.003  1.00  0.00     0.124 S 
ATOM     79  O   UNL A   1      32.599  34.887  30.350  1.00  0.00    -0.237 OA
ATOM     80  O   UNL A   1      33.670  36.232  28.574  1.00  0.00    -0.237 OA
ATOM     81  O   UNL A   1      32.418  34.191  27.988  1.00  0.00    -0.744 OA
ENDBRANCH  77  78
ENDBRANCH  49  72
BRANCH  61  82
ATOM     82  C   UNL A   1      43.230  35.068  31.848  1.00  0.00    -0.014 A 
ATOM     83  C   UNL A   1      42.977  35.343  33.204  1.00  0.00     0.010 A 
ATOM     84  C   UNL A   1      43.754  36.082  31.026  1.00  0.00     0.010 A 
ATOM     85  C   UNL A   1      43.200  36.622  33.720  1.00  0.00     0.020 A 
ATOM     86  C   UNL A   1      44.004  37.354  31.546  1.00  0.00     0.020 A 
ATOM     87  C   UNL A   1      43.700  37.622  32.882  1.00  0.00     0.054 A 
BRANCH  87  88
ATOM     88  S   UNL A   1      43.941  39.288  33.558  1.00  0.00     0.124 S 
ATOM     89  O   UNL A   1      44.285  39.007  34.949  1.00  0.00    -0.237 OA
ATOM     90  O   UNL A   1      45.026  39.816  32.735  1.00  0.00    -0.237 OA
ATOM     91  O   UNL A   1      42.644  39.930  33.353  1.00  0.00    -0.744 OA
ENDBRANCH  87  88
ENDBRANCH  61  82
ENDBRANCH  35  36
ENDBRANCH  27  30
ENDBRANCH  25  26
ENDBRANCH   1  25
TORSDOF 16
ENDMDL
MODEL 2
REMARK VINA RESULT:     -11.1      1.273      3.039
REMARK SMILES CC[C@@H]1CCC[C@@](C[C@@H]2CSc3ccccc32)(C(=O)NCCCNC(=O)c2ccc(-c3c4nc(c(-c5ccc(S(=O)(=O)[O-])cc5)c5ccc([nH]5)c(-c5ccc(S(=O)(=O)[O-])cc5)c5nc(c(-c6ccc(S(=O)(=O)[O-])cc6)c6ccc3[nH]6)C=C5)C=C4)cc2)C1
REMARK SMILES IDX 22 1 21 2 20 3 18 4 19 5 7 7 3 8 4 9 87 10 5 11 6 12 2 13
REMARK SMILES IDX 1 14 8 15 9 16 10 17 17 18 11 19 12 20 16 21 13 22 15 23
REMARK SMILES IDX 14 24 23 25 24 26 25 27 26 29 27 30 28 31 86 32 29 33 85 34
REMARK SMILES IDX 30 35 31 36 32 37 79 38 33 39 84 40 78 41 80 42 34 43 83 44
REMARK SMILES IDX 77 45 76 46 35 48 65 49 46 50 64 51 47 52 50 53 63 54 81 55
REMARK SMILES IDX 48 56 49 57 62 59 82 60 51 61 36 62 37 63 45 64 38 65 44 66
REMARK SMILES IDX 39 67 40 68 41 69 42 70 43 71 66 72 67 73 75 74 68 75 74 76
REMARK SMILES IDX 69 77 70 78 71 79 72 80 73 81 52 82 53 83 61 84 54 85 60 86
REMARK SMILES IDX 55 87 56 88 57 89 58 90 59 91
REMARK H PARENT 20 6 24 28 80 47 50 58
REMARK Flexibility Score: inf
ROOT
ATOM      1  C   UNL A   1      36.504  22.718  23.987  1.00  0.00     0.042 C 
ENDROOT
BRANCH   1   2
ATOM      2  C   UNL A   1      35.314  22.083  24.669  1.00  0.00     0.117 C 
BRANCH   2   3
ATOM      3  N   UNL A   1      35.125  22.432  26.053  1.00  0.00    -0.356 N 
ATOM      4  C   UNL A   1      34.108  23.144  26.610  1.00  0.00     0.226 C 
ATOM      5  O   UNL A   1      33.822  22.837  27.773  1.00  0.00    -0.274 OA
ATOM      6  H   UNL A   1      35.819  22.115  26.676  1.00  0.00     0.163 HD
BRANCH   4   7
ATOM      7  C   UNL A   1      33.330  24.264  25.860  1.00  0.00     0.050 C 
ATOM      8  C   UNL A   1      31.996  22.462  24.469  1.00  0.00    -0.010 C 
ATOM      9  C   UNL A   1      30.706  22.845  25.204  1.00  0.00     0.003 C 
ATOM     10  C   UNL A   1      32.982  23.649  24.438  1.00  0.00     0.020 C 
ATOM     11  C   UNL A   1      30.989  23.453  26.568  1.00  0.00     0.001 C 
ATOM     12  C   UNL A   1      31.953  24.635  26.463  1.00  0.00     0.017 C 
BRANCH   8  13
ATOM     13  C   UNL A   1      31.642  21.963  23.053  1.00  0.00     0.000 C 
ATOM     14  C   UNL A   1      32.205  20.588  22.725  1.00  0.00     0.004 C 
ENDBRANCH   8  13
BRANCH   7  15
ATOM     15  C   UNL A   1      34.244  25.506  25.513  1.00  0.00     0.026 C 
BRANCH  15  16
ATOM     16  C   UNL A   1      33.794  26.977  25.311  1.00  0.00     0.032 C 
ATOM     17  C   UNL A   1      33.502  27.726  26.629  1.00  0.00     0.083 C 
ATOM     18  C   UNL A   1      32.685  27.271  24.335  1.00  0.00    -0.030 A 
ATOM     19  S   UNL A   1      32.281  29.028  26.272  1.00  0.00    -0.125 SA
ATOM     20  C   UNL A   1      31.800  28.274  24.747  1.00  0.00     0.011 A 
ATOM     21  C   UNL A   1      32.509  26.672  23.091  1.00  0.00     0.005 A 
ATOM     22  C   UNL A   1      30.663  28.579  24.011  1.00  0.00     0.015 A 
ATOM     23  C   UNL A   1      31.374  26.980  22.337  1.00  0.00     0.000 A 
ATOM     24  C   UNL A   1      30.441  27.909  22.807  1.00  0.00     0.001 A 
ENDBRANCH  15  16
ENDBRANCH   7  15
ENDBRANCH   4   7
ENDBRANCH   2   3
ENDBRANCH   1   2
BRANCH   1  25
ATOM     25  C   UNL A   1      37.397  23.470  24.964  1.00  0.00     0.118 C 
BRANCH  25  26
ATOM     26  N   UNL A   1      38.510  22.666  25.482  1.00  0.00    -0.352 N 
ATOM     27  C   UNL A   1      39.590  22.972  26.278  1.00  0.00     0.251 C 
ATOM     28  H   UNL A   1      38.476  21.721  25.209  1.00  0.00     0.163 HD
ATOM     29  O   UNL A   1      40.460  22.124  26.461  1.00  0.00    -0.269 OA
BRANCH  27  30
ATOM     30  C   UNL A   1      39.737  24.313  26.880  1.00  0.00     0.039 A 
ATOM     31  C   UNL A   1      40.333  25.348  26.170  1.00  0.00     0.014 A 
ATOM     32  C   UNL A   1      39.285  24.541  28.185  1.00  0.00     0.014 A 
ATOM     33  C   UNL A   1      40.727  26.496  26.836  1.00  0.00     0.010 A 
ATOM     34  C   UNL A   1      39.542  25.767  28.806  1.00  0.00     0.010 A 
ATOM     35  C   UNL A   1      40.331  26.730  28.163  1.00  0.00    -0.014 A 
BRANCH  35  36
ATOM     36  C   UNL A   1      40.766  27.987  28.828  1.00  0.00     0.031 A 
ATOM     37  C   UNL A   1      42.219  28.230  29.147  1.00  0.00     0.074 A 
ATOM     38  C   UNL A   1      39.853  28.957  29.047  1.00  0.00     0.049 A 
ATOM     39  N   UNL A   1      42.773  29.292  29.674  1.00  0.00    -0.248 NA
ATOM     40  C   UNL A   1      43.176  27.151  28.845  1.00  0.00     0.031 C 
ATOM     41  C   UNL A   1      38.421  28.841  28.756  1.00  0.00     0.029 A 
ATOM     42  N   UNL A   1      39.991  30.243  29.503  1.00  0.00    -0.354 N 
ATOM     43  C   UNL A   1      44.127  28.999  29.794  1.00  0.00     0.074 A 
ATOM     44  C   UNL A   1      44.313  27.651  29.309  1.00  0.00     0.031 C 
ATOM     45  C   UNL A   1      37.837  30.034  28.932  1.00  0.00     0.029 A 
ATOM     46  C   UNL A   1      38.825  30.972  29.450  1.00  0.00     0.049 A 
ATOM     47  H   UNL A   1      40.841  30.610  29.837  1.00  0.00     0.167 HD
ATOM     48  C   UNL A   1      45.124  29.790  30.255  1.00  0.00     0.031 A 
ATOM     49  C   UNL A   1      38.565  32.251  29.786  1.00  0.00     0.031 A 
ATOM     50  C   UNL A   1      44.932  31.144  30.705  1.00  0.00     0.049 A 
ATOM     51  C   UNL A   1      39.681  33.097  30.318  1.00  0.00     0.074 A 
ATOM     52  C   UNL A   1      45.880  32.026  31.191  1.00  0.00     0.029 A 
ATOM     53  N   UNL A   1      43.719  31.817  30.709  1.00  0.00    -0.354 N 
ATOM     54  N   UNL A   1      40.949  32.788  30.453  1.00  0.00    -0.248 NA
ATOM     55  C   UNL A   1      39.340  34.456  30.757  1.00  0.00     0.031 C 
ATOM     56  C   UNL A   1      45.233  33.213  31.540  1.00  0.00     0.029 A 
ATOM     57  C   UNL A   1      43.891  33.096  31.208  1.00  0.00     0.049 A 
ATOM     58  H   UNL A   1      42.862  31.440  30.403  1.00  0.00     0.167 HD
ATOM     59  C   UNL A   1      41.558  33.912  30.992  1.00  0.00     0.074 A 
ATOM     60  C   UNL A   1      40.526  34.919  31.135  1.00  0.00     0.031 C 
ATOM     61  C   UNL A   1      42.854  34.087  31.346  1.00  0.00     0.031 A 
BRANCH  48  62
ATOM     62  C   UNL A   1      46.521  29.227  30.309  1.00  0.00    -0.014 A 
ATOM     63  C   UNL A   1      47.407  29.458  29.239  1.00  0.00     0.010 A 
ATOM     64  C   UNL A   1      46.922  28.375  31.354  1.00  0.00     0.010 A 
ATOM     65  C   UNL A   1      48.653  28.826  29.196  1.00  0.00     0.020 A 
ATOM     66  C   UNL A   1      48.180  27.764  31.329  1.00  0.00     0.020 A 
ATOM     67  C   UNL A   1      49.028  27.975  30.238  1.00  0.00     0.054 A 
BRANCH  67  68
ATOM     68  S   UNL A   1      50.641  27.146  30.158  1.00  0.00     0.124 S 
ATOM     69  O   UNL A   1      51.533  28.154  30.722  1.00  0.00    -0.237 OA
ATOM     70  O   UNL A   1      50.431  25.956  30.977  1.00  0.00    -0.237 OA
ATOM     71  O   UNL A   1      50.815  26.883  28.730  1.00  0.00    -0.744 OA
ENDBRANCH  67  68
ENDBRANCH  48  62
BRANCH  49  72
ATOM     72  C   UNL A   1      37.184  32.779  29.608  1.00  0.00    -0.014 A 
ATOM     73  C   UNL A   1      36.699  33.082  28.321  1.00  0.00     0.010 A 
ATOM     74  C   UNL A   1      36.390  33.091  30.725  1.00  0.00     0.010 A 
ATOM     75  C   UNL A   1      35.486  33.752  28.157  1.00  0.00     0.020 A 
ATOM     76  C   UNL A   1      35.158  33.732  30.563  1.00  0.00     0.020 A 
ATOM     77  C   UNL A   1      34.731  34.090  29.281  1.00  0.00     0.054 A 
BRANCH  77  78
ATOM     78  S   UNL A   1      33.191  35.021  29.051  1.00  0.00     0.124 S 
ATOM     79  O   UNL A   1      32.528  34.246  28.006  1.00  0.00    -0.237 OA
ATOM     80  O   UNL A   1      32.575  34.954  30.374  1.00  0.00    -0.237 OA
ATOM     81  O   UNL A   1      33.653  36.347  28.649  1.00  0.00    -0.744 OA
ENDBRANCH  77  78
ENDBRANCH  49  72
BRANCH  61  82
ATOM     82  C   UNL A   1      43.254  35.414  31.929  1.00  0.00    -0.014 A 
ATOM     83  C   UNL A   1      42.986  35.690  33.282  1.00  0.00     0.010 A 
ATOM     84  C   UNL A   1      43.762  36.434  31.105  1.00  0.00     0.010 A 
ATOM     85  C   UNL A   1      43.179  36.975  33.793  1.00  0.00     0.020 A 
ATOM     86  C   UNL A   1      43.982  37.713  31.621  1.00  0.00     0.020 A 
ATOM     87  C   UNL A   1      43.664  37.982  32.955  1.00  0.00     0.054 A 
BRANCH  87  88
ATOM     88  S   UNL A   1      43.866  39.654  33.625  1.00  0.00     0.124 S 
ATOM     89  O   UNL A   1      42.593  40.279  33.279  1.00  0.00    -0.237 OA
ATOM     90  O   UNL A   1      44.080  39.408  35.049  1.00  0.00    -0.237 OA
ATOM     91  O   UNL A   1      45.030  40.171  32.908  1.00  0.00    -0.744 OA
ENDBRANCH  87  88
ENDBRANCH  61  82
ENDBRANCH  35  36
ENDBRANCH  27  30
ENDBRANCH  25  26
ENDBRANCH   1  25
TORSDOF 16
ENDMDL
MODEL 3
REMARK VINA RESULT:     -10.9      4.067      5.349
REMARK SMILES CC[C@@H]1CCC[C@@](C[C@@H]2CSc3ccccc32)(C(=O)NCCCNC(=O)c2ccc(-c3c4nc(c(-c5ccc(S(=O)(=O)[O-])cc5)c5ccc([nH]5)c(-c5ccc(S(=O)(=O)[O-])cc5)c5nc(c(-c6ccc(S(=O)(=O)[O-])cc6)c6ccc3[nH]6)C=C5)C=C4)cc2)C1
REMARK SMILES IDX 22 1 21 2 20 3 18 4 19 5 7 7 3 8 4 9 87 10 5 11 6 12 2 13
REMARK SMILES IDX 1 14 8 15 9 16 10 17 17 18 11 19 12 20 16 21 13 22 15 23
REMARK SMILES IDX 14 24 23 25 24 26 25 27 26 29 27 30 28 31 86 32 29 33 85 34
REMARK SMILES IDX 30 35 31 36 32 37 79 38 33 39 84 40 78 41 80 42 34 43 83 44
REMARK SMILES IDX 77 45 76 46 35 48 65 49 46 50 64 51 47 52 50 53 63 54 81 55
REMARK SMILES IDX 48 56 49 57 62 59 82 60 51 61 36 62 37 63 45 64 38 65 44 66
REMARK SMILES IDX 39 67 40 68 41 69 42 70 43 71 66 72 67 73 75 74 68 75 74 76
REMARK SMILES IDX 69 77 70 78 71 79 72 80 73 81 52 82 53 83 61 84 54 85 60 86
REMARK SMILES IDX 55 87 56 88 57 89 58 90 59 91
REMARK H PARENT 20 6 24 28 80 47 50 58
REMARK Flexibility Score: inf
ROOT
ATOM      1  C   UNL A   1      38.245  22.505  26.156  1.00  0.00     0.042 C 
ENDROOT
BRANCH   1   2
ATOM      2  C   UNL A   1      37.518  23.114  24.980  1.00  0.00     0.117 C 
BRANCH   2   3
ATOM      3  N   UNL A   1      36.342  22.412  24.538  1.00  0.00    -0.356 N 
ATOM      4  C   UNL A   1      35.045  22.819  24.598  1.00  0.00     0.226 C 
ATOM      5  O   UNL A   1      34.314  22.395  23.695  1.00  0.00    -0.274 OA
ATOM      6  H   UNL A   1      36.495  21.524  24.140  1.00  0.00     0.163 HD
BRANCH   4   7
ATOM      7  C   UNL A   1      34.490  23.762  25.705  1.00  0.00     0.050 C 
ATOM      8  C   UNL A   1      32.264  22.352  25.849  1.00  0.00    -0.010 C 
ATOM      9  C   UNL A   1      32.657  21.870  27.250  1.00  0.00     0.003 C 
ATOM     10  C   UNL A   1      32.912  23.718  25.538  1.00  0.00     0.020 C 
ATOM     11  C   UNL A   1      34.161  21.907  27.464  1.00  0.00     0.001 C 
ATOM     12  C   UNL A   1      34.734  23.292  27.160  1.00  0.00     0.017 C 
BRANCH   8  13
ATOM     13  C   UNL A   1      30.727  22.399  25.742  1.00  0.00     0.000 C 
ATOM     14  C   UNL A   1      30.037  22.924  26.992  1.00  0.00     0.004 C 
ENDBRANCH   8  13
BRANCH   7  15
ATOM     15  C   UNL A   1      34.850  25.278  25.443  1.00  0.00     0.026 C 
BRANCH  15  16
ATOM     16  C   UNL A   1      33.875  26.423  25.056  1.00  0.00     0.032 C 
ATOM     17  C   UNL A   1      32.866  26.784  26.168  1.00  0.00     0.083 C 
ATOM     18  C   UNL A   1      33.138  26.338  23.746  1.00  0.00    -0.030 A 
ATOM     19  S   UNL A   1      31.379  27.465  25.370  1.00  0.00    -0.125 SA
ATOM     20  C   UNL A   1      31.815  26.793  23.794  1.00  0.00     0.011 A 
ATOM     21  C   UNL A   1      33.667  25.899  22.535  1.00  0.00     0.005 A 
ATOM     22  C   UNL A   1      30.971  26.674  22.698  1.00  0.00     0.015 A 
ATOM     23  C   UNL A   1      32.830  25.786  21.423  1.00  0.00     0.000 A 
ATOM     24  C   UNL A   1      31.481  26.146  21.511  1.00  0.00     0.001 A 
ENDBRANCH  15  16
ENDBRANCH   7  15
ENDBRANCH   4   7
ENDBRANCH   2   3
ENDBRANCH   1   2
BRANCH   1  25
ATOM     25  C   UNL A   1      39.124  23.516  26.879  1.00  0.00     0.118 C 
BRANCH  25  26
ATOM     26  N   UNL A   1      40.005  24.276  25.985  1.00  0.00    -0.352 N 
ATOM     27  C   UNL A   1      40.682  25.464  26.134  1.00  0.00     0.251 C 
ATOM     28  H   UNL A   1      40.138  23.852  25.107  1.00  0.00     0.163 HD
ATOM     29  O   UNL A   1      41.258  25.952  25.164  1.00  0.00    -0.269 OA
BRANCH  27  30
ATOM     30  C   UNL A   1      40.695  26.178  27.426  1.00  0.00     0.039 A 
ATOM     31  C   UNL A   1      39.768  25.873  28.415  1.00  0.00     0.014 A 
ATOM     32  C   UNL A   1      41.643  27.182  27.655  1.00  0.00     0.014 A 
ATOM     33  C   UNL A   1      39.602  26.733  29.487  1.00  0.00     0.010 A 
ATOM     34  C   UNL A   1      41.575  27.951  28.822  1.00  0.00     0.010 A 
ATOM     35  C   UNL A   1      40.508  27.781  29.714  1.00  0.00    -0.014 A 
BRANCH  35  36
ATOM     36  C   UNL A   1      40.297  28.668  30.891  1.00  0.00     0.031 A 
ATOM     37  C   UNL A   1      41.253  28.647  32.056  1.00  0.00     0.074 A 
ATOM     38  C   UNL A   1      39.294  29.569  30.854  1.00  0.00     0.049 A 
ATOM     39  N   UNL A   1      41.245  29.391  33.132  1.00  0.00    -0.248 NA
ATOM     40  C   UNL A   1      42.355  27.669  32.020  1.00  0.00     0.031 C 
ATOM     41  C   UNL A   1      38.320  29.695  29.765  1.00  0.00     0.029 A 
ATOM     42  N   UNL A   1      38.957  30.584  31.713  1.00  0.00    -0.354 N 
ATOM     43  C   UNL A   1      42.312  28.954  33.909  1.00  0.00     0.074 A 
ATOM     44  C   UNL A   1      42.936  27.863  33.196  1.00  0.00     0.031 C 
ATOM     45  C   UNL A   1      37.575  30.790  29.964  1.00  0.00     0.029 A 
ATOM     46  C   UNL A   1      37.940  31.385  31.244  1.00  0.00     0.049 A 
ATOM     47  H   UNL A   1      39.400  30.727  32.580  1.00  0.00     0.167 HD
ATOM     48  C   UNL A   1      42.740  29.432  35.101  1.00  0.00     0.031 A 
ATOM     49  C   UNL A   1      37.353  32.473  31.780  1.00  0.00     0.031 A 
ATOM     50  C   UNL A   1      42.130  30.542  35.786  1.00  0.00     0.049 A 
ATOM     51  C   UNL A   1      37.827  32.964  33.114  1.00  0.00     0.074 A 
ATOM     52  C   UNL A   1      42.490  31.099  37.000  1.00  0.00     0.029 A 
ATOM     53  N   UNL A   1      41.050  31.273  35.314  1.00  0.00    -0.354 N 
ATOM     54  N   UNL A   1      38.818  32.515  33.845  1.00  0.00    -0.248 NA
ATOM     55  C   UNL A   1      37.103  34.096  33.705  1.00  0.00     0.031 C 
ATOM     56  C   UNL A   1      41.595  32.131  37.289  1.00  0.00     0.029 A 
ATOM     57  C   UNL A   1      40.719  32.264  36.222  1.00  0.00     0.049 A 
ATOM     58  H   UNL A   1      40.588  31.111  34.460  1.00  0.00     0.167 HD
ATOM     59  C   UNL A   1      38.839  33.308  34.984  1.00  0.00     0.074 A 
ATOM     60  C   UNL A   1      37.777  34.283  34.834  1.00  0.00     0.031 C 
ATOM     61  C   UNL A   1      39.658  33.225  36.060  1.00  0.00     0.031 A 
BRANCH  48  62
ATOM     62  C   UNL A   1      43.919  28.765  35.761  1.00  0.00    -0.014 A 
ATOM     63  C   UNL A   1      43.706  27.694  36.651  1.00  0.00     0.010 A 
ATOM     64  C   UNL A   1      45.223  29.266  35.598  1.00  0.00     0.010 A 
ATOM     65  C   UNL A   1      44.766  27.158  37.387  1.00  0.00     0.020 A 
ATOM     66  C   UNL A   1      46.291  28.712  36.311  1.00  0.00     0.020 A 
ATOM     67  C   UNL A   1      46.052  27.677  37.219  1.00  0.00     0.054 A 
BRANCH  67  68
ATOM     68  S   UNL A   1      47.414  26.982  38.197  1.00  0.00     0.124 S 
ATOM     69  O   UNL A   1      48.574  27.676  37.646  1.00  0.00    -0.237 OA
ATOM     70  O   UNL A   1      47.047  27.347  39.562  1.00  0.00    -0.237 OA
ATOM     71  O   UNL A   1      47.343  25.551  37.906  1.00  0.00    -0.744 OA
ENDBRANCH  67  68
ENDBRANCH  48  62
BRANCH  49  72
ATOM     72  C   UNL A   1      36.261  33.150  31.027  1.00  0.00    -0.014 A 
ATOM     73  C   UNL A   1      36.542  33.820  29.820  1.00  0.00     0.010 A 
ATOM     74  C   UNL A   1      34.965  33.230  31.564  1.00  0.00     0.010 A 
ATOM     75  C   UNL A   1      35.574  34.617  29.206  1.00  0.00     0.020 A 
ATOM     76  C   UNL A   1      33.982  34.000  30.933  1.00  0.00     0.020 A 
ATOM     77  C   UNL A   1      34.304  34.716  29.777  1.00  0.00     0.054 A 
BRANCH  77  78
ATOM     78  S   UNL A   1      33.082  35.810  29.003  1.00  0.00     0.124 S 
ATOM     79  O   UNL A   1      33.938  36.781  28.327  1.00  0.00    -0.237 OA
ATOM     80  O   UNL A   1      32.348  34.900  28.127  1.00  0.00    -0.237 OA
ATOM     81  O   UNL A   1      32.320  36.327  30.136  1.00  0.00    -0.744 OA
ENDBRANCH  77  78
ENDBRANCH  49  72
BRANCH  61  82
ATOM     82  C   UNL A   1      39.455  34.210  37.179  1.00  0.00    -0.014 A 
ATOM     83  C   UNL A   1      40.087  35.465  37.124  1.00  0.00     0.010 A 
ATOM     84  C   UNL A   1      38.760  33.838  38.343  1.00  0.00     0.010 A 
ATOM     85  C   UNL A   1      40.063  36.318  38.230  1.00  0.00     0.020 A 
ATOM     86  C   UNL A   1      38.711  34.701  39.441  1.00  0.00     0.020 A 
ATOM     87  C   UNL A   1      39.386  35.923  39.386  1.00  0.00     0.054 A 
BRANCH  87  88
ATOM     88  S   UNL A   1      39.403  37.023  40.828  1.00  0.00     0.124 S 
ATOM     89  O   UNL A   1      38.695  36.229  41.827  1.00  0.00    -0.237 OA
ATOM     90  O   UNL A   1      40.831  37.213  41.071  1.00  0.00    -0.237 OA
ATOM     91  O   UNL A   1      38.695  38.212  40.358  1.00  0.00    -0.744 OA
ENDBRANCH  87  88
ENDBRANCH  61  82
ENDBRANCH  35  36
ENDBRANCH  27  30
ENDBRANCH  25  26
ENDBRANCH   1  25
TORSDOF 16
ENDMDL
