MODEL 1
REMARK VINA RESULT:     -11.5      0.000      0.000
REMARK SMILES Cc1cc(F)c([C@](C)(NC=O)C(=O)NCCCNC(=O)c2ccc(-c3c4nc(c(-c5ccc(S(=O)(=O)[O-])cc5)c5ccc([nH]5)c(-c5ccc(S(=O)(=O)[O-])cc5)c5nc(c(-c6ccc(S(=O)(=O)[O-])cc6)c6ccc3[nH]6)C=C5)C=C4)cc2)cc1F
REMARK SMILES IDX 17 1 16 2 15 3 14 4 12 5 13 6 7 8 8 9 6 10 1 11 2 12 3 13
REMARK SMILES IDX 82 14 4 15 81 16 83 17 5 18 9 19 10 20 11 22 18 23 19 24
REMARK SMILES IDX 20 26 21 27 22 28 80 29 23 30 79 31 24 32 25 33 26 34 73 35
REMARK SMILES IDX 27 36 78 37 72 38 74 39 28 40 77 41 71 42 70 43 29 45 59 46
REMARK SMILES IDX 40 47 58 48 41 49 44 50 57 51 75 52 42 53 43 54 56 56 76 57
REMARK SMILES IDX 45 58 30 59 31 60 39 61 32 62 38 63 33 64 34 65 35 66 36 67
REMARK SMILES IDX 37 68 60 69 61 70 69 71 62 72 68 73 63 74 64 75 65 76 66 77
REMARK SMILES IDX 67 78 46 79 47 80 55 81 48 82 54 83 49 84 50 85 51 86 52 87
REMARK SMILES IDX 53 88
REMARK H PARENT 14 7 9 21 18 25 74 44 44 55
REMARK Flexibility Score: inf
ROOT
ATOM      1  C   UNL A   1      33.202  29.039  27.213  1.00  0.00     0.118 C 
ENDROOT
BRANCH   1   2
ATOM      2  C   UNL A   1      31.832  28.702  26.653  1.00  0.00     0.042 C 
BRANCH   2   3
ATOM      3  C   UNL A   1      31.583  29.294  25.280  1.00  0.00     0.117 C 
BRANCH   3   4
ATOM      4  N   UNL A   1      32.789  29.335  24.464  1.00  0.00    -0.354 N 
ATOM      5  C   UNL A   1      33.111  28.628  23.333  1.00  0.00     0.250 C 
ATOM      6  O   UNL A   1      34.124  28.992  22.728  1.00  0.00    -0.272 OA
ATOM      7  H   UNL A   1      33.478  29.967  24.770  1.00  0.00     0.163 HD
BRANCH   5   8
ATOM      8  C   UNL A   1      32.161  27.489  22.793  1.00  0.00     0.144 C 
ATOM      9  C   UNL A   1      30.727  28.008  22.555  1.00  0.00     0.051 C 
BRANCH   8  10
ATOM     10  C   UNL A   1      32.124  26.314  23.797  1.00  0.00     0.025 A 
ATOM     11  C   UNL A   1      32.180  23.709  27.255  1.00  0.00     0.047 C 
ATOM     12  C   UNL A   1      32.146  24.521  25.997  1.00  0.00    -0.012 A 
ATOM     13  C   UNL A   1      33.334  24.849  25.337  1.00  0.00     0.046 A 
ATOM     14  C   UNL A   1      30.947  25.009  25.483  1.00  0.00     0.126 A 
ATOM     15  C   UNL A   1      33.313  25.726  24.252  1.00  0.00     0.129 A 
ATOM     16  C   UNL A   1      30.924  25.864  24.381  1.00  0.00     0.049 A 
ATOM     17  F   UNL A   1      29.786  24.710  26.082  1.00  0.00    -0.207 F 
ATOM     18  F   UNL A   1      34.481  26.065  23.691  1.00  0.00    -0.207 F 
ENDBRANCH   8  10
BRANCH   8  19
ATOM     19  N   UNL A   1      32.751  27.042  21.512  1.00  0.00    -0.341 N 
ATOM     20  C   UNL A   1      32.429  25.893  20.855  1.00  0.00     0.338 C 
ATOM     21  H   UNL A   1      33.432  27.621  21.102  1.00  0.00     0.164 HD
ATOM     22  O   UNL A   1      33.064  25.493  19.887  1.00  0.00    -0.279 OA
ENDBRANCH   8  19
ENDBRANCH   5   8
ENDBRANCH   3   4
ENDBRANCH   2   3
ENDBRANCH   1   2
BRANCH   1  23
ATOM     23  N   UNL A   1      33.341  30.444  27.587  1.00  0.00    -0.352 N 
ATOM     24  C   UNL A   1      34.405  31.091  28.174  1.00  0.00     0.251 C 
ATOM     25  H   UNL A   1      32.559  31.010  27.391  1.00  0.00     0.163 HD
ATOM     26  O   UNL A   1      34.286  32.251  28.554  1.00  0.00    -0.269 OA
BRANCH  24  27
ATOM     27  C   UNL A   1      35.672  30.358  28.381  1.00  0.00     0.039 A 
ATOM     28  C   UNL A   1      35.907  29.690  29.582  1.00  0.00     0.014 A 
ATOM     29  C   UNL A   1      36.663  30.410  27.399  1.00  0.00     0.014 A 
ATOM     30  C   UNL A   1      37.197  29.288  29.897  1.00  0.00     0.010 A 
ATOM     31  C   UNL A   1      37.930  29.887  27.673  1.00  0.00     0.010 A 
ATOM     32  C   UNL A   1      38.229  29.385  28.950  1.00  0.00    -0.014 A 
BRANCH  32  33
ATOM     33  C   UNL A   1      39.608  28.972  29.324  1.00  0.00     0.031 A 
ATOM     34  C   UNL A   1      40.455  29.834  30.225  1.00  0.00     0.074 A 
ATOM     35  C   UNL A   1      40.074  27.780  28.899  1.00  0.00     0.049 A 
ATOM     36  N   UNL A   1      41.671  29.619  30.660  1.00  0.00    -0.248 NA
ATOM     37  C   UNL A   1      39.870  31.100  30.696  1.00  0.00     0.031 C 
ATOM     38  C   UNL A   1      39.333  26.842  28.054  1.00  0.00     0.029 A 
ATOM     39  N   UNL A   1      41.261  27.136  29.145  1.00  0.00    -0.354 N 
ATOM     40  C   UNL A   1      42.000  30.723  31.438  1.00  0.00     0.074 A 
ATOM     41  C   UNL A   1      40.876  31.629  31.381  1.00  0.00     0.031 C 
ATOM     42  C   UNL A   1      40.047  25.718  27.914  1.00  0.00     0.029 A 
ATOM     43  C   UNL A   1      41.335  25.885  28.579  1.00  0.00     0.049 A 
ATOM     44  H   UNL A   1      41.990  27.532  29.676  1.00  0.00     0.167 HD
ATOM     45  C   UNL A   1      43.129  30.950  32.152  1.00  0.00     0.031 A 
ATOM     46  C   UNL A   1      42.326  24.971  28.577  1.00  0.00     0.031 A 
ATOM     47  C   UNL A   1      44.238  30.032  32.214  1.00  0.00     0.049 A 
ATOM     48  C   UNL A   1      43.594  25.272  29.320  1.00  0.00     0.074 A 
ATOM     49  C   UNL A   1      45.424  30.169  32.916  1.00  0.00     0.029 A 
ATOM     50  N   UNL A   1      44.300  28.807  31.563  1.00  0.00    -0.354 N 
ATOM     51  N   UNL A   1      43.889  26.324  30.046  1.00  0.00    -0.248 NA
ATOM     52  C   UNL A   1      44.664  24.268  29.249  1.00  0.00     0.031 C 
ATOM     53  C   UNL A   1      46.232  29.068  32.626  1.00  0.00     0.029 A 
ATOM     54  C   UNL A   1      45.516  28.195  31.820  1.00  0.00     0.049 A 
ATOM     55  H   UNL A   1      43.586  28.429  31.002  1.00  0.00     0.167 HD
ATOM     56  C   UNL A   1      45.170  26.102  30.535  1.00  0.00     0.074 A 
ATOM     57  C   UNL A   1      45.586  24.806  30.039  1.00  0.00     0.031 C 
ATOM     58  C   UNL A   1      45.928  26.903  31.324  1.00  0.00     0.031 A 
BRANCH  45  59
ATOM     59  C   UNL A   1      43.240  32.240  32.931  1.00  0.00    -0.014 A 
ATOM     60  C   UNL A   1      42.740  32.310  34.246  1.00  0.00     0.010 A 
ATOM     61  C   UNL A   1      43.739  33.412  32.333  1.00  0.00     0.010 A 
ATOM     62  C   UNL A   1      42.708  33.526  34.934  1.00  0.00     0.020 A 
ATOM     63  C   UNL A   1      43.742  34.625  33.032  1.00  0.00     0.020 A 
ATOM     64  C   UNL A   1      43.204  34.678  34.319  1.00  0.00     0.054 A 
BRANCH  64  65
ATOM     65  S   UNL A   1      43.140  36.250  35.224  1.00  0.00     0.124 S 
ATOM     66  O   UNL A   1      44.268  36.980  34.656  1.00  0.00    -0.237 OA
ATOM     67  O   UNL A   1      41.817  36.763  34.878  1.00  0.00    -0.237 OA
ATOM     68  O   UNL A   1      43.295  35.847  36.621  1.00  0.00    -0.744 OA
ENDBRANCH  64  65
ENDBRANCH  45  59
BRANCH  46  69
ATOM     69  C   UNL A   1      42.108  23.679  27.867  1.00  0.00    -0.014 A 
ATOM     70  C   UNL A   1      41.461  22.609  28.517  1.00  0.00     0.010 A 
ATOM     71  C   UNL A   1      42.659  23.469  26.592  1.00  0.00     0.010 A 
ATOM     72  C   UNL A   1      41.447  21.336  27.944  1.00  0.00     0.020 A 
ATOM     73  C   UNL A   1      42.612  22.203  25.998  1.00  0.00     0.020 A 
ATOM     74  C   UNL A   1      42.042  21.137  26.696  1.00  0.00     0.054 A 
BRANCH  74  75
ATOM     75  S   UNL A   1      42.098  19.455  26.021  1.00  0.00     0.124 S 
ATOM     76  O   UNL A   1      42.615  18.694  27.156  1.00  0.00    -0.237 OA
ATOM     77  O   UNL A   1      40.701  19.202  25.679  1.00  0.00    -0.237 OA
ATOM     78  O   UNL A   1      43.005  19.572  24.882  1.00  0.00    -0.744 OA
ENDBRANCH  74  75
ENDBRANCH  46  69
BRANCH  58  79
ATOM     79  C   UNL A   1      47.301  26.423  31.723  1.00  0.00    -0.014 A 
ATOM     80  C   UNL A   1      48.379  26.582  30.831  1.00  0.00     0.010 A 
ATOM     81  C   UNL A   1      47.495  25.689  32.905  1.00  0.00     0.010 A 
ATOM     82  C   UNL A   1      49.609  25.972  31.086  1.00  0.00     0.020 A 
ATOM     83  C   UNL A   1      48.737  25.107  33.183  1.00  0.00     0.020 A 
ATOM     84  C   UNL A   1      49.775  25.226  32.256  1.00  0.00     0.054 A 
BRANCH  84  85
ATOM     85  S   UNL A   1      51.361  24.393  32.541  1.00  0.00     0.124 S 
ATOM     86  O   UNL A   1      51.559  24.592  33.974  1.00  0.00    -0.237 OA
ATOM     87  O   UNL A   1      51.080  23.020  32.128  1.00  0.00    -0.237 OA
ATOM     88  O   UNL A   1      52.290  25.118  31.677  1.00  0.00    -0.744 OA
ENDBRANCH  84  85
ENDBRANCH  58  79
ENDBRANCH  32  33
ENDBRANCH  24  27
ENDBRANCH   1  23
TORSDOF 15
ENDMDL
MODEL 2
REMARK VINA RESULT:     -11.2      1.381      2.376
REMARK SMILES Cc1cc(F)c([C@](C)(NC=O)C(=O)NCCCNC(=O)c2ccc(-c3c4nc(c(-c5ccc(S(=O)(=O)[O-])cc5)c5ccc([nH]5)c(-c5ccc(S(=O)(=O)[O-])cc5)c5nc(c(-c6ccc(S(=O)(=O)[O-])cc6)c6ccc3[nH]6)C=C5)C=C4)cc2)cc1F
REMARK SMILES IDX 17 1 16 2 15 3 14 4 12 5 13 6 7 8 8 9 6 10 1 11 2 12 3 13
REMARK SMILES IDX 82 14 4 15 81 16 83 17 5 18 9 19 10 20 11 22 18 23 19 24
REMARK SMILES IDX 20 26 21 27 22 28 80 29 23 30 79 31 24 32 25 33 26 34 73 35
REMARK SMILES IDX 27 36 78 37 72 38 74 39 28 40 77 41 71 42 70 43 29 45 59 46
REMARK SMILES IDX 40 47 58 48 41 49 44 50 57 51 75 52 42 53 43 54 56 56 76 57
REMARK SMILES IDX 45 58 30 59 31 60 39 61 32 62 38 63 33 64 34 65 35 66 36 67
REMARK SMILES IDX 37 68 60 69 61 70 69 71 62 72 68 73 63 74 64 75 65 76 66 77
REMARK SMILES IDX 67 78 46 79 47 80 55 81 48 82 54 83 49 84 50 85 51 86 52 87
REMARK SMILES IDX 53 88
REMARK H PARENT 14 7 9 21 18 25 74 44 44 55
REMARK Flexibility Score: inf
ROOT
ATOM      1  C   UNL A   1      33.182  28.954  27.167  1.00  0.00     0.118 C 
ENDROOT
BRANCH   1   2
ATOM      2  C   UNL A   1      31.740  28.481  27.206  1.00  0.00     0.042 C 
BRANCH   2   3
ATOM      3  C   UNL A   1      31.461  27.328  26.264  1.00  0.00     0.117 C 
BRANCH   3   4
ATOM      4  N   UNL A   1      32.645  26.915  25.522  1.00  0.00    -0.354 N 
ATOM      5  C   UNL A   1      32.754  26.381  24.263  1.00  0.00     0.250 C 
ATOM      6  O   UNL A   1      33.895  26.296  23.800  1.00  0.00    -0.272 OA
ATOM      7  H   UNL A   1      33.498  27.039  25.997  1.00  0.00     0.163 HD
BRANCH   5   8
ATOM      8  C   UNL A   1      31.467  26.009  23.428  1.00  0.00     0.144 C 
ATOM      9  C   UNL A   1      31.834  25.444  22.040  1.00  0.00     0.051 C 
BRANCH   8  10
ATOM     10  C   UNL A   1      30.572  27.257  23.257  1.00  0.00     0.025 A 
ATOM     11  C   UNL A   1      27.966  30.431  21.884  1.00  0.00     0.047 C 
ATOM     12  C   UNL A   1      28.871  29.385  22.456  1.00  0.00    -0.012 A 
ATOM     13  C   UNL A   1      30.255  29.479  22.284  1.00  0.00     0.046 A 
ATOM     14  C   UNL A   1      28.362  28.273  23.123  1.00  0.00     0.126 A 
ATOM     15  C   UNL A   1      31.085  28.431  22.687  1.00  0.00     0.129 A 
ATOM     16  C   UNL A   1      29.194  27.239  23.551  1.00  0.00     0.049 A 
ATOM     17  F   UNL A   1      27.041  28.150  23.316  1.00  0.00    -0.207 F 
ATOM     18  F   UNL A   1      32.398  28.535  22.443  1.00  0.00    -0.207 F 
ENDBRANCH   8  10
BRANCH   8  19
ATOM     19  N   UNL A   1      30.756  24.979  24.216  1.00  0.00    -0.341 N 
ATOM     20  C   UNL A   1      31.325  23.864  24.752  1.00  0.00     0.338 C 
ATOM     21  H   UNL A   1      29.792  25.110  24.365  1.00  0.00     0.164 HD
ATOM     22  O   UNL A   1      30.660  22.966  25.252  1.00  0.00    -0.279 OA
ENDBRANCH   8  19
ENDBRANCH   5   8
ENDBRANCH   3   4
ENDBRANCH   2   3
ENDBRANCH   1   2
BRANCH   1  23
ATOM     23  N   UNL A   1      33.334  30.366  27.503  1.00  0.00    -0.352 N 
ATOM     24  C   UNL A   1      34.404  31.017  28.076  1.00  0.00     0.251 C 
ATOM     25  H   UNL A   1      32.559  30.935  27.291  1.00  0.00     0.163 HD
ATOM     26  O   UNL A   1      34.296  32.189  28.425  1.00  0.00    -0.269 OA
BRANCH  24  27
ATOM     27  C   UNL A   1      35.663  30.278  28.305  1.00  0.00     0.039 A 
ATOM     28  C   UNL A   1      35.902  29.666  29.536  1.00  0.00     0.014 A 
ATOM     29  C   UNL A   1      36.645  30.268  27.312  1.00  0.00     0.014 A 
ATOM     30  C   UNL A   1      37.190  29.261  29.857  1.00  0.00     0.010 A 
ATOM     31  C   UNL A   1      37.907  29.742  27.599  1.00  0.00     0.010 A 
ATOM     32  C   UNL A   1      38.212  29.298  28.896  1.00  0.00    -0.014 A 
BRANCH  32  33
ATOM     33  C   UNL A   1      39.590  28.884  29.276  1.00  0.00     0.031 A 
ATOM     34  C   UNL A   1      40.433  29.746  30.180  1.00  0.00     0.074 A 
ATOM     35  C   UNL A   1      40.057  27.692  28.853  1.00  0.00     0.049 A 
ATOM     36  N   UNL A   1      41.648  29.530  30.620  1.00  0.00    -0.248 NA
ATOM     37  C   UNL A   1      39.847  31.012  30.648  1.00  0.00     0.031 C 
ATOM     38  C   UNL A   1      39.318  26.754  28.005  1.00  0.00     0.029 A 
ATOM     39  N   UNL A   1      41.242  27.047  29.105  1.00  0.00    -0.354 N 
ATOM     40  C   UNL A   1      41.974  30.634  31.400  1.00  0.00     0.074 A 
ATOM     41  C   UNL A   1      40.851  31.541  31.337  1.00  0.00     0.031 C 
ATOM     42  C   UNL A   1      40.032  25.629  27.869  1.00  0.00     0.029 A 
ATOM     43  C   UNL A   1      41.318  25.796  28.539  1.00  0.00     0.049 A 
ATOM     44  H   UNL A   1      41.969  27.442  29.638  1.00  0.00     0.167 HD
ATOM     45  C   UNL A   1      43.100  30.861  32.118  1.00  0.00     0.031 A 
ATOM     46  C   UNL A   1      42.308  24.881  28.542  1.00  0.00     0.031 A 
ATOM     47  C   UNL A   1      44.208  29.941  32.186  1.00  0.00     0.049 A 
ATOM     48  C   UNL A   1      43.574  25.181  29.290  1.00  0.00     0.074 A 
ATOM     49  C   UNL A   1      45.391  30.078  32.892  1.00  0.00     0.029 A 
ATOM     50  N   UNL A   1      44.272  28.717  31.535  1.00  0.00    -0.354 N 
ATOM     51  N   UNL A   1      43.866  26.234  30.016  1.00  0.00    -0.248 NA
ATOM     52  C   UNL A   1      44.643  24.177  29.224  1.00  0.00     0.031 C 
ATOM     53  C   UNL A   1      46.199  28.977  32.606  1.00  0.00     0.029 A 
ATOM     54  C   UNL A   1      45.487  28.104  31.798  1.00  0.00     0.049 A 
ATOM     55  H   UNL A   1      43.560  28.339  30.970  1.00  0.00     0.167 HD
ATOM     56  C   UNL A   1      45.144  26.011  30.511  1.00  0.00     0.074 A 
ATOM     57  C   UNL A   1      45.562  24.714  30.017  1.00  0.00     0.031 C 
ATOM     58  C   UNL A   1      45.899  26.811  31.303  1.00  0.00     0.031 A 
BRANCH  45  59
ATOM     59  C   UNL A   1      43.209  32.150  32.897  1.00  0.00    -0.014 A 
ATOM     60  C   UNL A   1      43.816  33.276  32.308  1.00  0.00     0.010 A 
ATOM     61  C   UNL A   1      42.811  32.224  34.246  1.00  0.00     0.010 A 
ATOM     62  C   UNL A   1      44.051  34.434  33.054  1.00  0.00     0.020 A 
ATOM     63  C   UNL A   1      43.011  33.394  34.986  1.00  0.00     0.020 A 
ATOM     64  C   UNL A   1      43.652  34.484  34.392  1.00  0.00     0.054 A 
BRANCH  64  65
ATOM     65  S   UNL A   1      43.978  35.991  35.348  1.00  0.00     0.124 S 
ATOM     66  O   UNL A   1      42.768  36.115  36.154  1.00  0.00    -0.237 OA
ATOM     67  O   UNL A   1      45.193  35.646  36.082  1.00  0.00    -0.237 OA
ATOM     68  O   UNL A   1      44.153  37.016  34.321  1.00  0.00    -0.744 OA
ENDBRANCH  64  65
ENDBRANCH  45  59
BRANCH  46  69
ATOM     69  C   UNL A   1      42.093  23.589  27.831  1.00  0.00    -0.014 A 
ATOM     70  C   UNL A   1      41.475  22.507  28.490  1.00  0.00     0.010 A 
ATOM     71  C   UNL A   1      42.618  23.392  26.543  1.00  0.00     0.010 A 
ATOM     72  C   UNL A   1      41.466  21.236  27.912  1.00  0.00     0.020 A 
ATOM     73  C   UNL A   1      42.575  22.128  25.944  1.00  0.00     0.020 A 
ATOM     74  C   UNL A   1      42.035  21.051  26.650  1.00  0.00     0.054 A 
BRANCH  74  75
ATOM     75  S   UNL A   1      42.100  19.373  25.967  1.00  0.00     0.124 S 
ATOM     76  O   UNL A   1      40.699  19.134  25.627  1.00  0.00    -0.237 OA
ATOM     77  O   UNL A   1      43.005  19.525  24.833  1.00  0.00    -0.237 OA
ATOM     78  O   UNL A   1      42.618  18.572  27.073  1.00  0.00    -0.744 OA
ENDBRANCH  74  75
ENDBRANCH  46  69
BRANCH  58  79
ATOM     79  C   UNL A   1      47.271  26.331  31.708  1.00  0.00    -0.014 A 
ATOM     80  C   UNL A   1      48.348  26.468  30.811  1.00  0.00     0.010 A 
ATOM     81  C   UNL A   1      47.463  25.616  32.903  1.00  0.00     0.010 A 
ATOM     82  C   UNL A   1      49.575  25.855  31.075  1.00  0.00     0.020 A 
ATOM     83  C   UNL A   1      48.702  25.033  33.189  1.00  0.00     0.020 A 
ATOM     84  C   UNL A   1      49.739  25.129  32.258  1.00  0.00     0.054 A 
BRANCH  84  85
ATOM     85  S   UNL A   1      51.321  24.292  32.554  1.00  0.00     0.124 S 
ATOM     86  O   UNL A   1      51.030  22.926  32.129  1.00  0.00    -0.237 OA
ATOM     87  O   UNL A   1      52.242  25.036  31.698  1.00  0.00    -0.237 OA
ATOM     88  O   UNL A   1      51.538  24.465  33.989  1.00  0.00    -0.744 OA
ENDBRANCH  84  85
ENDBRANCH  58  79
ENDBRANCH  32  33
ENDBRANCH  24  27
ENDBRANCH   1  23
TORSDOF 15
ENDMDL
MODEL 3
REMARK VINA RESULT:     -11.1      1.233      8.396
REMARK SMILES Cc1cc(F)c([C@](C)(NC=O)C(=O)NCCCNC(=O)c2ccc(-c3c4nc(c(-c5ccc(S(=O)(=O)[O-])cc5)c5ccc([nH]5)c(-c5ccc(S(=O)(=O)[O-])cc5)c5nc(c(-c6ccc(S(=O)(=O)[O-])cc6)c6ccc3[nH]6)C=C5)C=C4)cc2)cc1F
REMARK SMILES IDX 17 1 16 2 15 3 14 4 12 5 13 6 7 8 8 9 6 10 1 11 2 12 3 13
REMARK SMILES IDX 82 14 4 15 81 16 83 17 5 18 9 19 10 20 11 22 18 23 19 24
REMARK SMILES IDX 20 26 21 27 22 28 80 29 23 30 79 31 24 32 25 33 26 34 73 35
REMARK SMILES IDX 27 36 78 37 72 38 74 39 28 40 77 41 71 42 70 43 29 45 59 46
REMARK SMILES IDX 40 47 58 48 41 49 44 50 57 51 75 52 42 53 43 54 56 56 76 57
REMARK SMILES IDX 45 58 30 59 31 60 39 61 32 62 38 63 33 64 34 65 35 66 36 67
REMARK SMILES IDX 37 68 60 69 61 70 69 71 62 72 68 73 63 74 64 75 65 76 66 77
REMARK SMILES IDX 67 78 46 79 47 80 55 81 48 82 54 83 49 84 50 85 51 86 52 87
REMARK SMILES IDX 53 88
REMARK H PARENT 14 7 9 21 18 25 74 44 44 55
REMARK Flexibility Score: inf
ROOT
ATOM      1  C   UNL A   1      33.593  28.758  27.260  1.00  0.00     0.118 C 
ENDROOT
BRANCH   1   2
ATOM      2  C   UNL A   1      32.180  28.305  26.941  1.00  0.00     0.042 C 
BRANCH   2   3
ATOM      3  C   UNL A   1      31.725  28.692  25.549  1.00  0.00     0.117 C 
BRANCH   3   4
ATOM      4  N   UNL A   1      32.841  28.926  24.643  1.00  0.00    -0.354 N 
ATOM      5  C   UNL A   1      33.121  28.359  23.426  1.00  0.00     0.250 C 
ATOM      6  O   UNL A   1      34.036  28.874  22.776  1.00  0.00    -0.272 OA
ATOM      7  H   UNL A   1      33.494  29.595  24.950  1.00  0.00     0.163 HD
BRANCH   5   8
ATOM      8  C   UNL A   1      32.234  27.182  22.858  1.00  0.00     0.144 C 
ATOM      9  C   UNL A   1      30.787  27.641  22.585  1.00  0.00     0.051 C 
BRANCH   8  10
ATOM     10  C   UNL A   1      32.222  26.003  23.858  1.00  0.00     0.025 A 
ATOM     11  C   UNL A   1      32.350  23.386  27.305  1.00  0.00     0.047 C 
ATOM     12  C   UNL A   1      32.291  24.201  26.051  1.00  0.00    -0.012 A 
ATOM     13  C   UNL A   1      33.466  24.541  25.374  1.00  0.00     0.046 A 
ATOM     14  C   UNL A   1      31.080  24.683  25.558  1.00  0.00     0.126 A 
ATOM     15  C   UNL A   1      33.422  25.422  24.293  1.00  0.00     0.129 A 
ATOM     16  C   UNL A   1      31.034  25.542  24.460  1.00  0.00     0.049 A 
ATOM     17  F   UNL A   1      29.931  24.373  26.173  1.00  0.00    -0.207 F 
ATOM     18  F   UNL A   1      34.579  25.772  23.715  1.00  0.00    -0.207 F 
ENDBRANCH   8  10
BRANCH   8  19
ATOM     19  N   UNL A   1      32.875  26.765  21.592  1.00  0.00    -0.341 N 
ATOM     20  C   UNL A   1      32.382  25.834  20.729  1.00  0.00     0.338 C 
ATOM     21  H   UNL A   1      33.728  27.194  21.355  1.00  0.00     0.164 HD
ATOM     22  O   UNL A   1      33.033  25.410  19.782  1.00  0.00    -0.279 OA
ENDBRANCH   8  19
ENDBRANCH   5   8
ENDBRANCH   3   4
ENDBRANCH   2   3
ENDBRANCH   1   2
BRANCH   1  23
ATOM     23  N   UNL A   1      33.657  30.122  27.778  1.00  0.00    -0.352 N 
ATOM     24  C   UNL A   1      34.694  30.767  28.413  1.00  0.00     0.251 C 
ATOM     25  H   UNL A   1      32.839  30.657  27.656  1.00  0.00     0.163 HD
ATOM     26  O   UNL A   1      34.515  31.872  28.917  1.00  0.00    -0.269 OA
BRANCH  24  27
ATOM     27  C   UNL A   1      36.006  30.097  28.521  1.00  0.00     0.039 A 
ATOM     28  C   UNL A   1      36.386  29.487  29.717  1.00  0.00     0.014 A 
ATOM     29  C   UNL A   1      36.895  30.149  27.445  1.00  0.00     0.014 A 
ATOM     30  C   UNL A   1      37.717  29.151  29.918  1.00  0.00     0.010 A 
ATOM     31  C   UNL A   1      38.204  29.690  27.612  1.00  0.00     0.010 A 
ATOM     32  C   UNL A   1      38.647  29.252  28.871  1.00  0.00    -0.014 A 
BRANCH  32  33
ATOM     33  C   UNL A   1      40.073  28.912  29.122  1.00  0.00     0.031 A 
ATOM     34  C   UNL A   1      40.628  27.568  28.726  1.00  0.00     0.074 A 
ATOM     35  C   UNL A   1      40.887  29.847  29.653  1.00  0.00     0.049 A 
ATOM     36  N   UNL A   1      41.848  27.112  28.861  1.00  0.00    -0.248 NA
ATOM     37  C   UNL A   1      39.700  26.608  28.105  1.00  0.00     0.031 C 
ATOM     38  C   UNL A   1      40.473  31.197  30.042  1.00  0.00     0.029 A 
ATOM     39  N   UNL A   1      42.232  29.823  29.924  1.00  0.00    -0.354 N 
ATOM     40  C   UNL A   1      41.830  25.815  28.358  1.00  0.00     0.074 A 
ATOM     41  C   UNL A   1      40.470  25.538  27.958  1.00  0.00     0.031 C 
ATOM     42  C   UNL A   1      41.551  31.892  30.429  1.00  0.00     0.029 A 
ATOM     43  C   UNL A   1      42.718  31.016  30.406  1.00  0.00     0.049 A 
ATOM     44  H   UNL A   1      42.797  29.028  29.786  1.00  0.00     0.167 HD
ATOM     45  C   UNL A   1      42.859  24.944  28.224  1.00  0.00     0.031 A 
ATOM     46  C   UNL A   1      43.956  31.373  30.801  1.00  0.00     0.031 A 
ATOM     47  C   UNL A   1      44.216  25.238  28.613  1.00  0.00     0.049 A 
ATOM     48  C   UNL A   1      45.068  30.371  30.706  1.00  0.00     0.074 A 
ATOM     49  C   UNL A   1      45.330  24.423  28.512  1.00  0.00     0.029 A 
ATOM     50  N   UNL A   1      44.647  26.436  29.168  1.00  0.00    -0.354 N 
ATOM     51  N   UNL A   1      45.030  29.148  30.233  1.00  0.00    -0.248 NA
ATOM     52  C   UNL A   1      46.388  30.789  31.193  1.00  0.00     0.031 C 
ATOM     53  C   UNL A   1      46.415  25.096  29.075  1.00  0.00     0.029 A 
ATOM     54  C   UNL A   1      46.003  26.368  29.443  1.00  0.00     0.049 A 
ATOM     55  H   UNL A   1      44.075  27.217  29.340  1.00  0.00     0.167 HD
ATOM     56  C   UNL A   1      46.324  28.656  30.347  1.00  0.00     0.074 A 
ATOM     57  C   UNL A   1      47.126  29.721  30.916  1.00  0.00     0.031 C 
ATOM     58  C   UNL A   1      46.799  27.432  30.010  1.00  0.00     0.031 A 
BRANCH  45  59
ATOM     59  C   UNL A   1      42.577  23.583  27.634  1.00  0.00    -0.014 A 
ATOM     60  C   UNL A   1      42.210  22.516  28.478  1.00  0.00     0.010 A 
ATOM     61  C   UNL A   1      42.777  23.326  26.265  1.00  0.00     0.010 A 
ATOM     62  C   UNL A   1      42.078  21.220  27.973  1.00  0.00     0.020 A 
ATOM     63  C   UNL A   1      42.610  22.036  25.749  1.00  0.00     0.020 A 
ATOM     64  C   UNL A   1      42.285  20.986  26.611  1.00  0.00     0.054 A 
BRANCH  64  65
ATOM     65  S   UNL A   1      42.123  19.293  25.979  1.00  0.00     0.124 S 
ATOM     66  O   UNL A   1      42.628  18.497  27.093  1.00  0.00    -0.237 OA
ATOM     67  O   UNL A   1      40.689  19.184  25.724  1.00  0.00    -0.237 OA
ATOM     68  O   UNL A   1      42.960  19.294  24.781  1.00  0.00    -0.744 OA
ENDBRANCH  64  65
ENDBRANCH  45  59
BRANCH  46  69
ATOM     69  C   UNL A   1      44.181  32.766  31.282  1.00  0.00    -0.014 A 
ATOM     70  C   UNL A   1      43.964  33.096  32.635  1.00  0.00     0.010 A 
ATOM     71  C   UNL A   1      44.485  33.791  30.371  1.00  0.00     0.010 A 
ATOM     72  C   UNL A   1      43.960  34.430  33.048  1.00  0.00     0.020 A 
ATOM     73  C   UNL A   1      44.520  35.126  30.790  1.00  0.00     0.020 A 
ATOM     74  C   UNL A   1      44.219  35.438  32.116  1.00  0.00     0.054 A 
BRANCH  74  75
ATOM     75  S   UNL A   1      44.108  37.166  32.657  1.00  0.00     0.124 S 
ATOM     76  O   UNL A   1      42.990  37.114  33.596  1.00  0.00    -0.237 OA
ATOM     77  O   UNL A   1      45.420  37.396  33.254  1.00  0.00    -0.237 OA
ATOM     78  O   UNL A   1      43.851  37.897  31.420  1.00  0.00    -0.744 OA
ENDBRANCH  74  75
ENDBRANCH  46  69
BRANCH  58  79
ATOM     79  C   UNL A   1      48.263  27.145  30.233  1.00  0.00    -0.014 A 
ATOM     80  C   UNL A   1      48.693  26.653  31.480  1.00  0.00     0.010 A 
ATOM     81  C   UNL A   1      49.225  27.499  29.271  1.00  0.00     0.010 A 
ATOM     82  C   UNL A   1      50.054  26.570  31.782  1.00  0.00     0.020 A 
ATOM     83  C   UNL A   1      50.589  27.383  29.555  1.00  0.00     0.020 A 
ATOM     84  C   UNL A   1      50.994  26.949  30.820  1.00  0.00     0.054 A 
BRANCH  84  85
ATOM     85  S   UNL A   1      52.755  26.890  31.251  1.00  0.00     0.124 S 
ATOM     86  O   UNL A   1      52.872  27.983  32.213  1.00  0.00    -0.237 OA
ATOM     87  O   UNL A   1      52.904  25.546  31.803  1.00  0.00    -0.237 OA
ATOM     88  O   UNL A   1      53.429  27.109  29.974  1.00  0.00    -0.744 OA
ENDBRANCH  84  85
ENDBRANCH  58  79
ENDBRANCH  32  33
ENDBRANCH  24  27
ENDBRANCH   1  23
TORSDOF 15
ENDMDL
