MODEL 1
REMARK VINA RESULT:     -13.6      0.000      0.000
REMARK SMILES Cc1ccccc1C(=O)Nc1ccc(OCC(=O)NCCCNC(=O)c2ccc(-c3c4nc(c(-c5ccc(S(=O)(=O)[O-])cc5)c5ccc([nH]5)c(-c5ccc(S(=O)(=O)[O-])cc5)c5nc(c(-c6ccc(S(=O)(=O)[O-])cc6)c6ccc3[nH]6)C=C5)C=C4)cc2)c(-c2nc3ccccc3s2)c1
REMARK SMILES IDX 20 1 19 2 17 3 18 4 16 6 15 7 14 8 11 9 12 10 96 11 13 12
REMARK SMILES IDX 86 13 10 14 8 15 9 16 7 18 1 19 2 20 3 21 4 22 6 23 5 24
REMARK SMILES IDX 87 25 88 26 95 27 89 28 94 29 90 30 93 31 91 32 92 33 21 34
REMARK SMILES IDX 22 35 23 36 24 37 25 39 26 40 27 41 85 42 28 43 84 44 29 45
REMARK SMILES IDX 30 46 31 47 78 48 32 49 83 50 77 51 79 52 33 53 82 54 76 55
REMARK SMILES IDX 75 56 34 58 64 59 45 60 63 61 46 62 49 63 62 64 80 65 47 66
REMARK SMILES IDX 48 67 61 69 81 70 50 71 35 72 36 73 44 74 37 75 43 76 38 77
REMARK SMILES IDX 39 78 40 79 41 80 42 81 65 82 66 83 74 84 67 85 73 86 68 87
REMARK SMILES IDX 69 88 70 89 71 90 72 91 51 92 52 93 60 94 53 95 59 96 54 97
REMARK SMILES IDX 55 98 56 99 57 100 58 101
REMARK H PARENT 19 5 10 17 23 38 79 57 49 68
REMARK Flexibility Score: inf
ROOT
ATOM      1  C   UNL A   1      39.035  21.166  25.542  1.00  0.00     0.117 C 
ENDROOT
BRANCH   1   2
ATOM      2  N   UNL A   1      37.708  21.115  26.131  1.00  0.00    -0.353 N 
ATOM      3  C   UNL A   1      36.552  21.689  25.679  1.00  0.00     0.257 C 
ATOM      4  O   UNL A   1      35.565  21.636  26.410  1.00  0.00    -0.271 OA
ATOM      5  H   UNL A   1      37.630  20.598  26.966  1.00  0.00     0.163 HD
BRANCH   3   6
ATOM      6  C   UNL A   1      36.551  22.343  24.269  1.00  0.00     0.329 C 
BRANCH   6   7
ATOM      7  O   UNL A   1      35.348  22.581  23.535  1.00  0.00    -0.483 OA
BRANCH   7   8
ATOM      8  C   UNL A   1      34.429  23.320  24.232  1.00  0.00     0.130 A 
ATOM      9  C   UNL A   1      32.756  24.886  25.819  1.00  0.00     0.042 A 
ATOM     10  C   UNL A   1      33.820  25.481  25.144  1.00  0.00     0.030 A 
ATOM     11  C   UNL A   1      32.445  23.545  25.575  1.00  0.00     0.041 A 
ATOM     12  C   UNL A   1      34.678  24.692  24.380  1.00  0.00     0.049 A 
ATOM     13  C   UNL A   1      33.251  22.738  24.739  1.00  0.00     0.055 A 
BRANCH   9  14
ATOM     14  N   UNL A   1      32.074  25.674  26.753  1.00  0.00    -0.322 N 
ATOM     15  C   UNL A   1      31.376  26.854  26.600  1.00  0.00     0.255 C 
ATOM     16  O   UNL A   1      31.065  27.474  27.618  1.00  0.00    -0.269 OA
ATOM     17  H   UNL A   1      32.096  25.329  27.673  1.00  0.00     0.170 HD
BRANCH  15  18
ATOM     18  C   UNL A   1      30.908  27.362  25.274  1.00  0.00     0.043 A 
ATOM     19  C   UNL A   1      32.739  29.159  24.955  1.00  0.00     0.045 C 
ATOM     20  C   UNL A   1      31.501  28.415  24.544  1.00  0.00    -0.038 A 
ATOM     21  C   UNL A   1      30.932  28.792  23.312  1.00  0.00     0.004 A 
ATOM     22  C   UNL A   1      29.880  28.069  22.752  1.00  0.00     0.000 A 
ATOM     23  C   UNL A   1      29.870  26.621  24.677  1.00  0.00     0.014 A 
ATOM     24  C   UNL A   1      29.368  26.964  23.421  1.00  0.00     0.001 A 
ENDBRANCH  15  18
ENDBRANCH   9  14
BRANCH  13  25
ATOM     25  C   UNL A   1      32.830  21.328  24.545  1.00  0.00     0.128 A 
ATOM     26  N   UNL A   1      32.729  20.455  25.534  1.00  0.00    -0.236 NA
ATOM     27  S   UNL A   1      32.425  20.655  23.008  1.00  0.00    -0.114 S 
ATOM     28  C   UNL A   1      32.674  19.168  25.027  1.00  0.00     0.082 A 
ATOM     29  C   UNL A   1      32.604  19.078  23.640  1.00  0.00     0.055 A 
ATOM     30  C   UNL A   1      32.726  17.976  25.775  1.00  0.00     0.030 A 
ATOM     31  C   UNL A   1      32.669  17.854  22.960  1.00  0.00     0.021 A 
ATOM     32  C   UNL A   1      32.791  16.746  25.111  1.00  0.00     0.002 A 
ATOM     33  C   UNL A   1      32.785  16.690  23.720  1.00  0.00     0.002 A 
ENDBRANCH  13  25
ENDBRANCH   7   8
ENDBRANCH   6   7
ENDBRANCH   3   6
ENDBRANCH   1   2
BRANCH   1  34
ATOM     34  C   UNL A   1      40.109  21.330  26.612  1.00  0.00     0.042 C 
BRANCH  34  35
ATOM     35  C   UNL A   1      40.574  22.767  26.753  1.00  0.00     0.118 C 
BRANCH  35  36
ATOM     36  N   UNL A   1      39.857  23.716  25.917  1.00  0.00    -0.352 N 
ATOM     37  C   UNL A   1      38.912  24.555  26.505  1.00  0.00     0.251 C 
ATOM     38  H   UNL A   1      40.036  23.765  24.950  1.00  0.00     0.163 HD
ATOM     39  O   UNL A   1      37.713  24.466  26.367  1.00  0.00    -0.269 OA
BRANCH  37  40
ATOM     40  C   UNL A   1      39.511  25.519  27.457  1.00  0.00     0.039 A 
ATOM     41  C   UNL A   1      39.064  25.574  28.777  1.00  0.00     0.014 A 
ATOM     42  C   UNL A   1      40.318  26.521  26.918  1.00  0.00     0.014 A 
ATOM     43  C   UNL A   1      39.328  26.716  29.531  1.00  0.00     0.010 A 
ATOM     44  C   UNL A   1      40.489  27.688  27.628  1.00  0.00     0.010 A 
ATOM     45  C   UNL A   1      39.970  27.798  28.923  1.00  0.00    -0.014 A 
BRANCH  45  46
ATOM     46  C   UNL A   1      40.122  29.113  29.530  1.00  0.00     0.031 A 
ATOM     47  C   UNL A   1      39.065  30.132  29.345  1.00  0.00     0.074 A 
ATOM     48  C   UNL A   1      41.155  29.351  30.369  1.00  0.00     0.049 A 
ATOM     49  N   UNL A   1      39.238  31.403  29.495  1.00  0.00    -0.248 NA
ATOM     50  C   UNL A   1      37.712  29.787  28.917  1.00  0.00     0.031 C 
ATOM     51  C   UNL A   1      41.280  30.459  31.311  1.00  0.00     0.029 A 
ATOM     52  N   UNL A   1      42.414  28.749  30.386  1.00  0.00    -0.354 N 
ATOM     53  C   UNL A   1      37.993  31.993  29.491  1.00  0.00     0.074 A 
ATOM     54  C   UNL A   1      37.089  30.962  29.038  1.00  0.00     0.031 C 
ATOM     55  C   UNL A   1      42.583  30.653  31.571  1.00  0.00     0.029 A 
ATOM     56  C   UNL A   1      43.330  29.770  30.689  1.00  0.00     0.049 A 
ATOM     57  H   UNL A   1      42.619  27.801  30.219  1.00  0.00     0.167 HD
ATOM     58  C   UNL A   1      37.837  33.242  30.013  1.00  0.00     0.031 A 
ATOM     59  C   UNL A   1      44.342  30.161  29.859  1.00  0.00     0.031 A 
ATOM     60  C   UNL A   1      39.116  33.814  30.426  1.00  0.00     0.049 A 
ATOM     61  C   UNL A   1      44.266  31.630  29.500  1.00  0.00     0.074 A 
ATOM     62  C   UNL A   1      39.738  33.926  31.659  1.00  0.00     0.029 A 
ATOM     63  N   UNL A   1      40.077  34.104  29.467  1.00  0.00    -0.354 N 
ATOM     64  N   UNL A   1      43.193  32.357  29.643  1.00  0.00    -0.248 NA
ATOM     65  C   UNL A   1      45.374  32.385  28.922  1.00  0.00     0.031 C 
ATOM     66  C   UNL A   1      41.109  34.209  31.430  1.00  0.00     0.029 A 
ATOM     67  C   UNL A   1      41.308  34.299  30.063  1.00  0.00     0.049 A 
ATOM     68  H   UNL A   1      39.906  34.162  28.500  1.00  0.00     0.167 HD
ATOM     69  C   UNL A   1      43.438  33.635  29.212  1.00  0.00     0.074 A 
ATOM     70  C   UNL A   1      44.822  33.603  28.772  1.00  0.00     0.031 C 
ATOM     71  C   UNL A   1      42.480  34.608  29.254  1.00  0.00     0.031 A 
BRANCH  58  72
ATOM     72  C   UNL A   1      36.499  33.828  30.418  1.00  0.00    -0.014 A 
ATOM     73  C   UNL A   1      35.593  34.244  29.418  1.00  0.00     0.010 A 
ATOM     74  C   UNL A   1      36.091  34.047  31.747  1.00  0.00     0.010 A 
ATOM     75  C   UNL A   1      34.405  34.926  29.722  1.00  0.00     0.020 A 
ATOM     76  C   UNL A   1      34.922  34.759  32.066  1.00  0.00     0.020 A 
ATOM     77  C   UNL A   1      34.091  35.206  31.047  1.00  0.00     0.054 A 
BRANCH  77  78
ATOM     78  S   UNL A   1      32.591  36.152  31.419  1.00  0.00     0.124 S 
ATOM     79  O   UNL A   1      31.897  35.284  32.367  1.00  0.00    -0.237 OA
ATOM     80  O   UNL A   1      33.130  37.390  31.976  1.00  0.00    -0.237 OA
ATOM     81  O   UNL A   1      31.937  36.292  30.118  1.00  0.00    -0.744 OA
ENDBRANCH  77  78
ENDBRANCH  58  72
BRANCH  59  82
ATOM     82  C   UNL A   1      44.850  29.083  28.963  1.00  0.00    -0.014 A 
ATOM     83  C   UNL A   1      45.415  27.946  29.582  1.00  0.00     0.010 A 
ATOM     84  C   UNL A   1      44.363  28.970  27.649  1.00  0.00     0.010 A 
ATOM     85  C   UNL A   1      45.305  26.687  28.987  1.00  0.00     0.020 A 
ATOM     86  C   UNL A   1      44.260  27.706  27.048  1.00  0.00     0.020 A 
ATOM     87  C   UNL A   1      44.651  26.568  27.761  1.00  0.00     0.054 A 
BRANCH  87  88
ATOM     88  S   UNL A   1      44.148  24.907  27.211  1.00  0.00     0.124 S 
ATOM     89  O   UNL A   1      43.499  25.177  25.934  1.00  0.00    -0.237 OA
ATOM     90  O   UNL A   1      45.432  24.201  27.131  1.00  0.00    -0.237 OA
ATOM     91  O   UNL A   1      43.269  24.449  28.281  1.00  0.00    -0.744 OA
ENDBRANCH  87  88
ENDBRANCH  59  82
BRANCH  71  92
ATOM     92  C   UNL A   1      42.565  35.978  28.622  1.00  0.00    -0.014 A 
ATOM     93  C   UNL A   1      42.002  36.315  27.383  1.00  0.00     0.010 A 
ATOM     94  C   UNL A   1      43.135  37.039  29.371  1.00  0.00     0.010 A 
ATOM     95  C   UNL A   1      42.058  37.626  26.887  1.00  0.00     0.020 A 
ATOM     96  C   UNL A   1      43.156  38.357  28.909  1.00  0.00     0.020 A 
ATOM     97  C   UNL A   1      42.638  38.639  27.651  1.00  0.00     0.054 A 
BRANCH  97  98
ATOM     98  S   UNL A   1      42.647  40.340  27.032  1.00  0.00     0.124 S 
ATOM     99  O   UNL A   1      41.221  40.598  26.846  1.00  0.00    -0.237 OA
ATOM    100  O   UNL A   1      43.280  41.082  28.120  1.00  0.00    -0.237 OA
ATOM    101  O   UNL A   1      43.435  40.253  25.806  1.00  0.00    -0.744 OA
ENDBRANCH  97  98
ENDBRANCH  71  92
ENDBRANCH  45  46
ENDBRANCH  37  40
ENDBRANCH  35  36
ENDBRANCH  34  35
ENDBRANCH   1  34
TORSDOF 18
ENDMDL
MODEL 2
REMARK VINA RESULT:     -13.0      1.570      2.180
REMARK SMILES Cc1ccccc1C(=O)Nc1ccc(OCC(=O)NCCCNC(=O)c2ccc(-c3c4nc(c(-c5ccc(S(=O)(=O)[O-])cc5)c5ccc([nH]5)c(-c5ccc(S(=O)(=O)[O-])cc5)c5nc(c(-c6ccc(S(=O)(=O)[O-])cc6)c6ccc3[nH]6)C=C5)C=C4)cc2)c(-c2nc3ccccc3s2)c1
REMARK SMILES IDX 20 1 19 2 17 3 18 4 16 6 15 7 14 8 11 9 12 10 96 11 13 12
REMARK SMILES IDX 86 13 10 14 8 15 9 16 7 18 1 19 2 20 3 21 4 22 6 23 5 24
REMARK SMILES IDX 87 25 88 26 95 27 89 28 94 29 90 30 93 31 91 32 92 33 21 34
REMARK SMILES IDX 22 35 23 36 24 37 25 39 26 40 27 41 85 42 28 43 84 44 29 45
REMARK SMILES IDX 30 46 31 47 78 48 32 49 83 50 77 51 79 52 33 53 82 54 76 55
REMARK SMILES IDX 75 56 34 58 64 59 45 60 63 61 46 62 49 63 62 64 80 65 47 66
REMARK SMILES IDX 48 67 61 69 81 70 50 71 35 72 36 73 44 74 37 75 43 76 38 77
REMARK SMILES IDX 39 78 40 79 41 80 42 81 65 82 66 83 74 84 67 85 73 86 68 87
REMARK SMILES IDX 69 88 70 89 71 90 72 91 51 92 52 93 60 94 53 95 59 96 54 97
REMARK SMILES IDX 55 98 56 99 57 100 58 101
REMARK H PARENT 19 5 10 17 23 38 79 57 49 68
REMARK Flexibility Score: inf
ROOT
ATOM      1  C   UNL A   1      38.415  22.194  25.821  1.00  0.00     0.117 C 
ENDROOT
BRANCH   1   2
ATOM      2  N   UNL A   1      37.491  21.289  25.160  1.00  0.00    -0.353 N 
ATOM      3  C   UNL A   1      36.156  21.111  25.398  1.00  0.00     0.257 C 
ATOM      4  O   UNL A   1      35.590  20.189  24.814  1.00  0.00    -0.271 OA
ATOM      5  H   UNL A   1      37.875  20.731  24.445  1.00  0.00     0.163 HD
BRANCH   3   6
ATOM      6  C   UNL A   1      35.437  22.095  26.363  1.00  0.00     0.329 C 
BRANCH   6   7
ATOM      7  O   UNL A   1      34.088  21.899  26.793  1.00  0.00    -0.483 OA
BRANCH   7   8
ATOM      8  C   UNL A   1      33.182  22.638  26.079  1.00  0.00     0.130 A 
ATOM      9  C   UNL A   1      31.240  24.222  24.859  1.00  0.00     0.042 A 
ATOM     10  C   UNL A   1      32.231  24.821  25.634  1.00  0.00     0.030 A 
ATOM     11  C   UNL A   1      31.317  22.856  24.574  1.00  0.00     0.041 A 
ATOM     12  C   UNL A   1      33.180  24.026  26.274  1.00  0.00     0.049 A 
ATOM     13  C   UNL A   1      32.318  22.035  25.144  1.00  0.00     0.055 A 
BRANCH   9  14
ATOM     14  N   UNL A   1      30.182  25.036  24.438  1.00  0.00    -0.322 N 
ATOM     15  C   UNL A   1      30.155  26.367  24.080  1.00  0.00     0.255 C 
ATOM     16  O   UNL A   1      29.055  26.911  23.973  1.00  0.00    -0.269 OA
ATOM     17  H   UNL A   1      29.312  24.581  24.389  1.00  0.00     0.170 HD
BRANCH  15  18
ATOM     18  C   UNL A   1      31.383  27.148  23.733  1.00  0.00     0.043 A 
ATOM     19  C   UNL A   1      31.924  25.927  21.520  1.00  0.00     0.045 C 
ATOM     20  C   UNL A   1      32.195  26.936  22.598  1.00  0.00    -0.038 A 
ATOM     21  C   UNL A   1      33.333  27.746  22.417  1.00  0.00     0.004 A 
ATOM     22  C   UNL A   1      33.597  28.819  23.266  1.00  0.00     0.000 A 
ATOM     23  C   UNL A   1      31.644  28.258  24.559  1.00  0.00     0.014 A 
ATOM     24  C   UNL A   1      32.735  29.095  24.320  1.00  0.00     0.001 A 
ENDBRANCH  15  18
ENDBRANCH   9  14
BRANCH  13  25
ATOM     25  C   UNL A   1      32.311  20.598  24.772  1.00  0.00     0.128 A 
ATOM     26  N   UNL A   1      32.214  19.618  25.655  1.00  0.00    -0.236 NA
ATOM     27  S   UNL A   1      32.434  20.031  23.147  1.00  0.00    -0.114 S 
ATOM     28  C   UNL A   1      32.592  18.418  25.077  1.00  0.00     0.082 A 
ATOM     29  C   UNL A   1      32.854  18.474  23.711  1.00  0.00     0.055 A 
ATOM     30  C   UNL A   1      32.770  17.193  25.746  1.00  0.00     0.030 A 
ATOM     31  C   UNL A   1      33.367  17.382  22.997  1.00  0.00     0.021 A 
ATOM     32  C   UNL A   1      33.282  16.093  25.047  1.00  0.00     0.002 A 
ATOM     33  C   UNL A   1      33.597  16.196  23.695  1.00  0.00     0.002 A 
ENDBRANCH  13  25
ENDBRANCH   7   8
ENDBRANCH   6   7
ENDBRANCH   3   6
ENDBRANCH   1   2
BRANCH   1  34
ATOM     34  C   UNL A   1      39.709  21.480  26.202  1.00  0.00     0.042 C 
BRANCH  34  35
ATOM     35  C   UNL A   1      40.368  22.086  27.427  1.00  0.00     0.118 C 
BRANCH  35  36
ATOM     36  N   UNL A   1      41.759  22.463  27.237  1.00  0.00    -0.352 N 
ATOM     37  C   UNL A   1      42.063  23.513  26.371  1.00  0.00     0.251 C 
ATOM     38  H   UNL A   1      42.476  21.984  27.711  1.00  0.00     0.163 HD
ATOM     39  O   UNL A   1      42.585  23.397  25.285  1.00  0.00    -0.269 OA
BRANCH  37  40
ATOM     40  C   UNL A   1      41.551  24.818  26.847  1.00  0.00     0.039 A 
ATOM     41  C   UNL A   1      41.707  25.963  26.066  1.00  0.00     0.014 A 
ATOM     42  C   UNL A   1      41.167  24.896  28.186  1.00  0.00     0.014 A 
ATOM     43  C   UNL A   1      41.599  27.213  26.672  1.00  0.00     0.010 A 
ATOM     44  C   UNL A   1      41.163  26.127  28.804  1.00  0.00     0.010 A 
ATOM     45  C   UNL A   1      41.407  27.283  28.055  1.00  0.00    -0.014 A 
BRANCH  45  46
ATOM     46  C   UNL A   1      41.482  28.510  28.836  1.00  0.00     0.031 A 
ATOM     47  C   UNL A   1      40.312  29.415  28.892  1.00  0.00     0.074 A 
ATOM     48  C   UNL A   1      42.562  28.747  29.614  1.00  0.00     0.049 A 
ATOM     49  N   UNL A   1      40.368  30.664  29.215  1.00  0.00    -0.248 NA
ATOM     50  C   UNL A   1      38.967  28.978  28.531  1.00  0.00     0.031 C 
ATOM     51  C   UNL A   1      42.665  29.721  30.696  1.00  0.00     0.029 A 
ATOM     52  N   UNL A   1      43.872  28.300  29.437  1.00  0.00    -0.354 N 
ATOM     53  C   UNL A   1      39.074  31.100  29.401  1.00  0.00     0.074 A 
ATOM     54  C   UNL A   1      38.241  30.044  28.876  1.00  0.00     0.031 C 
ATOM     55  C   UNL A   1      43.960  30.027  30.874  1.00  0.00     0.029 A 
ATOM     56  C   UNL A   1      44.703  29.368  29.812  1.00  0.00     0.049 A 
ATOM     57  H   UNL A   1      44.157  27.413  29.115  1.00  0.00     0.167 HD
ATOM     58  C   UNL A   1      38.841  32.238  30.114  1.00  0.00     0.031 A 
ATOM     59  C   UNL A   1      45.583  29.985  28.969  1.00  0.00     0.031 A 
ATOM     60  C   UNL A   1      40.090  32.892  30.501  1.00  0.00     0.049 A 
ATOM     61  C   UNL A   1      45.321  31.470  28.839  1.00  0.00     0.074 A 
ATOM     62  C   UNL A   1      40.815  32.903  31.681  1.00  0.00     0.029 A 
ATOM     63  N   UNL A   1      40.917  33.422  29.520  1.00  0.00    -0.354 N 
ATOM     64  N   UNL A   1      44.199  32.041  29.177  1.00  0.00    -0.248 NA
ATOM     65  C   UNL A   1      46.284  32.422  28.292  1.00  0.00     0.031 C 
ATOM     66  C   UNL A   1      42.120  33.373  31.385  1.00  0.00     0.029 A 
ATOM     67  C   UNL A   1      42.173  33.674  30.035  1.00  0.00     0.049 A 
ATOM     68  H   UNL A   1      40.646  33.594  28.589  1.00  0.00     0.167 HD
ATOM     69  C   UNL A   1      44.267  33.387  28.922  1.00  0.00     0.074 A 
ATOM     70  C   UNL A   1      45.596  33.576  28.370  1.00  0.00     0.031 C 
ATOM     71  C   UNL A   1      43.222  34.226  29.187  1.00  0.00     0.031 A 
BRANCH  58  72
ATOM     72  C   UNL A   1      37.497  32.603  30.710  1.00  0.00    -0.014 A 
ATOM     73  C   UNL A   1      36.842  33.776  30.279  1.00  0.00     0.010 A 
ATOM     74  C   UNL A   1      36.849  31.876  31.727  1.00  0.00     0.010 A 
ATOM     75  C   UNL A   1      35.671  34.249  30.891  1.00  0.00     0.020 A 
ATOM     76  C   UNL A   1      35.696  32.353  32.374  1.00  0.00     0.020 A 
ATOM     77  C   UNL A   1      35.120  33.547  31.958  1.00  0.00     0.054 A 
BRANCH  77  78
ATOM     78  S   UNL A   1      33.651  34.209  32.786  1.00  0.00     0.124 S 
ATOM     79  O   UNL A   1      33.036  33.007  33.344  1.00  0.00    -0.237 OA
ATOM     80  O   UNL A   1      34.228  35.132  33.760  1.00  0.00    -0.237 OA
ATOM     81  O   UNL A   1      32.898  34.841  31.704  1.00  0.00    -0.744 OA
ENDBRANCH  77  78
ENDBRANCH  58  72
BRANCH  59  82
ATOM     82  C   UNL A   1      46.109  29.108  27.884  1.00  0.00    -0.014 A 
ATOM     83  C   UNL A   1      47.029  28.104  28.258  1.00  0.00     0.010 A 
ATOM     84  C   UNL A   1      45.387  28.956  26.687  1.00  0.00     0.010 A 
ATOM     85  C   UNL A   1      47.071  26.889  27.571  1.00  0.00     0.020 A 
ATOM     86  C   UNL A   1      45.436  27.738  25.991  1.00  0.00     0.020 A 
ATOM     87  C   UNL A   1      46.211  26.686  26.492  1.00  0.00     0.054 A 
BRANCH  87  88
ATOM     88  S   UNL A   1      45.977  24.987  25.884  1.00  0.00     0.124 S 
ATOM     89  O   UNL A   1      47.342  24.560  25.598  1.00  0.00    -0.237 OA
ATOM     90  O   UNL A   1      45.336  24.329  27.028  1.00  0.00    -0.237 OA
ATOM     91  O   UNL A   1      45.114  25.160  24.721  1.00  0.00    -0.744 OA
ENDBRANCH  87  88
ENDBRANCH  59  82
BRANCH  71  92
ATOM     92  C   UNL A   1      43.103  35.671  28.761  1.00  0.00    -0.014 A 
ATOM     93  C   UNL A   1      43.788  36.734  29.367  1.00  0.00     0.010 A 
ATOM     94  C   UNL A   1      42.355  35.978  27.596  1.00  0.00     0.010 A 
ATOM     95  C   UNL A   1      43.684  38.045  28.876  1.00  0.00     0.020 A 
ATOM     96  C   UNL A   1      42.282  37.270  27.070  1.00  0.00     0.020 A 
ATOM     97  C   UNL A   1      42.928  38.305  27.733  1.00  0.00     0.054 A 
BRANCH  97  98
ATOM     98  S   UNL A   1      42.855  39.988  27.068  1.00  0.00     0.124 S 
ATOM     99  O   UNL A   1      42.968  40.794  28.281  1.00  0.00    -0.237 OA
ATOM    100  O   UNL A   1      44.010  40.038  26.174  1.00  0.00    -0.237 OA
ATOM    101  O   UNL A   1      41.557  40.035  26.401  1.00  0.00    -0.744 OA
ENDBRANCH  97  98
ENDBRANCH  71  92
ENDBRANCH  45  46
ENDBRANCH  37  40
ENDBRANCH  35  36
ENDBRANCH  34  35
ENDBRANCH   1  34
TORSDOF 18
ENDMDL
MODEL 3
REMARK VINA RESULT:     -13.0      2.489      3.336
REMARK SMILES Cc1ccccc1C(=O)Nc1ccc(OCC(=O)NCCCNC(=O)c2ccc(-c3c4nc(c(-c5ccc(S(=O)(=O)[O-])cc5)c5ccc([nH]5)c(-c5ccc(S(=O)(=O)[O-])cc5)c5nc(c(-c6ccc(S(=O)(=O)[O-])cc6)c6ccc3[nH]6)C=C5)C=C4)cc2)c(-c2nc3ccccc3s2)c1
REMARK SMILES IDX 20 1 19 2 17 3 18 4 16 6 15 7 14 8 11 9 12 10 96 11 13 12
REMARK SMILES IDX 86 13 10 14 8 15 9 16 7 18 1 19 2 20 3 21 4 22 6 23 5 24
REMARK SMILES IDX 87 25 88 26 95 27 89 28 94 29 90 30 93 31 91 32 92 33 21 34
REMARK SMILES IDX 22 35 23 36 24 37 25 39 26 40 27 41 85 42 28 43 84 44 29 45
REMARK SMILES IDX 30 46 31 47 78 48 32 49 83 50 77 51 79 52 33 53 82 54 76 55
REMARK SMILES IDX 75 56 34 58 64 59 45 60 63 61 46 62 49 63 62 64 80 65 47 66
REMARK SMILES IDX 48 67 61 69 81 70 50 71 35 72 36 73 44 74 37 75 43 76 38 77
REMARK SMILES IDX 39 78 40 79 41 80 42 81 65 82 66 83 74 84 67 85 73 86 68 87
REMARK SMILES IDX 69 88 70 89 71 90 72 91 51 92 52 93 60 94 53 95 59 96 54 97
REMARK SMILES IDX 55 98 56 99 57 100 58 101
REMARK H PARENT 19 5 10 17 23 38 79 57 49 68
REMARK Flexibility Score: inf
ROOT
ATOM      1  C   UNL A   1      39.012  20.578  25.727  1.00  0.00     0.117 C 
ENDROOT
BRANCH   1   2
ATOM      2  N   UNL A   1      38.872  22.008  25.939  1.00  0.00    -0.353 N 
ATOM      3  C   UNL A   1      37.794  22.807  25.675  1.00  0.00     0.257 C 
ATOM      4  O   UNL A   1      37.939  24.021  25.801  1.00  0.00    -0.271 OA
ATOM      5  H   UNL A   1      39.656  22.463  26.323  1.00  0.00     0.163 HD
BRANCH   3   6
ATOM      6  C   UNL A   1      36.455  22.134  25.262  1.00  0.00     0.329 C 
BRANCH   6   7
ATOM      7  O   UNL A   1      35.590  22.691  24.271  1.00  0.00    -0.483 OA
BRANCH   7   8
ATOM      8  C   UNL A   1      34.596  23.471  24.800  1.00  0.00     0.130 A 
ATOM      9  C   UNL A   1      32.741  25.113  26.077  1.00  0.00     0.042 A 
ATOM     10  C   UNL A   1      33.932  25.658  25.603  1.00  0.00     0.030 A 
ATOM     11  C   UNL A   1      32.418  23.787  25.774  1.00  0.00     0.041 A 
ATOM     12  C   UNL A   1      34.875  24.831  24.997  1.00  0.00     0.049 A 
ATOM     13  C   UNL A   1      33.323  22.943  25.088  1.00  0.00     0.055 A 
BRANCH   9  14
ATOM     14  N   UNL A   1      31.941  25.932  26.881  1.00  0.00    -0.322 N 
ATOM     15  C   UNL A   1      31.299  27.121  26.602  1.00  0.00     0.255 C 
ATOM     16  O   UNL A   1      30.849  27.767  27.550  1.00  0.00    -0.269 OA
ATOM     17  H   UNL A   1      31.814  25.606  27.800  1.00  0.00     0.170 HD
BRANCH  15  18
ATOM     18  C   UNL A   1      31.049  27.610  25.211  1.00  0.00     0.043 A 
ATOM     19  C   UNL A   1      32.957  29.352  25.137  1.00  0.00     0.045 C 
ATOM     20  C   UNL A   1      31.775  28.629  24.558  1.00  0.00    -0.038 A 
ATOM     21  C   UNL A   1      31.407  28.991  23.247  1.00  0.00     0.004 A 
ATOM     22  C   UNL A   1      30.431  28.282  22.550  1.00  0.00     0.000 A 
ATOM     23  C   UNL A   1      30.091  26.881  24.479  1.00  0.00     0.014 A 
ATOM     24  C   UNL A   1      29.794  27.206  23.155  1.00  0.00     0.001 A 
ENDBRANCH  15  18
ENDBRANCH   9  14
BRANCH  13  25
ATOM     25  C   UNL A   1      32.880  21.553  24.814  1.00  0.00     0.128 A 
ATOM     26  N   UNL A   1      32.833  20.608  25.739  1.00  0.00    -0.236 NA
ATOM     27  S   UNL A   1      32.378  20.999  23.258  1.00  0.00    -0.114 S 
ATOM     28  C   UNL A   1      32.738  19.363  25.141  1.00  0.00     0.082 A 
ATOM     29  C   UNL A   1      32.584  19.378  23.757  1.00  0.00     0.055 A 
ATOM     30  C   UNL A   1      32.827  18.118  25.792  1.00  0.00     0.030 A 
ATOM     31  C   UNL A   1      32.599  18.209  22.984  1.00  0.00     0.021 A 
ATOM     32  C   UNL A   1      32.843  16.941  25.035  1.00  0.00     0.002 A 
ATOM     33  C   UNL A   1      32.752  16.991  23.646  1.00  0.00     0.002 A 
ENDBRANCH  13  25
ENDBRANCH   7   8
ENDBRANCH   6   7
ENDBRANCH   3   6
ENDBRANCH   1   2
BRANCH   1  34
ATOM     34  C   UNL A   1      40.366  20.076  26.220  1.00  0.00     0.042 C 
BRANCH  34  35
ATOM     35  C   UNL A   1      41.034  21.050  27.174  1.00  0.00     0.118 C 
BRANCH  35  36
ATOM     36  N   UNL A   1      42.398  21.401  26.817  1.00  0.00    -0.352 N 
ATOM     37  C   UNL A   1      42.621  22.534  26.034  1.00  0.00     0.251 C 
ATOM     38  H   UNL A   1      43.153  20.848  27.121  1.00  0.00     0.163 HD
ATOM     39  O   UNL A   1      42.971  22.527  24.875  1.00  0.00    -0.269 OA
BRANCH  37  40
ATOM     40  C   UNL A   1      42.250  23.791  26.723  1.00  0.00     0.039 A 
ATOM     41  C   UNL A   1      41.962  24.938  25.984  1.00  0.00     0.014 A 
ATOM     42  C   UNL A   1      42.464  23.845  28.100  1.00  0.00     0.014 A 
ATOM     43  C   UNL A   1      42.014  26.179  26.618  1.00  0.00     0.010 A 
ATOM     44  C   UNL A   1      42.616  25.075  28.699  1.00  0.00     0.010 A 
ATOM     45  C   UNL A   1      42.421  26.242  27.954  1.00  0.00    -0.014 A 
BRANCH  45  46
ATOM     46  C   UNL A   1      42.713  27.477  28.668  1.00  0.00     0.031 A 
ATOM     47  C   UNL A   1      41.613  28.408  29.003  1.00  0.00     0.074 A 
ATOM     48  C   UNL A   1      43.960  27.701  29.141  1.00  0.00     0.049 A 
ATOM     49  N   UNL A   1      41.772  29.660  29.278  1.00  0.00    -0.248 NA
ATOM     50  C   UNL A   1      40.212  27.996  29.004  1.00  0.00     0.031 C 
ATOM     51  C   UNL A   1      44.352  28.686  30.145  1.00  0.00     0.029 A 
ATOM     52  N   UNL A   1      45.174  27.222  28.646  1.00  0.00    -0.354 N 
ATOM     53  C   UNL A   1      40.576  30.127  29.780  1.00  0.00     0.074 A 
ATOM     54  C   UNL A   1      39.618  29.083  29.502  1.00  0.00     0.031 C 
ATOM     55  C   UNL A   1      45.655  28.965  29.982  1.00  0.00     0.029 A 
ATOM     56  C   UNL A   1      46.092  28.276  28.778  1.00  0.00     0.049 A 
ATOM     57  H   UNL A   1      45.351  26.325  28.278  1.00  0.00     0.167 HD
ATOM     58  C   UNL A   1      40.553  31.279  30.507  1.00  0.00     0.031 A 
ATOM     59  C   UNL A   1      46.740  28.862  27.728  1.00  0.00     0.031 A 
ATOM     60  C   UNL A   1      41.870  31.910  30.553  1.00  0.00     0.049 A 
ATOM     61  C   UNL A   1      46.480  30.352  27.642  1.00  0.00     0.074 A 
ATOM     62  C   UNL A   1      42.872  31.920  31.510  1.00  0.00     0.029 A 
ATOM     63  N   UNL A   1      42.430  32.409  29.384  1.00  0.00    -0.354 N 
ATOM     64  N   UNL A   1      45.491  30.952  28.244  1.00  0.00    -0.248 NA
ATOM     65  C   UNL A   1      47.289  31.275  26.851  1.00  0.00     0.031 C 
ATOM     66  C   UNL A   1      44.067  32.357  30.883  1.00  0.00     0.029 A 
ATOM     67  C   UNL A   1      43.781  32.639  29.558  1.00  0.00     0.049 A 
ATOM     68  H   UNL A   1      41.935  32.574  28.550  1.00  0.00     0.167 HD
ATOM     69  C   UNL A   1      45.516  32.292  27.955  1.00  0.00     0.074 A 
ATOM     70  C   UNL A   1      46.665  32.445  27.080  1.00  0.00     0.031 C 
ATOM     71  C   UNL A   1      44.589  33.157  28.462  1.00  0.00     0.031 A 
BRANCH  58  72
ATOM     72  C   UNL A   1      39.412  31.681  31.419  1.00  0.00    -0.014 A 
ATOM     73  C   UNL A   1      38.452  32.609  30.961  1.00  0.00     0.010 A 
ATOM     74  C   UNL A   1      39.250  31.233  32.744  1.00  0.00     0.010 A 
ATOM     75  C   UNL A   1      37.457  33.134  31.800  1.00  0.00     0.020 A 
ATOM     76  C   UNL A   1      38.281  31.774  33.606  1.00  0.00     0.020 A 
ATOM     77  C   UNL A   1      37.396  32.733  33.130  1.00  0.00     0.054 A 
BRANCH  77  78
ATOM     78  S   UNL A   1      36.154  33.475  34.220  1.00  0.00     0.124 S 
ATOM     79  O   UNL A   1      34.909  32.898  33.719  1.00  0.00    -0.237 OA
ATOM     80  O   UNL A   1      36.576  33.012  35.540  1.00  0.00    -0.237 OA
ATOM     81  O   UNL A   1      36.304  34.911  33.992  1.00  0.00    -0.744 OA
ENDBRANCH  77  78
ENDBRANCH  58  72
BRANCH  59  82
ATOM     82  C   UNL A   1      46.957  27.961  26.561  1.00  0.00    -0.014 A 
ATOM     83  C   UNL A   1      46.052  28.076  25.482  1.00  0.00     0.010 A 
ATOM     84  C   UNL A   1      48.226  27.404  26.326  1.00  0.00     0.010 A 
ATOM     85  C   UNL A   1      46.476  27.840  24.172  1.00  0.00     0.020 A 
ATOM     86  C   UNL A   1      48.649  27.158  25.011  1.00  0.00     0.020 A 
ATOM     87  C   UNL A   1      47.800  27.464  23.942  1.00  0.00     0.054 A 
BRANCH  87  88
ATOM     88  S   UNL A   1      48.442  27.571  22.243  1.00  0.00     0.124 S 
ATOM     89  O   UNL A   1      49.682  28.319  22.418  1.00  0.00    -0.237 OA
ATOM     90  O   UNL A   1      48.602  26.159  21.878  1.00  0.00    -0.237 OA
ATOM     91  O   UNL A   1      47.381  28.268  21.524  1.00  0.00    -0.744 OA
ENDBRANCH  87  88
ENDBRANCH  59  82
BRANCH  71  92
ATOM     92  C   UNL A   1      44.392  34.599  28.054  1.00  0.00    -0.014 A 
ATOM     93  C   UNL A   1      43.565  35.018  27.002  1.00  0.00     0.010 A 
ATOM     94  C   UNL A   1      44.970  35.618  28.854  1.00  0.00     0.010 A 
ATOM     95  C   UNL A   1      43.373  36.380  26.722  1.00  0.00     0.020 A 
ATOM     96  C   UNL A   1      44.749  36.976  28.613  1.00  0.00     0.020 A 
ATOM     97  C   UNL A   1      43.969  37.350  27.527  1.00  0.00     0.054 A 
BRANCH  97  98
ATOM     98  S   UNL A   1      43.661  39.104  27.198  1.00  0.00     0.124 S 
ATOM     99  O   UNL A   1      44.743  39.430  26.272  1.00  0.00    -0.237 OA
ATOM    100  O   UNL A   1      42.321  39.098  26.616  1.00  0.00    -0.237 OA
ATOM    101  O   UNL A   1      43.756  39.721  28.518  1.00  0.00    -0.744 OA
ENDBRANCH  97  98
ENDBRANCH  71  92
ENDBRANCH  45  46
ENDBRANCH  37  40
ENDBRANCH  35  36
ENDBRANCH  34  35
ENDBRANCH   1  34
TORSDOF 18
ENDMDL
