MODEL 1
REMARK VINA RESULT:     -11.3      0.000      0.000
REMARK SMILES C[NH2+][C@@]1(C(=O)NCCCNC(=O)c2ccc(-c3c4nc(c(-c5ccc(S(=O)(=O)[O-])cc5)c5ccc([nH]5)c(-c5ccc(S(=O)(=O)[O-])cc5)c5nc(c(-c6ccc(S(=O)(=O)[O-])cc6)c6ccc3[nH]6)C=C5)C=C4)cc2)CC[C@H](Oc2cccc(C)c2)C1
REMARK SMILES IDX 8 1 7 2 6 3 4 4 5 5 3 7 73 8 84 9 74 10 75 11 2 12 1 13
REMARK SMILES IDX 76 16 77 17 78 18 83 19 79 20 81 21 80 22 82 23 9 24 10 25
REMARK SMILES IDX 11 26 12 28 13 29 14 30 72 31 15 32 71 33 16 34 17 35 18 36
REMARK SMILES IDX 65 37 19 38 70 39 64 40 66 41 20 42 69 43 63 44 62 45 21 47
REMARK SMILES IDX 51 48 32 49 50 50 33 51 36 52 49 53 67 54 34 55 35 56 48 58
REMARK SMILES IDX 68 59 37 60 22 61 23 62 31 63 24 64 30 65 25 66 26 67 27 68
REMARK SMILES IDX 28 69 29 70 52 71 53 72 61 73 54 74 60 75 55 76 56 77 57 78
REMARK SMILES IDX 58 79 59 80 38 81 39 82 47 83 40 84 46 85 41 86 42 87 43 88
REMARK SMILES IDX 44 89 45 90
REMARK H PARENT 6 6 2 14 2 15 10 27 66 46 36 57
REMARK Flexibility Score: inf
ROOT
ATOM      1  C   UNL A   1      33.282  27.703  26.485  1.00  0.00     0.042 C 
ENDROOT
BRANCH   1   2
ATOM      2  C   UNL A   1      31.785  27.949  26.427  1.00  0.00     0.118 C 
BRANCH   2   3
ATOM      3  N   UNL A   1      30.993  26.776  26.718  1.00  0.00    -0.351 N 
ATOM      4  C   UNL A   1      30.462  25.802  25.937  1.00  0.00     0.281 C 
ATOM      5  O   UNL A   1      30.079  24.807  26.577  1.00  0.00    -0.268 OA
ATOM      6  H   UNL A   1      30.800  26.660  27.675  1.00  0.00     0.163 HD
BRANCH   4   7
ATOM      7  C   UNL A   1      30.345  25.815  24.350  1.00  0.00     0.179 C 
ATOM      8  C   UNL A   1      31.658  26.238  23.676  1.00  0.00     0.083 C 
ATOM      9  C   UNL A   1      29.273  26.741  23.762  1.00  0.00     0.124 C 
ATOM     10  C   UNL A   1      31.459  27.634  23.097  1.00  0.00     0.052 C 
ATOM     11  C   UNL A   1      29.956  27.876  22.980  1.00  0.00     0.180 C 
BRANCH   7  12
ATOM     12  N   UNL A   1      30.122  24.384  23.932  1.00  0.00    -0.336 N 
ATOM     13  C   UNL A   1      31.329  23.554  23.942  1.00  0.00     0.331 C 
ATOM     14  H   UNL A   1      29.443  23.967  24.569  1.00  0.00     0.346 HD
ATOM     15  H   UNL A   1      29.796  24.410  22.966  1.00  0.00     0.346 HD
ENDBRANCH   7  12
BRANCH  11  16
ATOM     16  O   UNL A   1      29.386  29.060  23.526  1.00  0.00    -0.490 OA
BRANCH  16  17
ATOM     17  C   UNL A   1      28.839  30.079  22.824  1.00  0.00     0.119 A 
ATOM     18  C   UNL A   1      28.187  30.018  21.602  1.00  0.00     0.046 A 
ATOM     19  C   UNL A   1      29.073  31.325  23.415  1.00  0.00     0.049 A 
ATOM     20  C   UNL A   1      27.891  31.202  20.918  1.00  0.00     0.004 A 
ATOM     21  C   UNL A   1      28.811  32.511  22.728  1.00  0.00    -0.047 A 
ATOM     22  C   UNL A   1      28.221  32.441  21.466  1.00  0.00     0.003 A 
ATOM     23  C   UNL A   1      29.187  33.830  23.323  1.00  0.00     0.044 C 
ENDBRANCH  16  17
ENDBRANCH  11  16
ENDBRANCH   4   7
ENDBRANCH   2   3
ENDBRANCH   1   2
BRANCH   1  24
ATOM     24  C   UNL A   1      34.134  28.797  25.864  1.00  0.00     0.118 C 
BRANCH  24  25
ATOM     25  N   UNL A   1      33.828  30.118  26.406  1.00  0.00    -0.352 N 
ATOM     26  C   UNL A   1      34.383  30.862  27.425  1.00  0.00     0.251 C 
ATOM     27  H   UNL A   1      33.077  30.566  25.954  1.00  0.00     0.163 HD
ATOM     28  O   UNL A   1      33.793  31.875  27.787  1.00  0.00    -0.269 OA
BRANCH  26  29
ATOM     29  C   UNL A   1      35.642  30.469  28.114  1.00  0.00     0.039 A 
ATOM     30  C   UNL A   1      35.561  29.650  29.253  1.00  0.00     0.014 A 
ATOM     31  C   UNL A   1      36.894  30.924  27.707  1.00  0.00     0.014 A 
ATOM     32  C   UNL A   1      36.722  29.218  29.908  1.00  0.00     0.010 A 
ATOM     33  C   UNL A   1      38.053  30.428  28.301  1.00  0.00     0.010 A 
ATOM     34  C   UNL A   1      37.981  29.579  29.414  1.00  0.00    -0.014 A 
BRANCH  34  35
ATOM     35  C   UNL A   1      39.240  29.172  30.087  1.00  0.00     0.031 A 
ATOM     36  C   UNL A   1      39.698  29.934  31.300  1.00  0.00     0.074 A 
ATOM     37  C   UNL A   1      40.011  28.192  29.575  1.00  0.00     0.049 A 
ATOM     38  N   UNL A   1      40.806  29.814  31.982  1.00  0.00    -0.248 NA
ATOM     39  C   UNL A   1      38.797  30.989  31.795  1.00  0.00     0.031 C 
ATOM     40  C   UNL A   1      39.690  27.398  28.391  1.00  0.00     0.029 A 
ATOM     41  N   UNL A   1      41.234  27.712  29.971  1.00  0.00    -0.354 N 
ATOM     42  C   UNL A   1      40.743  30.784  32.974  1.00  0.00     0.074 A 
ATOM     43  C   UNL A   1      39.516  31.522  32.770  1.00  0.00     0.031 C 
ATOM     44  C   UNL A   1      40.688  26.530  28.153  1.00  0.00     0.029 A 
ATOM     45  C   UNL A   1      41.731  26.721  29.155  1.00  0.00     0.049 A 
ATOM     46  H   UNL A   1      41.711  28.045  30.765  1.00  0.00     0.167 HD
ATOM     47  C   UNL A   1      41.616  31.027  33.979  1.00  0.00     0.031 A 
ATOM     48  C   UNL A   1      42.897  26.046  29.208  1.00  0.00     0.031 A 
ATOM     49  C   UNL A   1      42.833  30.291  34.181  1.00  0.00     0.049 A 
ATOM     50  C   UNL A   1      43.864  26.348  30.322  1.00  0.00     0.074 A 
ATOM     51  C   UNL A   1      43.763  30.425  35.195  1.00  0.00     0.029 A 
ATOM     52  N   UNL A   1      43.291  29.281  33.346  1.00  0.00    -0.354 N 
ATOM     53  N   UNL A   1      43.753  27.224  31.293  1.00  0.00    -0.248 NA
ATOM     54  C   UNL A   1      45.104  25.560  30.357  1.00  0.00     0.031 C 
ATOM     55  C   UNL A   1      44.807  29.526  34.949  1.00  0.00     0.029 A 
ATOM     56  C   UNL A   1      44.501  28.797  33.811  1.00  0.00     0.049 A 
ATOM     57  H   UNL A   1      42.822  28.957  32.543  1.00  0.00     0.167 HD
ATOM     58  C   UNL A   1      44.895  27.069  32.073  1.00  0.00     0.074 A 
ATOM     59  C   UNL A   1      45.676  26.011  31.466  1.00  0.00     0.031 C 
ATOM     60  C   UNL A   1      45.260  27.739  33.193  1.00  0.00     0.031 A 
BRANCH  47  61
ATOM     61  C   UNL A   1      41.274  32.144  34.928  1.00  0.00    -0.014 A 
ATOM     62  C   UNL A   1      40.553  31.892  36.110  1.00  0.00     0.010 A 
ATOM     63  C   UNL A   1      41.671  33.460  34.634  1.00  0.00     0.010 A 
ATOM     64  C   UNL A   1      40.187  32.943  36.953  1.00  0.00     0.020 A 
ATOM     65  C   UNL A   1      41.331  34.511  35.491  1.00  0.00     0.020 A 
ATOM     66  C   UNL A   1      40.572  34.248  36.633  1.00  0.00     0.054 A 
BRANCH  66  67
ATOM     67  S   UNL A   1      40.081  35.595  37.744  1.00  0.00     0.124 S 
ATOM     68  O   UNL A   1      39.865  36.694  36.806  1.00  0.00    -0.237 OA
ATOM     69  O   UNL A   1      38.877  35.066  38.379  1.00  0.00    -0.237 OA
ATOM     70  O   UNL A   1      41.232  35.750  38.630  1.00  0.00    -0.744 OA
ENDBRANCH  66  67
ENDBRANCH  47  61
BRANCH  48  71
ATOM     71  C   UNL A   1      43.204  25.000  28.194  1.00  0.00    -0.014 A 
ATOM     72  C   UNL A   1      42.838  23.661  28.420  1.00  0.00     0.010 A 
ATOM     73  C   UNL A   1      43.864  25.334  26.997  1.00  0.00     0.010 A 
ATOM     74  C   UNL A   1      43.144  22.673  27.480  1.00  0.00     0.020 A 
ATOM     75  C   UNL A   1      44.150  24.351  26.042  1.00  0.00     0.020 A 
ATOM     76  C   UNL A   1      43.798  23.024  26.295  1.00  0.00     0.054 A 
BRANCH  76  77
ATOM     77  S   UNL A   1      44.147  21.729  25.072  1.00  0.00     0.124 S 
ATOM     78  O   UNL A   1      43.084  20.765  25.339  1.00  0.00    -0.237 OA
ATOM     79  O   UNL A   1      44.042  22.454  23.808  1.00  0.00    -0.237 OA
ATOM     80  O   UNL A   1      45.496  21.286  25.418  1.00  0.00    -0.744 OA
ENDBRANCH  76  77
ENDBRANCH  48  71
BRANCH  60  81
ATOM     81  C   UNL A   1      46.545  27.328  33.859  1.00  0.00    -0.014 A 
ATOM     82  C   UNL A   1      47.763  27.956  33.544  1.00  0.00     0.010 A 
ATOM     83  C   UNL A   1      46.519  26.343  34.864  1.00  0.00     0.010 A 
ATOM     84  C   UNL A   1      48.937  27.589  34.208  1.00  0.00     0.020 A 
ATOM     85  C   UNL A   1      47.685  25.993  35.547  1.00  0.00     0.020 A 
ATOM     86  C   UNL A   1      48.890  26.611  35.206  1.00  0.00     0.054 A 
BRANCH  86  87
ATOM     87  S   UNL A   1      50.415  26.193  36.093  1.00  0.00     0.124 S 
ATOM     88  O   UNL A   1      49.965  26.183  37.482  1.00  0.00    -0.237 OA
ATOM     89  O   UNL A   1      50.764  24.888  35.536  1.00  0.00    -0.237 OA
ATOM     90  O   UNL A   1      51.329  27.277  35.742  1.00  0.00    -0.744 OA
ENDBRANCH  86  87
ENDBRANCH  60  81
ENDBRANCH  34  35
ENDBRANCH  26  29
ENDBRANCH  24  25
ENDBRANCH   1  24
TORSDOF 16
ENDMDL
MODEL 2
REMARK VINA RESULT:     -11.2      3.520      9.210
REMARK SMILES C[NH2+][C@@]1(C(=O)NCCCNC(=O)c2ccc(-c3c4nc(c(-c5ccc(S(=O)(=O)[O-])cc5)c5ccc([nH]5)c(-c5ccc(S(=O)(=O)[O-])cc5)c5nc(c(-c6ccc(S(=O)(=O)[O-])cc6)c6ccc3[nH]6)C=C5)C=C4)cc2)CC[C@H](Oc2cccc(C)c2)C1
REMARK SMILES IDX 8 1 7 2 6 3 4 4 5 5 3 7 73 8 84 9 74 10 75 11 2 12 1 13
REMARK SMILES IDX 76 16 77 17 78 18 83 19 79 20 81 21 80 22 82 23 9 24 10 25
REMARK SMILES IDX 11 26 12 28 13 29 14 30 72 31 15 32 71 33 16 34 17 35 18 36
REMARK SMILES IDX 65 37 19 38 70 39 64 40 66 41 20 42 69 43 63 44 62 45 21 47
REMARK SMILES IDX 51 48 32 49 50 50 33 51 36 52 49 53 67 54 34 55 35 56 48 58
REMARK SMILES IDX 68 59 37 60 22 61 23 62 31 63 24 64 30 65 25 66 26 67 27 68
REMARK SMILES IDX 28 69 29 70 52 71 53 72 61 73 54 74 60 75 55 76 56 77 57 78
REMARK SMILES IDX 58 79 59 80 38 81 39 82 47 83 40 84 46 85 41 86 42 87 43 88
REMARK SMILES IDX 44 89 45 90
REMARK H PARENT 6 6 2 14 2 15 10 27 66 46 36 57
REMARK Flexibility Score: inf
ROOT
ATOM      1  C   UNL A   1      35.729  24.036  25.984  1.00  0.00     0.042 C 
ENDROOT
BRANCH   1   2
ATOM      2  C   UNL A   1      34.332  23.861  25.418  1.00  0.00     0.118 C 
BRANCH   2   3
ATOM      3  N   UNL A   1      34.314  23.400  24.049  1.00  0.00    -0.351 N 
ATOM      4  C   UNL A   1      33.752  23.888  22.915  1.00  0.00     0.281 C 
ATOM      5  O   UNL A   1      34.190  23.362  21.877  1.00  0.00    -0.268 OA
ATOM      6  H   UNL A   1      34.811  22.562  23.911  1.00  0.00     0.163 HD
BRANCH   4   7
ATOM      7  C   UNL A   1      32.673  25.053  22.817  1.00  0.00     0.179 C 
ATOM      8  C   UNL A   1      32.973  26.025  21.666  1.00  0.00     0.083 C 
ATOM      9  C   UNL A   1      32.520  25.935  24.061  1.00  0.00     0.124 C 
ATOM     10  C   UNL A   1      33.446  27.340  22.276  1.00  0.00     0.052 C 
ATOM     11  C   UNL A   1      32.998  27.361  23.736  1.00  0.00     0.180 C 
BRANCH   7  12
ATOM     12  N   UNL A   1      31.369  24.390  22.451  1.00  0.00    -0.336 N 
ATOM     13  C   UNL A   1      30.947  23.333  23.373  1.00  0.00     0.331 C 
ATOM     14  H   UNL A   1      30.641  25.104  22.431  1.00  0.00     0.346 HD
ATOM     15  H   UNL A   1      31.514  23.944  21.545  1.00  0.00     0.346 HD
ENDBRANCH   7  12
BRANCH  11  16
ATOM     16  O   UNL A   1      33.941  27.649  24.761  1.00  0.00    -0.490 OA
BRANCH  16  17
ATOM     17  C   UNL A   1      33.899  28.701  25.610  1.00  0.00     0.119 A 
ATOM     18  C   UNL A   1      34.741  28.965  26.680  1.00  0.00     0.046 A 
ATOM     19  C   UNL A   1      32.799  29.534  25.382  1.00  0.00     0.049 A 
ATOM     20  C   UNL A   1      34.407  29.976  27.588  1.00  0.00     0.004 A 
ATOM     21  C   UNL A   1      32.440  30.524  26.298  1.00  0.00    -0.047 A 
ATOM     22  C   UNL A   1      33.251  30.736  27.411  1.00  0.00     0.003 A 
ATOM     23  C   UNL A   1      31.189  31.318  26.101  1.00  0.00     0.044 C 
ENDBRANCH  16  17
ENDBRANCH  11  16
ENDBRANCH   4   7
ENDBRANCH   2   3
ENDBRANCH   1   2
BRANCH   1  24
ATOM     24  C   UNL A   1      36.855  23.785  24.996  1.00  0.00     0.118 C 
BRANCH  24  25
ATOM     25  N   UNL A   1      37.808  22.788  25.477  1.00  0.00    -0.352 N 
ATOM     26  C   UNL A   1      38.973  22.884  26.207  1.00  0.00     0.251 C 
ATOM     27  H   UNL A   1      37.571  21.865  25.231  1.00  0.00     0.163 HD
ATOM     28  O   UNL A   1      39.675  21.883  26.307  1.00  0.00    -0.269 OA
BRANCH  26  29
ATOM     29  C   UNL A   1      39.418  24.151  26.847  1.00  0.00     0.039 A 
ATOM     30  C   UNL A   1      40.162  25.066  26.085  1.00  0.00     0.014 A 
ATOM     31  C   UNL A   1      39.175  24.441  28.188  1.00  0.00     0.014 A 
ATOM     32  C   UNL A   1      40.566  26.292  26.631  1.00  0.00     0.010 A 
ATOM     33  C   UNL A   1      39.497  25.692  28.710  1.00  0.00     0.010 A 
ATOM     34  C   UNL A   1      40.205  26.628  27.942  1.00  0.00    -0.014 A 
BRANCH  34  35
ATOM     35  C   UNL A   1      40.631  27.900  28.577  1.00  0.00     0.031 A 
ATOM     36  C   UNL A   1      42.008  27.991  29.176  1.00  0.00     0.074 A 
ATOM     37  C   UNL A   1      39.773  28.932  28.697  1.00  0.00     0.049 A 
ATOM     38  N   UNL A   1      42.549  28.964  29.860  1.00  0.00    -0.248 NA
ATOM     39  C   UNL A   1      42.882  26.818  29.000  1.00  0.00     0.031 C 
ATOM     40  C   UNL A   1      38.406  28.958  28.183  1.00  0.00     0.029 A 
ATOM     41  N   UNL A   1      39.917  30.153  29.309  1.00  0.00    -0.354 N 
ATOM     42  C   UNL A   1      43.817  28.517  30.209  1.00  0.00     0.074 A 
ATOM     43  C   UNL A   1      43.943  27.165  29.712  1.00  0.00     0.031 C 
ATOM     44  C   UNL A   1      37.833  30.131  28.500  1.00  0.00     0.029 A 
ATOM     45  C   UNL A   1      38.785  30.934  29.260  1.00  0.00     0.049 A 
ATOM     46  H   UNL A   1      40.752  30.442  29.744  1.00  0.00     0.167 HD
ATOM     47  C   UNL A   1      44.799  29.179  30.865  1.00  0.00     0.031 A 
ATOM     48  C   UNL A   1      38.542  32.157  29.772  1.00  0.00     0.031 A 
ATOM     49  C   UNL A   1      44.671  30.523  31.356  1.00  0.00     0.049 A 
ATOM     50  C   UNL A   1      39.640  32.866  30.518  1.00  0.00     0.074 A 
ATOM     51  C   UNL A   1      45.620  31.301  31.991  1.00  0.00     0.029 A 
ATOM     52  N   UNL A   1      43.517  31.288  31.267  1.00  0.00    -0.354 N 
ATOM     53  N   UNL A   1      40.858  32.452  30.778  1.00  0.00    -0.248 NA
ATOM     54  C   UNL A   1      39.338  34.212  31.026  1.00  0.00     0.031 C 
ATOM     55  C   UNL A   1      45.026  32.523  32.328  1.00  0.00     0.029 A 
ATOM     56  C   UNL A   1      43.723  32.523  31.855  1.00  0.00     0.049 A 
ATOM     57  H   UNL A   1      42.676  30.995  30.847  1.00  0.00     0.167 HD
ATOM     58  C   UNL A   1      41.478  33.501  31.451  1.00  0.00     0.074 A 
ATOM     59  C   UNL A   1      40.504  34.568  31.549  1.00  0.00     0.031 C 
ATOM     60  C   UNL A   1      42.741  33.574  31.938  1.00  0.00     0.031 A 
BRANCH  47  61
ATOM     61  C   UNL A   1      46.090  28.440  31.088  1.00  0.00    -0.014 A 
ATOM     62  C   UNL A   1      47.089  28.416  30.096  1.00  0.00     0.010 A 
ATOM     63  C   UNL A   1      46.310  27.759  32.298  1.00  0.00     0.010 A 
ATOM     64  C   UNL A   1      48.258  27.677  30.288  1.00  0.00     0.020 A 
ATOM     65  C   UNL A   1      47.493  27.043  32.505  1.00  0.00     0.020 A 
ATOM     66  C   UNL A   1      48.449  26.989  31.489  1.00  0.00     0.054 A 
BRANCH  66  67
ATOM     67  S   UNL A   1      49.975  26.035  31.710  1.00  0.00     0.124 S 
ATOM     68  O   UNL A   1      49.516  24.920  32.533  1.00  0.00    -0.237 OA
ATOM     69  O   UNL A   1      50.343  25.693  30.339  1.00  0.00    -0.237 OA
ATOM     70  O   UNL A   1      50.875  26.973  32.377  1.00  0.00    -0.744 OA
ENDBRANCH  66  67
ENDBRANCH  47  61
BRANCH  48  71
ATOM     71  C   UNL A   1      37.214  32.802  29.575  1.00  0.00    -0.014 A 
ATOM     72  C   UNL A   1      36.944  33.528  28.401  1.00  0.00     0.010 A 
ATOM     73  C   UNL A   1      36.212  32.695  30.557  1.00  0.00     0.010 A 
ATOM     74  C   UNL A   1      35.706  34.154  28.222  1.00  0.00     0.020 A 
ATOM     75  C   UNL A   1      34.963  33.299  30.370  1.00  0.00     0.020 A 
ATOM     76  C   UNL A   1      34.723  34.035  29.208  1.00  0.00     0.054 A 
BRANCH  76  77
ATOM     77  S   UNL A   1      33.110  34.821  28.933  1.00  0.00     0.124 S 
ATOM     78  O   UNL A   1      33.495  36.149  28.465  1.00  0.00    -0.237 OA
ATOM     79  O   UNL A   1      32.500  33.947  27.933  1.00  0.00    -0.237 OA
ATOM     80  O   UNL A   1      32.480  34.780  30.252  1.00  0.00    -0.744 OA
ENDBRANCH  76  77
ENDBRANCH  48  71
BRANCH  60  81
ATOM     81  C   UNL A   1      43.157  34.863  32.593  1.00  0.00    -0.014 A 
ATOM     82  C   UNL A   1      43.818  35.869  31.868  1.00  0.00     0.010 A 
ATOM     83  C   UNL A   1      42.819  35.095  33.939  1.00  0.00     0.010 A 
ATOM     84  C   UNL A   1      44.155  37.077  32.484  1.00  0.00     0.020 A 
ATOM     85  C   UNL A   1      43.130  36.312  34.551  1.00  0.00     0.020 A 
ATOM     86  C   UNL A   1      43.807  37.291  33.822  1.00  0.00     0.054 A 
BRANCH  86  87
ATOM     87  S   UNL A   1      44.203  38.888  34.583  1.00  0.00     0.124 S 
ATOM     88  O   UNL A   1      45.522  39.172  34.024  1.00  0.00    -0.237 OA
ATOM     89  O   UNL A   1      43.121  39.747  34.109  1.00  0.00    -0.237 OA
ATOM     90  O   UNL A   1      44.182  38.604  36.016  1.00  0.00    -0.744 OA
ENDBRANCH  86  87
ENDBRANCH  60  81
ENDBRANCH  34  35
ENDBRANCH  26  29
ENDBRANCH  24  25
ENDBRANCH   1  24
TORSDOF 16
ENDMDL
MODEL 3
REMARK VINA RESULT:     -11.1      4.354      9.542
REMARK SMILES C[NH2+][C@@]1(C(=O)NCCCNC(=O)c2ccc(-c3c4nc(c(-c5ccc(S(=O)(=O)[O-])cc5)c5ccc([nH]5)c(-c5ccc(S(=O)(=O)[O-])cc5)c5nc(c(-c6ccc(S(=O)(=O)[O-])cc6)c6ccc3[nH]6)C=C5)C=C4)cc2)CC[C@H](Oc2cccc(C)c2)C1
REMARK SMILES IDX 8 1 7 2 6 3 4 4 5 5 3 7 73 8 84 9 74 10 75 11 2 12 1 13
REMARK SMILES IDX 76 16 77 17 78 18 83 19 79 20 81 21 80 22 82 23 9 24 10 25
REMARK SMILES IDX 11 26 12 28 13 29 14 30 72 31 15 32 71 33 16 34 17 35 18 36
REMARK SMILES IDX 65 37 19 38 70 39 64 40 66 41 20 42 69 43 63 44 62 45 21 47
REMARK SMILES IDX 51 48 32 49 50 50 33 51 36 52 49 53 67 54 34 55 35 56 48 58
REMARK SMILES IDX 68 59 37 60 22 61 23 62 31 63 24 64 30 65 25 66 26 67 27 68
REMARK SMILES IDX 28 69 29 70 52 71 53 72 61 73 54 74 60 75 55 76 56 77 57 78
REMARK SMILES IDX 58 79 59 80 38 81 39 82 47 83 40 84 46 85 41 86 42 87 43 88
REMARK SMILES IDX 44 89 45 90
REMARK H PARENT 6 6 2 14 2 15 10 27 66 46 36 57
REMARK Flexibility Score: inf
ROOT
ATOM      1  C   UNL A   1      37.652  24.037  25.739  1.00  0.00     0.042 C 
ENDROOT
BRANCH   1   2
ATOM      2  C   UNL A   1      36.777  22.801  25.827  1.00  0.00     0.118 C 
BRANCH   2   3
ATOM      3  N   UNL A   1      35.804  22.855  26.895  1.00  0.00    -0.351 N 
ATOM      4  C   UNL A   1      34.448  22.861  26.913  1.00  0.00     0.281 C 
ATOM      5  O   UNL A   1      33.965  22.633  28.034  1.00  0.00    -0.268 OA
ATOM      6  H   UNL A   1      36.208  22.895  27.791  1.00  0.00     0.163 HD
BRANCH   4   7
ATOM      7  C   UNL A   1      33.484  23.076  25.664  1.00  0.00     0.179 C 
ATOM      8  C   UNL A   1      32.058  23.450  26.092  1.00  0.00     0.083 C 
ATOM      9  C   UNL A   1      33.322  21.875  24.725  1.00  0.00     0.124 C 
ATOM     10  C   UNL A   1      31.156  22.254  25.812  1.00  0.00     0.052 C 
ATOM     11  C   UNL A   1      31.876  21.356  24.809  1.00  0.00     0.180 C 
BRANCH   7  12
ATOM     12  N   UNL A   1      34.012  24.281  24.928  1.00  0.00    -0.336 N 
ATOM     13  C   UNL A   1      34.134  24.101  23.479  1.00  0.00     0.331 C 
ATOM     14  H   UNL A   1      33.379  25.062  25.099  1.00  0.00     0.346 HD
ATOM     15  H   UNL A   1      34.954  24.447  25.280  1.00  0.00     0.346 HD
ENDBRANCH   7  12
BRANCH  11  16
ATOM     16  O   UNL A   1      32.025  19.968  25.082  1.00  0.00    -0.490 OA
BRANCH  16  17
ATOM     17  C   UNL A   1      32.614  19.055  24.277  1.00  0.00     0.119 A 
ATOM     18  C   UNL A   1      32.325  18.778  22.950  1.00  0.00     0.046 A 
ATOM     19  C   UNL A   1      33.555  18.269  24.951  1.00  0.00     0.049 A 
ATOM     20  C   UNL A   1      32.877  17.644  22.344  1.00  0.00     0.004 A 
ATOM     21  C   UNL A   1      34.087  17.118  24.369  1.00  0.00    -0.047 A 
ATOM     22  C   UNL A   1      33.735  16.805  23.056  1.00  0.00     0.003 A 
ATOM     23  C   UNL A   1      34.991  16.222  25.151  1.00  0.00     0.044 C 
ENDBRANCH  16  17
ENDBRANCH  11  16
ENDBRANCH   4   7
ENDBRANCH   2   3
ENDBRANCH   1   2
BRANCH   1  24
ATOM     24  C   UNL A   1      38.908  23.994  26.594  1.00  0.00     0.118 C 
BRANCH  24  25
ATOM     25  N   UNL A   1      40.076  24.527  25.897  1.00  0.00    -0.352 N 
ATOM     26  C   UNL A   1      40.862  25.640  26.106  1.00  0.00     0.251 C 
ATOM     27  H   UNL A   1      40.357  23.984  25.126  1.00  0.00     0.163 HD
ATOM     28  O   UNL A   1      41.674  25.943  25.238  1.00  0.00    -0.269 OA
BRANCH  26  29
ATOM     29  C   UNL A   1      40.741  26.493  27.319  1.00  0.00     0.039 A 
ATOM     30  C   UNL A   1      39.829  26.119  28.319  1.00  0.00     0.014 A 
ATOM     31  C   UNL A   1      41.456  27.678  27.477  1.00  0.00     0.014 A 
ATOM     32  C   UNL A   1      39.713  26.867  29.499  1.00  0.00     0.010 A 
ATOM     33  C   UNL A   1      41.409  28.376  28.682  1.00  0.00     0.010 A 
ATOM     34  C   UNL A   1      40.530  27.986  29.702  1.00  0.00    -0.014 A 
BRANCH  34  35
ATOM     35  C   UNL A   1      40.426  28.829  30.920  1.00  0.00     0.031 A 
ATOM     36  C   UNL A   1      39.412  29.939  30.955  1.00  0.00     0.074 A 
ATOM     37  C   UNL A   1      41.282  28.664  31.948  1.00  0.00     0.049 A 
ATOM     38  N   UNL A   1      39.217  30.851  31.869  1.00  0.00    -0.248 NA
ATOM     39  C   UNL A   1      38.516  30.050  29.791  1.00  0.00     0.031 C 
ATOM     40  C   UNL A   1      42.324  27.642  32.023  1.00  0.00     0.029 A 
ATOM     41  N   UNL A   1      41.426  29.367  33.118  1.00  0.00    -0.354 N 
ATOM     42  C   UNL A   1      38.189  31.652  31.387  1.00  0.00     0.074 A 
ATOM     43  C   UNL A   1      37.842  31.154  30.074  1.00  0.00     0.031 C 
ATOM     44  C   UNL A   1      43.002  27.782  33.175  1.00  0.00     0.029 A 
ATOM     45  C   UNL A   1      42.458  28.919  33.910  1.00  0.00     0.049 A 
ATOM     46  H   UNL A   1      40.845  30.122  33.367  1.00  0.00     0.167 HD
ATOM     47  C   UNL A   1      37.572  32.695  31.989  1.00  0.00     0.031 A 
ATOM     48  C   UNL A   1      42.915  29.374  35.094  1.00  0.00     0.031 A 
ATOM     49  C   UNL A   1      37.918  33.187  33.294  1.00  0.00     0.049 A 
ATOM     50  C   UNL A   1      42.229  30.550  35.736  1.00  0.00     0.074 A 
ATOM     51  C   UNL A   1      37.325  34.206  34.015  1.00  0.00     0.029 A 
ATOM     52  N   UNL A   1      38.954  32.692  34.074  1.00  0.00    -0.354 N 
ATOM     53  N   UNL A   1      41.212  31.251  35.294  1.00  0.00    -0.248 NA
ATOM     54  C   UNL A   1      42.741  30.986  37.043  1.00  0.00     0.031 C 
ATOM     55  C   UNL A   1      38.032  34.360  35.213  1.00  0.00     0.029 A 
ATOM     56  C   UNL A   1      39.031  33.400  35.260  1.00  0.00     0.049 A 
ATOM     57  H   UNL A   1      39.545  31.948  33.820  1.00  0.00     0.167 HD
ATOM     58  C   UNL A   1      40.941  32.191  36.284  1.00  0.00     0.074 A 
ATOM     59  C   UNL A   1      41.895  31.961  37.350  1.00  0.00     0.031 C 
ATOM     60  C   UNL A   1      39.986  33.153  36.310  1.00  0.00     0.031 A 
BRANCH  47  61
ATOM     61  C   UNL A   1      36.465  33.370  31.225  1.00  0.00    -0.014 A 
ATOM     62  C   UNL A   1      36.697  33.913  29.947  1.00  0.00     0.010 A 
ATOM     63  C   UNL A   1      35.182  33.467  31.789  1.00  0.00     0.010 A 
ATOM     64  C   UNL A   1      35.680  34.591  29.273  1.00  0.00     0.020 A 
ATOM     65  C   UNL A   1      34.153  34.120  31.103  1.00  0.00     0.020 A 
ATOM     66  C   UNL A   1      34.416  34.697  29.859  1.00  0.00     0.054 A 
BRANCH  66  67
ATOM     67  S   UNL A   1      33.114  35.585  28.962  1.00  0.00     0.124 S 
ATOM     68  O   UNL A   1      32.474  34.505  28.215  1.00  0.00    -0.237 OA
ATOM     69  O   UNL A   1      32.315  36.161  30.040  1.00  0.00    -0.237 OA
ATOM     70  O   UNL A   1      33.850  36.552  28.151  1.00  0.00    -0.744 OA
ENDBRANCH  66  67
ENDBRANCH  47  61
BRANCH  48  71
ATOM     71  C   UNL A   1      44.063  28.702  35.763  1.00  0.00    -0.014 A 
ATOM     72  C   UNL A   1      45.380  29.127  35.513  1.00  0.00     0.010 A 
ATOM     73  C   UNL A   1      43.849  27.636  36.656  1.00  0.00     0.010 A 
ATOM     74  C   UNL A   1      46.462  28.485  36.123  1.00  0.00     0.020 A 
ATOM     75  C   UNL A   1      44.927  27.007  37.288  1.00  0.00     0.020 A 
ATOM     76  C   UNL A   1      46.228  27.428  37.008  1.00  0.00     0.054 A 
BRANCH  76  77
ATOM     77  S   UNL A   1      47.647  26.639  37.820  1.00  0.00     0.124 S 
ATOM     78  O   UNL A   1      47.093  25.346  38.211  1.00  0.00    -0.237 OA
ATOM     79  O   UNL A   1      48.643  26.606  36.752  1.00  0.00    -0.237 OA
ATOM     80  O   UNL A   1      47.957  27.546  38.923  1.00  0.00    -0.744 OA
ENDBRANCH  76  77
ENDBRANCH  48  71
BRANCH  60  81
ATOM     81  C   UNL A   1      39.900  34.010  37.543  1.00  0.00    -0.014 A 
ATOM     82  C   UNL A   1      40.650  35.193  37.663  1.00  0.00     0.010 A 
ATOM     83  C   UNL A   1      39.002  33.659  38.568  1.00  0.00     0.010 A 
ATOM     84  C   UNL A   1      40.520  35.998  38.797  1.00  0.00     0.020 A 
ATOM     85  C   UNL A   1      38.850  34.475  39.691  1.00  0.00     0.020 A 
ATOM     86  C   UNL A   1      39.620  35.634  39.804  1.00  0.00     0.054 A 
BRANCH  86  87
ATOM     87  S   UNL A   1      39.426  36.724  41.240  1.00  0.00     0.124 S 
ATOM     88  O   UNL A   1      40.806  36.877  41.693  1.00  0.00    -0.237 OA
ATOM     89  O   UNL A   1      38.820  37.919  40.657  1.00  0.00    -0.237 OA
ATOM     90  O   UNL A   1      38.556  35.967  42.136  1.00  0.00    -0.744 OA
ENDBRANCH  86  87
ENDBRANCH  60  81
ENDBRANCH  34  35
ENDBRANCH  26  29
ENDBRANCH  24  25
ENDBRANCH   1  24
TORSDOF 16
ENDMDL
