MODEL 1
REMARK VINA RESULT:     -10.6      0.000      0.000
REMARK SMILES CC[NH2+][C@]1(C(=O)NCCCNC(=O)c2ccc(-c3c4nc(c(-c5ccc(S(=O)(=O)[O-])cc5)c5ccc([nH]5)c(-c5ccc(S(=O)(=O)[O-])cc5)c5nc(c(-c6ccc(S(=O)(=O)[O-])cc6)c6ccc3[nH]6)C=C5)C=C4)cc2)CCC[C@H]1CCSc1n[nH]c(=O)n1C
REMARK SMILES IDX 8 1 7 2 5 3 6 4 4 6 74 7 77 8 75 9 76 10 3 11 2 14 1 15
REMARK SMILES IDX 78 16 79 17 80 18 81 19 82 20 86 21 83 22 84 23 87 24 85 26
REMARK SMILES IDX 9 27 10 28 11 29 12 30 13 32 14 33 15 34 73 35 16 36 72 37
REMARK SMILES IDX 17 38 18 39 19 40 66 41 20 42 71 43 65 44 67 45 21 46 70 47
REMARK SMILES IDX 64 48 63 49 22 51 52 52 33 53 51 54 34 55 37 56 50 57 68 58
REMARK SMILES IDX 35 59 36 60 49 62 69 63 38 64 23 65 24 66 32 67 25 68 31 69
REMARK SMILES IDX 26 70 27 71 28 72 29 73 30 74 53 75 54 76 62 77 55 78 61 79
REMARK SMILES IDX 56 80 57 81 58 82 59 83 60 84 39 85 40 86 48 87 41 88 47 89
REMARK SMILES IDX 42 90 43 91 44 92 45 93 46 94
REMARK H PARENT 7 5 3 12 3 13 83 25 11 31 67 50 37 61
REMARK Flexibility Score: inf
ROOT
ATOM      1  C   UNL A   1      32.122  27.799  27.424  1.00  0.00     0.118 C 
ENDROOT
BRANCH   1   2
ATOM      2  N   UNL A   1      31.036  26.860  27.133  1.00  0.00    -0.351 N 
ATOM      3  C   UNL A   1      30.803  25.828  26.280  1.00  0.00     0.281 C 
ATOM      4  O   UNL A   1      29.816  25.152  26.612  1.00  0.00    -0.268 OA
ATOM      5  H   UNL A   1      30.261  27.021  27.718  1.00  0.00     0.163 HD
BRANCH   3   6
ATOM      6  C   UNL A   1      31.611  25.440  24.989  1.00  0.00     0.178 C 
ATOM      7  C   UNL A   1      30.998  24.133  24.421  1.00  0.00     0.079 C 
ATOM      8  C   UNL A   1      31.386  26.402  23.760  1.00  0.00     0.061 C 
ATOM      9  C   UNL A   1      31.321  24.086  22.930  1.00  0.00     0.008 C 
ATOM     10  C   UNL A   1      31.673  25.510  22.528  1.00  0.00     0.011 C 
BRANCH   6  11
ATOM     11  N   UNL A   1      33.050  25.411  25.248  1.00  0.00    -0.334 N 
ATOM     12  H   UNL A   1      33.497  25.364  24.332  1.00  0.00     0.347 HD
ATOM     13  H   UNL A   1      33.165  26.236  25.836  1.00  0.00     0.347 HD
BRANCH  11  14
ATOM     14  C   UNL A   1      33.691  24.401  26.051  1.00  0.00     0.257 C 
ATOM     15  C   UNL A   1      34.312  23.326  25.169  1.00  0.00     0.071 C 
ENDBRANCH  11  14
ENDBRANCH   6  11
BRANCH   8  16
ATOM     16  C   UNL A   1      30.015  27.098  23.565  1.00  0.00     0.022 C 
BRANCH  16  17
ATOM     17  C   UNL A   1      29.983  28.288  22.595  1.00  0.00     0.079 C 
BRANCH  17  18
ATOM     18  S   UNL A   1      29.751  29.929  23.366  1.00  0.00    -0.086 SA
BRANCH  18  19
ATOM     19  C   UNL A   1      28.778  30.721  22.185  1.00  0.00     0.191 A 
ATOM     20  N   UNL A   1      28.244  30.095  21.177  1.00  0.00    -0.146 NA
ATOM     21  N   UNL A   1      28.565  32.057  22.208  1.00  0.00    -0.273 N 
ATOM     22  N   UNL A   1      27.676  31.097  20.441  1.00  0.00    -0.226 N 
ATOM     23  C   UNL A   1      27.891  32.323  21.048  1.00  0.00     0.343 A 
ATOM     24  C   UNL A   1      28.925  33.049  23.194  1.00  0.00     0.157 C 
ATOM     25  H   UNL A   1      27.185  30.965  19.598  1.00  0.00     0.195 HD
ATOM     26  O   UNL A   1      27.583  33.410  20.583  1.00  0.00    -0.246 OA
ENDBRANCH  18  19
ENDBRANCH  17  18
ENDBRANCH  16  17
ENDBRANCH   8  16
ENDBRANCH   3   6
ENDBRANCH   1   2
BRANCH   1  27
ATOM     27  C   UNL A   1      32.293  28.882  26.353  1.00  0.00     0.042 C 
BRANCH  27  28
ATOM     28  C   UNL A   1      33.611  29.664  26.388  1.00  0.00     0.118 C 
BRANCH  28  29
ATOM     29  N   UNL A   1      33.447  31.021  26.879  1.00  0.00    -0.352 N 
ATOM     30  C   UNL A   1      34.156  31.718  27.830  1.00  0.00     0.251 C 
ATOM     31  H   UNL A   1      32.708  31.523  26.464  1.00  0.00     0.163 HD
ATOM     32  O   UNL A   1      33.676  32.766  28.260  1.00  0.00    -0.269 OA
BRANCH  30  33
ATOM     33  C   UNL A   1      35.472  31.254  28.350  1.00  0.00     0.039 A 
ATOM     34  C   UNL A   1      35.505  30.076  29.108  1.00  0.00     0.014 A 
ATOM     35  C   UNL A   1      36.645  32.002  28.213  1.00  0.00     0.014 A 
ATOM     36  C   UNL A   1      36.696  29.652  29.710  1.00  0.00     0.010 A 
ATOM     37  C   UNL A   1      37.853  31.535  28.749  1.00  0.00     0.010 A 
ATOM     38  C   UNL A   1      37.890  30.370  29.532  1.00  0.00    -0.014 A 
BRANCH  38  39
ATOM     39  C   UNL A   1      39.147  29.931  30.209  1.00  0.00     0.031 A 
ATOM     40  C   UNL A   1      39.590  30.572  31.503  1.00  0.00     0.074 A 
ATOM     41  C   UNL A   1      39.891  28.940  29.675  1.00  0.00     0.049 A 
ATOM     42  N   UNL A   1      40.618  30.278  32.263  1.00  0.00    -0.248 NA
ATOM     43  C   UNL A   1      38.787  31.699  32.002  1.00  0.00     0.031 C 
ATOM     44  C   UNL A   1      39.598  28.249  28.417  1.00  0.00     0.029 A 
ATOM     45  N   UNL A   1      41.035  28.327  30.129  1.00  0.00    -0.354 N 
ATOM     46  C   UNL A   1      40.585  31.183  33.320  1.00  0.00     0.074 A 
ATOM     47  C   UNL A   1      39.475  32.076  33.071  1.00  0.00     0.031 C 
ATOM     48  C   UNL A   1      40.506  27.278  28.227  1.00  0.00     0.029 A 
ATOM     49  C   UNL A   1      41.470  27.299  29.323  1.00  0.00     0.049 A 
ATOM     50  H   UNL A   1      41.500  28.599  30.953  1.00  0.00     0.167 HD
ATOM     51  C   UNL A   1      41.385  31.254  34.413  1.00  0.00     0.031 A 
ATOM     52  C   UNL A   1      42.519  26.462  29.450  1.00  0.00     0.031 A 
ATOM     53  C   UNL A   1      42.491  30.367  34.664  1.00  0.00     0.049 A 
ATOM     54  C   UNL A   1      43.413  26.578  30.657  1.00  0.00     0.074 A 
ATOM     55  C   UNL A   1      43.336  30.335  35.761  1.00  0.00     0.029 A 
ATOM     56  N   UNL A   1      42.911  29.360  33.808  1.00  0.00    -0.354 N 
ATOM     57  N   UNL A   1      43.326  27.402  31.674  1.00  0.00    -0.248 NA
ATOM     58  C   UNL A   1      44.541  25.637  30.740  1.00  0.00     0.031 C 
ATOM     59  C   UNL A   1      44.304  29.350  35.538  1.00  0.00     0.029 A 
ATOM     60  C   UNL A   1      44.018  28.718  34.338  1.00  0.00     0.049 A 
ATOM     61  H   UNL A   1      42.485  29.135  32.949  1.00  0.00     0.167 HD
ATOM     62  C   UNL A   1      44.363  27.056  32.533  1.00  0.00     0.074 A 
ATOM     63  C   UNL A   1      45.058  25.941  31.923  1.00  0.00     0.031 C 
ATOM     64  C   UNL A   1      44.705  27.609  33.724  1.00  0.00     0.031 A 
BRANCH  51  65
ATOM     65  C   UNL A   1      41.094  32.341  35.420  1.00  0.00    -0.014 A 
ATOM     66  C   UNL A   1      41.691  33.612  35.316  1.00  0.00     0.010 A 
ATOM     67  C   UNL A   1      40.186  32.102  36.468  1.00  0.00     0.010 A 
ATOM     68  C   UNL A   1      41.430  34.600  36.270  1.00  0.00     0.020 A 
ATOM     69  C   UNL A   1      39.895  33.099  37.405  1.00  0.00     0.020 A 
ATOM     70  C   UNL A   1      40.537  34.335  37.311  1.00  0.00     0.054 A 
BRANCH  70  71
ATOM     71  S   UNL A   1      40.215  35.639  38.532  1.00  0.00     0.124 S 
ATOM     72  O   UNL A   1      41.529  35.805  39.147  1.00  0.00    -0.237 OA
ATOM     73  O   UNL A   1      39.767  36.752  37.700  1.00  0.00    -0.237 OA
ATOM     74  O   UNL A   1      39.191  35.060  39.398  1.00  0.00    -0.744 OA
ENDBRANCH  70  71
ENDBRANCH  51  65
BRANCH  52  75
ATOM     75  C   UNL A   1      42.766  25.416  28.417  1.00  0.00    -0.014 A 
ATOM     76  C   UNL A   1      43.579  25.687  27.302  1.00  0.00     0.010 A 
ATOM     77  C   UNL A   1      42.197  24.136  28.551  1.00  0.00     0.010 A 
ATOM     78  C   UNL A   1      43.807  24.703  26.334  1.00  0.00     0.020 A 
ATOM     79  C   UNL A   1      42.449  23.140  27.602  1.00  0.00     0.020 A 
ATOM     80  C   UNL A   1      43.245  23.433  26.493  1.00  0.00     0.054 A 
BRANCH  80  81
ATOM     81  S   UNL A   1      43.601  22.158  25.254  1.00  0.00     0.124 S 
ATOM     82  O   UNL A   1      42.577  21.157  25.544  1.00  0.00    -0.237 OA
ATOM     83  O   UNL A   1      43.439  22.884  23.998  1.00  0.00    -0.237 OA
ATOM     84  O   UNL A   1      44.972  21.756  25.561  1.00  0.00    -0.744 OA
ENDBRANCH  80  81
ENDBRANCH  52  75
BRANCH  64  85
ATOM     85  C   UNL A   1      45.857  26.993  34.476  1.00  0.00    -0.014 A 
ATOM     86  C   UNL A   1      47.169  27.480  34.343  1.00  0.00     0.010 A 
ATOM     87  C   UNL A   1      45.609  25.937  35.373  1.00  0.00     0.010 A 
ATOM     88  C   UNL A   1      48.216  26.902  35.067  1.00  0.00     0.020 A 
ATOM     89  C   UNL A   1      46.646  25.376  36.123  1.00  0.00     0.020 A 
ATOM     90  C   UNL A   1      47.947  25.853  35.953  1.00  0.00     0.054 A 
BRANCH  90  91
ATOM     91  S   UNL A   1      49.316  25.146  36.911  1.00  0.00     0.124 S 
ATOM     92  O   UNL A   1      49.833  26.317  37.613  1.00  0.00    -0.237 OA
ATOM     93  O   UNL A   1      48.643  24.157  37.749  1.00  0.00    -0.237 OA
ATOM     94  O   UNL A   1      50.202  24.590  35.890  1.00  0.00    -0.744 OA
ENDBRANCH  90  91
ENDBRANCH  64  85
ENDBRANCH  38  39
ENDBRANCH  30  33
ENDBRANCH  28  29
ENDBRANCH  27  28
ENDBRANCH   1  27
TORSDOF 19
ENDMDL
MODEL 2
REMARK VINA RESULT:     -10.5      5.204      6.467
REMARK SMILES CC[NH2+][C@]1(C(=O)NCCCNC(=O)c2ccc(-c3c4nc(c(-c5ccc(S(=O)(=O)[O-])cc5)c5ccc([nH]5)c(-c5ccc(S(=O)(=O)[O-])cc5)c5nc(c(-c6ccc(S(=O)(=O)[O-])cc6)c6ccc3[nH]6)C=C5)C=C4)cc2)CCC[C@H]1CCSc1n[nH]c(=O)n1C
REMARK SMILES IDX 8 1 7 2 5 3 6 4 4 6 74 7 77 8 75 9 76 10 3 11 2 14 1 15
REMARK SMILES IDX 78 16 79 17 80 18 81 19 82 20 86 21 83 22 84 23 87 24 85 26
REMARK SMILES IDX 9 27 10 28 11 29 12 30 13 32 14 33 15 34 73 35 16 36 72 37
REMARK SMILES IDX 17 38 18 39 19 40 66 41 20 42 71 43 65 44 67 45 21 46 70 47
REMARK SMILES IDX 64 48 63 49 22 51 52 52 33 53 51 54 34 55 37 56 50 57 68 58
REMARK SMILES IDX 35 59 36 60 49 62 69 63 38 64 23 65 24 66 32 67 25 68 31 69
REMARK SMILES IDX 26 70 27 71 28 72 29 73 30 74 53 75 54 76 62 77 55 78 61 79
REMARK SMILES IDX 56 80 57 81 58 82 59 83 60 84 39 85 40 86 48 87 41 88 47 89
REMARK SMILES IDX 42 90 43 91 44 92 45 93 46 94
REMARK H PARENT 7 5 3 12 3 13 83 25 11 31 67 50 37 61
REMARK Flexibility Score: inf
ROOT
ATOM      1  C   UNL A   1      33.864  28.930  26.696  1.00  0.00     0.118 C 
ENDROOT
BRANCH   1   2
ATOM      2  N   UNL A   1      32.602  28.229  26.938  1.00  0.00    -0.351 N 
ATOM      3  C   UNL A   1      31.958  27.130  26.465  1.00  0.00     0.281 C 
ATOM      4  O   UNL A   1      31.017  26.779  27.196  1.00  0.00    -0.268 OA
ATOM      5  H   UNL A   1      32.074  28.678  27.636  1.00  0.00     0.163 HD
BRANCH   3   6
ATOM      6  C   UNL A   1      32.269  26.316  25.157  1.00  0.00     0.178 C 
ATOM      7  C   UNL A   1      31.166  25.235  24.997  1.00  0.00     0.079 C 
ATOM      8  C   UNL A   1      32.056  27.120  23.817  1.00  0.00     0.061 C 
ATOM      9  C   UNL A   1      31.086  24.879  23.515  1.00  0.00     0.008 C 
ATOM     10  C   UNL A   1      31.748  26.025  22.768  1.00  0.00     0.011 C 
BRANCH   6  11
ATOM     11  N   UNL A   1      33.647  25.827  25.146  1.00  0.00    -0.334 N 
ATOM     12  H   UNL A   1      33.888  25.697  24.164  1.00  0.00     0.347 HD
ATOM     13  H   UNL A   1      34.117  26.542  25.701  1.00  0.00     0.347 HD
BRANCH  11  14
ATOM     14  C   UNL A   1      34.069  24.625  25.818  1.00  0.00     0.257 C 
ATOM     15  C   UNL A   1      35.467  24.221  25.371  1.00  0.00     0.071 C 
ENDBRANCH  11  14
ENDBRANCH   6  11
BRANCH   8  16
ATOM     16  C   UNL A   1      30.959  28.212  23.738  1.00  0.00     0.022 C 
BRANCH  16  17
ATOM     17  C   UNL A   1      29.981  28.117  22.558  1.00  0.00     0.079 C 
BRANCH  17  18
ATOM     18  S   UNL A   1      28.284  28.710  22.888  1.00  0.00    -0.086 SA
BRANCH  18  19
ATOM     19  C   UNL A   1      28.317  30.260  22.136  1.00  0.00     0.191 A 
ATOM     20  N   UNL A   1      28.777  30.449  20.933  1.00  0.00    -0.146 NA
ATOM     21  N   UNL A   1      27.920  31.380  22.781  1.00  0.00    -0.273 N 
ATOM     22  N   UNL A   1      28.734  31.807  20.784  1.00  0.00    -0.226 N 
ATOM     23  C   UNL A   1      28.235  32.403  21.930  1.00  0.00     0.343 A 
ATOM     24  C   UNL A   1      27.293  31.549  24.071  1.00  0.00     0.157 C 
ATOM     25  H   UNL A   1      29.019  32.292  19.975  1.00  0.00     0.195 HD
ATOM     26  O   UNL A   1      28.162  33.606  22.132  1.00  0.00    -0.246 OA
ENDBRANCH  18  19
ENDBRANCH  17  18
ENDBRANCH  16  17
ENDBRANCH   8  16
ENDBRANCH   3   6
ENDBRANCH   1   2
BRANCH   1  27
ATOM     27  C   UNL A   1      33.950  30.290  27.400  1.00  0.00     0.042 C 
BRANCH  27  28
ATOM     28  C   UNL A   1      35.334  30.694  27.920  1.00  0.00     0.118 C 
BRANCH  28  29
ATOM     29  N   UNL A   1      35.439  30.607  29.366  1.00  0.00    -0.352 N 
ATOM     30  C   UNL A   1      36.392  30.007  30.157  1.00  0.00     0.251 C 
ATOM     31  H   UNL A   1      34.710  31.047  29.860  1.00  0.00     0.163 HD
ATOM     32  O   UNL A   1      36.137  29.845  31.350  1.00  0.00    -0.269 OA
BRANCH  30  33
ATOM     33  C   UNL A   1      37.707  29.557  29.626  1.00  0.00     0.039 A 
ATOM     34  C   UNL A   1      38.659  29.079  30.536  1.00  0.00     0.014 A 
ATOM     35  C   UNL A   1      38.071  29.701  28.284  1.00  0.00     0.014 A 
ATOM     36  C   UNL A   1      39.949  28.743  30.106  1.00  0.00     0.010 A 
ATOM     37  C   UNL A   1      39.336  29.290  27.841  1.00  0.00     0.010 A 
ATOM     38  C   UNL A   1      40.303  28.836  28.750  1.00  0.00    -0.014 A 
BRANCH  38  39
ATOM     39  C   UNL A   1      41.693  28.511  28.307  1.00  0.00     0.031 A 
ATOM     40  C   UNL A   1      42.768  29.572  28.303  1.00  0.00     0.074 A 
ATOM     41  C   UNL A   1      42.003  27.256  27.920  1.00  0.00     0.049 A 
ATOM     42  N   UNL A   1      44.041  29.459  28.010  1.00  0.00    -0.248 NA
ATOM     43  C   UNL A   1      42.361  30.941  28.659  1.00  0.00     0.031 C 
ATOM     44  C   UNL A   1      41.059  26.138  27.848  1.00  0.00     0.029 A 
ATOM     45  N   UNL A   1      43.200  26.703  27.532  1.00  0.00    -0.354 N 
ATOM     46  C   UNL A   1      44.580  30.736  28.141  1.00  0.00     0.074 A 
ATOM     47  C   UNL A   1      43.485  31.619  28.477  1.00  0.00     0.031 C 
ATOM     48  C   UNL A   1      41.722  25.026  27.491  1.00  0.00     0.029 A 
ATOM     49  C   UNL A   1      43.127  25.354  27.268  1.00  0.00     0.049 A 
ATOM     50  H   UNL A   1      44.032  27.223  27.451  1.00  0.00     0.167 HD
ATOM     51  C   UNL A   1      45.869  31.139  28.020  1.00  0.00     0.031 A 
ATOM     52  C   UNL A   1      44.079  24.475  26.896  1.00  0.00     0.031 A 
ATOM     53  C   UNL A   1      46.962  30.263  27.685  1.00  0.00     0.049 A 
ATOM     54  C   UNL A   1      45.500  24.949  26.738  1.00  0.00     0.074 A 
ATOM     55  C   UNL A   1      48.308  30.569  27.577  1.00  0.00     0.029 A 
ATOM     56  N   UNL A   1      46.837  28.911  27.399  1.00  0.00    -0.354 N 
ATOM     57  N   UNL A   1      45.996  26.149  26.927  1.00  0.00    -0.248 NA
ATOM     58  C   UNL A   1      46.494  23.945  26.330  1.00  0.00     0.031 C 
ATOM     59  C   UNL A   1      48.987  29.417  27.165  1.00  0.00     0.029 A 
ATOM     60  C   UNL A   1      48.076  28.376  27.089  1.00  0.00     0.049 A 
ATOM     61  H   UNL A   1      45.991  28.407  27.414  1.00  0.00     0.167 HD
ATOM     62  C   UNL A   1      47.363  26.036  26.696  1.00  0.00     0.074 A 
ATOM     63  C   UNL A   1      47.617  24.649  26.365  1.00  0.00     0.031 C 
ATOM     64  C   UNL A   1      48.321  26.994  26.760  1.00  0.00     0.031 A 
BRANCH  51  65
ATOM     65  C   UNL A   1      46.167  32.602  28.244  1.00  0.00    -0.014 A 
ATOM     66  C   UNL A   1      46.667  33.065  29.476  1.00  0.00     0.010 A 
ATOM     67  C   UNL A   1      45.976  33.525  27.199  1.00  0.00     0.010 A 
ATOM     68  C   UNL A   1      46.915  34.427  29.676  1.00  0.00     0.020 A 
ATOM     69  C   UNL A   1      46.256  34.883  27.383  1.00  0.00     0.020 A 
ATOM     70  C   UNL A   1      46.704  35.328  28.629  1.00  0.00     0.054 A 
BRANCH  70  71
ATOM     71  S   UNL A   1      47.039  37.087  28.917  1.00  0.00     0.124 S 
ATOM     72  O   UNL A   1      45.694  37.620  29.117  1.00  0.00    -0.237 OA
ATOM     73  O   UNL A   1      47.887  37.062  30.105  1.00  0.00    -0.237 OA
ATOM     74  O   UNL A   1      47.703  37.521  27.690  1.00  0.00    -0.744 OA
ENDBRANCH  70  71
ENDBRANCH  51  65
BRANCH  52  75
ATOM     75  C   UNL A   1      43.725  23.044  26.675  1.00  0.00    -0.014 A 
ATOM     76  C   UNL A   1      42.971  22.335  27.627  1.00  0.00     0.010 A 
ATOM     77  C   UNL A   1      44.131  22.384  25.500  1.00  0.00     0.010 A 
ATOM     78  C   UNL A   1      42.642  20.992  27.416  1.00  0.00     0.020 A 
ATOM     79  C   UNL A   1      43.777  21.051  25.270  1.00  0.00     0.020 A 
ATOM     80  C   UNL A   1      43.042  20.360  26.236  1.00  0.00     0.054 A 
BRANCH  80  81
ATOM     81  S   UNL A   1      42.555  18.635  25.959  1.00  0.00     0.124 S 
ATOM     82  O   UNL A   1      43.365  18.272  24.799  1.00  0.00    -0.237 OA
ATOM     83  O   UNL A   1      42.929  17.996  27.218  1.00  0.00    -0.237 OA
ATOM     84  O   UNL A   1      41.117  18.720  25.715  1.00  0.00    -0.744 OA
ENDBRANCH  80  81
ENDBRANCH  52  75
BRANCH  64  85
ATOM     85  C   UNL A   1      49.747  26.573  26.509  1.00  0.00    -0.014 A 
ATOM     86  C   UNL A   1      50.576  26.120  27.550  1.00  0.00     0.010 A 
ATOM     87  C   UNL A   1      50.247  26.584  25.193  1.00  0.00     0.010 A 
ATOM     88  C   UNL A   1      51.889  25.718  27.285  1.00  0.00     0.020 A 
ATOM     89  C   UNL A   1      51.548  26.153  24.918  1.00  0.00     0.020 A 
ATOM     90  C   UNL A   1      52.366  25.737  25.970  1.00  0.00     0.054 A 
BRANCH  90  91
ATOM     91  S   UNL A   1      54.060  25.172  25.648  1.00  0.00     0.124 S 
ATOM     92  O   UNL A   1      54.552  24.902  26.995  1.00  0.00    -0.237 OA
ATOM     93  O   UNL A   1      53.850  23.996  24.806  1.00  0.00    -0.237 OA
ATOM     94  O   UNL A   1      54.683  26.310  24.974  1.00  0.00    -0.744 OA
ENDBRANCH  90  91
ENDBRANCH  64  85
ENDBRANCH  38  39
ENDBRANCH  30  33
ENDBRANCH  28  29
ENDBRANCH  27  28
ENDBRANCH   1  27
TORSDOF 19
ENDMDL
MODEL 3
REMARK VINA RESULT:     -10.4      1.227      8.267
REMARK SMILES CC[NH2+][C@]1(C(=O)NCCCNC(=O)c2ccc(-c3c4nc(c(-c5ccc(S(=O)(=O)[O-])cc5)c5ccc([nH]5)c(-c5ccc(S(=O)(=O)[O-])cc5)c5nc(c(-c6ccc(S(=O)(=O)[O-])cc6)c6ccc3[nH]6)C=C5)C=C4)cc2)CCC[C@H]1CCSc1n[nH]c(=O)n1C
REMARK SMILES IDX 8 1 7 2 5 3 6 4 4 6 74 7 77 8 75 9 76 10 3 11 2 14 1 15
REMARK SMILES IDX 78 16 79 17 80 18 81 19 82 20 86 21 83 22 84 23 87 24 85 26
REMARK SMILES IDX 9 27 10 28 11 29 12 30 13 32 14 33 15 34 73 35 16 36 72 37
REMARK SMILES IDX 17 38 18 39 19 40 66 41 20 42 71 43 65 44 67 45 21 46 70 47
REMARK SMILES IDX 64 48 63 49 22 51 52 52 33 53 51 54 34 55 37 56 50 57 68 58
REMARK SMILES IDX 35 59 36 60 49 62 69 63 38 64 23 65 24 66 32 67 25 68 31 69
REMARK SMILES IDX 26 70 27 71 28 72 29 73 30 74 53 75 54 76 62 77 55 78 61 79
REMARK SMILES IDX 56 80 57 81 58 82 59 83 60 84 39 85 40 86 48 87 41 88 47 89
REMARK SMILES IDX 42 90 43 91 44 92 45 93 46 94
REMARK H PARENT 7 5 3 12 3 13 83 25 11 31 67 50 37 61
REMARK Flexibility Score: inf
ROOT
ATOM      1  C   UNL A   1      32.811  26.752  26.756  1.00  0.00     0.118 C 
ENDROOT
BRANCH   1   2
ATOM      2  N   UNL A   1      31.617  25.906  26.711  1.00  0.00    -0.351 N 
ATOM      3  C   UNL A   1      31.305  24.626  26.372  1.00  0.00     0.281 C 
ATOM      4  O   UNL A   1      30.181  24.289  26.777  1.00  0.00    -0.268 OA
ATOM      5  H   UNL A   1      30.820  26.400  27.008  1.00  0.00     0.163 HD
BRANCH   3   6
ATOM      6  C   UNL A   1      32.177  23.601  25.562  1.00  0.00     0.178 C 
ATOM      7  C   UNL A   1      31.479  22.218  25.639  1.00  0.00     0.079 C 
ATOM      8  C   UNL A   1      32.168  23.822  24.000  1.00  0.00     0.061 C 
ATOM      9  C   UNL A   1      31.925  21.411  24.423  1.00  0.00     0.008 C 
ATOM     10  C   UNL A   1      32.465  22.418  23.421  1.00  0.00     0.011 C 
BRANCH   6  11
ATOM     11  N   UNL A   1      33.576  23.635  25.987  1.00  0.00    -0.334 N 
ATOM     12  H   UNL A   1      34.128  23.482  25.143  1.00  0.00     0.347 HD
ATOM     13  H   UNL A   1      33.616  24.531  26.473  1.00  0.00     0.347 HD
BRANCH  11  14
ATOM     14  C   UNL A   1      34.124  22.749  26.983  1.00  0.00     0.257 C 
ATOM     15  C   UNL A   1      35.247  21.908  26.394  1.00  0.00     0.071 C 
ENDBRANCH  11  14
ENDBRANCH   6  11
BRANCH   8  16
ATOM     16  C   UNL A   1      30.903  24.392  23.309  1.00  0.00     0.022 C 
BRANCH  16  17
ATOM     17  C   UNL A   1      30.961  25.867  22.884  1.00  0.00     0.079 C 
BRANCH  17  18
ATOM     18  S   UNL A   1      29.747  26.970  23.693  1.00  0.00    -0.086 SA
BRANCH  18  19
ATOM     19  C   UNL A   1      29.867  28.380  22.710  1.00  0.00     0.191 A 
ATOM     20  N   UNL A   1      30.980  28.757  22.152  1.00  0.00    -0.146 NA
ATOM     21  N   UNL A   1      28.817  29.210  22.515  1.00  0.00    -0.273 N 
ATOM     22  N   UNL A   1      30.662  29.959  21.584  1.00  0.00    -0.226 N 
ATOM     23  C   UNL A   1      29.335  30.271  21.825  1.00  0.00     0.343 A 
ATOM     24  C   UNL A   1      27.432  29.082  22.905  1.00  0.00     0.157 C 
ATOM     25  H   UNL A   1      31.290  30.523  21.076  1.00  0.00     0.195 HD
ATOM     26  O   UNL A   1      28.784  31.319  21.522  1.00  0.00    -0.246 OA
ENDBRANCH  18  19
ENDBRANCH  17  18
ENDBRANCH  16  17
ENDBRANCH   8  16
ENDBRANCH   3   6
ENDBRANCH   1   2
BRANCH   1  27
ATOM     27  C   UNL A   1      32.675  28.041  25.937  1.00  0.00     0.042 C 
BRANCH  27  28
ATOM     28  C   UNL A   1      33.902  28.959  25.915  1.00  0.00     0.118 C 
BRANCH  28  29
ATOM     29  N   UNL A   1      33.614  30.295  26.406  1.00  0.00    -0.352 N 
ATOM     30  C   UNL A   1      34.196  31.017  27.423  1.00  0.00     0.251 C 
ATOM     31  H   UNL A   1      32.884  30.759  25.936  1.00  0.00     0.163 HD
ATOM     32  O   UNL A   1      33.618  32.027  27.822  1.00  0.00    -0.269 OA
BRANCH  30  33
ATOM     33  C   UNL A   1      35.489  30.624  28.047  1.00  0.00     0.039 A 
ATOM     34  C   UNL A   1      35.479  29.591  28.993  1.00  0.00     0.014 A 
ATOM     35  C   UNL A   1      36.681  31.317  27.818  1.00  0.00     0.014 A 
ATOM     36  C   UNL A   1      36.646  29.253  29.689  1.00  0.00     0.010 A 
ATOM     37  C   UNL A   1      37.866  30.926  28.457  1.00  0.00     0.010 A 
ATOM     38  C   UNL A   1      37.859  29.910  29.425  1.00  0.00    -0.014 A 
BRANCH  38  39
ATOM     39  C   UNL A   1      39.091  29.569  30.199  1.00  0.00     0.031 A 
ATOM     40  C   UNL A   1      40.036  28.497  29.709  1.00  0.00     0.074 A 
ATOM     41  C   UNL A   1      39.378  30.232  31.338  1.00  0.00     0.049 A 
ATOM     42  N   UNL A   1      41.182  28.109  30.216  1.00  0.00    -0.248 NA
ATOM     43  C   UNL A   1      39.638  27.751  28.505  1.00  0.00     0.031 C 
ATOM     44  C   UNL A   1      38.543  31.272  31.943  1.00  0.00     0.029 A 
ATOM     45  N   UNL A   1      40.459  30.145  32.183  1.00  0.00    -0.354 N 
ATOM     46  C   UNL A   1      41.634  27.078  29.398  1.00  0.00     0.074 A 
ATOM     47  C   UNL A   1      40.610  26.856  28.401  1.00  0.00     0.031 C 
ATOM     48  C   UNL A   1      39.165  31.760  33.029  1.00  0.00     0.029 A 
ATOM     49  C   UNL A   1      40.421  31.043  33.225  1.00  0.00     0.049 A 
ATOM     50  H   UNL A   1      41.192  29.500  32.054  1.00  0.00     0.167 HD
ATOM     51  C   UNL A   1      42.802  26.392  29.451  1.00  0.00     0.031 A 
ATOM     52  C   UNL A   1      41.298  31.274  34.223  1.00  0.00     0.031 A 
ATOM     53  C   UNL A   1      43.823  26.609  30.442  1.00  0.00     0.049 A 
ATOM     54  C   UNL A   1      42.577  30.480  34.281  1.00  0.00     0.074 A 
ATOM     55  C   UNL A   1      45.058  25.992  30.556  1.00  0.00     0.029 A 
ATOM     56  N   UNL A   1      43.730  27.508  31.494  1.00  0.00    -0.354 N 
ATOM     57  N   UNL A   1      43.010  29.552  33.461  1.00  0.00    -0.248 NA
ATOM     58  C   UNL A   1      43.493  30.776  35.392  1.00  0.00     0.031 C 
ATOM     59  C   UNL A   1      45.683  26.473  31.711  1.00  0.00     0.029 A 
ATOM     60  C   UNL A   1      44.872  27.445  32.276  1.00  0.00     0.049 A 
ATOM     61  H   UNL A   1      42.964  28.105  31.660  1.00  0.00     0.167 HD
ATOM     62  C   UNL A   1      44.263  29.180  33.936  1.00  0.00     0.074 A 
ATOM     63  C   UNL A   1      44.523  29.991  35.108  1.00  0.00     0.031 C 
ATOM     64  C   UNL A   1      45.123  28.254  33.442  1.00  0.00     0.031 A 
BRANCH  51  65
ATOM     65  C   UNL A   1      43.035  25.328  28.404  1.00  0.00    -0.014 A 
ATOM     66  C   UNL A   1      43.618  25.642  27.162  1.00  0.00     0.010 A 
ATOM     67  C   UNL A   1      42.697  23.990  28.676  1.00  0.00     0.010 A 
ATOM     68  C   UNL A   1      43.805  24.651  26.194  1.00  0.00     0.020 A 
ATOM     69  C   UNL A   1      42.915  22.989  27.724  1.00  0.00     0.020 A 
ATOM     70  C   UNL A   1      43.448  23.331  26.480  1.00  0.00     0.054 A 
BRANCH  70  71
ATOM     71  S   UNL A   1      43.707  22.065  25.206  1.00  0.00     0.124 S 
ATOM     72  O   UNL A   1      43.376  22.796  23.985  1.00  0.00    -0.237 OA
ATOM     73  O   UNL A   1      45.118  21.728  25.371  1.00  0.00    -0.237 OA
ATOM     74  O   UNL A   1      42.769  21.007  25.571  1.00  0.00    -0.744 OA
ENDBRANCH  70  71
ENDBRANCH  51  65
BRANCH  52  75
ATOM     75  C   UNL A   1      41.010  32.327  35.238  1.00  0.00    -0.014 A 
ATOM     76  C   UNL A   1      41.469  33.644  35.057  1.00  0.00     0.010 A 
ATOM     77  C   UNL A   1      40.260  32.020  36.389  1.00  0.00     0.010 A 
ATOM     78  C   UNL A   1      41.197  34.629  36.012  1.00  0.00     0.020 A 
ATOM     79  C   UNL A   1      39.959  33.009  37.330  1.00  0.00     0.020 A 
ATOM     80  C   UNL A   1      40.439  34.307  37.141  1.00  0.00     0.054 A 
BRANCH  80  81
ATOM     81  S   UNL A   1      40.051  35.614  38.336  1.00  0.00     0.124 S 
ATOM     82  O   UNL A   1      39.764  36.749  37.464  1.00  0.00    -0.237 OA
ATOM     83  O   UNL A   1      38.904  35.058  39.050  1.00  0.00    -0.237 OA
ATOM     84  O   UNL A   1      41.274  35.727  39.129  1.00  0.00    -0.744 OA
ENDBRANCH  80  81
ENDBRANCH  52  75
BRANCH  64  85
ATOM     85  C   UNL A   1      46.450  28.093  34.137  1.00  0.00    -0.014 A 
ATOM     86  C   UNL A   1      47.566  28.873  33.787  1.00  0.00     0.010 A 
ATOM     87  C   UNL A   1      46.565  27.175  35.199  1.00  0.00     0.010 A 
ATOM     88  C   UNL A   1      48.781  28.715  34.462  1.00  0.00     0.020 A 
ATOM     89  C   UNL A   1      47.767  27.036  35.898  1.00  0.00     0.020 A 
ATOM     90  C   UNL A   1      48.873  27.797  35.514  1.00  0.00     0.054 A 
BRANCH  90  91
ATOM     91  S   UNL A   1      50.448  27.641  36.400  1.00  0.00     0.124 S 
ATOM     92  O   UNL A   1      50.005  27.391  37.768  1.00  0.00    -0.237 OA
ATOM     93  O   UNL A   1      51.082  26.509  35.727  1.00  0.00    -0.237 OA
ATOM     94  O   UNL A   1      51.099  28.931  36.182  1.00  0.00    -0.744 OA
ENDBRANCH  90  91
ENDBRANCH  64  85
ENDBRANCH  38  39
ENDBRANCH  30  33
ENDBRANCH  28  29
ENDBRANCH  27  28
ENDBRANCH   1  27
TORSDOF 19
ENDMDL
