MODEL 1
REMARK VINA RESULT:     -11.4      0.000      0.000
REMARK SMILES Cc1ccc(/C=C/C(=O)NC[C@H]2CC[C@@H](C(=O)NCCCNC(=O)c3ccc(-c4c5nc(c(-c6ccc(S(=O)(=O)[O-])cc6)c6ccc([nH]6)c(-c6ccc(S(=O)(=O)[O-])cc6)c6nc(c(-c7ccc(S(=O)(=O)[O-])cc7)c7ccc4[nH]7)C=C6)C=C5)cc3)CC2)s1
REMARK SMILES IDX 19 1 18 2 16 3 17 4 15 6 12 7 13 8 86 9 14 10 85 11 11 12
REMARK SMILES IDX 10 13 8 14 9 15 7 17 6 18 5 19 1 20 2 21 3 22 87 23 4 24
REMARK SMILES IDX 20 25 21 26 22 27 23 28 24 30 25 31 26 32 84 33 27 34 83 35
REMARK SMILES IDX 28 36 29 37 30 38 77 39 31 40 82 41 76 42 78 43 32 44 81 45
REMARK SMILES IDX 75 46 74 47 33 49 63 50 44 51 62 52 45 53 48 54 61 55 79 56
REMARK SMILES IDX 46 57 47 58 60 60 80 61 49 62 34 63 35 64 43 65 36 66 42 67
REMARK SMILES IDX 37 68 38 69 39 70 40 71 41 72 64 73 65 74 73 75 66 76 72 77
REMARK SMILES IDX 67 78 68 79 69 80 70 81 71 82 50 83 51 84 59 85 52 86 58 87
REMARK SMILES IDX 53 88 54 89 55 90 56 91 57 92
REMARK H PARENT 18 5 10 16 22 29 78 48 48 59
REMARK Flexibility Score: inf
ROOT
ATOM      1  C   UNL A   1      33.297  28.539  24.818  1.00  0.00     0.117 C 
ENDROOT
BRANCH   1   2
ATOM      2  N   UNL A   1      33.998  28.294  23.584  1.00  0.00    -0.356 N 
ATOM      3  C   UNL A   1      33.511  27.917  22.374  1.00  0.00     0.223 C 
ATOM      4  O   UNL A   1      34.172  28.265  21.387  1.00  0.00    -0.275 OA
ATOM      5  H   UNL A   1      34.973  28.419  23.623  1.00  0.00     0.163 HD
BRANCH   3   6
ATOM      6  C   UNL A   1      32.214  27.115  22.159  1.00  0.00     0.078 C 
ATOM      7  C   UNL A   1      30.482  26.115  24.418  1.00  0.00     0.008 C 
ATOM      8  C   UNL A   1      30.624  27.597  24.059  1.00  0.00     0.006 C 
ATOM      9  C   UNL A   1      31.593  25.204  23.849  1.00  0.00     0.006 C 
ATOM     10  C   UNL A   1      30.950  27.841  22.603  1.00  0.00     0.014 C 
ATOM     11  C   UNL A   1      32.205  25.625  22.505  1.00  0.00     0.014 C 
BRANCH   7  12
ATOM     12  C   UNL A   1      30.227  25.965  25.943  1.00  0.00     0.119 C 
BRANCH  12  13
ATOM     13  N   UNL A   1      29.853  24.642  26.399  1.00  0.00    -0.352 N 
ATOM     14  C   UNL A   1      30.518  23.524  26.753  1.00  0.00     0.244 C 
ATOM     15  O   UNL A   1      29.863  22.666  27.356  1.00  0.00    -0.270 OA
ATOM     16  H   UNL A   1      28.877  24.532  26.466  1.00  0.00     0.163 HD
BRANCH  14  17
ATOM     17  C   UNL A   1      31.921  23.182  26.416  1.00  0.00     0.072 C 
ATOM     18  C   UNL A   1      33.121  23.523  26.914  1.00  0.00     0.024 C 
BRANCH  18  19
ATOM     19  C   UNL A   1      34.259  23.338  26.064  1.00  0.00     0.027 A 
ATOM     20  C   UNL A   1      38.015  22.394  25.929  1.00  0.00     0.056 C 
ATOM     21  C   UNL A   1      36.614  22.780  25.595  1.00  0.00     0.002 A 
ATOM     22  C   UNL A   1      36.159  23.799  24.784  1.00  0.00     0.016 A 
ATOM     23  S   UNL A   1      35.282  21.958  26.278  1.00  0.00    -0.141 S 
ATOM     24  C   UNL A   1      34.786  24.122  25.054  1.00  0.00     0.020 A 
ENDBRANCH  18  19
ENDBRANCH  14  17
ENDBRANCH  12  13
ENDBRANCH   7  12
ENDBRANCH   3   6
ENDBRANCH   1   2
BRANCH   1  25
ATOM     25  C   UNL A   1      33.816  27.794  26.035  1.00  0.00     0.042 C 
BRANCH  25  26
ATOM     26  C   UNL A   1      33.396  28.364  27.390  1.00  0.00     0.118 C 
BRANCH  26  27
ATOM     27  N   UNL A   1      33.425  29.822  27.508  1.00  0.00    -0.352 N 
ATOM     28  C   UNL A   1      34.434  30.688  27.857  1.00  0.00     0.251 C 
ATOM     29  H   UNL A   1      32.569  30.261  27.300  1.00  0.00     0.163 HD
ATOM     30  O   UNL A   1      34.243  31.901  27.906  1.00  0.00    -0.269 OA
BRANCH  28  31
ATOM     31  C   UNL A   1      35.762  30.181  28.185  1.00  0.00     0.039 A 
ATOM     32  C   UNL A   1      36.743  30.145  27.188  1.00  0.00     0.014 A 
ATOM     33  C   UNL A   1      36.017  29.728  29.474  1.00  0.00     0.014 A 
ATOM     34  C   UNL A   1      38.024  29.719  27.512  1.00  0.00     0.010 A 
ATOM     35  C   UNL A   1      37.310  29.412  29.822  1.00  0.00     0.010 A 
ATOM     36  C   UNL A   1      38.313  29.392  28.841  1.00  0.00    -0.014 A 
BRANCH  36  37
ATOM     37  C   UNL A   1      39.647  28.956  29.280  1.00  0.00     0.031 A 
ATOM     38  C   UNL A   1      40.539  29.989  29.901  1.00  0.00     0.074 A 
ATOM     39  C   UNL A   1      40.075  27.730  28.931  1.00  0.00     0.049 A 
ATOM     40  N   UNL A   1      41.832  29.974  30.060  1.00  0.00    -0.248 NA
ATOM     41  C   UNL A   1      39.891  31.247  30.318  1.00  0.00     0.031 C 
ATOM     42  C   UNL A   1      39.264  26.700  28.272  1.00  0.00     0.029 A 
ATOM     43  N   UNL A   1      41.310  27.158  29.047  1.00  0.00    -0.354 N 
ATOM     44  C   UNL A   1      42.159  31.243  30.527  1.00  0.00     0.074 A 
ATOM     45  C   UNL A   1      40.937  32.012  30.582  1.00  0.00     0.031 C 
ATOM     46  C   UNL A   1      40.026  25.616  28.051  1.00  0.00     0.029 A 
ATOM     47  C   UNL A   1      41.380  25.896  28.507  1.00  0.00     0.049 A 
ATOM     48  H   UNL A   1      42.075  27.606  29.476  1.00  0.00     0.167 HD
ATOM     49  C   UNL A   1      43.378  31.707  30.885  1.00  0.00     0.031 A 
ATOM     50  C   UNL A   1      42.438  25.074  28.388  1.00  0.00     0.031 A 
ATOM     51  C   UNL A   1      44.550  30.878  30.863  1.00  0.00     0.049 A 
ATOM     52  C   UNL A   1      43.761  25.571  28.901  1.00  0.00     0.074 A 
ATOM     53  C   UNL A   1      45.835  31.176  31.272  1.00  0.00     0.029 A 
ATOM     54  N   UNL A   1      44.560  29.557  30.424  1.00  0.00    -0.354 N 
ATOM     55  N   UNL A   1      44.061  26.760  29.374  1.00  0.00    -0.248 NA
ATOM     56  C   UNL A   1      44.878  24.623  28.884  1.00  0.00     0.031 C 
ATOM     57  C   UNL A   1      46.625  30.038  31.068  1.00  0.00     0.029 A 
ATOM     58  C   UNL A   1      45.825  29.021  30.564  1.00  0.00     0.049 A 
ATOM     59  H   UNL A   1      43.780  29.077  30.065  1.00  0.00     0.167 HD
ATOM     60  C   UNL A   1      45.400  26.700  29.732  1.00  0.00     0.074 A 
ATOM     61  C   UNL A   1      45.843  25.348  29.434  1.00  0.00     0.031 C 
ATOM     62  C   UNL A   1      46.199  27.664  30.253  1.00  0.00     0.031 A 
BRANCH  49  63
ATOM     63  C   UNL A   1      43.474  33.145  31.327  1.00  0.00    -0.014 A 
ATOM     64  C   UNL A   1      43.765  34.172  30.409  1.00  0.00     0.010 A 
ATOM     65  C   UNL A   1      43.293  33.479  32.682  1.00  0.00     0.010 A 
ATOM     66  C   UNL A   1      43.935  35.490  30.843  1.00  0.00     0.020 A 
ATOM     67  C   UNL A   1      43.430  34.803  33.116  1.00  0.00     0.020 A 
ATOM     68  C   UNL A   1      43.773  35.796  32.196  1.00  0.00     0.054 A 
BRANCH  68  69
ATOM     69  S   UNL A   1      43.995  37.516  32.732  1.00  0.00     0.124 S 
ATOM     70  O   UNL A   1      45.365  37.499  33.239  1.00  0.00    -0.237 OA
ATOM     71  O   UNL A   1      43.795  38.267  31.494  1.00  0.00    -0.237 OA
ATOM     72  O   UNL A   1      42.958  37.701  33.743  1.00  0.00    -0.744 OA
ENDBRANCH  68  69
ENDBRANCH  49  63
BRANCH  50  73
ATOM     73  C   UNL A   1      42.262  23.710  27.822  1.00  0.00    -0.014 A 
ATOM     74  C   UNL A   1      42.451  23.493  26.445  1.00  0.00     0.010 A 
ATOM     75  C   UNL A   1      41.977  22.610  28.651  1.00  0.00     0.010 A 
ATOM     76  C   UNL A   1      42.347  22.207  25.905  1.00  0.00     0.020 A 
ATOM     77  C   UNL A   1      41.895  21.317  28.118  1.00  0.00     0.020 A 
ATOM     78  C   UNL A   1      42.073  21.125  26.746  1.00  0.00     0.054 A 
BRANCH  78  79
ATOM     79  S   UNL A   1      42.013  19.456  26.032  1.00  0.00     0.124 S 
ATOM     80  O   UNL A   1      40.589  19.296  25.754  1.00  0.00    -0.237 OA
ATOM     81  O   UNL A   1      42.876  19.582  24.861  1.00  0.00    -0.237 OA
ATOM     82  O   UNL A   1      42.543  18.609  27.098  1.00  0.00    -0.744 OA
ENDBRANCH  78  79
ENDBRANCH  50  73
BRANCH  62  83
ATOM     83  C   UNL A   1      47.616  27.270  30.550  1.00  0.00    -0.014 A 
ATOM     84  C   UNL A   1      47.977  26.794  31.821  1.00  0.00     0.010 A 
ATOM     85  C   UNL A   1      48.575  27.316  29.522  1.00  0.00     0.010 A 
ATOM     86  C   UNL A   1      49.288  26.391  32.069  1.00  0.00     0.020 A 
ATOM     87  C   UNL A   1      49.881  26.891  29.762  1.00  0.00     0.020 A 
ATOM     88  C   UNL A   1      50.232  26.443  31.037  1.00  0.00     0.054 A 
BRANCH  88  89
ATOM     89  S   UNL A   1      51.916  25.861  31.368  1.00  0.00     0.124 S 
ATOM     90  O   UNL A   1      51.685  24.466  31.732  1.00  0.00    -0.237 OA
ATOM     91  O   UNL A   1      52.588  26.075  30.090  1.00  0.00    -0.237 OA
ATOM     92  O   UNL A   1      52.370  26.724  32.456  1.00  0.00    -0.744 OA
ENDBRANCH  88  89
ENDBRANCH  62  83
ENDBRANCH  36  37
ENDBRANCH  28  31
ENDBRANCH  26  27
ENDBRANCH  25  26
ENDBRANCH   1  25
TORSDOF 17
ENDMDL
MODEL 2
REMARK VINA RESULT:     -11.2      2.138      2.564
REMARK SMILES Cc1ccc(/C=C/C(=O)NC[C@H]2CC[C@@H](C(=O)NCCCNC(=O)c3ccc(-c4c5nc(c(-c6ccc(S(=O)(=O)[O-])cc6)c6ccc([nH]6)c(-c6ccc(S(=O)(=O)[O-])cc6)c6nc(c(-c7ccc(S(=O)(=O)[O-])cc7)c7ccc4[nH]7)C=C6)C=C5)cc3)CC2)s1
REMARK SMILES IDX 19 1 18 2 16 3 17 4 15 6 12 7 13 8 86 9 14 10 85 11 11 12
REMARK SMILES IDX 10 13 8 14 9 15 7 17 6 18 5 19 1 20 2 21 3 22 87 23 4 24
REMARK SMILES IDX 20 25 21 26 22 27 23 28 24 30 25 31 26 32 84 33 27 34 83 35
REMARK SMILES IDX 28 36 29 37 30 38 77 39 31 40 82 41 76 42 78 43 32 44 81 45
REMARK SMILES IDX 75 46 74 47 33 49 63 50 44 51 62 52 45 53 48 54 61 55 79 56
REMARK SMILES IDX 46 57 47 58 60 60 80 61 49 62 34 63 35 64 43 65 36 66 42 67
REMARK SMILES IDX 37 68 38 69 39 70 40 71 41 72 64 73 65 74 73 75 66 76 72 77
REMARK SMILES IDX 67 78 68 79 69 80 70 81 71 82 50 83 51 84 59 85 52 86 58 87
REMARK SMILES IDX 53 88 54 89 55 90 56 91 57 92
REMARK H PARENT 18 5 10 16 22 29 78 48 48 59
REMARK Flexibility Score: inf
ROOT
ATOM      1  C   UNL A   1      32.000  27.972  25.484  1.00  0.00     0.117 C 
ENDROOT
BRANCH   1   2
ATOM      2  N   UNL A   1      31.496  29.048  24.669  1.00  0.00    -0.356 N 
ATOM      3  C   UNL A   1      30.495  29.042  23.753  1.00  0.00     0.223 C 
ATOM      4  O   UNL A   1      29.910  30.119  23.577  1.00  0.00    -0.275 OA
ATOM      5  H   UNL A   1      31.944  29.916  24.797  1.00  0.00     0.163 HD
BRANCH   3   6
ATOM      6  C   UNL A   1      30.045  27.808  22.949  1.00  0.00     0.078 C 
ATOM      7  C   UNL A   1      30.496  24.971  23.868  1.00  0.00     0.008 C 
ATOM      8  C   UNL A   1      29.519  25.930  24.552  1.00  0.00     0.006 C 
ATOM      9  C   UNL A   1      31.546  25.653  22.962  1.00  0.00     0.006 C 
ATOM     10  C   UNL A   1      28.956  26.985  23.626  1.00  0.00     0.014 C 
ATOM     11  C   UNL A   1      31.110  26.950  22.264  1.00  0.00     0.014 C 
BRANCH   7  12
ATOM     12  C   UNL A   1      31.077  23.978  24.913  1.00  0.00     0.119 C 
BRANCH  12  13
ATOM     13  N   UNL A   1      32.508  23.761  24.859  1.00  0.00    -0.352 N 
ATOM     14  C   UNL A   1      33.315  22.776  24.413  1.00  0.00     0.244 C 
ATOM     15  O   UNL A   1      34.509  23.065  24.284  1.00  0.00    -0.270 OA
ATOM     16  H   UNL A   1      33.015  24.515  25.239  1.00  0.00     0.163 HD
BRANCH  14  17
ATOM     17  C   UNL A   1      32.934  21.367  24.152  1.00  0.00     0.072 C 
ATOM     18  C   UNL A   1      32.338  20.402  24.871  1.00  0.00     0.024 C 
BRANCH  18  19
ATOM     19  C   UNL A   1      32.527  19.050  24.436  1.00  0.00     0.027 A 
ATOM     20  C   UNL A   1      34.557  15.791  24.957  1.00  0.00     0.056 C 
ATOM     21  C   UNL A   1      33.591  16.828  24.493  1.00  0.00     0.002 A 
ATOM     22  C   UNL A   1      33.271  17.208  23.205  1.00  0.00     0.016 A 
ATOM     23  S   UNL A   1      32.718  17.786  25.604  1.00  0.00    -0.141 S 
ATOM     24  C   UNL A   1      32.647  18.501  23.173  1.00  0.00     0.020 A 
ENDBRANCH  18  19
ENDBRANCH  14  17
ENDBRANCH  12  13
ENDBRANCH   7  12
ENDBRANCH   3   6
ENDBRANCH   1   2
BRANCH   1  25
ATOM     25  C   UNL A   1      33.509  27.812  25.513  1.00  0.00     0.042 C 
BRANCH  25  26
ATOM     26  C   UNL A   1      34.192  28.199  26.826  1.00  0.00     0.118 C 
BRANCH  26  27
ATOM     27  N   UNL A   1      33.839  29.511  27.368  1.00  0.00    -0.352 N 
ATOM     28  C   UNL A   1      34.567  30.422  28.096  1.00  0.00     0.251 C 
ATOM     29  H   UNL A   1      32.916  29.792  27.177  1.00  0.00     0.163 HD
ATOM     30  O   UNL A   1      34.071  31.482  28.469  1.00  0.00    -0.269 OA
BRANCH  28  31
ATOM     31  C   UNL A   1      35.956  30.145  28.448  1.00  0.00     0.039 A 
ATOM     32  C   UNL A   1      36.249  29.652  29.725  1.00  0.00     0.014 A 
ATOM     33  C   UNL A   1      36.956  30.395  27.516  1.00  0.00     0.014 A 
ATOM     34  C   UNL A   1      37.562  29.331  30.042  1.00  0.00     0.010 A 
ATOM     35  C   UNL A   1      38.237  29.975  27.790  1.00  0.00     0.010 A 
ATOM     36  C   UNL A   1      38.548  29.457  29.058  1.00  0.00    -0.014 A 
BRANCH  36  37
ATOM     37  C   UNL A   1      39.958  29.117  29.297  1.00  0.00     0.031 A 
ATOM     38  C   UNL A   1      40.873  30.229  29.716  1.00  0.00     0.074 A 
ATOM     39  C   UNL A   1      40.399  27.897  28.944  1.00  0.00     0.049 A 
ATOM     40  N   UNL A   1      42.173  30.291  29.665  1.00  0.00    -0.248 NA
ATOM     41  C   UNL A   1      40.223  31.474  30.169  1.00  0.00     0.031 C 
ATOM     42  C   UNL A   1      39.558  26.790  28.475  1.00  0.00     0.029 A 
ATOM     43  N   UNL A   1      41.670  27.398  28.888  1.00  0.00    -0.354 N 
ATOM     44  C   UNL A   1      42.492  31.600  30.011  1.00  0.00     0.074 A 
ATOM     45  C   UNL A   1      41.250  32.306  30.224  1.00  0.00     0.031 C 
ATOM     46  C   UNL A   1      40.340  25.736  28.188  1.00  0.00     0.029 A 
ATOM     47  C   UNL A   1      41.729  26.112  28.406  1.00  0.00     0.049 A 
ATOM     48  H   UNL A   1      42.464  27.909  29.166  1.00  0.00     0.167 HD
ATOM     49  C   UNL A   1      43.722  32.147  30.145  1.00  0.00     0.031 A 
ATOM     50  C   UNL A   1      42.803  25.340  28.159  1.00  0.00     0.031 A 
ATOM     51  C   UNL A   1      44.924  31.380  29.975  1.00  0.00     0.049 A 
ATOM     52  C   UNL A   1      44.158  25.935  28.427  1.00  0.00     0.074 A 
ATOM     53  C   UNL A   1      46.236  31.768  30.158  1.00  0.00     0.029 A 
ATOM     54  N   UNL A   1      44.944  30.039  29.605  1.00  0.00    -0.354 N 
ATOM     55  N   UNL A   1      44.457  27.163  28.787  1.00  0.00    -0.248 NA
ATOM     56  C   UNL A   1      45.314  25.047  28.277  1.00  0.00     0.031 C 
ATOM     57  C   UNL A   1      47.052  30.663  29.885  1.00  0.00     0.029 A 
ATOM     58  C   UNL A   1      46.245  29.578  29.567  1.00  0.00     0.049 A 
ATOM     59  H   UNL A   1      44.148  29.498  29.400  1.00  0.00     0.167 HD
ATOM     60  C   UNL A   1      45.836  27.193  28.928  1.00  0.00     0.074 A 
ATOM     61  C   UNL A   1      46.308  25.852  28.628  1.00  0.00     0.031 C 
ATOM     62  C   UNL A   1      46.648  28.226  29.265  1.00  0.00     0.031 A 
BRANCH  49  63
ATOM     63  C   UNL A   1      43.800  33.611  30.496  1.00  0.00    -0.014 A 
ATOM     64  C   UNL A   1      43.956  34.592  29.497  1.00  0.00     0.010 A 
ATOM     65  C   UNL A   1      43.736  34.018  31.841  1.00  0.00     0.010 A 
ATOM     66  C   UNL A   1      44.111  35.938  29.839  1.00  0.00     0.020 A 
ATOM     67  C   UNL A   1      43.858  35.370  32.185  1.00  0.00     0.020 A 
ATOM     68  C   UNL A   1      44.068  36.318  31.183  1.00  0.00     0.054 A 
BRANCH  68  69
ATOM     69  S   UNL A   1      44.268  38.073  31.597  1.00  0.00     0.124 S 
ATOM     70  O   UNL A   1      45.721  38.201  31.679  1.00  0.00    -0.237 OA
ATOM     71  O   UNL A   1      43.643  38.746  30.461  1.00  0.00    -0.237 OA
ATOM     72  O   UNL A   1      43.558  38.213  32.866  1.00  0.00    -0.744 OA
ENDBRANCH  68  69
ENDBRANCH  49  63
BRANCH  50  73
ATOM     73  C   UNL A   1      42.624  23.939  27.695  1.00  0.00    -0.014 A 
ATOM     74  C   UNL A   1      42.258  22.938  28.613  1.00  0.00     0.010 A 
ATOM     75  C   UNL A   1      42.744  23.603  26.334  1.00  0.00     0.010 A 
ATOM     76  C   UNL A   1      42.029  21.626  28.183  1.00  0.00     0.020 A 
ATOM     77  C   UNL A   1      42.492  22.296  25.896  1.00  0.00     0.020 A 
ATOM     78  C   UNL A   1      42.143  21.314  26.826  1.00  0.00     0.054 A 
BRANCH  78  79
ATOM     79  S   UNL A   1      41.771  19.621  26.284  1.00  0.00     0.124 S 
ATOM     80  O   UNL A   1      42.210  18.832  27.431  1.00  0.00    -0.237 OA
ATOM     81  O   UNL A   1      40.328  19.669  26.064  1.00  0.00    -0.237 OA
ATOM     82  O   UNL A   1      42.573  19.466  25.072  1.00  0.00    -0.744 OA
ENDBRANCH  78  79
ENDBRANCH  50  73
BRANCH  62  83
ATOM     83  C   UNL A   1      48.115  27.925  29.350  1.00  0.00    -0.014 A 
ATOM     84  C   UNL A   1      48.954  28.124  28.242  1.00  0.00     0.010 A 
ATOM     85  C   UNL A   1      48.662  27.502  30.575  1.00  0.00     0.010 A 
ATOM     86  C   UNL A   1      50.322  27.880  28.350  1.00  0.00     0.020 A 
ATOM     87  C   UNL A   1      50.033  27.280  30.692  1.00  0.00     0.020 A 
ATOM     88  C   UNL A   1      50.853  27.459  29.575  1.00  0.00     0.054 A 
BRANCH  88  89
ATOM     89  S   UNL A   1      52.642  27.203  29.705  1.00  0.00     0.124 S 
ATOM     90  O   UNL A   1      52.932  26.476  28.472  1.00  0.00    -0.237 OA
ATOM     91  O   UNL A   1      53.160  28.567  29.768  1.00  0.00    -0.237 OA
ATOM     92  O   UNL A   1      52.791  26.430  30.936  1.00  0.00    -0.744 OA
ENDBRANCH  88  89
ENDBRANCH  62  83
ENDBRANCH  36  37
ENDBRANCH  28  31
ENDBRANCH  26  27
ENDBRANCH  25  26
ENDBRANCH   1  25
TORSDOF 17
ENDMDL
MODEL 3
REMARK VINA RESULT:     -10.5      3.202      3.818
REMARK SMILES Cc1ccc(/C=C/C(=O)NC[C@H]2CC[C@@H](C(=O)NCCCNC(=O)c3ccc(-c4c5nc(c(-c6ccc(S(=O)(=O)[O-])cc6)c6ccc([nH]6)c(-c6ccc(S(=O)(=O)[O-])cc6)c6nc(c(-c7ccc(S(=O)(=O)[O-])cc7)c7ccc4[nH]7)C=C6)C=C5)cc3)CC2)s1
REMARK SMILES IDX 19 1 18 2 16 3 17 4 15 6 12 7 13 8 86 9 14 10 85 11 11 12
REMARK SMILES IDX 10 13 8 14 9 15 7 17 6 18 5 19 1 20 2 21 3 22 87 23 4 24
REMARK SMILES IDX 20 25 21 26 22 27 23 28 24 30 25 31 26 32 84 33 27 34 83 35
REMARK SMILES IDX 28 36 29 37 30 38 77 39 31 40 82 41 76 42 78 43 32 44 81 45
REMARK SMILES IDX 75 46 74 47 33 49 63 50 44 51 62 52 45 53 48 54 61 55 79 56
REMARK SMILES IDX 46 57 47 58 60 60 80 61 49 62 34 63 35 64 43 65 36 66 42 67
REMARK SMILES IDX 37 68 38 69 39 70 40 71 41 72 64 73 65 74 73 75 66 76 72 77
REMARK SMILES IDX 67 78 68 79 69 80 70 81 71 82 50 83 51 84 59 85 52 86 58 87
REMARK SMILES IDX 53 88 54 89 55 90 56 91 57 92
REMARK H PARENT 18 5 10 16 22 29 78 48 48 59
REMARK Flexibility Score: inf
ROOT
ATOM      1  C   UNL A   1      32.179  28.256  25.374  1.00  0.00     0.117 C 
ENDROOT
BRANCH   1   2
ATOM      2  N   UNL A   1      31.521  29.329  24.673  1.00  0.00    -0.356 N 
ATOM      3  C   UNL A   1      30.455  29.286  23.833  1.00  0.00     0.223 C 
ATOM      4  O   UNL A   1      29.765  30.312  23.774  1.00  0.00    -0.275 OA
ATOM      5  H   UNL A   1      31.899  30.224  24.827  1.00  0.00     0.163 HD
BRANCH   3   6
ATOM      6  C   UNL A   1      30.054  28.067  22.981  1.00  0.00     0.078 C 
ATOM      7  C   UNL A   1      30.568  25.214  23.817  1.00  0.00     0.008 C 
ATOM      8  C   UNL A   1      29.552  26.124  24.513  1.00  0.00     0.006 C 
ATOM      9  C   UNL A   1      31.613  25.954  22.953  1.00  0.00     0.006 C 
ATOM     10  C   UNL A   1      28.977  27.192  23.611  1.00  0.00     0.014 C 
ATOM     11  C   UNL A   1      31.154  27.261  22.289  1.00  0.00     0.014 C 
BRANCH   7  12
ATOM     12  C   UNL A   1      31.157  24.204  24.840  1.00  0.00     0.119 C 
BRANCH  12  13
ATOM     13  N   UNL A   1      32.584  23.970  24.754  1.00  0.00    -0.352 N 
ATOM     14  C   UNL A   1      33.369  22.977  24.289  1.00  0.00     0.244 C 
ATOM     15  O   UNL A   1      34.564  23.252  24.134  1.00  0.00    -0.270 OA
ATOM     16  H   UNL A   1      33.108  24.716  25.125  1.00  0.00     0.163 HD
BRANCH  14  17
ATOM     17  C   UNL A   1      32.965  21.573  24.032  1.00  0.00     0.072 C 
ATOM     18  C   UNL A   1      32.283  20.646  24.724  1.00  0.00     0.024 C 
BRANCH  18  19
ATOM     19  C   UNL A   1      32.463  19.278  24.340  1.00  0.00     0.027 A 
ATOM     20  C   UNL A   1      34.618  16.093  24.817  1.00  0.00     0.056 C 
ATOM     21  C   UNL A   1      33.584  17.084  24.400  1.00  0.00     0.002 A 
ATOM     22  C   UNL A   1      33.130  17.391  23.134  1.00  0.00     0.016 A 
ATOM     23  S   UNL A   1      32.800  18.080  25.543  1.00  0.00    -0.141 S 
ATOM     24  C   UNL A   1      32.473  18.667  23.099  1.00  0.00     0.020 A 
ENDBRANCH  18  19
ENDBRANCH  14  17
ENDBRANCH  12  13
ENDBRANCH   7  12
ENDBRANCH   3   6
ENDBRANCH   1   2
BRANCH   1  25
ATOM     25  C   UNL A   1      33.696  28.255  25.312  1.00  0.00     0.042 C 
BRANCH  25  26
ATOM     26  C   UNL A   1      34.410  28.817  26.542  1.00  0.00     0.118 C 
BRANCH  26  27
ATOM     27  N   UNL A   1      34.218  30.245  26.797  1.00  0.00    -0.352 N 
ATOM     28  C   UNL A   1      34.882  31.120  27.622  1.00  0.00     0.251 C 
ATOM     29  H   UNL A   1      33.480  30.650  26.287  1.00  0.00     0.163 HD
ATOM     30  O   UNL A   1      34.549  32.300  27.699  1.00  0.00    -0.269 OA
BRANCH  28  31
ATOM     31  C   UNL A   1      36.003  30.662  28.436  1.00  0.00     0.039 A 
ATOM     32  C   UNL A   1      35.761  29.777  29.493  1.00  0.00     0.014 A 
ATOM     33  C   UNL A   1      37.282  31.130  28.156  1.00  0.00     0.014 A 
ATOM     34  C   UNL A   1      36.833  29.293  30.231  1.00  0.00     0.010 A 
ATOM     35  C   UNL A   1      38.352  30.568  28.813  1.00  0.00     0.010 A 
ATOM     36  C   UNL A   1      38.131  29.661  29.861  1.00  0.00    -0.014 A 
BRANCH  36  37
ATOM     37  C   UNL A   1      39.326  29.178  30.569  1.00  0.00     0.031 A 
ATOM     38  C   UNL A   1      39.760  29.939  31.786  1.00  0.00     0.074 A 
ATOM     39  C   UNL A   1      40.075  28.220  29.996  1.00  0.00     0.049 A 
ATOM     40  N   UNL A   1      40.919  29.950  32.382  1.00  0.00    -0.248 NA
ATOM     41  C   UNL A   1      38.779  30.885  32.350  1.00  0.00     0.031 C 
ATOM     42  C   UNL A   1      39.727  27.482  28.777  1.00  0.00     0.029 A 
ATOM     43  N   UNL A   1      41.304  27.732  30.342  1.00  0.00    -0.354 N 
ATOM     44  C   UNL A   1      40.827  30.951  33.343  1.00  0.00     0.074 A 
ATOM     45  C   UNL A   1      39.519  31.552  33.220  1.00  0.00     0.031 C 
ATOM     46  C   UNL A   1      40.720  26.626  28.484  1.00  0.00     0.029 A 
ATOM     47  C   UNL A   1      41.785  26.793  29.461  1.00  0.00     0.049 A 
ATOM     48  H   UNL A   1      41.795  28.025  31.143  1.00  0.00     0.167 HD
ATOM     49  C   UNL A   1      41.760  31.317  34.252  1.00  0.00     0.031 A 
ATOM     50  C   UNL A   1      42.970  26.157  29.453  1.00  0.00     0.031 A 
ATOM     51  C   UNL A   1      43.024  30.643  34.366  1.00  0.00     0.049 A 
ATOM     52  C   UNL A   1      43.946  26.499  30.544  1.00  0.00     0.074 A 
ATOM     53  C   UNL A   1      44.035  30.841  35.285  1.00  0.00     0.029 A 
ATOM     54  N   UNL A   1      43.430  29.607  33.532  1.00  0.00    -0.354 N 
ATOM     55  N   UNL A   1      43.844  27.423  31.475  1.00  0.00    -0.248 NA
ATOM     56  C   UNL A   1      45.181  25.712  30.602  1.00  0.00     0.031 C 
ATOM     57  C   UNL A   1      45.060  29.932  34.998  1.00  0.00     0.029 A 
ATOM     58  C   UNL A   1      44.671  29.144  33.922  1.00  0.00     0.049 A 
ATOM     59  H   UNL A   1      42.910  29.255  32.774  1.00  0.00     0.167 HD
ATOM     60  C   UNL A   1      44.993  27.316  32.244  1.00  0.00     0.074 A 
ATOM     61  C   UNL A   1      45.766  26.224  31.676  1.00  0.00     0.031 C 
ATOM     62  C   UNL A   1      45.386  28.048  33.316  1.00  0.00     0.031 A 
BRANCH  49  63
ATOM     63  C   UNL A   1      41.428  32.467  35.168  1.00  0.00    -0.014 A 
ATOM     64  C   UNL A   1      41.788  33.788  34.840  1.00  0.00     0.010 A 
ATOM     65  C   UNL A   1      40.764  32.229  36.386  1.00  0.00     0.010 A 
ATOM     66  C   UNL A   1      41.551  34.835  35.734  1.00  0.00     0.020 A 
ATOM     67  C   UNL A   1      40.495  33.280  37.270  1.00  0.00     0.020 A 
ATOM     68  C   UNL A   1      40.911  34.574  36.948  1.00  0.00     0.054 A 
BRANCH  68  69
ATOM     69  S   UNL A   1      40.611  35.953  38.088  1.00  0.00     0.124 S 
ATOM     70  O   UNL A   1      41.965  36.447  38.327  1.00  0.00    -0.237 OA
ATOM     71  O   UNL A   1      39.750  36.837  37.305  1.00  0.00    -0.237 OA
ATOM     72  O   UNL A   1      39.968  35.319  39.236  1.00  0.00    -0.744 OA
ENDBRANCH  68  69
ENDBRANCH  49  63
BRANCH  50  73
ATOM     73  C   UNL A   1      43.252  25.118  28.426  1.00  0.00    -0.014 A 
ATOM     74  C   UNL A   1      42.858  23.787  28.650  1.00  0.00     0.010 A 
ATOM     75  C   UNL A   1      43.847  25.455  27.197  1.00  0.00     0.010 A 
ATOM     76  C   UNL A   1      43.063  22.810  27.670  1.00  0.00     0.020 A 
ATOM     77  C   UNL A   1      44.033  24.484  26.205  1.00  0.00     0.020 A 
ATOM     78  C   UNL A   1      43.647  23.165  26.451  1.00  0.00     0.054 A 
BRANCH  78  79
ATOM     79  S   UNL A   1      43.837  21.892  25.170  1.00  0.00     0.124 S 
ATOM     80  O   UNL A   1      43.706  22.673  23.944  1.00  0.00    -0.237 OA
ATOM     81  O   UNL A   1      45.170  21.363  25.444  1.00  0.00    -0.237 OA
ATOM     82  O   UNL A   1      42.741  20.965  25.443  1.00  0.00    -0.744 OA
ENDBRANCH  78  79
ENDBRANCH  50  73
BRANCH  62  83
ATOM     83  C   UNL A   1      46.692  27.665  33.946  1.00  0.00    -0.014 A 
ATOM     84  C   UNL A   1      47.892  28.269  33.536  1.00  0.00     0.010 A 
ATOM     85  C   UNL A   1      46.702  26.738  35.004  1.00  0.00     0.010 A 
ATOM     86  C   UNL A   1      49.092  27.933  34.161  1.00  0.00     0.020 A 
ATOM     87  C   UNL A   1      47.897  26.419  35.646  1.00  0.00     0.020 A 
ATOM     88  C   UNL A   1      49.087  27.009  35.213  1.00  0.00     0.054 A 
BRANCH  88  89
ATOM     89  S   UNL A   1      50.650  26.631  36.046  1.00  0.00     0.124 S 
ATOM     90  O   UNL A   1      50.983  27.915  36.657  1.00  0.00    -0.237 OA
ATOM     91  O   UNL A   1      50.272  25.571  36.976  1.00  0.00    -0.237 OA
ATOM     92  O   UNL A   1      51.528  26.211  34.956  1.00  0.00    -0.744 OA
ENDBRANCH  88  89
ENDBRANCH  62  83
ENDBRANCH  36  37
ENDBRANCH  28  31
ENDBRANCH  26  27
ENDBRANCH  25  26
ENDBRANCH   1  25
TORSDOF 17
ENDMDL
