MODEL 1
REMARK VINA RESULT:     -12.7      0.000      0.000
REMARK SMILES COc1cc2cc(C(=O)NCCCNC(=O)c3ccc(-c4c5nc(c(-c6ccc(S(=O)(=O)[O-])cc6)c6ccc([nH]6)c(-c6ccc(S(=O)(=O)[O-])cc6)c6nc(c(-c7ccc(S(=O)(=O)[O-])cc7)c7ccc4[nH]7)C=C6)C=C5)cc3)n(Cc3ccccc3)c2c(OC)c1OC
REMARK SMILES IDX 12 1 11 2 10 3 8 4 9 5 7 7 3 8 4 9 89 10 5 11 86 12 6 13
REMARK SMILES IDX 85 14 77 15 2 16 1 17 90 18 91 19 87 20 88 21 78 22 79 23
REMARK SMILES IDX 80 24 84 25 81 26 83 27 82 28 13 29 14 30 15 31 16 33 17 34
REMARK SMILES IDX 18 35 76 36 19 37 75 38 20 39 21 40 22 41 69 42 23 43 74 44
REMARK SMILES IDX 68 45 70 46 24 47 73 48 67 49 66 50 25 52 55 53 36 54 54 55
REMARK SMILES IDX 37 56 40 57 53 58 71 59 38 60 39 61 52 63 72 64 41 65 26 66
REMARK SMILES IDX 27 67 35 68 28 69 34 70 29 71 30 72 31 73 32 74 33 75 56 76
REMARK SMILES IDX 57 77 65 78 58 79 64 80 59 81 60 82 61 83 62 84 63 85 42 86
REMARK SMILES IDX 43 87 51 88 44 89 50 90 45 91 46 92 47 93 48 94 49 95
REMARK H PARENT 10 6 14 32 70 51 40 62
REMARK Flexibility Score: inf
ROOT
ATOM      1  C   UNL A   1      40.104  22.555  27.189  1.00  0.00     0.042 C 
ENDROOT
BRANCH   1   2
ATOM      2  C   UNL A   1      38.990  22.647  26.137  1.00  0.00     0.118 C 
BRANCH   2   3
ATOM      3  N   UNL A   1      38.425  21.359  25.766  1.00  0.00    -0.351 N 
ATOM      4  C   UNL A   1      37.320  20.936  25.075  1.00  0.00     0.267 C 
ATOM      5  O   UNL A   1      37.387  19.747  24.736  1.00  0.00    -0.268 OA
ATOM      6  H   UNL A   1      38.971  20.606  26.092  1.00  0.00     0.163 HD
BRANCH   4   7
ATOM      7  C   UNL A   1      36.142  21.729  24.732  1.00  0.00     0.108 A 
ATOM      8  C   UNL A   1      32.957  24.641  22.938  1.00  0.00     0.165 A 
ATOM      9  C   UNL A   1      34.333  24.351  22.824  1.00  0.00     0.061 A 
ATOM     10  C   UNL A   1      32.161  24.039  23.929  1.00  0.00     0.205 A 
ATOM     11  C   UNL A   1      34.900  23.356  23.644  1.00  0.00     0.008 A 
ATOM     12  C   UNL A   1      32.750  23.098  24.810  1.00  0.00     0.189 A 
ATOM     13  C   UNL A   1      36.192  22.801  23.826  1.00  0.00     0.042 A 
ATOM     14  C   UNL A   1      34.081  22.696  24.542  1.00  0.00     0.096 A 
ATOM     15  N   UNL A   1      34.783  21.549  24.945  1.00  0.00    -0.329 N 
BRANCH   8  16
ATOM     16  O   UNL A   1      32.409  25.409  21.939  1.00  0.00    -0.493 OA
ATOM     17  C   UNL A   1      32.955  26.725  21.897  1.00  0.00     0.278 C 
ENDBRANCH   8  16
BRANCH  10  18
ATOM     18  O   UNL A   1      30.814  24.205  24.089  1.00  0.00    -0.490 OA
ATOM     19  C   UNL A   1      30.232  25.463  24.345  1.00  0.00     0.278 C 
ENDBRANCH  10  18
BRANCH  12  20
ATOM     20  O   UNL A   1      32.192  22.538  25.924  1.00  0.00    -0.491 OA
ATOM     21  C   UNL A   1      32.135  23.257  27.148  1.00  0.00     0.278 C 
ENDBRANCH  12  20
BRANCH  15  22
ATOM     22  C   UNL A   1      34.038  20.361  25.370  1.00  0.00     0.158 C 
BRANCH  22  23
ATOM     23  C   UNL A   1      33.889  19.176  24.440  1.00  0.00    -0.028 A 
ATOM     24  C   UNL A   1      34.648  18.003  24.452  1.00  0.00     0.005 A 
ATOM     25  C   UNL A   1      32.773  19.231  23.574  1.00  0.00     0.005 A 
ATOM     26  C   UNL A   1      34.231  16.880  23.730  1.00  0.00     0.000 A 
ATOM     27  C   UNL A   1      32.369  18.120  22.837  1.00  0.00     0.000 A 
ATOM     28  C   UNL A   1      33.082  16.933  22.940  1.00  0.00     0.000 A 
ENDBRANCH  22  23
ENDBRANCH  15  22
ENDBRANCH   4   7
ENDBRANCH   2   3
ENDBRANCH   1   2
BRANCH   1  29
ATOM     29  C   UNL A   1      41.267  21.624  26.870  1.00  0.00     0.118 C 
BRANCH  29  30
ATOM     30  N   UNL A   1      42.174  22.164  25.885  1.00  0.00    -0.352 N 
ATOM     31  C   UNL A   1      42.642  23.418  25.603  1.00  0.00     0.251 C 
ATOM     32  H   UNL A   1      42.538  21.476  25.282  1.00  0.00     0.163 HD
ATOM     33  O   UNL A   1      43.462  23.477  24.681  1.00  0.00    -0.269 OA
BRANCH  31  34
ATOM     34  C   UNL A   1      42.216  24.690  26.263  1.00  0.00     0.039 A 
ATOM     35  C   UNL A   1      41.311  25.638  25.773  1.00  0.00     0.014 A 
ATOM     36  C   UNL A   1      42.811  24.931  27.516  1.00  0.00     0.014 A 
ATOM     37  C   UNL A   1      41.077  26.828  26.479  1.00  0.00     0.010 A 
ATOM     38  C   UNL A   1      42.567  26.100  28.227  1.00  0.00     0.010 A 
ATOM     39  C   UNL A   1      41.738  27.077  27.687  1.00  0.00    -0.014 A 
BRANCH  39  40
ATOM     40  C   UNL A   1      41.507  28.336  28.406  1.00  0.00     0.031 A 
ATOM     41  C   UNL A   1      42.522  29.417  28.207  1.00  0.00     0.074 A 
ATOM     42  C   UNL A   1      40.353  28.604  29.056  1.00  0.00     0.049 A 
ATOM     43  N   UNL A   1      43.224  30.041  29.098  1.00  0.00    -0.248 NA
ATOM     44  C   UNL A   1      42.829  29.815  26.825  1.00  0.00     0.031 C 
ATOM     45  C   UNL A   1      39.120  27.808  29.078  1.00  0.00     0.029 A 
ATOM     46  N   UNL A   1      39.994  29.729  29.740  1.00  0.00    -0.354 N 
ATOM     47  C   UNL A   1      43.953  31.018  28.416  1.00  0.00     0.074 A 
ATOM     48  C   UNL A   1      43.753  30.759  27.012  1.00  0.00     0.031 C 
ATOM     49  C   UNL A   1      38.097  28.575  29.518  1.00  0.00     0.029 A 
ATOM     50  C   UNL A   1      38.626  29.852  29.962  1.00  0.00     0.049 A 
ATOM     51  H   UNL A   1      40.648  30.398  30.050  1.00  0.00     0.167 HD
ATOM     52  C   UNL A   1      44.553  32.070  29.045  1.00  0.00     0.031 A 
ATOM     53  C   UNL A   1      37.969  30.947  30.423  1.00  0.00     0.031 A 
ATOM     54  C   UNL A   1      44.668  31.857  30.460  1.00  0.00     0.049 A 
ATOM     55  C   UNL A   1      38.969  31.797  31.113  1.00  0.00     0.074 A 
ATOM     56  C   UNL A   1      45.331  30.941  31.250  1.00  0.00     0.029 A 
ATOM     57  N   UNL A   1      43.742  32.459  31.277  1.00  0.00    -0.354 N 
ATOM     58  N   UNL A   1      39.598  31.445  32.199  1.00  0.00    -0.248 NA
ATOM     59  C   UNL A   1      39.579  32.874  30.351  1.00  0.00     0.031 C 
ATOM     60  C   UNL A   1      44.439  30.683  32.330  1.00  0.00     0.029 A 
ATOM     61  C   UNL A   1      43.320  31.505  32.166  1.00  0.00     0.049 A 
ATOM     62  H   UNL A   1      43.440  33.394  31.233  1.00  0.00     0.167 HD
ATOM     63  C   UNL A   1      40.879  31.952  32.044  1.00  0.00     0.074 A 
ATOM     64  C   UNL A   1      40.782  32.893  30.928  1.00  0.00     0.031 C 
ATOM     65  C   UNL A   1      41.958  31.375  32.648  1.00  0.00     0.031 A 
BRANCH  52  66
ATOM     66  C   UNL A   1      44.797  33.423  28.422  1.00  0.00    -0.014 A 
ATOM     67  C   UNL A   1      43.770  34.203  27.856  1.00  0.00     0.010 A 
ATOM     68  C   UNL A   1      46.044  34.060  28.615  1.00  0.00     0.010 A 
ATOM     69  C   UNL A   1      43.968  35.537  27.486  1.00  0.00     0.020 A 
ATOM     70  C   UNL A   1      46.242  35.411  28.288  1.00  0.00     0.020 A 
ATOM     71  C   UNL A   1      45.199  36.139  27.719  1.00  0.00     0.054 A 
BRANCH  71  72
ATOM     72  S   UNL A   1      45.379  37.901  27.341  1.00  0.00     0.124 S 
ATOM     73  O   UNL A   1      44.012  38.267  26.967  1.00  0.00    -0.237 OA
ATOM     74  O   UNL A   1      45.847  38.445  28.616  1.00  0.00    -0.237 OA
ATOM     75  O   UNL A   1      46.351  37.926  26.259  1.00  0.00    -0.744 OA
ENDBRANCH  71  72
ENDBRANCH  52  66
BRANCH  53  76
ATOM     76  C   UNL A   1      36.684  31.501  29.913  1.00  0.00    -0.014 A 
ATOM     77  C   UNL A   1      36.615  32.010  28.600  1.00  0.00     0.010 A 
ATOM     78  C   UNL A   1      35.638  31.830  30.799  1.00  0.00     0.010 A 
ATOM     79  C   UNL A   1      35.590  32.877  28.207  1.00  0.00     0.020 A 
ATOM     80  C   UNL A   1      34.605  32.703  30.411  1.00  0.00     0.020 A 
ATOM     81  C   UNL A   1      34.611  33.250  29.126  1.00  0.00     0.054 A 
BRANCH  81  82
ATOM     82  S   UNL A   1      33.414  34.528  28.639  1.00  0.00     0.124 S 
ATOM     83  O   UNL A   1      32.786  34.858  29.917  1.00  0.00    -0.237 OA
ATOM     84  O   UNL A   1      34.276  35.570  28.080  1.00  0.00    -0.237 OA
ATOM     85  O   UNL A   1      32.554  33.852  27.674  1.00  0.00    -0.744 OA
ENDBRANCH  81  82
ENDBRANCH  53  76
BRANCH  65  86
ATOM     86  C   UNL A   1      41.748  30.302  33.697  1.00  0.00    -0.014 A 
ATOM     87  C   UNL A   1      42.232  30.566  34.992  1.00  0.00     0.010 A 
ATOM     88  C   UNL A   1      41.355  28.985  33.385  1.00  0.00     0.010 A 
ATOM     89  C   UNL A   1      42.396  29.538  35.923  1.00  0.00     0.020 A 
ATOM     90  C   UNL A   1      41.494  27.951  34.326  1.00  0.00     0.020 A 
ATOM     91  C   UNL A   1      42.051  28.230  35.575  1.00  0.00     0.054 A 
BRANCH  91  92
ATOM     92  S   UNL A   1      42.415  26.907  36.763  1.00  0.00     0.124 S 
ATOM     93  O   UNL A   1      41.104  26.656  37.358  1.00  0.00    -0.237 OA
ATOM     94  O   UNL A   1      42.927  25.837  35.910  1.00  0.00    -0.237 OA
ATOM     95  O   UNL A   1      43.398  27.499  37.668  1.00  0.00    -0.744 OA
ENDBRANCH  91  92
ENDBRANCH  65  86
ENDBRANCH  39  40
ENDBRANCH  31  34
ENDBRANCH  29  30
ENDBRANCH   1  29
TORSDOF 18
ENDMDL
MODEL 2
REMARK VINA RESULT:     -11.8      2.305      3.657
REMARK SMILES COc1cc2cc(C(=O)NCCCNC(=O)c3ccc(-c4c5nc(c(-c6ccc(S(=O)(=O)[O-])cc6)c6ccc([nH]6)c(-c6ccc(S(=O)(=O)[O-])cc6)c6nc(c(-c7ccc(S(=O)(=O)[O-])cc7)c7ccc4[nH]7)C=C6)C=C5)cc3)n(Cc3ccccc3)c2c(OC)c1OC
REMARK SMILES IDX 12 1 11 2 10 3 8 4 9 5 7 7 3 8 4 9 89 10 5 11 86 12 6 13
REMARK SMILES IDX 85 14 77 15 2 16 1 17 90 18 91 19 87 20 88 21 78 22 79 23
REMARK SMILES IDX 80 24 84 25 81 26 83 27 82 28 13 29 14 30 15 31 16 33 17 34
REMARK SMILES IDX 18 35 76 36 19 37 75 38 20 39 21 40 22 41 69 42 23 43 74 44
REMARK SMILES IDX 68 45 70 46 24 47 73 48 67 49 66 50 25 52 55 53 36 54 54 55
REMARK SMILES IDX 37 56 40 57 53 58 71 59 38 60 39 61 52 63 72 64 41 65 26 66
REMARK SMILES IDX 27 67 35 68 28 69 34 70 29 71 30 72 31 73 32 74 33 75 56 76
REMARK SMILES IDX 57 77 65 78 58 79 64 80 59 81 60 82 61 83 62 84 63 85 42 86
REMARK SMILES IDX 43 87 51 88 44 89 50 90 45 91 46 92 47 93 48 94 49 95
REMARK H PARENT 10 6 14 32 70 51 40 62
REMARK Flexibility Score: inf
ROOT
ATOM      1  C   UNL A   1      36.887  22.272  24.081  1.00  0.00     0.042 C 
ENDROOT
BRANCH   1   2
ATOM      2  C   UNL A   1      35.997  23.352  23.448  1.00  0.00     0.118 C 
BRANCH   2   3
ATOM      3  N   UNL A   1      34.710  22.855  22.988  1.00  0.00    -0.351 N 
ATOM      4  C   UNL A   1      33.506  23.417  22.654  1.00  0.00     0.267 C 
ATOM      5  O   UNL A   1      32.770  22.646  22.023  1.00  0.00    -0.268 OA
ATOM      6  H   UNL A   1      34.702  21.875  22.894  1.00  0.00     0.163 HD
BRANCH   4   7
ATOM      7  C   UNL A   1      33.050  24.769  22.969  1.00  0.00     0.108 A 
ATOM      8  C   UNL A   1      30.819  28.850  23.420  1.00  0.00     0.165 A 
ATOM      9  C   UNL A   1      30.723  27.648  22.686  1.00  0.00     0.061 A 
ATOM     10  C   UNL A   1      31.930  29.125  24.235  1.00  0.00     0.205 A 
ATOM     11  C   UNL A   1      31.703  26.653  22.862  1.00  0.00     0.008 A 
ATOM     12  C   UNL A   1      32.959  28.157  24.348  1.00  0.00     0.189 A 
ATOM     13  C   UNL A   1      31.952  25.363  22.326  1.00  0.00     0.042 A 
ATOM     14  C   UNL A   1      32.736  26.893  23.750  1.00  0.00     0.096 A 
ATOM     15  N   UNL A   1      33.334  25.648  24.004  1.00  0.00    -0.329 N 
BRANCH   8  16
ATOM     16  O   UNL A   1      29.705  29.657  23.420  1.00  0.00    -0.493 OA
ATOM     17  C   UNL A   1      29.152  29.828  22.117  1.00  0.00     0.278 C 
ENDBRANCH   8  16
BRANCH  10  18
ATOM     18  O   UNL A   1      32.095  30.225  25.028  1.00  0.00    -0.490 OA
ATOM     19  C   UNL A   1      31.514  30.328  26.309  1.00  0.00     0.278 C 
ENDBRANCH  10  18
BRANCH  12  20
ATOM     20  O   UNL A   1      34.177  28.302  24.950  1.00  0.00    -0.491 OA
ATOM     21  C   UNL A   1      34.278  28.446  26.360  1.00  0.00     0.278 C 
ENDBRANCH  12  20
BRANCH  15  22
ATOM     22  C   UNL A   1      34.003  25.420  25.287  1.00  0.00     0.158 C 
BRANCH  22  23
ATOM     23  C   UNL A   1      33.469  24.387  26.257  1.00  0.00    -0.028 A 
ATOM     24  C   UNL A   1      32.127  24.130  26.551  1.00  0.00     0.005 A 
ATOM     25  C   UNL A   1      34.442  23.517  26.800  1.00  0.00     0.005 A 
ATOM     26  C   UNL A   1      31.762  22.973  27.247  1.00  0.00     0.000 A 
ATOM     27  C   UNL A   1      34.080  22.376  27.513  1.00  0.00     0.000 A 
ATOM     28  C   UNL A   1      32.736  22.088  27.709  1.00  0.00     0.000 A 
ENDBRANCH  22  23
ENDBRANCH  15  22
ENDBRANCH   4   7
ENDBRANCH   2   3
ENDBRANCH   1   2
BRANCH   1  29
ATOM     29  C   UNL A   1      37.519  22.614  25.425  1.00  0.00     0.118 C 
BRANCH  29  30
ATOM     30  N   UNL A   1      38.893  22.181  25.535  1.00  0.00    -0.352 N 
ATOM     31  C   UNL A   1      39.988  22.642  26.211  1.00  0.00     0.251 C 
ATOM     32  H   UNL A   1      39.083  21.374  25.004  1.00  0.00     0.163 HD
ATOM     33  O   UNL A   1      41.009  21.959  26.083  1.00  0.00    -0.269 OA
BRANCH  31  34
ATOM     34  C   UNL A   1      40.063  23.894  27.025  1.00  0.00     0.039 A 
ATOM     35  C   UNL A   1      39.109  24.915  27.101  1.00  0.00     0.014 A 
ATOM     36  C   UNL A   1      41.239  24.031  27.788  1.00  0.00     0.014 A 
ATOM     37  C   UNL A   1      39.366  26.072  27.851  1.00  0.00     0.010 A 
ATOM     38  C   UNL A   1      41.487  25.168  28.548  1.00  0.00     0.010 A 
ATOM     39  C   UNL A   1      40.574  26.216  28.542  1.00  0.00    -0.014 A 
BRANCH  39  40
ATOM     40  C   UNL A   1      40.844  27.441  29.304  1.00  0.00     0.031 A 
ATOM     41  C   UNL A   1      41.879  28.364  28.742  1.00  0.00     0.074 A 
ATOM     42  C   UNL A   1      40.080  27.837  30.346  1.00  0.00     0.049 A 
ATOM     43  N   UNL A   1      42.957  28.808  29.304  1.00  0.00    -0.248 NA
ATOM     44  C   UNL A   1      41.711  28.808  27.350  1.00  0.00     0.031 C 
ATOM     45  C   UNL A   1      38.829  27.240  30.828  1.00  0.00     0.029 A 
ATOM     46  N   UNL A   1      40.198  28.952  31.122  1.00  0.00    -0.354 N 
ATOM     47  C   UNL A   1      43.533  29.708  28.403  1.00  0.00     0.074 A 
ATOM     48  C   UNL A   1      42.783  29.583  27.178  1.00  0.00     0.031 C 
ATOM     49  C   UNL A   1      38.189  28.123  31.630  1.00  0.00     0.029 A 
ATOM     50  C   UNL A   1      39.054  29.268  31.849  1.00  0.00     0.049 A 
ATOM     51  H   UNL A   1      41.024  29.489  31.166  1.00  0.00     0.167 HD
ATOM     52  C   UNL A   1      44.493  30.607  28.765  1.00  0.00     0.031 A 
ATOM     53  C   UNL A   1      38.812  30.415  32.533  1.00  0.00     0.031 A 
ATOM     54  C   UNL A   1      45.090  30.279  30.028  1.00  0.00     0.049 A 
ATOM     55  C   UNL A   1      40.125  31.051  32.797  1.00  0.00     0.074 A 
ATOM     56  C   UNL A   1      45.835  29.219  30.501  1.00  0.00     0.029 A 
ATOM     57  N   UNL A   1      44.652  30.957  31.140  1.00  0.00    -0.354 N 
ATOM     58  N   UNL A   1      41.045  30.529  33.561  1.00  0.00    -0.248 NA
ATOM     59  C   UNL A   1      40.579  32.072  31.869  1.00  0.00     0.031 C 
ATOM     60  C   UNL A   1      45.381  29.025  31.837  1.00  0.00     0.029 A 
ATOM     61  C   UNL A   1      44.438  30.019  32.117  1.00  0.00     0.049 A 
ATOM     62  H   UNL A   1      44.518  31.929  31.221  1.00  0.00     0.167 HD
ATOM     63  C   UNL A   1      42.242  30.844  32.934  1.00  0.00     0.074 A 
ATOM     64  C   UNL A   1      41.896  31.865  31.946  1.00  0.00     0.031 C 
ATOM     65  C   UNL A   1      43.354  30.066  33.078  1.00  0.00     0.031 A 
BRANCH  52  66
ATOM     66  C   UNL A   1      44.712  31.948  28.106  1.00  0.00    -0.014 A 
ATOM     67  C   UNL A   1      43.773  32.996  28.169  1.00  0.00     0.010 A 
ATOM     68  C   UNL A   1      45.994  32.274  27.608  1.00  0.00     0.010 A 
ATOM     69  C   UNL A   1      44.080  34.294  27.749  1.00  0.00     0.020 A 
ATOM     70  C   UNL A   1      46.326  33.583  27.224  1.00  0.00     0.020 A 
ATOM     71  C   UNL A   1      45.360  34.585  27.294  1.00  0.00     0.054 A 
BRANCH  71  72
ATOM     72  S   UNL A   1      45.755  36.302  26.876  1.00  0.00     0.124 S 
ATOM     73  O   UNL A   1      46.649  36.677  27.973  1.00  0.00    -0.237 OA
ATOM     74  O   UNL A   1      46.393  36.164  25.567  1.00  0.00    -0.237 OA
ATOM     75  O   UNL A   1      44.459  36.964  26.871  1.00  0.00    -0.744 OA
ENDBRANCH  71  72
ENDBRANCH  52  66
BRANCH  53  76
ATOM     76  C   UNL A   1      37.544  31.196  32.553  1.00  0.00    -0.014 A 
ATOM     77  C   UNL A   1      36.882  31.485  31.343  1.00  0.00     0.010 A 
ATOM     78  C   UNL A   1      37.164  31.925  33.699  1.00  0.00     0.010 A 
ATOM     79  C   UNL A   1      35.938  32.514  31.255  1.00  0.00     0.020 A 
ATOM     80  C   UNL A   1      36.216  32.962  33.618  1.00  0.00     0.020 A 
ATOM     81  C   UNL A   1      35.638  33.273  32.385  1.00  0.00     0.054 A 
BRANCH  81  82
ATOM     82  S   UNL A   1      34.560  34.723  32.188  1.00  0.00     0.124 S 
ATOM     83  O   UNL A   1      34.548  34.896  30.737  1.00  0.00    -0.237 OA
ATOM     84  O   UNL A   1      33.300  34.259  32.770  1.00  0.00    -0.237 OA
ATOM     85  O   UNL A   1      35.241  35.770  32.939  1.00  0.00    -0.744 OA
ENDBRANCH  81  82
ENDBRANCH  53  76
BRANCH  65  86
ATOM     86  C   UNL A   1      43.372  28.967  34.121  1.00  0.00    -0.014 A 
ATOM     87  C   UNL A   1      42.720  27.762  33.797  1.00  0.00     0.010 A 
ATOM     88  C   UNL A   1      43.753  29.183  35.461  1.00  0.00     0.010 A 
ATOM     89  C   UNL A   1      42.386  26.835  34.787  1.00  0.00     0.020 A 
ATOM     90  C   UNL A   1      43.442  28.242  36.457  1.00  0.00     0.020 A 
ATOM     91  C   UNL A   1      42.725  27.093  36.116  1.00  0.00     0.054 A 
BRANCH  91  92
ATOM     92  S   UNL A   1      42.146  25.931  37.385  1.00  0.00     0.124 S 
ATOM     93  O   UNL A   1      42.983  26.281  38.531  1.00  0.00    -0.237 OA
ATOM     94  O   UNL A   1      40.732  26.275  37.518  1.00  0.00    -0.237 OA
ATOM     95  O   UNL A   1      42.409  24.613  36.811  1.00  0.00    -0.744 OA
ENDBRANCH  91  92
ENDBRANCH  65  86
ENDBRANCH  39  40
ENDBRANCH  31  34
ENDBRANCH  29  30
ENDBRANCH   1  29
TORSDOF 18
ENDMDL
MODEL 3
REMARK VINA RESULT:     -11.8      1.453      3.162
REMARK SMILES COc1cc2cc(C(=O)NCCCNC(=O)c3ccc(-c4c5nc(c(-c6ccc(S(=O)(=O)[O-])cc6)c6ccc([nH]6)c(-c6ccc(S(=O)(=O)[O-])cc6)c6nc(c(-c7ccc(S(=O)(=O)[O-])cc7)c7ccc4[nH]7)C=C6)C=C5)cc3)n(Cc3ccccc3)c2c(OC)c1OC
REMARK SMILES IDX 12 1 11 2 10 3 8 4 9 5 7 7 3 8 4 9 89 10 5 11 86 12 6 13
REMARK SMILES IDX 85 14 77 15 2 16 1 17 90 18 91 19 87 20 88 21 78 22 79 23
REMARK SMILES IDX 80 24 84 25 81 26 83 27 82 28 13 29 14 30 15 31 16 33 17 34
REMARK SMILES IDX 18 35 76 36 19 37 75 38 20 39 21 40 22 41 69 42 23 43 74 44
REMARK SMILES IDX 68 45 70 46 24 47 73 48 67 49 66 50 25 52 55 53 36 54 54 55
REMARK SMILES IDX 37 56 40 57 53 58 71 59 38 60 39 61 52 63 72 64 41 65 26 66
REMARK SMILES IDX 27 67 35 68 28 69 34 70 29 71 30 72 31 73 32 74 33 75 56 76
REMARK SMILES IDX 57 77 65 78 58 79 64 80 59 81 60 82 61 83 62 84 63 85 42 86
REMARK SMILES IDX 43 87 51 88 44 89 50 90 45 91 46 92 47 93 48 94 49 95
REMARK H PARENT 10 6 14 32 70 51 40 62
REMARK Flexibility Score: inf
ROOT
ATOM      1  C   UNL A   1      40.656  21.548  27.513  1.00  0.00     0.042 C 
ENDROOT
BRANCH   1   2
ATOM      2  C   UNL A   1      39.597  21.751  26.421  1.00  0.00     0.118 C 
BRANCH   2   3
ATOM      3  N   UNL A   1      39.054  23.099  26.373  1.00  0.00    -0.351 N 
ATOM      4  C   UNL A   1      37.819  23.651  26.157  1.00  0.00     0.267 C 
ATOM      5  O   UNL A   1      37.750  24.837  26.505  1.00  0.00    -0.268 OA
ATOM      6  H   UNL A   1      39.744  23.784  26.534  1.00  0.00     0.163 HD
BRANCH   4   7
ATOM      7  C   UNL A   1      36.651  22.990  25.579  1.00  0.00     0.108 A 
ATOM      8  C   UNL A   1      33.053  20.226  24.457  1.00  0.00     0.165 A 
ATOM      9  C   UNL A   1      34.160  20.248  25.331  1.00  0.00     0.061 A 
ATOM     10  C   UNL A   1      32.884  21.209  23.466  1.00  0.00     0.205 A 
ATOM     11  C   UNL A   1      35.053  21.336  25.289  1.00  0.00     0.008 A 
ATOM     12  C   UNL A   1      33.828  22.261  23.367  1.00  0.00     0.189 A 
ATOM     13  C   UNL A   1      36.239  21.707  25.973  1.00  0.00     0.042 A 
ATOM     14  C   UNL A   1      34.814  22.351  24.380  1.00  0.00     0.096 A 
ATOM     15  N   UNL A   1      35.601  23.439  24.790  1.00  0.00    -0.329 N 
BRANCH   8  16
ATOM     16  O   UNL A   1      32.077  19.297  24.728  1.00  0.00    -0.493 OA
ATOM     17  C   UNL A   1      32.535  17.957  24.563  1.00  0.00     0.278 C 
ENDBRANCH   8  16
BRANCH  10  18
ATOM     18  O   UNL A   1      31.824  21.314  22.610  1.00  0.00    -0.490 OA
ATOM     19  C   UNL A   1      31.732  20.558  21.423  1.00  0.00     0.278 C 
ENDBRANCH  10  18
BRANCH  12  20
ATOM     20  O   UNL A   1      33.927  23.203  22.383  1.00  0.00    -0.491 OA
ATOM     21  C   UNL A   1      32.868  24.122  22.148  1.00  0.00     0.278 C 
ENDBRANCH  12  20
BRANCH  15  22
ATOM     22  C   UNL A   1      35.168  24.801  24.471  1.00  0.00     0.158 C 
BRANCH  22  23
ATOM     23  C   UNL A   1      34.108  25.484  25.310  1.00  0.00    -0.028 A 
ATOM     24  C   UNL A   1      33.861  26.857  25.387  1.00  0.00     0.005 A 
ATOM     25  C   UNL A   1      33.205  24.612  25.959  1.00  0.00     0.005 A 
ATOM     26  C   UNL A   1      32.685  27.334  25.976  1.00  0.00     0.000 A 
ATOM     27  C   UNL A   1      32.044  25.088  26.565  1.00  0.00     0.000 A 
ATOM     28  C   UNL A   1      31.769  26.449  26.546  1.00  0.00     0.000 A 
ENDBRANCH  22  23
ENDBRANCH  15  22
ENDBRANCH   4   7
ENDBRANCH   2   3
ENDBRANCH   1   2
BRANCH   1  29
ATOM     29  C   UNL A   1      42.023  21.056  27.053  1.00  0.00     0.118 C 
BRANCH  29  30
ATOM     30  N   UNL A   1      42.458  21.661  25.815  1.00  0.00    -0.352 N 
ATOM     31  C   UNL A   1      42.784  22.934  25.437  1.00  0.00     0.251 C 
ATOM     32  H   UNL A   1      42.538  21.012  25.079  1.00  0.00     0.163 HD
ATOM     33  O   UNL A   1      43.161  23.054  24.267  1.00  0.00    -0.269 OA
BRANCH  31  34
ATOM     34  C   UNL A   1      42.677  24.162  26.282  1.00  0.00     0.039 A 
ATOM     35  C   UNL A   1      43.289  24.398  27.518  1.00  0.00     0.014 A 
ATOM     36  C   UNL A   1      41.859  25.176  25.747  1.00  0.00     0.014 A 
ATOM     37  C   UNL A   1      43.021  25.577  28.230  1.00  0.00     0.010 A 
ATOM     38  C   UNL A   1      41.607  26.354  26.442  1.00  0.00     0.010 A 
ATOM     39  C   UNL A   1      42.147  26.537  27.710  1.00  0.00    -0.014 A 
BRANCH  39  40
ATOM     40  C   UNL A   1      41.853  27.755  28.473  1.00  0.00     0.031 A 
ATOM     41  C   UNL A   1      42.855  28.862  28.379  1.00  0.00     0.074 A 
ATOM     42  C   UNL A   1      40.661  27.973  29.073  1.00  0.00     0.049 A 
ATOM     43  N   UNL A   1      43.496  29.456  29.334  1.00  0.00    -0.248 NA
ATOM     44  C   UNL A   1      43.226  29.331  27.035  1.00  0.00     0.031 C 
ATOM     45  C   UNL A   1      39.445  27.155  28.992  1.00  0.00     0.029 A 
ATOM     46  N   UNL A   1      40.244  29.057  29.787  1.00  0.00    -0.354 N 
ATOM     47  C   UNL A   1      44.240  30.477  28.737  1.00  0.00     0.074 A 
ATOM     48  C   UNL A   1      44.120  30.281  27.314  1.00  0.00     0.031 C 
ATOM     49  C   UNL A   1      38.385  27.882  29.412  1.00  0.00     0.029 A 
ATOM     50  C   UNL A   1      38.864  29.146  29.942  1.00  0.00     0.049 A 
ATOM     51  H   UNL A   1      40.868  29.722  30.163  1.00  0.00     0.167 HD
ATOM     52  C   UNL A   1      44.785  31.509  29.445  1.00  0.00     0.031 A 
ATOM     53  C   UNL A   1      38.162  30.205  30.418  1.00  0.00     0.031 A 
ATOM     54  C   UNL A   1      44.830  31.231  30.853  1.00  0.00     0.049 A 
ATOM     55  C   UNL A   1      39.107  31.040  31.198  1.00  0.00     0.074 A 
ATOM     56  C   UNL A   1      45.469  30.291  31.635  1.00  0.00     0.029 A 
ATOM     57  N   UNL A   1      43.851  31.778  31.646  1.00  0.00    -0.354 N 
ATOM     58  N   UNL A   1      39.685  30.648  32.299  1.00  0.00    -0.248 NA
ATOM     59  C   UNL A   1      39.734  32.162  30.520  1.00  0.00     0.031 C 
ATOM     60  C   UNL A   1      44.528  29.967  32.652  1.00  0.00     0.029 A 
ATOM     61  C   UNL A   1      43.402  30.775  32.467  1.00  0.00     0.049 A 
ATOM     62  H   UNL A   1      43.532  32.708  31.629  1.00  0.00     0.167 HD
ATOM     63  C   UNL A   1      40.963  31.184  32.236  1.00  0.00     0.074 A 
ATOM     64  C   UNL A   1      40.905  32.175  31.161  1.00  0.00     0.031 C 
ATOM     65  C   UNL A   1      42.020  30.599  32.869  1.00  0.00     0.031 A 
BRANCH  52  66
ATOM     66  C   UNL A   1      45.034  32.894  28.900  1.00  0.00    -0.014 A 
ATOM     67  C   UNL A   1      44.010  33.845  28.726  1.00  0.00     0.010 A 
ATOM     68  C   UNL A   1      46.362  33.362  28.778  1.00  0.00     0.010 A 
ATOM     69  C   UNL A   1      44.282  35.185  28.432  1.00  0.00     0.020 A 
ATOM     70  C   UNL A   1      46.648  34.714  28.527  1.00  0.00     0.020 A 
ATOM     71  C   UNL A   1      45.601  35.616  28.351  1.00  0.00     0.054 A 
BRANCH  71  72
ATOM     72  S   UNL A   1      45.914  37.381  28.093  1.00  0.00     0.124 S 
ATOM     73  O   UNL A   1      47.366  37.402  27.910  1.00  0.00    -0.237 OA
ATOM     74  O   UNL A   1      45.126  37.664  26.893  1.00  0.00    -0.237 OA
ATOM     75  O   UNL A   1      45.429  38.001  29.317  1.00  0.00    -0.744 OA
ENDBRANCH  71  72
ENDBRANCH  52  66
BRANCH  53  76
ATOM     76  C   UNL A   1      36.895  30.761  29.866  1.00  0.00    -0.014 A 
ATOM     77  C   UNL A   1      36.804  31.063  28.491  1.00  0.00     0.010 A 
ATOM     78  C   UNL A   1      35.908  31.293  30.720  1.00  0.00     0.010 A 
ATOM     79  C   UNL A   1      35.820  31.927  27.998  1.00  0.00     0.020 A 
ATOM     80  C   UNL A   1      34.917  32.163  30.231  1.00  0.00     0.020 A 
ATOM     81  C   UNL A   1      34.905  32.503  28.877  1.00  0.00     0.054 A 
BRANCH  81  82
ATOM     82  S   UNL A   1      33.771  33.769  28.231  1.00  0.00     0.124 S 
ATOM     83  O   UNL A   1      33.271  34.383  29.460  1.00  0.00    -0.237 OA
ATOM     84  O   UNL A   1      34.662  34.611  27.432  1.00  0.00    -0.237 OA
ATOM     85  O   UNL A   1      32.791  33.004  27.469  1.00  0.00    -0.744 OA
ENDBRANCH  81  82
ENDBRANCH  53  76
BRANCH  65  86
ATOM     86  C   UNL A   1      41.776  29.474  33.855  1.00  0.00    -0.014 A 
ATOM     87  C   UNL A   1      41.868  29.788  35.224  1.00  0.00     0.010 A 
ATOM     88  C   UNL A   1      41.740  28.115  33.481  1.00  0.00     0.010 A 
ATOM     89  C   UNL A   1      42.000  28.785  36.186  1.00  0.00     0.020 A 
ATOM     90  C   UNL A   1      41.848  27.101  34.447  1.00  0.00     0.020 A 
ATOM     91  C   UNL A   1      42.016  27.447  35.790  1.00  0.00     0.054 A 
BRANCH  91  92
ATOM     92  S   UNL A   1      42.334  26.185  37.056  1.00  0.00     0.124 S 
ATOM     93  O   UNL A   1      43.339  26.835  37.895  1.00  0.00    -0.237 OA
ATOM     94  O   UNL A   1      41.022  26.012  37.676  1.00  0.00    -0.237 OA
ATOM     95  O   UNL A   1      42.816  25.032  36.298  1.00  0.00    -0.744 OA
ENDBRANCH  91  92
ENDBRANCH  65  86
ENDBRANCH  39  40
ENDBRANCH  31  34
ENDBRANCH  29  30
ENDBRANCH   1  29
TORSDOF 18
ENDMDL
