MODEL 1
REMARK VINA RESULT:     -11.5      0.000      0.000
REMARK SMILES Cc1ccc(F)cc1NC(=O)c1nn(C)cc1C(=O)NCCCNC(=O)c1ccc(-c2c3nc(c(-c4ccc(S(=O)(=O)[O-])cc4)c4ccc([nH]4)c(-c4ccc(S(=O)(=O)[O-])cc4)c4nc(c(-c5ccc(S(=O)(=O)[O-])cc5)c5ccc2[nH]5)C=C4)C=C3)cc1
REMARK SMILES IDX 22 1 21 2 20 3 18 4 19 5 17 7 12 8 13 9 14 10 16 11 15 12
REMARK SMILES IDX 10 13 9 14 11 16 8 17 1 18 2 19 3 20 4 21 7 22 5 23 6 24
REMARK SMILES IDX 23 25 24 26 25 27 26 29 27 30 28 31 86 32 29 33 85 34 30 35
REMARK SMILES IDX 31 36 32 37 79 38 33 39 84 40 78 41 80 42 34 43 83 44 77 45
REMARK SMILES IDX 76 46 35 48 65 49 46 50 64 51 47 52 50 53 63 54 81 55 48 56
REMARK SMILES IDX 49 57 62 59 82 60 51 61 36 62 37 63 45 64 38 65 44 66 39 67
REMARK SMILES IDX 40 68 41 69 42 70 43 71 66 72 67 73 75 74 68 75 74 76 69 77
REMARK SMILES IDX 70 78 71 79 72 80 73 81 52 82 53 83 61 84 54 85 60 86 55 87
REMARK SMILES IDX 56 88 57 89 58 90 59 91
REMARK H PARENT 20 6 9 15 24 28 80 47 50 58
REMARK Flexibility Score: inf
ROOT
ATOM      1  C   UNL A   1      33.689  27.257  25.467  1.00  0.00     0.042 C 
ENDROOT
BRANCH   1   2
ATOM      2  C   UNL A   1      34.061  25.784  25.319  1.00  0.00     0.118 C 
BRANCH   2   3
ATOM      3  N   UNL A   1      33.786  25.234  24.003  1.00  0.00    -0.352 N 
ATOM      4  C   UNL A   1      34.041  24.029  23.398  1.00  0.00     0.255 C 
ATOM      5  O   UNL A   1      33.586  23.894  22.260  1.00  0.00    -0.269 OA
ATOM      6  H   UNL A   1      33.310  25.865  23.415  1.00  0.00     0.163 HD
BRANCH   4   7
ATOM      7  C   UNL A   1      34.826  22.969  24.016  1.00  0.00     0.090 A 
ATOM      8  C   UNL A   1      34.330  22.030  24.996  1.00  0.00     0.163 A 
ATOM      9  N   UNL A   1      35.291  21.170  25.387  1.00  0.00    -0.167 NA
ATOM     10  N   UNL A   1      36.364  21.529  24.682  1.00  0.00    -0.274 N 
ATOM     11  C   UNL A   1      36.154  22.612  23.882  1.00  0.00     0.123 A 
ATOM     12  C   UNL A   1      37.585  20.771  24.813  1.00  0.00     0.173 C 
BRANCH   8  13
ATOM     13  C   UNL A   1      32.984  21.919  25.573  1.00  0.00     0.277 C 
ATOM     14  N   UNL A   1      32.218  20.781  25.414  1.00  0.00    -0.320 N 
ATOM     15  H   UNL A   1      31.311  20.868  25.786  1.00  0.00     0.170 HD
ATOM     16  O   UNL A   1      32.484  22.847  26.218  1.00  0.00    -0.267 OA
BRANCH  14  17
ATOM     17  C   UNL A   1      32.463  19.520  24.834  1.00  0.00     0.047 A 
ATOM     18  C   UNL A   1      32.007  20.475  22.469  1.00  0.00     0.046 C 
ATOM     19  C   UNL A   1      32.427  19.387  23.427  1.00  0.00    -0.027 A 
ATOM     20  C   UNL A   1      32.792  18.157  22.839  1.00  0.00     0.008 A 
ATOM     21  C   UNL A   1      33.163  17.069  23.622  1.00  0.00     0.039 A 
ATOM     22  C   UNL A   1      32.747  18.386  25.602  1.00  0.00     0.065 A 
ATOM     23  C   UNL A   1      33.117  17.190  24.998  1.00  0.00     0.125 A 
ATOM     24  F   UNL A   1      33.440  16.141  25.765  1.00  0.00    -0.207 F 
ENDBRANCH  14  17
ENDBRANCH   8  13
ENDBRANCH   4   7
ENDBRANCH   2   3
ENDBRANCH   1   2
BRANCH   1  25
ATOM     25  C   UNL A   1      33.354  27.697  26.893  1.00  0.00     0.118 C 
BRANCH  25  26
ATOM     26  N   UNL A   1      33.244  29.145  27.024  1.00  0.00    -0.352 N 
ATOM     27  C   UNL A   1      34.090  30.088  27.549  1.00  0.00     0.251 C 
ATOM     28  H   UNL A   1      32.404  29.514  26.669  1.00  0.00     0.163 HD
ATOM     29  O   UNL A   1      33.646  31.219  27.743  1.00  0.00    -0.269 OA
BRANCH  27  30
ATOM     30  C   UNL A   1      35.505  29.794  27.883  1.00  0.00     0.039 A 
ATOM     31  C   UNL A   1      35.825  29.510  29.216  1.00  0.00     0.014 A 
ATOM     32  C   UNL A   1      36.529  29.890  26.939  1.00  0.00     0.014 A 
ATOM     33  C   UNL A   1      37.153  29.280  29.589  1.00  0.00     0.010 A 
ATOM     34  C   UNL A   1      37.848  29.594  27.299  1.00  0.00     0.010 A 
ATOM     35  C   UNL A   1      38.176  29.292  28.629  1.00  0.00    -0.014 A 
BRANCH  35  36
ATOM     36  C   UNL A   1      39.578  28.974  29.009  1.00  0.00     0.031 A 
ATOM     37  C   UNL A   1      40.452  30.002  29.682  1.00  0.00     0.074 A 
ATOM     38  C   UNL A   1      40.084  27.761  28.707  1.00  0.00     0.049 A 
ATOM     39  N   UNL A   1      41.697  29.893  30.075  1.00  0.00    -0.248 NA
ATOM     40  C   UNL A   1      39.864  31.328  29.925  1.00  0.00     0.031 C 
ATOM     41  C   UNL A   1      39.364  26.697  28.002  1.00  0.00     0.029 A 
ATOM     42  N   UNL A   1      41.322  27.219  28.946  1.00  0.00    -0.354 N 
ATOM     43  C   UNL A   1      42.046  31.136  30.590  1.00  0.00     0.074 A 
ATOM     44  C   UNL A   1      40.894  31.996  30.428  1.00  0.00     0.031 C 
ATOM     45  C   UNL A   1      40.163  25.624  27.888  1.00  0.00     0.029 A 
ATOM     46  C   UNL A   1      41.460  25.931  28.482  1.00  0.00     0.049 A 
ATOM     47  H   UNL A   1      42.042  27.705  29.408  1.00  0.00     0.167 HD
ATOM     48  C   UNL A   1      43.213  31.524  31.158  1.00  0.00     0.031 A 
ATOM     49  C   UNL A   1      42.511  25.089  28.526  1.00  0.00     0.031 A 
ATOM     50  C   UNL A   1      44.351  30.660  31.345  1.00  0.00     0.049 A 
ATOM     51  C   UNL A   1      43.780  25.531  29.199  1.00  0.00     0.074 A 
ATOM     52  C   UNL A   1      45.547  30.940  31.986  1.00  0.00     0.029 A 
ATOM     53  N   UNL A   1      44.439  29.354  30.890  1.00  0.00    -0.354 N 
ATOM     54  N   UNL A   1      44.056  26.685  29.759  1.00  0.00    -0.248 NA
ATOM     55  C   UNL A   1      44.874  24.551  29.261  1.00  0.00     0.031 C 
ATOM     56  C   UNL A   1      46.374  29.817  31.880  1.00  0.00     0.029 A 
ATOM     57  C   UNL A   1      45.676  28.821  31.216  1.00  0.00     0.049 A 
ATOM     58  H   UNL A   1      43.727  28.874  30.408  1.00  0.00     0.167 HD
ATOM     59  C   UNL A   1      45.349  26.562  30.254  1.00  0.00     0.074 A 
ATOM     60  C   UNL A   1      45.790  25.217  29.951  1.00  0.00     0.031 C 
ATOM     61  C   UNL A   1      46.105  27.484  30.900  1.00  0.00     0.031 A 
BRANCH  48  62
ATOM     62  C   UNL A   1      43.330  32.950  31.627  1.00  0.00    -0.014 A 
ATOM     63  C   UNL A   1      42.999  33.311  32.945  1.00  0.00     0.010 A 
ATOM     64  C   UNL A   1      43.850  33.930  30.760  1.00  0.00     0.010 A 
ATOM     65  C   UNL A   1      43.159  34.630  33.380  1.00  0.00     0.020 A 
ATOM     66  C   UNL A   1      44.035  35.245  31.198  1.00  0.00     0.020 A 
ATOM     67  C   UNL A   1      43.676  35.589  32.504  1.00  0.00     0.054 A 
BRANCH  67  68
ATOM     68  S   UNL A   1      43.917  37.282  33.109  1.00  0.00     0.124 S 
ATOM     69  O   UNL A   1      43.863  38.055  31.871  1.00  0.00    -0.237 OA
ATOM     70  O   UNL A   1      42.785  37.465  34.013  1.00  0.00    -0.237 OA
ATOM     71  O   UNL A   1      45.226  37.236  33.757  1.00  0.00    -0.744 OA
ENDBRANCH  67  68
ENDBRANCH  48  62
BRANCH  49  72
ATOM     72  C   UNL A   1      42.403  23.734  27.919  1.00  0.00    -0.014 A 
ATOM     73  C   UNL A   1      41.943  22.645  28.677  1.00  0.00     0.010 A 
ATOM     74  C   UNL A   1      42.761  23.531  26.574  1.00  0.00     0.010 A 
ATOM     75  C   UNL A   1      41.866  21.369  28.109  1.00  0.00     0.020 A 
ATOM     76  C   UNL A   1      42.660  22.264  25.994  1.00  0.00     0.020 A 
ATOM     77  C   UNL A   1      42.227  21.187  26.770  1.00  0.00     0.054 A 
BRANCH  77  78
ATOM     78  S   UNL A   1      42.080  19.535  26.037  1.00  0.00     0.124 S 
ATOM     79  O   UNL A   1      42.565  18.680  27.115  1.00  0.00    -0.237 OA
ATOM     80  O   UNL A   1      40.650  19.440  25.748  1.00  0.00    -0.237 OA
ATOM     81  O   UNL A   1      42.939  19.609  24.858  1.00  0.00    -0.744 OA
ENDBRANCH  77  78
ENDBRANCH  49  72
BRANCH  61  82
ATOM     82  C   UNL A   1      47.483  27.059  31.333  1.00  0.00    -0.014 A 
ATOM     83  C   UNL A   1      48.587  27.190  30.473  1.00  0.00     0.010 A 
ATOM     84  C   UNL A   1      47.677  26.544  32.627  1.00  0.00     0.010 A 
ATOM     85  C   UNL A   1      49.855  26.770  30.882  1.00  0.00     0.020 A 
ATOM     86  C   UNL A   1      48.948  26.148  33.050  1.00  0.00     0.020 A 
ATOM     87  C   UNL A   1      50.026  26.245  32.167  1.00  0.00     0.054 A 
BRANCH  87  88
ATOM     88  S   UNL A   1      51.684  25.721  32.685  1.00  0.00     0.124 S 
ATOM     89  O   UNL A   1      51.408  24.444  33.337  1.00  0.00    -0.237 OA
ATOM     90  O   UNL A   1      52.407  25.637  31.419  1.00  0.00    -0.237 OA
ATOM     91  O   UNL A   1      52.123  26.794  33.575  1.00  0.00    -0.744 OA
ENDBRANCH  87  88
ENDBRANCH  61  82
ENDBRANCH  35  36
ENDBRANCH  27  30
ENDBRANCH  25  26
ENDBRANCH   1  25
TORSDOF 15
ENDMDL
MODEL 2
REMARK VINA RESULT:     -11.3      1.879      2.735
REMARK SMILES Cc1ccc(F)cc1NC(=O)c1nn(C)cc1C(=O)NCCCNC(=O)c1ccc(-c2c3nc(c(-c4ccc(S(=O)(=O)[O-])cc4)c4ccc([nH]4)c(-c4ccc(S(=O)(=O)[O-])cc4)c4nc(c(-c5ccc(S(=O)(=O)[O-])cc5)c5ccc2[nH]5)C=C4)C=C3)cc1
REMARK SMILES IDX 22 1 21 2 20 3 18 4 19 5 17 7 12 8 13 9 14 10 16 11 15 12
REMARK SMILES IDX 10 13 9 14 11 16 8 17 1 18 2 19 3 20 4 21 7 22 5 23 6 24
REMARK SMILES IDX 23 25 24 26 25 27 26 29 27 30 28 31 86 32 29 33 85 34 30 35
REMARK SMILES IDX 31 36 32 37 79 38 33 39 84 40 78 41 80 42 34 43 83 44 77 45
REMARK SMILES IDX 76 46 35 48 65 49 46 50 64 51 47 52 50 53 63 54 81 55 48 56
REMARK SMILES IDX 49 57 62 59 82 60 51 61 36 62 37 63 45 64 38 65 44 66 39 67
REMARK SMILES IDX 40 68 41 69 42 70 43 71 66 72 67 73 75 74 68 75 74 76 69 77
REMARK SMILES IDX 70 78 71 79 72 80 73 81 52 82 53 83 61 84 54 85 60 86 55 87
REMARK SMILES IDX 56 88 57 89 58 90 59 91
REMARK H PARENT 20 6 9 15 24 28 80 47 50 58
REMARK Flexibility Score: inf
ROOT
ATOM      1  C   UNL A   1      33.857  27.917  25.501  1.00  0.00     0.042 C 
ENDROOT
BRANCH   1   2
ATOM      2  C   UNL A   1      33.939  26.424  25.196  1.00  0.00     0.118 C 
BRANCH   2   3
ATOM      3  N   UNL A   1      33.870  26.105  23.781  1.00  0.00    -0.352 N 
ATOM      4  C   UNL A   1      33.951  24.941  23.058  1.00  0.00     0.255 C 
ATOM      5  O   UNL A   1      33.776  25.052  21.842  1.00  0.00    -0.269 OA
ATOM      6  H   UNL A   1      33.735  26.899  23.215  1.00  0.00     0.163 HD
BRANCH   4   7
ATOM      7  C   UNL A   1      34.257  23.646  23.651  1.00  0.00     0.090 A 
ATOM      8  C   UNL A   1      33.456  22.453  23.502  1.00  0.00     0.163 A 
ATOM      9  N   UNL A   1      33.991  21.412  24.171  1.00  0.00    -0.167 NA
ATOM     10  N   UNL A   1      35.099  21.906  24.721  1.00  0.00    -0.274 N 
ATOM     11  C   UNL A   1      35.286  23.234  24.476  1.00  0.00     0.123 A 
ATOM     12  C   UNL A   1      35.965  21.034  25.479  1.00  0.00     0.173 C 
BRANCH   8  13
ATOM     13  C   UNL A   1      32.206  22.265  22.755  1.00  0.00     0.277 C 
ATOM     14  N   UNL A   1      31.058  22.965  23.074  1.00  0.00    -0.320 N 
ATOM     15  H   UNL A   1      30.275  22.689  22.546  1.00  0.00     0.170 HD
ATOM     16  O   UNL A   1      32.132  21.465  21.817  1.00  0.00    -0.267 OA
BRANCH  14  17
ATOM     17  C   UNL A   1      30.773  23.992  23.995  1.00  0.00     0.047 A 
ATOM     18  C   UNL A   1      30.978  22.332  25.973  1.00  0.00     0.046 C 
ATOM     19  C   UNL A   1      30.798  23.707  25.380  1.00  0.00    -0.027 A 
ATOM     20  C   UNL A   1      30.635  24.760  26.306  1.00  0.00     0.008 A 
ATOM     21  C   UNL A   1      30.427  26.067  25.878  1.00  0.00     0.039 A 
ATOM     22  C   UNL A   1      30.467  25.295  23.590  1.00  0.00     0.065 A 
ATOM     23  C   UNL A   1      30.324  26.317  24.522  1.00  0.00     0.125 A 
ATOM     24  F   UNL A   1      30.091  27.565  24.096  1.00  0.00    -0.207 F 
ENDBRANCH  14  17
ENDBRANCH   8  13
ENDBRANCH   4   7
ENDBRANCH   2   3
ENDBRANCH   1   2
BRANCH   1  25
ATOM     25  C   UNL A   1      33.535  28.262  26.957  1.00  0.00     0.118 C 
BRANCH  25  26
ATOM     26  N   UNL A   1      33.458  29.698  27.192  1.00  0.00    -0.352 N 
ATOM     27  C   UNL A   1      34.295  30.571  27.838  1.00  0.00     0.251 C 
ATOM     28  H   UNL A   1      32.653  30.121  26.815  1.00  0.00     0.163 HD
ATOM     29  O   UNL A   1      33.872  31.698  28.090  1.00  0.00    -0.269 OA
BRANCH  27  30
ATOM     30  C   UNL A   1      35.677  30.206  28.235  1.00  0.00     0.039 A 
ATOM     31  C   UNL A   1      36.687  30.292  27.269  1.00  0.00     0.014 A 
ATOM     32  C   UNL A   1      35.979  29.691  29.497  1.00  0.00     0.014 A 
ATOM     33  C   UNL A   1      37.995  29.908  27.580  1.00  0.00     0.010 A 
ATOM     34  C   UNL A   1      37.299  29.371  29.829  1.00  0.00     0.010 A 
ATOM     35  C   UNL A   1      38.321  29.469  28.873  1.00  0.00    -0.014 A 
BRANCH  35  36
ATOM     36  C   UNL A   1      39.726  29.131  29.228  1.00  0.00     0.031 A 
ATOM     37  C   UNL A   1      40.618  30.139  29.906  1.00  0.00     0.074 A 
ATOM     38  C   UNL A   1      40.215  27.918  28.900  1.00  0.00     0.049 A 
ATOM     39  N   UNL A   1      41.867  30.012  30.281  1.00  0.00    -0.248 NA
ATOM     40  C   UNL A   1      40.046  31.467  30.179  1.00  0.00     0.031 C 
ATOM     41  C   UNL A   1      39.475  26.873  28.187  1.00  0.00     0.029 A 
ATOM     42  N   UNL A   1      41.451  27.361  29.114  1.00  0.00    -0.354 N 
ATOM     43  C   UNL A   1      42.235  31.243  30.811  1.00  0.00     0.074 A 
ATOM     44  C   UNL A   1      41.089  32.116  30.679  1.00  0.00     0.031 C 
ATOM     45  C   UNL A   1      40.263  25.794  28.045  1.00  0.00     0.029 A 
ATOM     46  C   UNL A   1      41.570  26.080  28.626  1.00  0.00     0.049 A 
ATOM     47  H   UNL A   1      42.182  27.832  29.573  1.00  0.00     0.167 HD
ATOM     48  C   UNL A   1      43.413  31.611  31.369  1.00  0.00     0.031 A 
ATOM     49  C   UNL A   1      42.614  25.227  28.643  1.00  0.00     0.031 A 
ATOM     50  C   UNL A   1      44.545  30.733  31.527  1.00  0.00     0.049 A 
ATOM     51  C   UNL A   1      43.896  25.646  29.305  1.00  0.00     0.074 A 
ATOM     52  C   UNL A   1      45.752  30.992  32.156  1.00  0.00     0.029 A 
ATOM     53  N   UNL A   1      44.614  29.434  31.050  1.00  0.00    -0.354 N 
ATOM     54  N   UNL A   1      44.190  26.788  29.880  1.00  0.00    -0.248 NA
ATOM     55  C   UNL A   1      44.981  24.655  29.337  1.00  0.00     0.031 C 
ATOM     56  C   UNL A   1      46.567  29.863  32.020  1.00  0.00     0.029 A 
ATOM     57  C   UNL A   1      45.850  28.885  31.350  1.00  0.00     0.049 A 
ATOM     58  H   UNL A   1      43.891  28.969  30.570  1.00  0.00     0.167 HD
ATOM     59  C   UNL A   1      45.489  26.645  30.356  1.00  0.00     0.074 A 
ATOM     60  C   UNL A   1      45.912  25.300  30.025  1.00  0.00     0.031 C 
ATOM     61  C   UNL A   1      46.263  27.549  31.006  1.00  0.00     0.031 A 
BRANCH  48  62
ATOM     62  C   UNL A   1      43.550  33.028  31.860  1.00  0.00    -0.014 A 
ATOM     63  C   UNL A   1      44.015  34.050  31.013  1.00  0.00     0.010 A 
ATOM     64  C   UNL A   1      43.136  33.357  33.165  1.00  0.00     0.010 A 
ATOM     65  C   UNL A   1      44.090  35.368  31.469  1.00  0.00     0.020 A 
ATOM     66  C   UNL A   1      43.187  34.679  33.617  1.00  0.00     0.020 A 
ATOM     67  C   UNL A   1      43.676  35.676  32.769  1.00  0.00     0.054 A 
BRANCH  67  68
ATOM     68  S   UNL A   1      43.740  37.403  33.318  1.00  0.00     0.124 S 
ATOM     69  O   UNL A   1      43.744  38.123  32.048  1.00  0.00    -0.237 OA
ATOM     70  O   UNL A   1      42.520  37.534  34.110  1.00  0.00    -0.237 OA
ATOM     71  O   UNL A   1      44.984  37.479  34.081  1.00  0.00    -0.744 OA
ENDBRANCH  67  68
ENDBRANCH  48  62
BRANCH  49  72
ATOM     72  C   UNL A   1      42.485  23.884  28.015  1.00  0.00    -0.014 A 
ATOM     73  C   UNL A   1      42.111  22.768  28.783  1.00  0.00     0.010 A 
ATOM     74  C   UNL A   1      42.735  23.718  26.641  1.00  0.00     0.010 A 
ATOM     75  C   UNL A   1      42.014  21.503  28.193  1.00  0.00     0.020 A 
ATOM     76  C   UNL A   1      42.614  22.461  26.042  1.00  0.00     0.020 A 
ATOM     77  C   UNL A   1      42.268  21.358  26.826  1.00  0.00     0.054 A 
BRANCH  77  78
ATOM     78  S   UNL A   1      42.096  19.719  26.069  1.00  0.00     0.124 S 
ATOM     79  O   UNL A   1      40.678  19.692  25.723  1.00  0.00    -0.237 OA
ATOM     80  O   UNL A   1      43.022  19.790  24.940  1.00  0.00    -0.237 OA
ATOM     81  O   UNL A   1      42.500  18.808  27.136  1.00  0.00    -0.744 OA
ENDBRANCH  77  78
ENDBRANCH  49  72
BRANCH  61  82
ATOM     82  C   UNL A   1      47.641  27.104  31.414  1.00  0.00    -0.014 A 
ATOM     83  C   UNL A   1      48.757  27.355  30.596  1.00  0.00     0.010 A 
ATOM     84  C   UNL A   1      47.825  26.446  32.644  1.00  0.00     0.010 A 
ATOM     85  C   UNL A   1      50.027  26.915  30.979  1.00  0.00     0.020 A 
ATOM     86  C   UNL A   1      49.097  26.029  33.042  1.00  0.00     0.020 A 
ATOM     87  C   UNL A   1      50.188  26.249  32.197  1.00  0.00     0.054 A 
BRANCH  87  88
ATOM     88  S   UNL A   1      51.847  25.702  32.683  1.00  0.00     0.124 S 
ATOM     89  O   UNL A   1      51.553  24.513  33.478  1.00  0.00    -0.237 OA
ATOM     90  O   UNL A   1      52.495  25.453  31.398  1.00  0.00    -0.237 OA
ATOM     91  O   UNL A   1      52.380  26.837  33.432  1.00  0.00    -0.744 OA
ENDBRANCH  87  88
ENDBRANCH  61  82
ENDBRANCH  35  36
ENDBRANCH  27  30
ENDBRANCH  25  26
ENDBRANCH   1  25
TORSDOF 15
ENDMDL
MODEL 3
REMARK VINA RESULT:     -11.3      2.126      2.620
REMARK SMILES Cc1ccc(F)cc1NC(=O)c1nn(C)cc1C(=O)NCCCNC(=O)c1ccc(-c2c3nc(c(-c4ccc(S(=O)(=O)[O-])cc4)c4ccc([nH]4)c(-c4ccc(S(=O)(=O)[O-])cc4)c4nc(c(-c5ccc(S(=O)(=O)[O-])cc5)c5ccc2[nH]5)C=C4)C=C3)cc1
REMARK SMILES IDX 22 1 21 2 20 3 18 4 19 5 17 7 12 8 13 9 14 10 16 11 15 12
REMARK SMILES IDX 10 13 9 14 11 16 8 17 1 18 2 19 3 20 4 21 7 22 5 23 6 24
REMARK SMILES IDX 23 25 24 26 25 27 26 29 27 30 28 31 86 32 29 33 85 34 30 35
REMARK SMILES IDX 31 36 32 37 79 38 33 39 84 40 78 41 80 42 34 43 83 44 77 45
REMARK SMILES IDX 76 46 35 48 65 49 46 50 64 51 47 52 50 53 63 54 81 55 48 56
REMARK SMILES IDX 49 57 62 59 82 60 51 61 36 62 37 63 45 64 38 65 44 66 39 67
REMARK SMILES IDX 40 68 41 69 42 70 43 71 66 72 67 73 75 74 68 75 74 76 69 77
REMARK SMILES IDX 70 78 71 79 72 80 73 81 52 82 53 83 61 84 54 85 60 86 55 87
REMARK SMILES IDX 56 88 57 89 58 90 59 91
REMARK H PARENT 20 6 9 15 24 28 80 47 50 58
REMARK Flexibility Score: inf
ROOT
ATOM      1  C   UNL A   1      33.647  27.151  25.241  1.00  0.00     0.042 C 
ENDROOT
BRANCH   1   2
ATOM      2  C   UNL A   1      33.654  25.625  25.196  1.00  0.00     0.118 C 
BRANCH   2   3
ATOM      3  N   UNL A   1      33.564  25.072  23.856  1.00  0.00    -0.352 N 
ATOM      4  C   UNL A   1      33.985  23.903  23.274  1.00  0.00     0.255 C 
ATOM      5  O   UNL A   1      33.662  23.745  22.094  1.00  0.00    -0.269 OA
ATOM      6  H   UNL A   1      33.097  25.668  23.226  1.00  0.00     0.163 HD
BRANCH   4   7
ATOM      7  C   UNL A   1      34.792  22.906  23.963  1.00  0.00     0.090 A 
ATOM      8  C   UNL A   1      34.308  22.004  24.982  1.00  0.00     0.163 A 
ATOM      9  N   UNL A   1      35.290  21.201  25.438  1.00  0.00    -0.167 NA
ATOM     10  N   UNL A   1      36.365  21.559  24.736  1.00  0.00    -0.274 N 
ATOM     11  C   UNL A   1      36.135  22.590  23.874  1.00  0.00     0.123 A 
ATOM     12  C   UNL A   1      37.609  20.853  24.931  1.00  0.00     0.173 C 
BRANCH   8  13
ATOM     13  C   UNL A   1      32.956  21.877  25.539  1.00  0.00     0.277 C 
ATOM     14  N   UNL A   1      32.214  20.721  25.386  1.00  0.00    -0.320 N 
ATOM     15  H   UNL A   1      31.299  20.796  25.741  1.00  0.00     0.170 HD
ATOM     16  O   UNL A   1      32.427  22.805  26.160  1.00  0.00    -0.267 OA
BRANCH  14  17
ATOM     17  C   UNL A   1      32.493  19.456  24.831  1.00  0.00     0.047 A 
ATOM     18  C   UNL A   1      32.039  20.358  22.445  1.00  0.00     0.046 C 
ATOM     19  C   UNL A   1      32.474  19.297  23.426  1.00  0.00    -0.027 A 
ATOM     20  C   UNL A   1      32.872  18.066  22.864  1.00  0.00     0.008 A 
ATOM     21  C   UNL A   1      33.260  17.001  23.669  1.00  0.00     0.039 A 
ATOM     22  C   UNL A   1      32.795  18.343  25.622  1.00  0.00     0.065 A 
ATOM     23  C   UNL A   1      33.197  17.144  25.042  1.00  0.00     0.125 A 
ATOM     24  F   UNL A   1      33.537  16.117  25.831  1.00  0.00    -0.207 F 
ENDBRANCH  14  17
ENDBRANCH   8  13
ENDBRANCH   4   7
ENDBRANCH   2   3
ENDBRANCH   1   2
BRANCH   1  25
ATOM     25  C   UNL A   1      33.612  27.754  26.647  1.00  0.00     0.118 C 
BRANCH  25  26
ATOM     26  N   UNL A   1      33.519  29.209  26.633  1.00  0.00    -0.352 N 
ATOM     27  C   UNL A   1      34.264  30.184  27.244  1.00  0.00     0.251 C 
ATOM     28  H   UNL A   1      32.783  29.556  26.080  1.00  0.00     0.163 HD
ATOM     29  O   UNL A   1      33.823  31.333  27.246  1.00  0.00    -0.269 OA
BRANCH  27  30
ATOM     30  C   UNL A   1      35.570  29.904  27.890  1.00  0.00     0.039 A 
ATOM     31  C   UNL A   1      35.574  29.543  29.243  1.00  0.00     0.014 A 
ATOM     32  C   UNL A   1      36.785  30.087  27.226  1.00  0.00     0.014 A 
ATOM     33  C   UNL A   1      36.784  29.322  29.909  1.00  0.00     0.010 A 
ATOM     34  C   UNL A   1      37.990  29.801  27.874  1.00  0.00     0.010 A 
ATOM     35  C   UNL A   1      38.004  29.422  29.225  1.00  0.00    -0.014 A 
BRANCH  35  36
ATOM     36  C   UNL A   1      39.288  29.114  29.911  1.00  0.00     0.031 A 
ATOM     37  C   UNL A   1      39.737  29.911  31.110  1.00  0.00     0.074 A 
ATOM     38  C   UNL A   1      40.077  28.135  29.425  1.00  0.00     0.049 A 
ATOM     39  N   UNL A   1      40.828  29.780  31.823  1.00  0.00    -0.248 NA
ATOM     40  C   UNL A   1      38.864  31.010  31.551  1.00  0.00     0.031 C 
ATOM     41  C   UNL A   1      39.789  27.329  28.236  1.00  0.00     0.029 A 
ATOM     42  N   UNL A   1      41.285  27.654  29.864  1.00  0.00    -0.354 N 
ATOM     43  C   UNL A   1      40.783  30.787  32.780  1.00  0.00     0.074 A 
ATOM     44  C   UNL A   1      39.574  31.544  32.535  1.00  0.00     0.031 C 
ATOM     45  C   UNL A   1      40.779  26.440  28.054  1.00  0.00     0.029 A 
ATOM     46  C   UNL A   1      41.785  26.630  29.093  1.00  0.00     0.049 A 
ATOM     47  H   UNL A   1      41.750  28.007  30.656  1.00  0.00     0.167 HD
ATOM     48  C   UNL A   1      41.660  31.051  33.778  1.00  0.00     0.031 A 
ATOM     49  C   UNL A   1      42.926  25.923  29.205  1.00  0.00     0.031 A 
ATOM     50  C   UNL A   1      42.848  30.280  34.039  1.00  0.00     0.049 A 
ATOM     51  C   UNL A   1      43.861  26.208  30.347  1.00  0.00     0.074 A 
ATOM     52  C   UNL A   1      43.752  30.420  35.080  1.00  0.00     0.029 A 
ATOM     53  N   UNL A   1      43.302  29.231  33.255  1.00  0.00    -0.354 N 
ATOM     54  N   UNL A   1      43.751  27.110  31.294  1.00  0.00    -0.248 NA
ATOM     55  C   UNL A   1      45.063  25.370  30.446  1.00  0.00     0.031 C 
ATOM     56  C   UNL A   1      44.776  29.484  34.899  1.00  0.00     0.029 A 
ATOM     57  C   UNL A   1      44.484  28.729  33.775  1.00  0.00     0.049 A 
ATOM     58  H   UNL A   1      42.850  28.892  32.449  1.00  0.00     0.167 HD
ATOM     59  C   UNL A   1      44.863  26.935  32.110  1.00  0.00     0.074 A 
ATOM     60  C   UNL A   1      45.617  25.826  31.561  1.00  0.00     0.031 C 
ATOM     61  C   UNL A   1      45.229  27.633  33.213  1.00  0.00     0.031 A 
BRANCH  48  62
ATOM     62  C   UNL A   1      41.373  32.225  34.678  1.00  0.00    -0.014 A 
ATOM     63  C   UNL A   1      41.800  33.521  34.341  1.00  0.00     0.010 A 
ATOM     64  C   UNL A   1      40.599  32.040  35.839  1.00  0.00     0.010 A 
ATOM     65  C   UNL A   1      41.484  34.607  35.161  1.00  0.00     0.020 A 
ATOM     66  C   UNL A   1      40.260  33.128  36.650  1.00  0.00     0.020 A 
ATOM     67  C   UNL A   1      40.715  34.404  36.312  1.00  0.00     0.054 A 
BRANCH  67  68
ATOM     68  S   UNL A   1      40.280  35.838  37.333  1.00  0.00     0.124 S 
ATOM     69  O   UNL A   1      39.813  36.792  36.330  1.00  0.00    -0.237 OA
ATOM     70  O   UNL A   1      39.249  35.302  38.217  1.00  0.00    -0.237 OA
ATOM     71  O   UNL A   1      41.536  36.191  37.990  1.00  0.00    -0.744 OA
ENDBRANCH  67  68
ENDBRANCH  48  62
BRANCH  49  72
ATOM     72  C   UNL A   1      43.245  24.865  28.208  1.00  0.00    -0.014 A 
ATOM     73  C   UNL A   1      43.980  25.171  27.050  1.00  0.00     0.010 A 
ATOM     74  C   UNL A   1      42.813  23.542  28.416  1.00  0.00     0.010 A 
ATOM     75  C   UNL A   1      44.257  24.179  26.104  1.00  0.00     0.020 A 
ATOM     76  C   UNL A   1      43.111  22.542  27.487  1.00  0.00     0.020 A 
ATOM     77  C   UNL A   1      43.819  22.870  26.329  1.00  0.00     0.054 A 
BRANCH  77  78
ATOM     78  S   UNL A   1      44.224  21.586  25.113  1.00  0.00     0.124 S 
ATOM     79  O   UNL A   1      43.167  20.607  25.342  1.00  0.00    -0.237 OA
ATOM     80  O   UNL A   1      44.152  22.312  23.847  1.00  0.00    -0.237 OA
ATOM     81  O   UNL A   1      45.568  21.164  25.501  1.00  0.00    -0.744 OA
ENDBRANCH  77  78
ENDBRANCH  49  72
BRANCH  61  82
ATOM     82  C   UNL A   1      46.495  27.204  33.907  1.00  0.00    -0.014 A 
ATOM     83  C   UNL A   1      47.736  27.768  33.564  1.00  0.00     0.010 A 
ATOM     84  C   UNL A   1      46.436  26.242  34.931  1.00  0.00     0.010 A 
ATOM     85  C   UNL A   1      48.905  27.344  34.202  1.00  0.00     0.020 A 
ATOM     86  C   UNL A   1      47.598  25.834  35.589  1.00  0.00     0.020 A 
ATOM     87  C   UNL A   1      48.829  26.374  35.207  1.00  0.00     0.054 A 
BRANCH  87  88
ATOM     88  S   UNL A   1      50.355  25.850  36.034  1.00  0.00     0.124 S 
ATOM     89  O   UNL A   1      49.917  24.654  36.748  1.00  0.00    -0.237 OA
ATOM     90  O   UNL A   1      51.265  25.615  34.915  1.00  0.00    -0.237 OA
ATOM     91  O   UNL A   1      50.700  26.990  36.880  1.00  0.00    -0.744 OA
ENDBRANCH  87  88
ENDBRANCH  61  82
ENDBRANCH  35  36
ENDBRANCH  27  30
ENDBRANCH  25  26
ENDBRANCH   1  25
TORSDOF 15
ENDMDL
