MODEL 1
REMARK VINA RESULT:     -14.3      0.000      0.000
REMARK SMILES Cc1cccc(N2CCN(c3ncc(NC(=O)c4ccccc4F)cc3C(=O)NCCCNC(=O)c3ccc(-c4c5nc(c(-c6ccc(S(=O)(=O)[O-])cc6)c6ccc([nH]6)c(-c6ccc(S(=O)(=O)[O-])cc6)c6nc(c(-c7ccc(S(=O)(=O)[O-])cc7)c7ccc4[nH]7)C=C6)C=C5)cc3)C[C@@H]2C)c1
REMARK SMILES IDX 31 1 30 2 29 3 27 4 28 5 26 7 11 8 12 9 13 10 25 11 14 12
REMARK SMILES IDX 10 13 7 14 8 15 97 16 9 17 96 18 98 19 6 20 1 21 2 22 3 23
REMARK SMILES IDX 99 24 4 25 5 26 15 27 16 28 17 30 18 31 19 32 23 33 20 34
REMARK SMILES IDX 22 35 24 36 21 37 32 38 33 39 34 40 35 42 36 43 37 44 95 45
REMARK SMILES IDX 38 46 94 47 39 48 40 49 41 50 88 51 42 52 93 53 87 54 89 55
REMARK SMILES IDX 43 56 92 57 86 58 85 59 44 61 74 62 55 63 73 64 56 65 59 66
REMARK SMILES IDX 72 67 90 68 57 69 58 70 71 72 91 73 60 74 45 75 46 76 54 77
REMARK SMILES IDX 47 78 53 79 48 80 49 81 50 82 51 83 52 84 75 85 76 86 84 87
REMARK SMILES IDX 77 88 83 89 78 90 79 91 80 92 81 93 82 94 61 95 62 96 70 97
REMARK SMILES IDX 63 98 69 99 64 100 65 101 66 102 67 103 68 104
REMARK H PARENT 29 6 15 29 33 41 89 60 59 71
REMARK Flexibility Score: inf
ROOT
ATOM      1  C   UNL A   1      33.390  29.233  27.524  1.00  0.00     0.042 C 
ENDROOT
BRANCH   1   2
ATOM      2  C   UNL A   1      33.128  27.813  27.009  1.00  0.00     0.118 C 
BRANCH   2   3
ATOM      3  N   UNL A   1      33.532  27.701  25.618  1.00  0.00    -0.352 N 
ATOM      4  C   UNL A   1      33.453  26.651  24.736  1.00  0.00     0.255 C 
ATOM      5  O   UNL A   1      34.278  26.635  23.825  1.00  0.00    -0.269 OA
ATOM      6  H   UNL A   1      33.931  28.519  25.243  1.00  0.00     0.163 HD
BRANCH   4   7
ATOM      7  C   UNL A   1      32.480  25.533  24.877  1.00  0.00     0.084 A 
ATOM      8  C   UNL A   1      31.196  25.567  24.293  1.00  0.00     0.141 A 
ATOM      9  N   UNL A   1      30.358  24.493  24.400  1.00  0.00    -0.236 NA
ATOM     10  C   UNL A   1      30.774  23.392  25.070  1.00  0.00     0.139 A 
ATOM     11  C   UNL A   1      32.858  24.381  25.580  1.00  0.00     0.045 A 
ATOM     12  C   UNL A   1      32.007  23.291  25.687  1.00  0.00     0.060 A 
BRANCH   8  13
ATOM     13  N   UNL A   1      30.648  26.700  23.720  1.00  0.00    -0.352 N 
ATOM     14  N   UNL A   1      29.442  29.030  22.574  1.00  0.00    -0.365 N 
ATOM     15  C   UNL A   1      28.981  28.512  23.878  1.00  0.00     0.138 C 
ATOM     16  C   UNL A   1      30.825  28.637  22.164  1.00  0.00     0.098 C 
ATOM     17  C   UNL A   1      29.240  26.996  24.017  1.00  0.00     0.139 C 
ATOM     18  C   UNL A   1      31.016  27.100  22.346  1.00  0.00     0.142 C 
ATOM     19  C   UNL A   1      31.867  29.438  22.958  1.00  0.00     0.033 C 
BRANCH  14  20
ATOM     20  C   UNL A   1      28.942  30.240  22.108  1.00  0.00     0.037 A 
ATOM     21  C   UNL A   1      28.897  33.903  23.209  1.00  0.00     0.044 C 
ATOM     22  C   UNL A   1      28.654  32.658  22.409  1.00  0.00    -0.049 A 
ATOM     23  C   UNL A   1      27.991  32.734  21.182  1.00  0.00     0.003 A 
ATOM     24  C   UNL A   1      29.114  31.412  22.861  1.00  0.00     0.029 A 
ATOM     25  C   UNL A   1      27.791  31.584  20.426  1.00  0.00     0.002 A 
ATOM     26  C   UNL A   1      28.269  30.353  20.884  1.00  0.00     0.026 A 
ENDBRANCH  14  20
ENDBRANCH   8  13
BRANCH  12  27
ATOM     27  N   UNL A   1      32.441  22.194  26.453  1.00  0.00    -0.320 N 
ATOM     28  C   UNL A   1      33.538  21.383  26.300  1.00  0.00     0.258 C 
ATOM     29  H   UNL A   1      31.867  21.973  27.222  1.00  0.00     0.170 HD
ATOM     30  O   UNL A   1      33.555  20.263  26.811  1.00  0.00    -0.269 OA
BRANCH  28  31
ATOM     31  C   UNL A   1      34.762  21.863  25.623  1.00  0.00     0.075 A 
ATOM     32  C   UNL A   1      35.815  22.348  26.411  1.00  0.00     0.017 A 
ATOM     33  C   UNL A   1      34.847  21.964  24.234  1.00  0.00     0.135 A 
ATOM     34  C   UNL A   1      36.957  22.875  25.803  1.00  0.00     0.001 A 
ATOM     35  C   UNL A   1      35.993  22.469  23.626  1.00  0.00     0.040 A 
ATOM     36  F   UNL A   1      33.820  21.620  23.445  1.00  0.00    -0.206 F 
ATOM     37  C   UNL A   1      37.051  22.923  24.411  1.00  0.00     0.003 A 
ENDBRANCH  28  31
ENDBRANCH  12  27
ENDBRANCH   4   7
ENDBRANCH   2   3
ENDBRANCH   1   2
BRANCH   1  38
ATOM     38  C   UNL A   1      34.704  29.820  27.020  1.00  0.00     0.118 C 
BRANCH  38  39
ATOM     39  N   UNL A   1      35.233  30.829  27.931  1.00  0.00    -0.352 N 
ATOM     40  C   UNL A   1      36.390  30.764  28.687  1.00  0.00     0.251 C 
ATOM     41  H   UNL A   1      34.703  31.654  28.020  1.00  0.00     0.163 HD
ATOM     42  O   UNL A   1      36.750  31.649  29.455  1.00  0.00    -0.269 OA
BRANCH  40  43
ATOM     43  C   UNL A   1      37.254  29.607  28.430  1.00  0.00     0.039 A 
ATOM     44  C   UNL A   1      37.466  28.737  29.505  1.00  0.00     0.014 A 
ATOM     45  C   UNL A   1      38.090  29.627  27.317  1.00  0.00     0.014 A 
ATOM     46  C   UNL A   1      38.642  28.003  29.547  1.00  0.00     0.010 A 
ATOM     47  C   UNL A   1      39.294  28.954  27.397  1.00  0.00     0.010 A 
ATOM     48  C   UNL A   1      39.591  28.199  28.540  1.00  0.00    -0.014 A 
BRANCH  48  49
ATOM     49  C   UNL A   1      40.955  27.709  28.671  1.00  0.00     0.031 A 
ATOM     50  C   UNL A   1      41.247  26.307  28.317  1.00  0.00     0.074 A 
ATOM     51  C   UNL A   1      41.924  28.502  29.178  1.00  0.00     0.049 A 
ATOM     52  N   UNL A   1      42.153  25.576  28.874  1.00  0.00    -0.248 NA
ATOM     53  C   UNL A   1      40.443  25.589  27.335  1.00  0.00     0.031 C 
ATOM     54  C   UNL A   1      43.350  28.198  29.252  1.00  0.00     0.029 A 
ATOM     55  N   UNL A   1      41.773  29.640  29.979  1.00  0.00    -0.354 N 
ATOM     56  C   UNL A   1      42.262  24.426  28.123  1.00  0.00     0.074 A 
ATOM     57  C   UNL A   1      41.101  24.431  27.263  1.00  0.00     0.031 C 
ATOM     58  C   UNL A   1      43.875  28.888  30.276  1.00  0.00     0.029 A 
ATOM     59  C   UNL A   1      42.776  29.557  30.956  1.00  0.00     0.049 A 
ATOM     60  H   UNL A   1      41.101  30.352  29.877  1.00  0.00     0.167 HD
ATOM     61  C   UNL A   1      43.404  23.682  28.178  1.00  0.00     0.031 A 
ATOM     62  C   UNL A   1      42.526  29.498  32.295  1.00  0.00     0.031 A 
ATOM     63  C   UNL A   1      44.316  24.166  29.216  1.00  0.00     0.049 A 
ATOM     64  C   UNL A   1      43.109  28.263  32.949  1.00  0.00     0.074 A 
ATOM     65  C   UNL A   1      45.465  24.939  29.180  1.00  0.00     0.029 A 
ATOM     66  N   UNL A   1      43.917  24.124  30.549  1.00  0.00    -0.354 N 
ATOM     67  N   UNL A   1      43.505  27.204  32.296  1.00  0.00    -0.248 NA
ATOM     68  C   UNL A   1      43.264  28.113  34.392  1.00  0.00     0.031 C 
ATOM     69  C   UNL A   1      45.704  25.436  30.489  1.00  0.00     0.029 A 
ATOM     70  C   UNL A   1      44.721  24.939  31.326  1.00  0.00     0.049 A 
ATOM     71  H   UNL A   1      43.165  23.588  30.892  1.00  0.00     0.167 HD
ATOM     72  C   UNL A   1      43.984  26.267  33.177  1.00  0.00     0.074 A 
ATOM     73  C   UNL A   1      43.814  26.888  34.480  1.00  0.00     0.031 C 
ATOM     74  C   UNL A   1      44.484  25.063  32.761  1.00  0.00     0.031 A 
BRANCH  61  75
ATOM     75  C   UNL A   1      43.809  22.770  27.032  1.00  0.00    -0.014 A 
ATOM     76  C   UNL A   1      42.956  21.721  26.631  1.00  0.00     0.010 A 
ATOM     77  C   UNL A   1      45.060  22.823  26.387  1.00  0.00     0.010 A 
ATOM     78  C   UNL A   1      43.383  20.707  25.755  1.00  0.00     0.020 A 
ATOM     79  C   UNL A   1      45.519  21.794  25.550  1.00  0.00     0.020 A 
ATOM     80  C   UNL A   1      44.682  20.727  25.254  1.00  0.00     0.054 A 
BRANCH  80  81
ATOM     81  S   UNL A   1      45.272  19.345  24.240  1.00  0.00     0.124 S 
ATOM     82  O   UNL A   1      44.581  19.560  22.972  1.00  0.00    -0.237 OA
ATOM     83  O   UNL A   1      46.715  19.568  24.219  1.00  0.00    -0.237 OA
ATOM     84  O   UNL A   1      44.839  18.162  24.982  1.00  0.00    -0.744 OA
ENDBRANCH  80  81
ENDBRANCH  61  75
BRANCH  62  85
ATOM     85  C   UNL A   1      41.317  30.236  32.752  1.00  0.00    -0.014 A 
ATOM     86  C   UNL A   1      40.151  29.485  33.005  1.00  0.00     0.010 A 
ATOM     87  C   UNL A   1      41.403  31.541  33.265  1.00  0.00     0.010 A 
ATOM     88  C   UNL A   1      39.150  29.973  33.852  1.00  0.00     0.020 A 
ATOM     89  C   UNL A   1      40.402  32.032  34.122  1.00  0.00     0.020 A 
ATOM     90  C   UNL A   1      39.310  31.221  34.449  1.00  0.00     0.054 A 
BRANCH  90  91
ATOM     91  S   UNL A   1      38.122  31.713  35.736  1.00  0.00     0.124 S 
ATOM     92  O   UNL A   1      37.894  30.460  36.450  1.00  0.00    -0.237 OA
ATOM     93  O   UNL A   1      38.877  32.721  36.480  1.00  0.00    -0.237 OA
ATOM     94  O   UNL A   1      36.987  32.220  34.972  1.00  0.00    -0.744 OA
ENDBRANCH  90  91
ENDBRANCH  62  85
BRANCH  74  95
ATOM     95  C   UNL A   1      44.891  23.900  33.645  1.00  0.00    -0.014 A 
ATOM     96  C   UNL A   1      44.046  22.844  34.019  1.00  0.00     0.010 A 
ATOM     97  C   UNL A   1      46.249  23.791  34.038  1.00  0.00     0.010 A 
ATOM     98  C   UNL A   1      44.515  21.765  34.785  1.00  0.00     0.020 A 
ATOM     99  C   UNL A   1      46.739  22.699  34.762  1.00  0.00     0.020 A 
ATOM    100  C   UNL A   1      45.860  21.698  35.152  1.00  0.00     0.054 A 
BRANCH 100 101
ATOM    101  S   UNL A   1      46.480  20.259  36.058  1.00  0.00     0.124 S 
ATOM    102  O   UNL A   1      46.026  19.154  35.218  1.00  0.00    -0.237 OA
ATOM    103  O   UNL A   1      47.924  20.477  36.078  1.00  0.00    -0.237 OA
ATOM    104  O   UNL A   1      45.824  20.367  37.359  1.00  0.00    -0.744 OA
ENDBRANCH 100 101
ENDBRANCH  74  95
ENDBRANCH  48  49
ENDBRANCH  40  43
ENDBRANCH  38  39
ENDBRANCH   1  38
TORSDOF 17
ENDMDL
MODEL 2
REMARK VINA RESULT:     -13.4      2.026      2.729
REMARK SMILES Cc1cccc(N2CCN(c3ncc(NC(=O)c4ccccc4F)cc3C(=O)NCCCNC(=O)c3ccc(-c4c5nc(c(-c6ccc(S(=O)(=O)[O-])cc6)c6ccc([nH]6)c(-c6ccc(S(=O)(=O)[O-])cc6)c6nc(c(-c7ccc(S(=O)(=O)[O-])cc7)c7ccc4[nH]7)C=C6)C=C5)cc3)C[C@@H]2C)c1
REMARK SMILES IDX 31 1 30 2 29 3 27 4 28 5 26 7 11 8 12 9 13 10 25 11 14 12
REMARK SMILES IDX 10 13 7 14 8 15 97 16 9 17 96 18 98 19 6 20 1 21 2 22 3 23
REMARK SMILES IDX 99 24 4 25 5 26 15 27 16 28 17 30 18 31 19 32 23 33 20 34
REMARK SMILES IDX 22 35 24 36 21 37 32 38 33 39 34 40 35 42 36 43 37 44 95 45
REMARK SMILES IDX 38 46 94 47 39 48 40 49 41 50 88 51 42 52 93 53 87 54 89 55
REMARK SMILES IDX 43 56 92 57 86 58 85 59 44 61 74 62 55 63 73 64 56 65 59 66
REMARK SMILES IDX 72 67 90 68 57 69 58 70 71 72 91 73 60 74 45 75 46 76 54 77
REMARK SMILES IDX 47 78 53 79 48 80 49 81 50 82 51 83 52 84 75 85 76 86 84 87
REMARK SMILES IDX 77 88 83 89 78 90 79 91 80 92 81 93 82 94 61 95 62 96 70 97
REMARK SMILES IDX 63 98 69 99 64 100 65 101 66 102 67 103 68 104
REMARK H PARENT 29 6 15 29 33 41 89 60 59 71
REMARK Flexibility Score: inf
ROOT
ATOM      1  C   UNL A   1      31.789  28.896  27.342  1.00  0.00     0.042 C 
ENDROOT
BRANCH   1   2
ATOM      2  C   UNL A   1      31.564  27.662  26.462  1.00  0.00     0.118 C 
BRANCH   2   3
ATOM      3  N   UNL A   1      32.678  27.490  25.545  1.00  0.00    -0.352 N 
ATOM      4  C   UNL A   1      33.131  26.383  24.870  1.00  0.00     0.255 C 
ATOM      5  O   UNL A   1      34.324  26.369  24.573  1.00  0.00    -0.269 OA
ATOM      6  H   UNL A   1      33.197  28.310  25.377  1.00  0.00     0.163 HD
BRANCH   4   7
ATOM      7  C   UNL A   1      32.273  25.208  24.555  1.00  0.00     0.084 A 
ATOM      8  C   UNL A   1      31.149  25.295  23.706  1.00  0.00     0.141 A 
ATOM      9  N   UNL A   1      30.425  24.178  23.398  1.00  0.00    -0.236 NA
ATOM     10  C   UNL A   1      30.801  22.982  23.912  1.00  0.00     0.139 A 
ATOM     11  C   UNL A   1      32.609  23.953  25.082  1.00  0.00     0.045 A 
ATOM     12  C   UNL A   1      31.874  22.819  24.767  1.00  0.00     0.060 A 
BRANCH   8  13
ATOM     13  N   UNL A   1      30.622  26.493  23.259  1.00  0.00    -0.352 N 
ATOM     14  N   UNL A   1      29.457  28.953  22.369  1.00  0.00    -0.365 N 
ATOM     15  C   UNL A   1      28.947  28.276  23.579  1.00  0.00     0.138 C 
ATOM     16  C   UNL A   1      30.856  28.610  21.966  1.00  0.00     0.098 C 
ATOM     17  C   UNL A   1      29.203  26.754  23.537  1.00  0.00     0.139 C 
ATOM     18  C   UNL A   1      31.042  27.060  21.961  1.00  0.00     0.142 C 
ATOM     19  C   UNL A   1      31.865  29.300  22.894  1.00  0.00     0.033 C 
BRANCH  14  20
ATOM     20  C   UNL A   1      28.974  30.213  22.040  1.00  0.00     0.037 A 
ATOM     21  C   UNL A   1      29.142  33.769  23.439  1.00  0.00     0.044 C 
ATOM     22  C   UNL A   1      28.799  32.605  22.558  1.00  0.00    -0.049 A 
ATOM     23  C   UNL A   1      28.059  32.806  21.390  1.00  0.00     0.003 A 
ATOM     24  C   UNL A   1      29.240  31.310  22.873  1.00  0.00     0.029 A 
ATOM     25  C   UNL A   1      27.766  31.730  20.558  1.00  0.00     0.002 A 
ATOM     26  C   UNL A   1      28.225  30.451  20.879  1.00  0.00     0.026 A 
ENDBRANCH  14  20
ENDBRANCH   8  13
BRANCH  12  27
ATOM     27  N   UNL A   1      32.246  21.608  25.378  1.00  0.00    -0.320 N 
ATOM     28  C   UNL A   1      33.466  20.981  25.437  1.00  0.00     0.258 C 
ATOM     29  H   UNL A   1      31.515  21.135  25.837  1.00  0.00     0.170 HD
ATOM     30  O   UNL A   1      33.530  19.773  25.668  1.00  0.00    -0.269 OA
BRANCH  28  31
ATOM     31  C   UNL A   1      34.729  21.743  25.340  1.00  0.00     0.075 A 
ATOM     32  C   UNL A   1      35.464  21.671  24.148  1.00  0.00     0.017 A 
ATOM     33  C   UNL A   1      35.268  22.423  26.433  1.00  0.00     0.135 A 
ATOM     34  C   UNL A   1      36.696  22.321  24.046  1.00  0.00     0.001 A 
ATOM     35  C   UNL A   1      36.485  23.090  26.326  1.00  0.00     0.040 A 
ATOM     36  F   UNL A   1      34.657  22.424  27.625  1.00  0.00    -0.206 F 
ATOM     37  C   UNL A   1      37.200  23.042  25.130  1.00  0.00     0.003 A 
ENDBRANCH  28  31
ENDBRANCH  12  27
ENDBRANCH   4   7
ENDBRANCH   2   3
ENDBRANCH   1   2
BRANCH   1  38
ATOM     38  C   UNL A   1      33.250  29.097  27.732  1.00  0.00     0.118 C 
BRANCH  38  39
ATOM     39  N   UNL A   1      33.580  30.510  27.887  1.00  0.00    -0.352 N 
ATOM     40  C   UNL A   1      34.805  31.060  28.220  1.00  0.00     0.251 C 
ATOM     41  H   UNL A   1      32.844  31.146  27.738  1.00  0.00     0.163 HD
ATOM     42  O   UNL A   1      34.993  32.264  28.360  1.00  0.00    -0.269 OA
BRANCH  40  43
ATOM     43  C   UNL A   1      35.931  30.121  28.282  1.00  0.00     0.039 A 
ATOM     44  C   UNL A   1      36.220  29.578  29.538  1.00  0.00     0.014 A 
ATOM     45  C   UNL A   1      36.851  30.107  27.238  1.00  0.00     0.014 A 
ATOM     46  C   UNL A   1      37.521  29.179  29.808  1.00  0.00     0.010 A 
ATOM     47  C   UNL A   1      38.162  29.780  27.532  1.00  0.00     0.010 A 
ATOM     48  C   UNL A   1      38.500  29.382  28.833  1.00  0.00    -0.014 A 
BRANCH  48  49
ATOM     49  C   UNL A   1      39.918  29.277  29.143  1.00  0.00     0.031 A 
ATOM     50  C   UNL A   1      40.612  27.999  28.896  1.00  0.00     0.074 A 
ATOM     51  C   UNL A   1      40.574  30.311  29.715  1.00  0.00     0.049 A 
ATOM     52  N   UNL A   1      41.603  27.549  29.589  1.00  0.00    -0.248 NA
ATOM     53  C   UNL A   1      40.152  27.073  27.867  1.00  0.00     0.031 C 
ATOM     54  C   UNL A   1      42.009  30.402  29.966  1.00  0.00     0.029 A 
ATOM     55  N   UNL A   1      40.031  31.382  30.435  1.00  0.00    -0.354 N 
ATOM     56  C   UNL A   1      42.102  26.456  28.915  1.00  0.00     0.074 A 
ATOM     57  C   UNL A   1      41.097  26.133  27.929  1.00  0.00     0.031 C 
ATOM     58  C   UNL A   1      42.203  31.227  31.007  1.00  0.00     0.029 A 
ATOM     59  C   UNL A   1      40.891  31.589  31.522  1.00  0.00     0.049 A 
ATOM     60  H   UNL A   1      39.212  31.885  30.221  1.00  0.00     0.167 HD
ATOM     61  C   UNL A   1      43.385  26.047  29.137  1.00  0.00     0.031 A 
ATOM     62  C   UNL A   1      40.504  31.491  32.825  1.00  0.00     0.031 A 
ATOM     63  C   UNL A   1      44.002  26.776  30.245  1.00  0.00     0.049 A 
ATOM     64  C   UNL A   1      41.306  30.469  33.604  1.00  0.00     0.074 A 
ATOM     65  C   UNL A   1      44.902  27.829  30.301  1.00  0.00     0.029 A 
ATOM     66  N   UNL A   1      43.467  26.655  31.525  1.00  0.00    -0.354 N 
ATOM     67  N   UNL A   1      42.045  29.544  33.055  1.00  0.00    -0.248 NA
ATOM     68  C   UNL A   1      41.317  30.394  35.061  1.00  0.00     0.031 C 
ATOM     69  C   UNL A   1      44.838  28.396  31.602  1.00  0.00     0.029 A 
ATOM     70  C   UNL A   1      43.926  27.670  32.346  1.00  0.00     0.049 A 
ATOM     71  H   UNL A   1      42.847  25.943  31.808  1.00  0.00     0.167 HD
ATOM     72  C   UNL A   1      42.642  28.786  34.031  1.00  0.00     0.074 A 
ATOM     73  C   UNL A   1      42.156  29.364  35.273  1.00  0.00     0.031 C 
ATOM     74  C   UNL A   1      43.490  27.753  33.736  1.00  0.00     0.031 A 
BRANCH  61  75
ATOM     75  C   UNL A   1      44.154  25.255  28.093  1.00  0.00    -0.014 A 
ATOM     76  C   UNL A   1      44.317  25.774  26.792  1.00  0.00     0.010 A 
ATOM     77  C   UNL A   1      44.642  23.949  28.296  1.00  0.00     0.010 A 
ATOM     78  C   UNL A   1      44.797  24.988  25.730  1.00  0.00     0.020 A 
ATOM     79  C   UNL A   1      45.077  23.135  27.239  1.00  0.00     0.020 A 
ATOM     80  C   UNL A   1      45.134  23.655  25.953  1.00  0.00     0.054 A 
BRANCH  80  81
ATOM     81  S   UNL A   1      45.616  22.608  24.554  1.00  0.00     0.124 S 
ATOM     82  O   UNL A   1      46.546  23.462  23.820  1.00  0.00    -0.237 OA
ATOM     83  O   UNL A   1      46.211  21.453  25.220  1.00  0.00    -0.237 OA
ATOM     84  O   UNL A   1      44.352  22.344  23.867  1.00  0.00    -0.744 OA
ENDBRANCH  80  81
ENDBRANCH  61  75
BRANCH  62  85
ATOM     85  C   UNL A   1      39.096  31.885  33.104  1.00  0.00    -0.014 A 
ATOM     86  C   UNL A   1      38.838  33.249  33.355  1.00  0.00     0.010 A 
ATOM     87  C   UNL A   1      38.018  31.045  32.779  1.00  0.00     0.010 A 
ATOM     88  C   UNL A   1      37.561  33.787  33.166  1.00  0.00     0.020 A 
ATOM     89  C   UNL A   1      36.734  31.584  32.581  1.00  0.00     0.020 A 
ATOM     90  C   UNL A   1      36.530  32.960  32.726  1.00  0.00     0.054 A 
BRANCH  90  91
ATOM     91  S   UNL A   1      34.957  33.735  32.245  1.00  0.00     0.124 S 
ATOM     92  O   UNL A   1      35.253  34.252  30.912  1.00  0.00    -0.237 OA
ATOM     93  O   UNL A   1      34.034  32.601  32.278  1.00  0.00    -0.237 OA
ATOM     94  O   UNL A   1      34.746  34.741  33.280  1.00  0.00    -0.744 OA
ENDBRANCH  90  91
ENDBRANCH  62  85
BRANCH  74  95
ATOM     95  C   UNL A   1      44.078  26.759  34.719  1.00  0.00    -0.014 A 
ATOM     96  C   UNL A   1      43.402  25.636  35.224  1.00  0.00     0.010 A 
ATOM     97  C   UNL A   1      45.444  26.887  35.078  1.00  0.00     0.010 A 
ATOM     98  C   UNL A   1      44.038  24.722  36.079  1.00  0.00     0.020 A 
ATOM     99  C   UNL A   1      46.100  25.959  35.892  1.00  0.00     0.020 A 
ATOM    100  C   UNL A   1      45.384  24.888  36.407  1.00  0.00     0.054 A 
BRANCH 100 101
ATOM    101  S   UNL A   1      46.223  23.654  37.433  1.00  0.00     0.124 S 
ATOM    102  O   UNL A   1      47.421  24.375  37.854  1.00  0.00    -0.237 OA
ATOM    103  O   UNL A   1      45.250  23.386  38.490  1.00  0.00    -0.237 OA
ATOM    104  O   UNL A   1      46.450  22.543  36.512  1.00  0.00    -0.744 OA
ENDBRANCH 100 101
ENDBRANCH  74  95
ENDBRANCH  48  49
ENDBRANCH  40  43
ENDBRANCH  38  39
ENDBRANCH   1  38
TORSDOF 17
ENDMDL
MODEL 3
REMARK VINA RESULT:     -11.5      5.422     13.258
REMARK SMILES Cc1cccc(N2CCN(c3ncc(NC(=O)c4ccccc4F)cc3C(=O)NCCCNC(=O)c3ccc(-c4c5nc(c(-c6ccc(S(=O)(=O)[O-])cc6)c6ccc([nH]6)c(-c6ccc(S(=O)(=O)[O-])cc6)c6nc(c(-c7ccc(S(=O)(=O)[O-])cc7)c7ccc4[nH]7)C=C6)C=C5)cc3)C[C@@H]2C)c1
REMARK SMILES IDX 31 1 30 2 29 3 27 4 28 5 26 7 11 8 12 9 13 10 25 11 14 12
REMARK SMILES IDX 10 13 7 14 8 15 97 16 9 17 96 18 98 19 6 20 1 21 2 22 3 23
REMARK SMILES IDX 99 24 4 25 5 26 15 27 16 28 17 30 18 31 19 32 23 33 20 34
REMARK SMILES IDX 22 35 24 36 21 37 32 38 33 39 34 40 35 42 36 43 37 44 95 45
REMARK SMILES IDX 38 46 94 47 39 48 40 49 41 50 88 51 42 52 93 53 87 54 89 55
REMARK SMILES IDX 43 56 92 57 86 58 85 59 44 61 74 62 55 63 73 64 56 65 59 66
REMARK SMILES IDX 72 67 90 68 57 69 58 70 71 72 91 73 60 74 45 75 46 76 54 77
REMARK SMILES IDX 47 78 53 79 48 80 49 81 50 82 51 83 52 84 75 85 76 86 84 87
REMARK SMILES IDX 77 88 83 89 78 90 79 91 80 92 81 93 82 94 61 95 62 96 70 97
REMARK SMILES IDX 63 98 69 99 64 100 65 101 66 102 67 103 68 104
REMARK H PARENT 29 6 15 29 33 41 89 60 59 71
REMARK Flexibility Score: inf
ROOT
ATOM      1  C   UNL A   1      46.127  30.606  35.876  1.00  0.00     0.042 C 
ENDROOT
BRANCH   1   2
ATOM      2  C   UNL A   1      45.615  31.362  34.645  1.00  0.00     0.118 C 
BRANCH   2   3
ATOM      3  N   UNL A   1      45.530  32.785  34.929  1.00  0.00    -0.352 N 
ATOM      4  C   UNL A   1      44.446  33.621  35.045  1.00  0.00     0.255 C 
ATOM      5  O   UNL A   1      44.638  34.809  34.795  1.00  0.00    -0.269 OA
ATOM      6  H   UNL A   1      46.400  33.226  35.062  1.00  0.00     0.163 HD
BRANCH   4   7
ATOM      7  C   UNL A   1      43.077  33.145  35.385  1.00  0.00     0.084 A 
ATOM      8  C   UNL A   1      42.096  32.890  34.404  1.00  0.00     0.141 A 
ATOM      9  N   UNL A   1      40.872  32.398  34.759  1.00  0.00    -0.236 NA
ATOM     10  C   UNL A   1      40.611  32.151  36.065  1.00  0.00     0.139 A 
ATOM     11  C   UNL A   1      42.753  32.896  36.726  1.00  0.00     0.045 A 
ATOM     12  C   UNL A   1      41.510  32.395  37.086  1.00  0.00     0.060 A 
BRANCH   8  13
ATOM     13  N   UNL A   1      42.236  33.246  33.075  1.00  0.00    -0.352 N 
ATOM     14  N   UNL A   1      42.446  34.014  30.324  1.00  0.00    -0.365 N 
ATOM     15  C   UNL A   1      41.506  34.709  31.226  1.00  0.00     0.138 C 
ATOM     16  C   UNL A   1      43.589  33.310  30.984  1.00  0.00     0.098 C 
ATOM     17  C   UNL A   1      41.058  33.806  32.396  1.00  0.00     0.139 C 
ATOM     18  C   UNL A   1      43.063  32.432  32.161  1.00  0.00     0.142 C 
ATOM     19  C   UNL A   1      44.641  34.323  31.456  1.00  0.00     0.033 C 
BRANCH  14  20
ATOM     20  C   UNL A   1      42.634  34.497  29.035  1.00  0.00     0.037 A 
ATOM     21  C   UNL A   1      44.676  33.583  25.932  1.00  0.00     0.044 C 
ATOM     22  C   UNL A   1      43.736  34.305  26.851  1.00  0.00    -0.049 A 
ATOM     23  C   UNL A   1      43.015  35.408  26.388  1.00  0.00     0.003 A 
ATOM     24  C   UNL A   1      43.544  33.868  28.171  1.00  0.00     0.029 A 
ATOM     25  C   UNL A   1      42.122  36.060  27.232  1.00  0.00     0.002 A 
ATOM     26  C   UNL A   1      41.931  35.603  28.538  1.00  0.00     0.026 A 
ENDBRANCH  14  20
ENDBRANCH   8  13
BRANCH  12  27
ATOM     27  N   UNL A   1      41.246  32.222  38.456  1.00  0.00    -0.320 N 
ATOM     28  C   UNL A   1      41.196  33.143  39.474  1.00  0.00     0.258 C 
ATOM     29  H   UNL A   1      41.066  31.294  38.729  1.00  0.00     0.170 HD
ATOM     30  O   UNL A   1      41.335  32.780  40.642  1.00  0.00    -0.269 OA
BRANCH  28  31
ATOM     31  C   UNL A   1      40.867  34.560  39.214  1.00  0.00     0.075 A 
ATOM     32  C   UNL A   1      41.893  35.512  39.301  1.00  0.00     0.017 A 
ATOM     33  C   UNL A   1      39.554  34.990  39.013  1.00  0.00     0.135 A 
ATOM     34  C   UNL A   1      41.604  36.868  39.132  1.00  0.00     0.001 A 
ATOM     35  C   UNL A   1      39.268  36.338  38.822  1.00  0.00     0.040 A 
ATOM     36  F   UNL A   1      38.527  34.129  39.036  1.00  0.00    -0.206 F 
ATOM     37  C   UNL A   1      40.294  37.280  38.879  1.00  0.00     0.003 A 
ENDBRANCH  28  31
ENDBRANCH  12  27
ENDBRANCH   4   7
ENDBRANCH   2   3
ENDBRANCH   1   2
BRANCH   1  38
ATOM     38  C   UNL A   1      46.001  29.092  35.745  1.00  0.00     0.118 C 
BRANCH  38  39
ATOM     39  N   UNL A   1      45.660  28.464  37.016  1.00  0.00    -0.352 N 
ATOM     40  C   UNL A   1      44.421  28.005  37.427  1.00  0.00     0.251 C 
ATOM     41  H   UNL A   1      46.398  28.353  37.658  1.00  0.00     0.163 HD
ATOM     42  O   UNL A   1      44.211  27.513  38.531  1.00  0.00    -0.269 OA
BRANCH  40  43
ATOM     43  C   UNL A   1      43.363  28.026  36.410  1.00  0.00     0.039 A 
ATOM     44  C   UNL A   1      43.107  26.818  35.754  1.00  0.00     0.014 A 
ATOM     45  C   UNL A   1      42.953  29.253  35.894  1.00  0.00     0.014 A 
ATOM     46  C   UNL A   1      42.591  26.855  34.467  1.00  0.00     0.010 A 
ATOM     47  C   UNL A   1      42.511  29.291  34.586  1.00  0.00     0.010 A 
ATOM     48  C   UNL A   1      42.395  28.098  33.859  1.00  0.00    -0.014 A 
BRANCH  48  49
ATOM     49  C   UNL A   1      42.154  28.218  32.428  1.00  0.00     0.031 A 
ATOM     50  C   UNL A   1      40.781  28.479  31.955  1.00  0.00     0.074 A 
ATOM     51  C   UNL A   1      43.155  28.021  31.544  1.00  0.00     0.049 A 
ATOM     52  N   UNL A   1      40.291  28.060  30.837  1.00  0.00    -0.248 NA
ATOM     53  C   UNL A   1      39.812  29.181  32.789  1.00  0.00     0.031 C 
ATOM     54  C   UNL A   1      43.098  28.229  30.100  1.00  0.00     0.029 A 
ATOM     55  N   UNL A   1      44.356  27.329  31.743  1.00  0.00    -0.354 N 
ATOM     56  C   UNL A   1      39.079  28.693  30.666  1.00  0.00     0.074 A 
ATOM     57  C   UNL A   1      38.776  29.275  31.954  1.00  0.00     0.031 C 
ATOM     58  C   UNL A   1      44.001  27.422  29.522  1.00  0.00     0.029 A 
ATOM     59  C   UNL A   1      44.574  26.592  30.571  1.00  0.00     0.049 A 
ATOM     60  H   UNL A   1      44.930  27.355  32.543  1.00  0.00     0.167 HD
ATOM     61  C   UNL A   1      38.543  28.812  29.417  1.00  0.00     0.031 A 
ATOM     62  C   UNL A   1      44.665  25.232  30.536  1.00  0.00     0.031 A 
ATOM     63  C   UNL A   1      39.308  28.055  28.426  1.00  0.00     0.049 A 
ATOM     64  C   UNL A   1      43.644  24.596  29.617  1.00  0.00     0.074 A 
ATOM     65  C   UNL A   1      40.243  28.422  27.471  1.00  0.00     0.029 A 
ATOM     66  N   UNL A   1      39.392  26.670  28.539  1.00  0.00    -0.354 N 
ATOM     67  N   UNL A   1      42.581  25.205  29.166  1.00  0.00    -0.248 NA
ATOM     68  C   UNL A   1      43.726  23.214  29.155  1.00  0.00     0.031 C 
ATOM     69  C   UNL A   1      40.952  27.255  27.075  1.00  0.00     0.029 A 
ATOM     70  C   UNL A   1      40.426  26.176  27.764  1.00  0.00     0.049 A 
ATOM     71  H   UNL A   1      38.796  26.117  29.096  1.00  0.00     0.167 HD
ATOM     72  C   UNL A   1      41.867  24.358  28.357  1.00  0.00     0.074 A 
ATOM     73  C   UNL A   1      42.630  23.121  28.380  1.00  0.00     0.031 C 
ATOM     74  C   UNL A   1      40.712  24.745  27.733  1.00  0.00     0.031 A 
BRANCH  61  75
ATOM     75  C   UNL A   1      37.555  29.917  29.083  1.00  0.00    -0.014 A 
ATOM     76  C   UNL A   1      37.988  31.258  29.029  1.00  0.00     0.010 A 
ATOM     77  C   UNL A   1      36.170  29.714  28.923  1.00  0.00     0.010 A 
ATOM     78  C   UNL A   1      37.082  32.332  28.970  1.00  0.00     0.020 A 
ATOM     79  C   UNL A   1      35.250  30.773  28.914  1.00  0.00     0.020 A 
ATOM     80  C   UNL A   1      35.712  32.081  28.958  1.00  0.00     0.054 A 
BRANCH  80  81
ATOM     81  S   UNL A   1      34.548  33.469  29.026  1.00  0.00     0.124 S 
ATOM     82  O   UNL A   1      34.075  33.422  30.407  1.00  0.00    -0.237 OA
ATOM     83  O   UNL A   1      35.400  34.607  28.690  1.00  0.00    -0.237 OA
ATOM     84  O   UNL A   1      33.543  33.129  28.021  1.00  0.00    -0.744 OA
ENDBRANCH  80  81
ENDBRANCH  61  75
BRANCH  62  85
ATOM     85  C   UNL A   1      45.256  24.601  31.748  1.00  0.00    -0.014 A 
ATOM     86  C   UNL A   1      46.438  25.167  32.267  1.00  0.00     0.010 A 
ATOM     87  C   UNL A   1      44.511  23.732  32.562  1.00  0.00     0.010 A 
ATOM     88  C   UNL A   1      46.803  24.972  33.603  1.00  0.00     0.020 A 
ATOM     89  C   UNL A   1      44.871  23.539  33.908  1.00  0.00     0.020 A 
ATOM     90  C   UNL A   1      45.986  24.203  34.429  1.00  0.00     0.054 A 
BRANCH  90  91
ATOM     91  S   UNL A   1      46.348  24.181  36.212  1.00  0.00     0.124 S 
ATOM     92  O   UNL A   1      45.091  23.705  36.783  1.00  0.00    -0.237 OA
ATOM     93  O   UNL A   1      47.460  23.235  36.286  1.00  0.00    -0.237 OA
ATOM     94  O   UNL A   1      46.688  25.569  36.504  1.00  0.00    -0.744 OA
ENDBRANCH  90  91
ENDBRANCH  62  85
BRANCH  74  95
ATOM     95  C   UNL A   1      39.766  23.856  26.951  1.00  0.00    -0.014 A 
ATOM     96  C   UNL A   1      39.925  22.472  26.779  1.00  0.00     0.010 A 
ATOM     97  C   UNL A   1      38.568  24.420  26.445  1.00  0.00     0.010 A 
ATOM     98  C   UNL A   1      38.969  21.702  26.098  1.00  0.00     0.020 A 
ATOM     99  C   UNL A   1      37.587  23.657  25.804  1.00  0.00     0.020 A 
ATOM    100  C   UNL A   1      37.804  22.299  25.615  1.00  0.00     0.054 A 
BRANCH 100 101
ATOM    101  S   UNL A   1      36.531  21.286  24.821  1.00  0.00     0.124 S 
ATOM    102  O   UNL A   1      37.285  20.093  24.444  1.00  0.00    -0.237 OA
ATOM    103  O   UNL A   1      35.549  21.094  25.885  1.00  0.00    -0.237 OA
ATOM    104  O   UNL A   1      36.077  22.118  23.709  1.00  0.00    -0.744 OA
ENDBRANCH 100 101
ENDBRANCH  74  95
ENDBRANCH  48  49
ENDBRANCH  40  43
ENDBRANCH  38  39
ENDBRANCH   1  38
TORSDOF 17
ENDMDL
