MODEL 1
REMARK VINA RESULT:     -10.2      0.000      0.000
REMARK SMILES C#CC[N@@H+](CC(=O)NCCCNC(=O)c1ccc(-c2c3nc(c(-c4ccc(S(=O)(=O)[O-])cc4)c4ccc([nH]4)c(-c4ccc(S(=O)(=O)[O-])cc4)c4nc(c(-c5ccc(S(=O)(=O)[O-])cc5)c5ccc2[nH]5)C=C4)C=C3)cc1)Cc1ccc(C(C)C)cc1
REMARK SMILES IDX 9 1 8 2 6 3 7 4 5 6 4 7 3 9 2 10 1 11 75 12 76 13 77 14
REMARK SMILES IDX 84 15 78 16 83 17 79 18 80 19 81 20 82 21 10 22 11 23 12 24
REMARK SMILES IDX 13 25 14 27 15 28 16 29 74 30 17 31 73 32 18 33 19 34 20 35
REMARK SMILES IDX 67 36 21 37 72 38 66 39 68 40 22 41 71 42 65 43 64 44 23 46
REMARK SMILES IDX 53 47 34 48 52 49 35 50 38 51 51 52 69 53 36 54 37 55 50 57
REMARK SMILES IDX 70 58 39 59 24 60 25 61 33 62 26 63 32 64 27 65 28 66 29 67
REMARK SMILES IDX 30 68 31 69 54 70 55 71 63 72 56 73 62 74 57 75 58 76 59 77
REMARK SMILES IDX 60 78 61 79 40 80 41 81 49 82 42 83 48 84 43 85 44 86 45 87
REMARK SMILES IDX 46 88 47 89
REMARK H PARENT 8 5 4 8 12 26 68 45 38 56
REMARK Flexibility Score: inf
ROOT
ATOM      1  C   UNL A   1      33.866  23.314  26.355  1.00  0.00     0.118 C 
ENDROOT
BRANCH   1   2
ATOM      2  N   UNL A   1      33.015  22.149  26.149  1.00  0.00    -0.351 N 
ATOM      3  C   UNL A   1      31.713  22.024  25.750  1.00  0.00     0.275 C 
ATOM      4  O   UNL A   1      31.404  20.956  25.206  1.00  0.00    -0.269 OA
ATOM      5  H   UNL A   1      33.462  21.291  26.332  1.00  0.00     0.163 HD
BRANCH   3   6
ATOM      6  C   UNL A   1      30.675  23.149  25.886  1.00  0.00     0.364 C 
BRANCH   6   7
ATOM      7  N   UNL A   1      30.615  24.141  24.783  1.00  0.00    -0.313 N 
ATOM      8  H   UNL A   1      29.634  24.392  24.662  1.00  0.00     0.349 HD
BRANCH   7   9
ATOM      9  C   UNL A   1      31.061  23.534  23.551  1.00  0.00     0.354 C 
BRANCH   9  10
ATOM     10  C   UNL A   1      32.180  24.228  22.792  1.00  0.00    -0.047 C 
ATOM     11  C   UNL A   1      33.140  24.824  22.141  1.00  0.00     0.010 C 
ENDBRANCH   9  10
ENDBRANCH   7   9
BRANCH   7  12
ATOM     12  C   UNL A   1      31.176  25.473  25.079  1.00  0.00     0.300 C 
BRANCH  12  13
ATOM     13  C   UNL A   1      30.611  26.674  24.345  1.00  0.00     0.006 A 
ATOM     14  C   UNL A   1      29.299  26.642  23.861  1.00  0.00     0.010 A 
ATOM     15  C   UNL A   1      31.360  27.836  24.124  1.00  0.00     0.010 A 
ATOM     16  C   UNL A   1      28.714  27.779  23.293  1.00  0.00     0.004 A 
ATOM     17  C   UNL A   1      30.772  28.980  23.580  1.00  0.00     0.004 A 
ATOM     18  C   UNL A   1      29.425  28.982  23.200  1.00  0.00    -0.045 A 
BRANCH  18  19
ATOM     19  C   UNL A   1      28.798  30.276  22.715  1.00  0.00     0.013 C 
ATOM     20  C   UNL A   1      28.148  30.087  21.346  1.00  0.00     0.012 C 
ATOM     21  C   UNL A   1      27.805  30.890  23.707  1.00  0.00     0.012 C 
ENDBRANCH  18  19
ENDBRANCH  12  13
ENDBRANCH   7  12
ENDBRANCH   6   7
ENDBRANCH   3   6
ENDBRANCH   1   2
BRANCH   1  22
ATOM     22  C   UNL A   1      34.903  23.609  25.257  1.00  0.00     0.042 C 
BRANCH  22  23
ATOM     23  C   UNL A   1      36.267  24.125  25.723  1.00  0.00     0.118 C 
BRANCH  23  24
ATOM     24  N   UNL A   1      37.201  23.026  25.890  1.00  0.00    -0.352 N 
ATOM     25  C   UNL A   1      38.536  23.057  26.216  1.00  0.00     0.251 C 
ATOM     26  H   UNL A   1      36.823  22.128  25.751  1.00  0.00     0.163 HD
ATOM     27  O   UNL A   1      39.226  22.071  25.962  1.00  0.00    -0.269 OA
BRANCH  25  28
ATOM     28  C   UNL A   1      39.156  24.233  26.879  1.00  0.00     0.039 A 
ATOM     29  C   UNL A   1      38.849  24.480  28.223  1.00  0.00     0.014 A 
ATOM     30  C   UNL A   1      39.924  25.164  26.169  1.00  0.00     0.014 A 
ATOM     31  C   UNL A   1      39.299  25.648  28.849  1.00  0.00     0.010 A 
ATOM     32  C   UNL A   1      40.411  26.309  26.809  1.00  0.00     0.010 A 
ATOM     33  C   UNL A   1      40.079  26.580  28.146  1.00  0.00    -0.014 A 
BRANCH  33  34
ATOM     34  C   UNL A   1      40.501  27.854  28.791  1.00  0.00     0.031 A 
ATOM     35  C   UNL A   1      41.893  28.002  29.352  1.00  0.00     0.074 A 
ATOM     36  C   UNL A   1      39.633  28.878  28.899  1.00  0.00     0.049 A 
ATOM     37  N   UNL A   1      42.442  29.039  29.935  1.00  0.00    -0.248 NA
ATOM     38  C   UNL A   1      42.773  26.828  29.262  1.00  0.00     0.031 C 
ATOM     39  C   UNL A   1      38.245  28.861  28.436  1.00  0.00     0.029 A 
ATOM     40  N   UNL A   1      39.791  30.132  29.436  1.00  0.00    -0.354 N 
ATOM     41  C   UNL A   1      43.722  28.636  30.301  1.00  0.00     0.074 A 
ATOM     42  C   UNL A   1      43.853  27.250  29.904  1.00  0.00     0.031 C 
ATOM     43  C   UNL A   1      37.682  30.052  28.699  1.00  0.00     0.029 A 
ATOM     44  C   UNL A   1      38.660  30.909  29.365  1.00  0.00     0.049 A 
ATOM     45  H   UNL A   1      40.635  30.444  29.834  1.00  0.00     0.167 HD
ATOM     46  C   UNL A   1      44.705  29.352  30.901  1.00  0.00     0.031 A 
ATOM     47  C   UNL A   1      38.429  32.168  29.785  1.00  0.00     0.031 A 
ATOM     48  C   UNL A   1      44.587  30.735  31.283  1.00  0.00     0.049 A 
ATOM     49  C   UNL A   1      39.537  32.956  30.423  1.00  0.00     0.074 A 
ATOM     50  C   UNL A   1      45.553  31.564  31.826  1.00  0.00     0.029 A 
ATOM     51  N   UNL A   1      43.430  31.490  31.174  1.00  0.00    -0.354 N 
ATOM     52  N   UNL A   1      40.767  32.584  30.683  1.00  0.00    -0.248 NA
ATOM     53  C   UNL A   1      39.232  34.342  30.807  1.00  0.00     0.031 C 
ATOM     54  C   UNL A   1      44.968  32.810  32.085  1.00  0.00     0.029 A 
ATOM     55  C   UNL A   1      43.649  32.769  31.662  1.00  0.00     0.049 A 
ATOM     56  H   UNL A   1      42.577  31.167  30.804  1.00  0.00     0.167 HD
ATOM     57  C   UNL A   1      41.387  33.691  31.251  1.00  0.00     0.074 A 
ATOM     58  C   UNL A   1      40.402  34.754  31.280  1.00  0.00     0.031 C 
ATOM     59  C   UNL A   1      42.660  33.816  31.702  1.00  0.00     0.031 A 
BRANCH  46  60
ATOM     60  C   UNL A   1      45.996  28.635  31.196  1.00  0.00    -0.014 A 
ATOM     61  C   UNL A   1      46.223  28.026  32.444  1.00  0.00     0.010 A 
ATOM     62  C   UNL A   1      46.996  28.567  30.209  1.00  0.00     0.010 A 
ATOM     63  C   UNL A   1      47.451  27.416  32.720  1.00  0.00     0.020 A 
ATOM     64  C   UNL A   1      48.215  27.936  30.473  1.00  0.00     0.020 A 
ATOM     65  C   UNL A   1      48.444  27.388  31.737  1.00  0.00     0.054 A 
BRANCH  65  66
ATOM     66  S   UNL A   1      50.037  26.610  32.124  1.00  0.00     0.124 S 
ATOM     67  O   UNL A   1      49.761  25.205  31.839  1.00  0.00    -0.237 OA
ATOM     68  O   UNL A   1      50.954  27.270  31.198  1.00  0.00    -0.237 OA
ATOM     69  O   UNL A   1      50.243  26.931  33.534  1.00  0.00    -0.744 OA
ENDBRANCH  65  66
ENDBRANCH  46  60
BRANCH  47  70
ATOM     70  C   UNL A   1      37.081  32.762  29.587  1.00  0.00    -0.014 A 
ATOM     71  C   UNL A   1      36.198  32.907  30.671  1.00  0.00     0.010 A 
ATOM     72  C   UNL A   1      36.700  33.246  28.322  1.00  0.00     0.010 A 
ATOM     73  C   UNL A   1      34.961  33.535  30.496  1.00  0.00     0.020 A 
ATOM     74  C   UNL A   1      35.473  33.891  28.148  1.00  0.00     0.020 A 
ATOM     75  C   UNL A   1      34.611  34.031  29.238  1.00  0.00     0.054 A 
BRANCH  75  76
ATOM     76  S   UNL A   1      33.050  34.938  29.056  1.00  0.00     0.124 S 
ATOM     77  O   UNL A   1      32.344  34.135  28.064  1.00  0.00    -0.237 OA
ATOM     78  O   UNL A   1      32.501  34.901  30.409  1.00  0.00    -0.237 OA
ATOM     79  O   UNL A   1      33.478  36.262  28.605  1.00  0.00    -0.744 OA
ENDBRANCH  75  76
ENDBRANCH  47  70
BRANCH  59  80
ATOM     80  C   UNL A   1      43.067  35.151  32.264  1.00  0.00    -0.014 A 
ATOM     81  C   UNL A   1      43.722  36.104  31.465  1.00  0.00     0.010 A 
ATOM     82  C   UNL A   1      42.746  35.476  33.595  1.00  0.00     0.010 A 
ATOM     83  C   UNL A   1      44.077  37.349  31.994  1.00  0.00     0.020 A 
ATOM     84  C   UNL A   1      43.079  36.727  34.121  1.00  0.00     0.020 A 
ATOM     85  C   UNL A   1      43.756  37.651  33.322  1.00  0.00     0.054 A 
BRANCH  85  86
ATOM     86  S   UNL A   1      44.189  39.286  33.978  1.00  0.00     0.124 S 
ATOM     87  O   UNL A   1      45.348  39.642  33.166  1.00  0.00    -0.237 OA
ATOM     88  O   UNL A   1      42.980  40.067  33.725  1.00  0.00    -0.237 OA
ATOM     89  O   UNL A   1      44.471  39.028  35.389  1.00  0.00    -0.744 OA
ENDBRANCH  85  86
ENDBRANCH  59  80
ENDBRANCH  33  34
ENDBRANCH  25  28
ENDBRANCH  23  24
ENDBRANCH  22  23
ENDBRANCH   1  22
TORSDOF 19
ENDMDL
MODEL 2
REMARK VINA RESULT:     -10.2      3.290      9.014
REMARK SMILES C#CC[N@@H+](CC(=O)NCCCNC(=O)c1ccc(-c2c3nc(c(-c4ccc(S(=O)(=O)[O-])cc4)c4ccc([nH]4)c(-c4ccc(S(=O)(=O)[O-])cc4)c4nc(c(-c5ccc(S(=O)(=O)[O-])cc5)c5ccc2[nH]5)C=C4)C=C3)cc1)Cc1ccc(C(C)C)cc1
REMARK SMILES IDX 9 1 8 2 6 3 7 4 5 6 4 7 3 9 2 10 1 11 75 12 76 13 77 14
REMARK SMILES IDX 84 15 78 16 83 17 79 18 80 19 81 20 82 21 10 22 11 23 12 24
REMARK SMILES IDX 13 25 14 27 15 28 16 29 74 30 17 31 73 32 18 33 19 34 20 35
REMARK SMILES IDX 67 36 21 37 72 38 66 39 68 40 22 41 71 42 65 43 64 44 23 46
REMARK SMILES IDX 53 47 34 48 52 49 35 50 38 51 51 52 69 53 36 54 37 55 50 57
REMARK SMILES IDX 70 58 39 59 24 60 25 61 33 62 26 63 32 64 27 65 28 66 29 67
REMARK SMILES IDX 30 68 31 69 54 70 55 71 63 72 56 73 62 74 57 75 58 76 59 77
REMARK SMILES IDX 60 78 61 79 40 80 41 81 49 82 42 83 48 84 43 85 44 86 45 87
REMARK SMILES IDX 46 88 47 89
REMARK H PARENT 8 5 4 8 12 26 68 45 38 56
REMARK Flexibility Score: inf
ROOT
ATOM      1  C   UNL A   1      31.500  27.777  26.644  1.00  0.00     0.118 C 
ENDROOT
BRANCH   1   2
ATOM      2  N   UNL A   1      31.162  26.363  26.760  1.00  0.00    -0.351 N 
ATOM      3  C   UNL A   1      31.903  25.227  26.588  1.00  0.00     0.275 C 
ATOM      4  O   UNL A   1      31.522  24.223  27.203  1.00  0.00    -0.269 OA
ATOM      5  H   UNL A   1      30.224  26.196  27.010  1.00  0.00     0.163 HD
BRANCH   3   6
ATOM      6  C   UNL A   1      33.185  25.174  25.743  1.00  0.00     0.364 C 
BRANCH   6   7
ATOM      7  N   UNL A   1      33.017  24.952  24.285  1.00  0.00    -0.313 N 
ATOM      8  H   UNL A   1      32.033  24.735  24.129  1.00  0.00     0.349 HD
BRANCH   7   9
ATOM      9  C   UNL A   1      33.783  23.799  23.871  1.00  0.00     0.354 C 
BRANCH   9  10
ATOM     10  C   UNL A   1      33.011  22.572  23.415  1.00  0.00    -0.047 C 
ATOM     11  C   UNL A   1      32.349  21.519  23.024  1.00  0.00     0.010 C 
ENDBRANCH   9  10
ENDBRANCH   7   9
BRANCH   7  12
ATOM     12  C   UNL A   1      33.147  26.146  23.429  1.00  0.00     0.300 C 
BRANCH  12  13
ATOM     13  C   UNL A   1      31.909  26.982  23.163  1.00  0.00     0.006 A 
ATOM     14  C   UNL A   1      30.639  26.428  23.352  1.00  0.00     0.010 A 
ATOM     15  C   UNL A   1      31.983  28.310  22.724  1.00  0.00     0.010 A 
ATOM     16  C   UNL A   1      29.487  27.213  23.236  1.00  0.00     0.004 A 
ATOM     17  C   UNL A   1      30.837  29.102  22.630  1.00  0.00     0.004 A 
ATOM     18  C   UNL A   1      29.575  28.576  22.932  1.00  0.00    -0.045 A 
BRANCH  18  19
ATOM     19  C   UNL A   1      28.371  29.500  22.922  1.00  0.00     0.013 C 
ATOM     20  C   UNL A   1      28.339  30.341  21.648  1.00  0.00     0.012 C 
ATOM     21  C   UNL A   1      27.036  28.775  23.127  1.00  0.00     0.012 C 
ENDBRANCH  18  19
ENDBRANCH  12  13
ENDBRANCH   7  12
ENDBRANCH   6   7
ENDBRANCH   3   6
ENDBRANCH   1   2
BRANCH   1  22
ATOM     22  C   UNL A   1      32.819  28.224  27.297  1.00  0.00     0.042 C 
BRANCH  22  23
ATOM     23  C   UNL A   1      33.798  28.995  26.408  1.00  0.00     0.118 C 
BRANCH  23  24
ATOM     24  N   UNL A   1      33.778  30.410  26.732  1.00  0.00    -0.352 N 
ATOM     25  C   UNL A   1      34.523  31.105  27.653  1.00  0.00     0.251 C 
ATOM     26  H   UNL A   1      33.139  30.951  26.215  1.00  0.00     0.163 HD
ATOM     27  O   UNL A   1      34.120  32.205  28.028  1.00  0.00    -0.269 OA
BRANCH  25  28
ATOM     28  C   UNL A   1      35.804  30.574  28.191  1.00  0.00     0.039 A 
ATOM     29  C   UNL A   1      35.760  29.735  29.311  1.00  0.00     0.014 A 
ATOM     30  C   UNL A   1      37.044  30.992  27.696  1.00  0.00     0.014 A 
ATOM     31  C   UNL A   1      36.943  29.323  29.934  1.00  0.00     0.010 A 
ATOM     32  C   UNL A   1      38.228  30.543  28.291  1.00  0.00     0.010 A 
ATOM     33  C   UNL A   1      38.191  29.729  29.435  1.00  0.00    -0.014 A 
BRANCH  33  34
ATOM     34  C   UNL A   1      39.447  29.346  30.137  1.00  0.00     0.031 A 
ATOM     35  C   UNL A   1      39.899  30.100  31.363  1.00  0.00     0.074 A 
ATOM     36  C   UNL A   1      40.204  28.335  29.668  1.00  0.00     0.049 A 
ATOM     37  N   UNL A   1      40.955  29.901  32.112  1.00  0.00    -0.248 NA
ATOM     38  C   UNL A   1      39.065  31.234  31.788  1.00  0.00     0.031 C 
ATOM     39  C   UNL A   1      39.909  27.545  28.472  1.00  0.00     0.029 A 
ATOM     40  N   UNL A   1      41.378  27.802  30.140  1.00  0.00    -0.354 N 
ATOM     41  C   UNL A   1      40.925  30.896  33.083  1.00  0.00     0.074 A 
ATOM     42  C   UNL A   1      39.765  31.717  32.805  1.00  0.00     0.031 C 
ATOM     43  C   UNL A   1      40.871  26.621  28.311  1.00  0.00     0.029 A 
ATOM     44  C   UNL A   1      41.859  26.765  29.378  1.00  0.00     0.049 A 
ATOM     45  H   UNL A   1      41.832  28.132  30.948  1.00  0.00     0.167 HD
ATOM     46  C   UNL A   1      41.775  31.105  34.119  1.00  0.00     0.031 A 
ATOM     47  C   UNL A   1      42.967  26.011  29.516  1.00  0.00     0.031 A 
ATOM     48  C   UNL A   1      42.920  30.283  34.411  1.00  0.00     0.049 A 
ATOM     49  C   UNL A   1      43.882  26.238  30.685  1.00  0.00     0.074 A 
ATOM     50  C   UNL A   1      43.794  30.372  35.481  1.00  0.00     0.029 A 
ATOM     51  N   UNL A   1      43.359  29.230  33.624  1.00  0.00    -0.354 N 
ATOM     52  N   UNL A   1      43.790  27.131  31.640  1.00  0.00    -0.248 NA
ATOM     53  C   UNL A   1      45.042  25.342  30.805  1.00  0.00     0.031 C 
ATOM     54  C   UNL A   1      44.787  29.398  35.319  1.00  0.00     0.029 A 
ATOM     55  C   UNL A   1      44.506  28.675  34.171  1.00  0.00     0.049 A 
ATOM     56  H   UNL A   1      42.921  28.920  32.799  1.00  0.00     0.167 HD
ATOM     57  C   UNL A   1      44.872  26.900  32.482  1.00  0.00     0.074 A 
ATOM     58  C   UNL A   1      45.596  25.771  31.933  1.00  0.00     0.031 C 
ATOM     59  C   UNL A   1      45.229  27.562  33.611  1.00  0.00     0.031 A 
BRANCH  46  60
ATOM     60  C   UNL A   1      41.499  32.291  35.006  1.00  0.00    -0.014 A 
ATOM     61  C   UNL A   1      42.086  33.544  34.754  1.00  0.00     0.010 A 
ATOM     62  C   UNL A   1      40.635  32.149  36.108  1.00  0.00     0.010 A 
ATOM     63  C   UNL A   1      41.865  34.616  35.622  1.00  0.00     0.020 A 
ATOM     64  C   UNL A   1      40.392  33.226  36.965  1.00  0.00     0.020 A 
ATOM     65  C   UNL A   1      41.030  34.447  36.731  1.00  0.00     0.054 A 
BRANCH  65  66
ATOM     66  S   UNL A   1      40.774  35.846  37.857  1.00  0.00     0.124 S 
ATOM     67  O   UNL A   1      40.277  35.177  39.056  1.00  0.00    -0.237 OA
ATOM     68  O   UNL A   1      42.112  36.422  37.969  1.00  0.00    -0.237 OA
ATOM     69  O   UNL A   1      39.799  36.678  37.157  1.00  0.00    -0.744 OA
ENDBRANCH  65  66
ENDBRANCH  46  60
BRANCH  47  70
ATOM     70  C   UNL A   1      43.249  24.948  28.515  1.00  0.00    -0.014 A 
ATOM     71  C   UNL A   1      42.707  23.661  28.669  1.00  0.00     0.010 A 
ATOM     72  C   UNL A   1      44.008  25.241  27.367  1.00  0.00     0.010 A 
ATOM     73  C   UNL A   1      42.911  22.686  27.688  1.00  0.00     0.020 A 
ATOM     74  C   UNL A   1      44.198  24.276  26.376  1.00  0.00     0.020 A 
ATOM     75  C   UNL A   1      43.647  23.003  26.543  1.00  0.00     0.054 A 
BRANCH  75  76
ATOM     76  S   UNL A   1      43.809  21.759  25.232  1.00  0.00     0.124 S 
ATOM     77  O   UNL A   1      42.685  20.873  25.513  1.00  0.00    -0.237 OA
ATOM     78  O   UNL A   1      43.695  22.562  24.017  1.00  0.00    -0.237 OA
ATOM     79  O   UNL A   1      45.135  21.189  25.467  1.00  0.00    -0.744 OA
ENDBRANCH  75  76
ENDBRANCH  47  70
BRANCH  59  80
ATOM     80  C   UNL A   1      46.457  27.080  34.336  1.00  0.00    -0.014 A 
ATOM     81  C   UNL A   1      46.368  26.100  35.339  1.00  0.00     0.010 A 
ATOM     82  C   UNL A   1      47.722  27.579  33.974  1.00  0.00     0.010 A 
ATOM     83  C   UNL A   1      47.520  25.647  35.991  1.00  0.00     0.020 A 
ATOM     84  C   UNL A   1      48.877  27.113  34.607  1.00  0.00     0.020 A 
ATOM     85  C   UNL A   1      48.768  26.161  35.622  1.00  0.00     0.054 A 
BRANCH  85  86
ATOM     86  S   UNL A   1      50.254  25.532  36.452  1.00  0.00     0.124 S 
ATOM     87  O   UNL A   1      49.870  25.605  37.858  1.00  0.00    -0.237 OA
ATOM     88  O   UNL A   1      50.384  24.183  35.905  1.00  0.00    -0.237 OA
ATOM     89  O   UNL A   1      51.300  26.467  36.041  1.00  0.00    -0.744 OA
ENDBRANCH  85  86
ENDBRANCH  59  80
ENDBRANCH  33  34
ENDBRANCH  25  28
ENDBRANCH  23  24
ENDBRANCH  22  23
ENDBRANCH   1  22
TORSDOF 19
ENDMDL
MODEL 3
REMARK VINA RESULT:     -10.1      3.157      8.873
REMARK SMILES C#CC[N@@H+](CC(=O)NCCCNC(=O)c1ccc(-c2c3nc(c(-c4ccc(S(=O)(=O)[O-])cc4)c4ccc([nH]4)c(-c4ccc(S(=O)(=O)[O-])cc4)c4nc(c(-c5ccc(S(=O)(=O)[O-])cc5)c5ccc2[nH]5)C=C4)C=C3)cc1)Cc1ccc(C(C)C)cc1
REMARK SMILES IDX 9 1 8 2 6 3 7 4 5 6 4 7 3 9 2 10 1 11 75 12 76 13 77 14
REMARK SMILES IDX 84 15 78 16 83 17 79 18 80 19 81 20 82 21 10 22 11 23 12 24
REMARK SMILES IDX 13 25 14 27 15 28 16 29 74 30 17 31 73 32 18 33 19 34 20 35
REMARK SMILES IDX 67 36 21 37 72 38 66 39 68 40 22 41 71 42 65 43 64 44 23 46
REMARK SMILES IDX 53 47 34 48 52 49 35 50 38 51 51 52 69 53 36 54 37 55 50 57
REMARK SMILES IDX 70 58 39 59 24 60 25 61 33 62 26 63 32 64 27 65 28 66 29 67
REMARK SMILES IDX 30 68 31 69 54 70 55 71 63 72 56 73 62 74 57 75 58 76 59 77
REMARK SMILES IDX 60 78 61 79 40 80 41 81 49 82 42 83 48 84 43 85 44 86 45 87
REMARK SMILES IDX 46 88 47 89
REMARK H PARENT 8 5 4 8 12 26 68 45 38 56
REMARK Flexibility Score: inf
ROOT
ATOM      1  C   UNL A   1      33.310  27.245  24.818  1.00  0.00     0.118 C 
ENDROOT
BRANCH   1   2
ATOM      2  N   UNL A   1      33.674  27.097  23.415  1.00  0.00    -0.351 N 
ATOM      3  C   UNL A   1      33.660  26.020  22.573  1.00  0.00     0.275 C 
ATOM      4  O   UNL A   1      33.550  26.266  21.365  1.00  0.00    -0.269 OA
ATOM      5  H   UNL A   1      33.989  27.930  22.995  1.00  0.00     0.163 HD
BRANCH   3   6
ATOM      6  C   UNL A   1      33.705  24.563  23.062  1.00  0.00     0.364 C 
BRANCH   6   7
ATOM      7  N   UNL A   1      33.585  24.345  24.526  1.00  0.00    -0.313 N 
ATOM      8  H   UNL A   1      33.307  25.236  24.937  1.00  0.00     0.349 HD
BRANCH   7   9
ATOM      9  C   UNL A   1      34.874  23.999  25.079  1.00  0.00     0.354 C 
BRANCH   9  10
ATOM     10  C   UNL A   1      35.844  23.251  24.179  1.00  0.00    -0.047 C 
ATOM     11  C   UNL A   1      36.677  22.610  23.407  1.00  0.00     0.010 C 
ENDBRANCH   9  10
ENDBRANCH   7   9
BRANCH   7  12
ATOM     12  C   UNL A   1      32.454  23.506  24.965  1.00  0.00     0.300 C 
BRANCH  12  13
ATOM     13  C   UNL A   1      32.609  21.998  24.912  1.00  0.00     0.006 A 
ATOM     14  C   UNL A   1      32.334  21.310  23.726  1.00  0.00     0.010 A 
ATOM     15  C   UNL A   1      33.021  21.249  26.021  1.00  0.00     0.010 A 
ATOM     16  C   UNL A   1      32.589  19.939  23.614  1.00  0.00     0.004 A 
ATOM     17  C   UNL A   1      33.300  19.886  25.906  1.00  0.00     0.004 A 
ATOM     18  C   UNL A   1      33.133  19.220  24.686  1.00  0.00    -0.045 A 
BRANCH  18  19
ATOM     19  C   UNL A   1      33.550  17.765  24.577  1.00  0.00     0.013 C 
ATOM     20  C   UNL A   1      32.665  16.878  25.450  1.00  0.00     0.012 C 
ATOM     21  C   UNL A   1      33.592  17.242  23.138  1.00  0.00     0.012 C 
ENDBRANCH  18  19
ENDBRANCH  12  13
ENDBRANCH   7  12
ENDBRANCH   6   7
ENDBRANCH   3   6
ENDBRANCH   1   2
BRANCH   1  22
ATOM     22  C   UNL A   1      33.866  28.481  25.546  1.00  0.00     0.042 C 
BRANCH  22  23
ATOM     23  C   UNL A   1      33.759  28.484  27.073  1.00  0.00     0.118 C 
BRANCH  23  24
ATOM     24  N   UNL A   1      33.763  29.843  27.585  1.00  0.00    -0.352 N 
ATOM     25  C   UNL A   1      34.694  30.476  28.372  1.00  0.00     0.251 C 
ATOM     26  H   UNL A   1      32.985  30.390  27.331  1.00  0.00     0.163 HD
ATOM     27  O   UNL A   1      34.355  31.486  28.988  1.00  0.00    -0.269 OA
BRANCH  25  28
ATOM     28  C   UNL A   1      36.093  29.988  28.483  1.00  0.00     0.039 A 
ATOM     29  C   UNL A   1      36.523  29.470  29.711  1.00  0.00     0.014 A 
ATOM     30  C   UNL A   1      37.019  30.153  27.447  1.00  0.00     0.014 A 
ATOM     31  C   UNL A   1      37.866  29.126  29.903  1.00  0.00     0.010 A 
ATOM     32  C   UNL A   1      38.352  29.766  27.625  1.00  0.00     0.010 A 
ATOM     33  C   UNL A   1      38.797  29.278  28.864  1.00  0.00    -0.014 A 
BRANCH  33  34
ATOM     34  C   UNL A   1      40.238  28.976  29.088  1.00  0.00     0.031 A 
ATOM     35  C   UNL A   1      40.810  27.638  28.691  1.00  0.00     0.074 A 
ATOM     36  C   UNL A   1      41.039  29.889  29.670  1.00  0.00     0.049 A 
ATOM     37  N   UNL A   1      42.041  27.202  28.796  1.00  0.00    -0.248 NA
ATOM     38  C   UNL A   1      39.873  26.659  28.119  1.00  0.00     0.031 C 
ATOM     39  C   UNL A   1      40.613  31.208  30.139  1.00  0.00     0.029 A 
ATOM     40  N   UNL A   1      42.378  29.844  29.968  1.00  0.00    -0.354 N 
ATOM     41  C   UNL A   1      42.022  25.893  28.325  1.00  0.00     0.074 A 
ATOM     42  C   UNL A   1      40.651  25.597  27.968  1.00  0.00     0.031 C 
ATOM     43  C   UNL A   1      41.674  31.851  30.656  1.00  0.00     0.029 A 
ATOM     44  C   UNL A   1      42.848  30.985  30.573  1.00  0.00     0.049 A 
ATOM     45  H   UNL A   1      42.949  29.068  29.768  1.00  0.00     0.167 HD
ATOM     46  C   UNL A   1      43.050  25.018  28.190  1.00  0.00     0.031 A 
ATOM     47  C   UNL A   1      44.080  31.306  31.013  1.00  0.00     0.031 A 
ATOM     48  C   UNL A   1      44.418  25.312  28.529  1.00  0.00     0.049 A 
ATOM     49  C   UNL A   1      45.212  30.336  30.831  1.00  0.00     0.074 A 
ATOM     50  C   UNL A   1      45.537  24.516  28.355  1.00  0.00     0.029 A 
ATOM     51  N   UNL A   1      44.852  26.487  29.120  1.00  0.00    -0.354 N 
ATOM     52  N   UNL A   1      45.189  29.134  30.306  1.00  0.00    -0.248 NA
ATOM     53  C   UNL A   1      46.541  30.772  31.283  1.00  0.00     0.031 C 
ATOM     54  C   UNL A   1      46.644  25.195  28.880  1.00  0.00     0.029 A 
ATOM     55  C   UNL A   1      46.219  26.431  29.341  1.00  0.00     0.049 A 
ATOM     56  H   UNL A   1      44.275  27.252  29.348  1.00  0.00     0.167 HD
ATOM     57  C   UNL A   1      46.501  28.674  30.354  1.00  0.00     0.074 A 
ATOM     58  C   UNL A   1      47.295  29.734  30.943  1.00  0.00     0.031 C 
ATOM     59  C   UNL A   1      47.000  27.482  29.942  1.00  0.00     0.031 A 
BRANCH  46  60
ATOM     60  C   UNL A   1      42.719  23.645  27.666  1.00  0.00    -0.014 A 
ATOM     61  C   UNL A   1      42.147  22.665  28.497  1.00  0.00     0.010 A 
ATOM     62  C   UNL A   1      42.984  23.333  26.320  1.00  0.00     0.010 A 
ATOM     63  C   UNL A   1      41.903  21.379  28.008  1.00  0.00     0.020 A 
ATOM     64  C   UNL A   1      42.718  22.054  25.821  1.00  0.00     0.020 A 
ATOM     65  C   UNL A   1      42.203  21.077  26.676  1.00  0.00     0.054 A 
BRANCH  65  66
ATOM     66  S   UNL A   1      41.898  19.395  26.069  1.00  0.00     0.124 S 
ATOM     67  O   UNL A   1      42.765  19.341  24.894  1.00  0.00    -0.237 OA
ATOM     68  O   UNL A   1      42.315  18.563  27.195  1.00  0.00    -0.237 OA
ATOM     69  O   UNL A   1      40.465  19.384  25.787  1.00  0.00    -0.744 OA
ENDBRANCH  65  66
ENDBRANCH  46  60
BRANCH  47  70
ATOM     70  C   UNL A   1      44.299  32.629  31.653  1.00  0.00    -0.014 A 
ATOM     71  C   UNL A   1      44.656  33.746  30.878  1.00  0.00     0.010 A 
ATOM     72  C   UNL A   1      44.085  32.792  33.034  1.00  0.00     0.010 A 
ATOM     73  C   UNL A   1      44.787  35.005  31.472  1.00  0.00     0.020 A 
ATOM     74  C   UNL A   1      44.196  34.052  33.627  1.00  0.00     0.020 A 
ATOM     75  C   UNL A   1      44.547  35.152  32.841  1.00  0.00     0.054 A 
BRANCH  75  76
ATOM     76  S   UNL A   1      44.614  36.811  33.571  1.00  0.00     0.124 S 
ATOM     77  O   UNL A   1      44.725  36.513  34.995  1.00  0.00    -0.237 OA
ATOM     78  O   UNL A   1      45.806  37.383  32.949  1.00  0.00    -0.237 OA
ATOM     79  O   UNL A   1      43.352  37.419  33.151  1.00  0.00    -0.744 OA
ENDBRANCH  75  76
ENDBRANCH  47  70
BRANCH  59  80
ATOM     80  C   UNL A   1      48.479  27.258  30.107  1.00  0.00    -0.014 A 
ATOM     81  C   UNL A   1      49.401  27.805  29.198  1.00  0.00     0.010 A 
ATOM     82  C   UNL A   1      48.955  26.531  31.213  1.00  0.00     0.010 A 
ATOM     83  C   UNL A   1      50.773  27.606  29.375  1.00  0.00     0.020 A 
ATOM     84  C   UNL A   1      50.327  26.348  31.406  1.00  0.00     0.020 A 
ATOM     85  C   UNL A   1      51.228  26.874  30.477  1.00  0.00     0.054 A 
BRANCH  85  86
ATOM     86  S   UNL A   1      53.014  26.659  30.711  1.00  0.00     0.124 S 
ATOM     87  O   UNL A   1      53.447  26.246  29.380  1.00  0.00    -0.237 OA
ATOM     88  O   UNL A   1      53.449  27.991  31.128  1.00  0.00    -0.237 OA
ATOM     89  O   UNL A   1      53.106  25.629  31.744  1.00  0.00    -0.744 OA
ENDBRANCH  85  86
ENDBRANCH  59  80
ENDBRANCH  33  34
ENDBRANCH  25  28
ENDBRANCH  23  24
ENDBRANCH  22  23
ENDBRANCH   1  22
TORSDOF 19
ENDMDL
