MODEL 1
REMARK VINA RESULT:     -13.0      0.000      0.000
REMARK SMILES O=C(NCCCNC(=O)c1cc(N2C(=O)C[C@H](Nc3ccccc3O)C2=O)ccc1O)c1ccc(-c2c3nc(c(-c4ccc(S(=O)(=O)[O-])cc4)c4ccc([nH]4)c(-c4ccc(S(=O)(=O)[O-])cc4)c4nc(c(-c5ccc(S(=O)(=O)[O-])cc5)c5ccc2[nH]5)C=C4)C=C3)cc1
REMARK SMILES IDX 5 1 4 2 3 3 1 4 2 5 32 7 33 8 91 9 34 10 90 11 35 12 36 13
REMARK SMILES IDX 37 14 84 15 38 16 89 17 83 18 85 19 39 20 88 21 82 22 81 23
REMARK SMILES IDX 40 25 70 26 51 27 69 28 52 29 55 30 68 31 86 32 53 33 54 34
REMARK SMILES IDX 67 36 87 37 56 38 41 39 42 40 50 41 43 42 49 43 44 44 45 45
REMARK SMILES IDX 46 46 47 47 48 48 71 49 72 50 80 51 73 52 79 53 74 54 75 55
REMARK SMILES IDX 76 56 77 57 78 58 57 59 58 60 66 61 59 62 65 63 60 64 61 65
REMARK SMILES IDX 62 66 63 67 64 68 6 69 7 70 8 71 9 73 10 74 11 75 30 76
REMARK SMILES IDX 12 77 29 78 28 79 31 80 13 82 14 83 26 84 15 85 16 86 17 87
REMARK SMILES IDX 27 88 18 89 19 91 20 92 24 93 21 94 23 95 22 96 25 97
REMARK H PARENT 3 6 85 24 55 35 7 72 31 81 18 90 25 98
REMARK Flexibility Score: inf
ROOT
ATOM      1  C   UNL A   1      37.325  23.707  25.392  1.00  0.00     0.042 C 
ENDROOT
BRANCH   1   2
ATOM      2  C   UNL A   1      38.279  24.129  26.502  1.00  0.00     0.118 C 
BRANCH   2   3
ATOM      3  N   UNL A   1      39.677  24.083  26.095  1.00  0.00    -0.352 N 
ATOM      4  O   UNL A   1      41.796  24.793  25.832  1.00  0.00    -0.269 OA
ATOM      5  C   UNL A   1      40.732  24.892  26.441  1.00  0.00     0.251 C 
ATOM      6  H   UNL A   1      39.902  23.355  25.472  1.00  0.00     0.163 HD
BRANCH   5   7
ATOM      7  C   UNL A   1      40.589  25.893  27.521  1.00  0.00     0.039 A 
ATOM      8  C   UNL A   1      41.375  27.047  27.540  1.00  0.00     0.014 A 
ATOM      9  C   UNL A   1      39.634  25.688  28.522  1.00  0.00     0.014 A 
ATOM     10  C   UNL A   1      41.326  27.902  28.634  1.00  0.00     0.010 A 
ATOM     11  C   UNL A   1      39.515  26.603  29.572  1.00  0.00     0.010 A 
ATOM     12  C   UNL A   1      40.387  27.699  29.658  1.00  0.00    -0.014 A 
BRANCH  12  13
ATOM     13  C   UNL A   1      40.299  28.678  30.772  1.00  0.00     0.031 A 
ATOM     14  C   UNL A   1      41.240  28.609  31.943  1.00  0.00     0.074 A 
ATOM     15  C   UNL A   1      39.372  29.654  30.706  1.00  0.00     0.049 A 
ATOM     16  N   UNL A   1      41.302  29.389  32.993  1.00  0.00    -0.248 NA
ATOM     17  C   UNL A   1      42.235  27.525  31.944  1.00  0.00     0.031 C 
ATOM     18  C   UNL A   1      38.401  29.823  29.621  1.00  0.00     0.029 A 
ATOM     19  N   UNL A   1      39.103  30.697  31.555  1.00  0.00    -0.354 N 
ATOM     20  C   UNL A   1      42.320  28.879  33.789  1.00  0.00     0.074 A 
ATOM     21  C   UNL A   1      42.837  27.709  33.112  1.00  0.00     0.031 C 
ATOM     22  C   UNL A   1      37.680  30.930  29.844  1.00  0.00     0.029 A 
ATOM     23  C   UNL A   1      38.087  31.512  31.118  1.00  0.00     0.049 A 
ATOM     24  H   UNL A   1      39.593  30.848  32.396  1.00  0.00     0.167 HD
ATOM     25  C   UNL A   1      42.785  29.345  34.975  1.00  0.00     0.031 A 
ATOM     26  C   UNL A   1      37.527  32.598  31.682  1.00  0.00     0.031 A 
ATOM     27  C   UNL A   1      42.270  30.511  35.644  1.00  0.00     0.049 A 
ATOM     28  C   UNL A   1      38.044  33.080  33.006  1.00  0.00     0.074 A 
ATOM     29  C   UNL A   1      42.691  31.078  36.835  1.00  0.00     0.029 A 
ATOM     30  N   UNL A   1      41.219  31.290  35.182  1.00  0.00    -0.354 N 
ATOM     31  N   UNL A   1      39.022  32.593  33.731  1.00  0.00    -0.248 NA
ATOM     32  C   UNL A   1      37.382  34.254  33.587  1.00  0.00     0.031 C 
ATOM     33  C   UNL A   1      41.865  32.170  37.116  1.00  0.00     0.029 A 
ATOM     34  C   UNL A   1      40.963  32.318  36.075  1.00  0.00     0.049 A 
ATOM     35  H   UNL A   1      40.726  31.135  34.344  1.00  0.00     0.167 HD
ATOM     36  C   UNL A   1      39.102  33.412  34.851  1.00  0.00     0.074 A 
ATOM     37  C   UNL A   1      38.086  34.434  34.695  1.00  0.00     0.031 C 
ATOM     38  C   UNL A   1      39.942  33.323  35.911  1.00  0.00     0.031 A 
BRANCH  25  39
ATOM     39  C   UNL A   1      43.891  28.568  35.644  1.00  0.00    -0.014 A 
ATOM     40  C   UNL A   1      45.242  28.879  35.415  1.00  0.00     0.010 A 
ATOM     41  C   UNL A   1      43.570  27.535  36.543  1.00  0.00     0.010 A 
ATOM     42  C   UNL A   1      46.253  28.142  36.039  1.00  0.00     0.020 A 
ATOM     43  C   UNL A   1      44.577  26.812  37.188  1.00  0.00     0.020 A 
ATOM     44  C   UNL A   1      45.915  27.107  36.917  1.00  0.00     0.054 A 
BRANCH  44  45
ATOM     45  S   UNL A   1      47.245  26.169  37.718  1.00  0.00     0.124 S 
ATOM     46  O   UNL A   1      48.322  26.280  36.738  1.00  0.00    -0.237 OA
ATOM     47  O   UNL A   1      47.453  26.905  38.963  1.00  0.00    -0.237 OA
ATOM     48  O   UNL A   1      46.680  24.832  37.875  1.00  0.00    -0.744 OA
ENDBRANCH  44  45
ENDBRANCH  25  39
BRANCH  26  49
ATOM     49  C   UNL A   1      36.405  33.286  30.991  1.00  0.00    -0.014 A 
ATOM     50  C   UNL A   1      35.163  33.448  31.627  1.00  0.00     0.010 A 
ATOM     51  C   UNL A   1      36.595  33.829  29.706  1.00  0.00     0.010 A 
ATOM     52  C   UNL A   1      34.128  34.138  30.989  1.00  0.00     0.020 A 
ATOM     53  C   UNL A   1      35.572  34.542  29.077  1.00  0.00     0.020 A 
ATOM     54  C   UNL A   1      34.341  34.684  29.720  1.00  0.00     0.054 A 
BRANCH  54  55
ATOM     55  S   UNL A   1      33.009  35.638  28.940  1.00  0.00     0.124 S 
ATOM     56  O   UNL A   1      32.432  34.660  28.025  1.00  0.00    -0.237 OA
ATOM     57  O   UNL A   1      32.173  36.008  30.082  1.00  0.00    -0.237 OA
ATOM     58  O   UNL A   1      33.713  36.752  28.309  1.00  0.00    -0.744 OA
ENDBRANCH  54  55
ENDBRANCH  26  49
BRANCH  38  59
ATOM     59  C   UNL A   1      39.813  34.375  36.976  1.00  0.00    -0.014 A 
ATOM     60  C   UNL A   1      39.033  34.155  38.125  1.00  0.00     0.010 A 
ATOM     61  C   UNL A   1      40.518  35.586  36.845  1.00  0.00     0.010 A 
ATOM     62  C   UNL A   1      38.936  35.140  39.111  1.00  0.00     0.020 A 
ATOM     63  C   UNL A   1      40.444  36.562  37.840  1.00  0.00     0.020 A 
ATOM     64  C   UNL A   1      39.641  36.338  38.961  1.00  0.00     0.054 A 
BRANCH  64  65
ATOM     65  S   UNL A   1      39.535  37.586  40.274  1.00  0.00     0.124 S 
ATOM     66  O   UNL A   1      38.617  38.562  39.692  1.00  0.00    -0.237 OA
ATOM     67  O   UNL A   1      39.009  36.823  41.402  1.00  0.00    -0.237 OA
ATOM     68  O   UNL A   1      40.915  38.043  40.429  1.00  0.00    -0.744 OA
ENDBRANCH  64  65
ENDBRANCH  38  59
ENDBRANCH  12  13
ENDBRANCH   5   7
ENDBRANCH   2   3
ENDBRANCH   1   2
BRANCH   1  69
ATOM     69  C   UNL A   1      36.985  22.225  25.397  1.00  0.00     0.118 C 
BRANCH  69  70
ATOM     70  N   UNL A   1      36.142  21.865  26.523  1.00  0.00    -0.352 N 
ATOM     71  C   UNL A   1      34.794  21.630  26.553  1.00  0.00     0.255 C 
ATOM     72  H   UNL A   1      36.605  21.777  27.386  1.00  0.00     0.163 HD
ATOM     73  O   UNL A   1      34.227  21.461  27.631  1.00  0.00    -0.269 OA
BRANCH  71  74
ATOM     74  C   UNL A   1      33.994  21.609  25.313  1.00  0.00     0.083 A 
ATOM     75  C   UNL A   1      33.656  22.850  24.754  1.00  0.00     0.044 A 
ATOM     76  C   UNL A   1      33.461  20.433  24.777  1.00  0.00     0.128 A 
ATOM     77  C   UNL A   1      32.754  22.930  23.684  1.00  0.00     0.053 A 
ATOM     78  C   UNL A   1      32.605  20.497  23.681  1.00  0.00     0.049 A 
ATOM     79  C   UNL A   1      32.236  21.741  23.156  1.00  0.00     0.031 A 
BRANCH  76  80
ATOM     80  O   UNL A   1      33.749  19.218  25.332  1.00  0.00    -0.507 OA
ATOM     81  H   UNL A   1      34.170  19.173  26.168  1.00  0.00     0.293 HD
ENDBRANCH  76  80
BRANCH  77  82
ATOM     82  N   UNL A   1      32.340  24.194  23.194  1.00  0.00    -0.249 N 
ATOM     83  C   UNL A   1      33.163  25.080  22.548  1.00  0.00     0.236 C 
ATOM     84  C   UNL A   1      31.057  24.675  23.322  1.00  0.00     0.256 C 
ATOM     85  O   UNL A   1      34.361  24.969  22.314  1.00  0.00    -0.274 OA
ATOM     86  C   UNL A   1      32.353  26.232  22.038  1.00  0.00     0.136 C 
ATOM     87  C   UNL A   1      30.966  26.025  22.618  1.00  0.00     0.179 C 
ATOM     88  O   UNL A   1      30.154  24.171  23.981  1.00  0.00    -0.272 OA
BRANCH  87  89
ATOM     89  N   UNL A   1      30.664  27.116  23.560  1.00  0.00    -0.370 N 
ATOM     90  H   UNL A   1      31.166  27.230  24.399  1.00  0.00     0.161 HD
BRANCH  89  91
ATOM     91  C   UNL A   1      29.620  27.984  23.198  1.00  0.00     0.077 A 
ATOM     92  C   UNL A   1      29.927  29.270  22.747  1.00  0.00     0.029 A 
ATOM     93  C   UNL A   1      28.271  27.661  23.415  1.00  0.00     0.138 A 
ATOM     94  C   UNL A   1      28.910  30.196  22.487  1.00  0.00     0.002 A 
ATOM     95  C   UNL A   1      27.251  28.578  23.166  1.00  0.00     0.048 A 
ATOM     96  C   UNL A   1      27.575  29.850  22.697  1.00  0.00     0.004 A 
BRANCH  93  97
ATOM     97  O   UNL A   1      27.963  26.420  23.898  1.00  0.00    -0.506 OA
ATOM     98  H   UNL A   1      27.762  25.723  23.306  1.00  0.00     0.293 HD
ENDBRANCH  93  97
ENDBRANCH  89  91
ENDBRANCH  87  89
ENDBRANCH  77  82
ENDBRANCH  71  74
ENDBRANCH  69  70
ENDBRANCH   1  69
TORSDOF 18
ENDMDL
MODEL 2
REMARK VINA RESULT:     -12.6      6.428     12.129
REMARK SMILES O=C(NCCCNC(=O)c1cc(N2C(=O)C[C@H](Nc3ccccc3O)C2=O)ccc1O)c1ccc(-c2c3nc(c(-c4ccc(S(=O)(=O)[O-])cc4)c4ccc([nH]4)c(-c4ccc(S(=O)(=O)[O-])cc4)c4nc(c(-c5ccc(S(=O)(=O)[O-])cc5)c5ccc2[nH]5)C=C4)C=C3)cc1
REMARK SMILES IDX 5 1 4 2 3 3 1 4 2 5 32 7 33 8 91 9 34 10 90 11 35 12 36 13
REMARK SMILES IDX 37 14 84 15 38 16 89 17 83 18 85 19 39 20 88 21 82 22 81 23
REMARK SMILES IDX 40 25 70 26 51 27 69 28 52 29 55 30 68 31 86 32 53 33 54 34
REMARK SMILES IDX 67 36 87 37 56 38 41 39 42 40 50 41 43 42 49 43 44 44 45 45
REMARK SMILES IDX 46 46 47 47 48 48 71 49 72 50 80 51 73 52 79 53 74 54 75 55
REMARK SMILES IDX 76 56 77 57 78 58 57 59 58 60 66 61 59 62 65 63 60 64 61 65
REMARK SMILES IDX 62 66 63 67 64 68 6 69 7 70 8 71 9 73 10 74 11 75 30 76
REMARK SMILES IDX 12 77 29 78 28 79 31 80 13 82 14 83 26 84 15 85 16 86 17 87
REMARK SMILES IDX 27 88 18 89 19 91 20 92 24 93 21 94 23 95 22 96 25 97
REMARK H PARENT 3 6 85 24 55 35 7 72 31 81 18 90 25 98
REMARK Flexibility Score: inf
ROOT
ATOM      1  C   UNL A   1      34.343  30.700  27.538  1.00  0.00     0.042 C 
ENDROOT
BRANCH   1   2
ATOM      2  C   UNL A   1      35.657  31.003  28.246  1.00  0.00     0.118 C 
BRANCH   2   3
ATOM      3  N   UNL A   1      35.587  30.788  29.685  1.00  0.00    -0.352 N 
ATOM      4  O   UNL A   1      36.165  29.974  31.702  1.00  0.00    -0.269 OA
ATOM      5  C   UNL A   1      36.502  30.236  30.548  1.00  0.00     0.251 C 
ATOM      6  H   UNL A   1      34.749  31.087  30.108  1.00  0.00     0.163 HD
BRANCH   5   7
ATOM      7  C   UNL A   1      37.877  29.933  30.094  1.00  0.00     0.039 A 
ATOM      8  C   UNL A   1      38.250  30.110  28.761  1.00  0.00     0.014 A 
ATOM      9  C   UNL A   1      38.821  29.486  31.025  1.00  0.00     0.014 A 
ATOM     10  C   UNL A   1      39.501  29.686  28.327  1.00  0.00     0.010 A 
ATOM     11  C   UNL A   1      40.113  29.155  30.605  1.00  0.00     0.010 A 
ATOM     12  C   UNL A   1      40.453  29.216  29.246  1.00  0.00    -0.014 A 
BRANCH  12  13
ATOM     13  C   UNL A   1      41.811  28.852  28.766  1.00  0.00     0.031 A 
ATOM     14  C   UNL A   1      42.927  29.860  28.752  1.00  0.00     0.074 A 
ATOM     15  C   UNL A   1      42.038  27.586  28.364  1.00  0.00     0.049 A 
ATOM     16  N   UNL A   1      44.170  29.703  28.373  1.00  0.00    -0.248 NA
ATOM     17  C   UNL A   1      42.611  31.220  29.216  1.00  0.00     0.031 C 
ATOM     18  C   UNL A   1      41.034  26.518  28.330  1.00  0.00     0.029 A 
ATOM     19  N   UNL A   1      43.185  26.974  27.925  1.00  0.00    -0.354 N 
ATOM     20  C   UNL A   1      44.778  30.943  28.526  1.00  0.00     0.074 A 
ATOM     21  C   UNL A   1      43.762  31.850  29.015  1.00  0.00     0.031 C 
ATOM     22  C   UNL A   1      41.619  25.376  27.944  1.00  0.00     0.029 A 
ATOM     23  C   UNL A   1      43.019  25.641  27.637  1.00  0.00     0.049 A 
ATOM     24  H   UNL A   1      44.044  27.446  27.828  1.00  0.00     0.167 HD
ATOM     25  C   UNL A   1      46.065  31.294  28.285  1.00  0.00     0.031 A 
ATOM     26  C   UNL A   1      43.889  24.731  27.161  1.00  0.00     0.031 A 
ATOM     27  C   UNL A   1      47.073  30.387  27.801  1.00  0.00     0.049 A 
ATOM     28  C   UNL A   1      45.302  25.150  26.880  1.00  0.00     0.074 A 
ATOM     29  C   UNL A   1      48.412  30.640  27.551  1.00  0.00     0.029 A 
ATOM     30  N   UNL A   1      46.857  29.052  27.492  1.00  0.00    -0.354 N 
ATOM     31  N   UNL A   1      45.859  26.324  27.053  1.00  0.00    -0.248 NA
ATOM     32  C   UNL A   1      46.202  24.123  26.341  1.00  0.00     0.031 C 
ATOM     33  C   UNL A   1      48.991  29.472  27.046  1.00  0.00     0.029 A 
ATOM     34  C   UNL A   1      48.029  28.475  27.032  1.00  0.00     0.049 A 
ATOM     35  H   UNL A   1      45.996  28.583  27.585  1.00  0.00     0.167 HD
ATOM     36  C   UNL A   1      47.182  26.174  26.655  1.00  0.00     0.074 A 
ATOM     37  C   UNL A   1      47.343  24.791  26.251  1.00  0.00     0.031 C 
ATOM     38  C   UNL A   1      48.172  27.100  26.627  1.00  0.00     0.031 A 
BRANCH  25  39
ATOM     39  C   UNL A   1      46.449  32.733  28.512  1.00  0.00    -0.014 A 
ATOM     40  C   UNL A   1      46.308  33.695  27.496  1.00  0.00     0.010 A 
ATOM     41  C   UNL A   1      46.925  33.137  29.773  1.00  0.00     0.010 A 
ATOM     42  C   UNL A   1      46.678  35.024  27.724  1.00  0.00     0.020 A 
ATOM     43  C   UNL A   1      47.273  34.469  30.012  1.00  0.00     0.020 A 
ATOM     44  C   UNL A   1      47.165  35.402  28.979  1.00  0.00     0.054 A 
BRANCH  44  45
ATOM     45  S   UNL A   1      47.633  37.134  29.250  1.00  0.00     0.124 S 
ATOM     46  O   UNL A   1      48.945  36.996  29.875  1.00  0.00    -0.237 OA
ATOM     47  O   UNL A   1      47.638  37.682  27.896  1.00  0.00    -0.237 OA
ATOM     48  O   UNL A   1      46.578  37.646  30.122  1.00  0.00    -0.744 OA
ENDBRANCH  44  45
ENDBRANCH  25  39
BRANCH  26  49
ATOM     49  C   UNL A   1      43.429  23.339  26.912  1.00  0.00    -0.014 A 
ATOM     50  C   UNL A   1      43.444  22.800  25.614  1.00  0.00     0.010 A 
ATOM     51  C   UNL A   1      43.022  22.528  27.988  1.00  0.00     0.010 A 
ATOM     52  C   UNL A   1      43.054  21.476  25.396  1.00  0.00     0.020 A 
ATOM     53  C   UNL A   1      42.658  21.196  27.777  1.00  0.00     0.020 A 
ATOM     54  C   UNL A   1      42.668  20.681  26.480  1.00  0.00     0.054 A 
BRANCH  54  55
ATOM     55  S   UNL A   1      42.237  18.943  26.184  1.00  0.00     0.124 S 
ATOM     56  O   UNL A   1      42.523  18.337  27.480  1.00  0.00    -0.237 OA
ATOM     57  O   UNL A   1      40.824  19.024  25.820  1.00  0.00    -0.237 OA
ATOM     58  O   UNL A   1      43.130  18.551  25.097  1.00  0.00    -0.744 OA
ENDBRANCH  54  55
ENDBRANCH  26  49
BRANCH  38  59
ATOM     59  C   UNL A   1      49.526  26.639  26.164  1.00  0.00    -0.014 A 
ATOM     60  C   UNL A   1      49.970  26.884  24.853  1.00  0.00     0.010 A 
ATOM     61  C   UNL A   1      50.384  25.989  27.070  1.00  0.00     0.010 A 
ATOM     62  C   UNL A   1      51.237  26.461  24.446  1.00  0.00     0.020 A 
ATOM     63  C   UNL A   1      51.661  25.586  26.675  1.00  0.00     0.020 A 
ATOM     64  C   UNL A   1      52.075  25.813  25.360  1.00  0.00     0.054 A 
BRANCH  64  65
ATOM     65  S   UNL A   1      53.733  25.309  24.823  1.00  0.00     0.124 S 
ATOM     66  O   UNL A   1      53.638  23.852  24.869  1.00  0.00    -0.237 OA
ATOM     67  O   UNL A   1      53.830  25.891  23.487  1.00  0.00    -0.237 OA
ATOM     68  O   UNL A   1      54.616  25.908  25.822  1.00  0.00    -0.744 OA
ENDBRANCH  64  65
ENDBRANCH  38  59
ENDBRANCH  12  13
ENDBRANCH   5   7
ENDBRANCH   2   3
ENDBRANCH   1   2
BRANCH   1  69
ATOM     69  C   UNL A   1      34.180  29.244  27.131  1.00  0.00     0.118 C 
BRANCH  69  70
ATOM     70  N   UNL A   1      32.935  28.679  27.619  1.00  0.00    -0.352 N 
ATOM     71  C   UNL A   1      32.164  27.687  27.076  1.00  0.00     0.255 C 
ATOM     72  H   UNL A   1      32.596  29.064  28.458  1.00  0.00     0.163 HD
ATOM     73  O   UNL A   1      31.067  27.427  27.566  1.00  0.00    -0.269 OA
BRANCH  71  74
ATOM     74  C   UNL A   1      32.611  26.938  25.884  1.00  0.00     0.083 A 
ATOM     75  C   UNL A   1      33.042  25.618  26.088  1.00  0.00     0.044 A 
ATOM     76  C   UNL A   1      32.746  27.530  24.626  1.00  0.00     0.128 A 
ATOM     77  C   UNL A   1      33.647  24.896  25.051  1.00  0.00     0.053 A 
ATOM     78  C   UNL A   1      33.298  26.804  23.574  1.00  0.00     0.049 A 
ATOM     79  C   UNL A   1      33.768  25.504  23.795  1.00  0.00     0.031 A 
BRANCH  76  80
ATOM     80  O   UNL A   1      32.366  28.827  24.419  1.00  0.00    -0.507 OA
ATOM     81  H   UNL A   1      32.672  29.289  23.664  1.00  0.00     0.293 HD
ENDBRANCH  76  80
BRANCH  77  82
ATOM     82  N   UNL A   1      34.172  23.603  25.294  1.00  0.00    -0.249 N 
ATOM     83  C   UNL A   1      35.482  23.348  25.609  1.00  0.00     0.236 C 
ATOM     84  C   UNL A   1      33.419  22.452  25.229  1.00  0.00     0.256 C 
ATOM     85  O   UNL A   1      36.408  24.145  25.702  1.00  0.00    -0.274 OA
ATOM     86  C   UNL A   1      35.640  21.897  25.948  1.00  0.00     0.136 C 
ATOM     87  C   UNL A   1      34.299  21.268  25.616  1.00  0.00     0.179 C 
ATOM     88  O   UNL A   1      32.266  22.360  24.826  1.00  0.00    -0.272 OA
BRANCH  87  89
ATOM     89  N   UNL A   1      34.467  20.322  24.501  1.00  0.00    -0.370 N 
ATOM     90  H   UNL A   1      34.758  20.619  23.608  1.00  0.00     0.161 HD
BRANCH  89  91
ATOM     91  C   UNL A   1      34.191  18.972  24.777  1.00  0.00     0.077 A 
ATOM     92  C   UNL A   1      35.173  18.009  24.534  1.00  0.00     0.029 A 
ATOM     93  C   UNL A   1      32.910  18.533  25.149  1.00  0.00     0.138 A 
ATOM     94  C   UNL A   1      34.892  16.648  24.692  1.00  0.00     0.002 A 
ATOM     95  C   UNL A   1      32.618  17.179  25.301  1.00  0.00     0.048 A 
ATOM     96  C   UNL A   1      33.616  16.234  25.074  1.00  0.00     0.004 A 
BRANCH  93  97
ATOM     97  O   UNL A   1      31.929  19.465  25.346  1.00  0.00    -0.506 OA
ATOM     98  H   UNL A   1      32.157  20.359  25.505  1.00  0.00     0.293 HD
ENDBRANCH  93  97
ENDBRANCH  89  91
ENDBRANCH  87  89
ENDBRANCH  77  82
ENDBRANCH  71  74
ENDBRANCH  69  70
ENDBRANCH   1  69
TORSDOF 18
ENDMDL
MODEL 3
REMARK VINA RESULT:     -12.6      2.295      9.175
REMARK SMILES O=C(NCCCNC(=O)c1cc(N2C(=O)C[C@H](Nc3ccccc3O)C2=O)ccc1O)c1ccc(-c2c3nc(c(-c4ccc(S(=O)(=O)[O-])cc4)c4ccc([nH]4)c(-c4ccc(S(=O)(=O)[O-])cc4)c4nc(c(-c5ccc(S(=O)(=O)[O-])cc5)c5ccc2[nH]5)C=C4)C=C3)cc1
REMARK SMILES IDX 5 1 4 2 3 3 1 4 2 5 32 7 33 8 91 9 34 10 90 11 35 12 36 13
REMARK SMILES IDX 37 14 84 15 38 16 89 17 83 18 85 19 39 20 88 21 82 22 81 23
REMARK SMILES IDX 40 25 70 26 51 27 69 28 52 29 55 30 68 31 86 32 53 33 54 34
REMARK SMILES IDX 67 36 87 37 56 38 41 39 42 40 50 41 43 42 49 43 44 44 45 45
REMARK SMILES IDX 46 46 47 47 48 48 71 49 72 50 80 51 73 52 79 53 74 54 75 55
REMARK SMILES IDX 76 56 77 57 78 58 57 59 58 60 66 61 59 62 65 63 60 64 61 65
REMARK SMILES IDX 62 66 63 67 64 68 6 69 7 70 8 71 9 73 10 74 11 75 30 76
REMARK SMILES IDX 12 77 29 78 28 79 31 80 13 82 14 83 26 84 15 85 16 86 17 87
REMARK SMILES IDX 27 88 18 89 19 91 20 92 24 93 21 94 23 95 22 96 25 97
REMARK H PARENT 3 6 85 24 55 35 7 72 31 81 18 90 25 98
REMARK Flexibility Score: inf
ROOT
ATOM      1  C   UNL A   1      31.810  31.812  26.712  1.00  0.00     0.042 C 
ENDROOT
BRANCH   1   2
ATOM      2  C   UNL A   1      33.058  32.476  27.277  1.00  0.00     0.118 C 
BRANCH   2   3
ATOM      3  N   UNL A   1      32.831  33.858  27.680  1.00  0.00    -0.352 N 
ATOM      4  O   UNL A   1      32.921  35.692  28.980  1.00  0.00    -0.269 OA
ATOM      5  C   UNL A   1      33.396  34.595  28.692  1.00  0.00     0.251 C 
ATOM      6  H   UNL A   1      32.166  34.342  27.138  1.00  0.00     0.163 HD
BRANCH   5   7
ATOM      7  C   UNL A   1      34.551  34.068  29.452  1.00  0.00     0.039 A 
ATOM      8  C   UNL A   1      35.858  34.410  29.103  1.00  0.00     0.014 A 
ATOM      9  C   UNL A   1      34.322  33.235  30.552  1.00  0.00     0.014 A 
ATOM     10  C   UNL A   1      36.930  33.794  29.738  1.00  0.00     0.010 A 
ATOM     11  C   UNL A   1      35.402  32.695  31.256  1.00  0.00     0.010 A 
ATOM     12  C   UNL A   1      36.717  32.939  30.831  1.00  0.00    -0.014 A 
BRANCH  12  13
ATOM     13  C   UNL A   1      37.885  32.363  31.545  1.00  0.00     0.031 A 
ATOM     14  C   UNL A   1      38.300  32.876  32.897  1.00  0.00     0.074 A 
ATOM     15  C   UNL A   1      38.559  31.347  30.971  1.00  0.00     0.049 A 
ATOM     16  N   UNL A   1      39.290  32.478  33.657  1.00  0.00    -0.248 NA
ATOM     17  C   UNL A   1      37.512  33.978  33.470  1.00  0.00     0.031 C 
ATOM     18  C   UNL A   1      38.253  30.765  29.661  1.00  0.00     0.029 A 
ATOM     19  N   UNL A   1      39.627  30.611  31.417  1.00  0.00    -0.354 N 
ATOM     20  C   UNL A   1      39.260  33.294  34.782  1.00  0.00     0.074 A 
ATOM     21  C   UNL A   1      38.167  34.224  34.597  1.00  0.00     0.031 C 
ATOM     22  C   UNL A   1      39.078  29.734  29.433  1.00  0.00     0.029 A 
ATOM     23  C   UNL A   1      40.015  29.623  30.545  1.00  0.00     0.049 A 
ATOM     24  H   UNL A   1      40.072  30.775  32.280  1.00  0.00     0.167 HD
ATOM     25  C   UNL A   1      40.068  33.268  35.870  1.00  0.00     0.031 A 
ATOM     26  C   UNL A   1      41.022  28.733  30.617  1.00  0.00     0.031 A 
ATOM     27  C   UNL A   1      41.153  32.339  36.051  1.00  0.00     0.049 A 
ATOM     28  C   UNL A   1      41.916  28.740  31.822  1.00  0.00     0.074 A 
ATOM     29  C   UNL A   1      42.012  32.216  37.130  1.00  0.00     0.029 A 
ATOM     30  N   UNL A   1      41.532  31.374  35.129  1.00  0.00    -0.354 N 
ATOM     31  N   UNL A   1      41.856  29.508  32.883  1.00  0.00    -0.248 NA
ATOM     32  C   UNL A   1      43.012  27.764  31.838  1.00  0.00     0.031 C 
ATOM     33  C   UNL A   1      42.938  31.209  36.840  1.00  0.00     0.029 A 
ATOM     34  C   UNL A   1      42.625  30.667  35.604  1.00  0.00     0.049 A 
ATOM     35  H   UNL A   1      41.090  31.214  34.264  1.00  0.00     0.167 HD
ATOM     36  C   UNL A   1      42.901  29.097  33.702  1.00  0.00     0.074 A 
ATOM     37  C   UNL A   1      43.562  28.002  33.020  1.00  0.00     0.031 C 
ATOM     38  C   UNL A   1      43.277  29.585  34.910  1.00  0.00     0.031 A 
BRANCH  25  39
ATOM     39  C   UNL A   1      39.828  34.301  36.941  1.00  0.00    -0.014 A 
ATOM     40  C   UNL A   1      39.067  34.003  38.085  1.00  0.00     0.010 A 
ATOM     41  C   UNL A   1      40.404  35.579  36.817  1.00  0.00     0.010 A 
ATOM     42  C   UNL A   1      38.848  34.978  39.063  1.00  0.00     0.020 A 
ATOM     43  C   UNL A   1      40.208  36.549  37.804  1.00  0.00     0.020 A 
ATOM     44  C   UNL A   1      39.415  36.248  38.914  1.00  0.00     0.054 A 
BRANCH  44  45
ATOM     45  S   UNL A   1      39.122  37.494  40.200  1.00  0.00     0.124 S 
ATOM     46  O   UNL A   1      40.461  38.041  40.398  1.00  0.00    -0.237 OA
ATOM     47  O   UNL A   1      38.164  38.395  39.563  1.00  0.00    -0.237 OA
ATOM     48  O   UNL A   1      38.593  36.718  41.319  1.00  0.00    -0.744 OA
ENDBRANCH  44  45
ENDBRANCH  25  39
BRANCH  26  49
ATOM     49  C   UNL A   1      41.233  27.775  29.500  1.00  0.00    -0.014 A 
ATOM     50  C   UNL A   1      42.351  27.891  28.657  1.00  0.00     0.010 A 
ATOM     51  C   UNL A   1      40.338  26.705  29.309  1.00  0.00     0.010 A 
ATOM     52  C   UNL A   1      42.568  26.958  27.639  1.00  0.00     0.020 A 
ATOM     53  C   UNL A   1      40.566  25.756  28.310  1.00  0.00     0.020 A 
ATOM     54  C   UNL A   1      41.676  25.894  27.475  1.00  0.00     0.054 A 
BRANCH  54  55
ATOM     55  S   UNL A   1      42.016  24.653  26.196  1.00  0.00     0.124 S 
ATOM     56  O   UNL A   1      40.951  23.683  26.426  1.00  0.00    -0.237 OA
ATOM     57  O   UNL A   1      41.908  25.432  24.963  1.00  0.00    -0.237 OA
ATOM     58  O   UNL A   1      43.365  24.194  26.516  1.00  0.00    -0.744 OA
ENDBRANCH  54  55
ENDBRANCH  26  49
BRANCH  38  59
ATOM     59  C   UNL A   1      44.446  28.920  35.582  1.00  0.00    -0.014 A 
ATOM     60  C   UNL A   1      44.276  27.757  36.352  1.00  0.00     0.010 A 
ATOM     61  C   UNL A   1      45.739  29.444  35.403  1.00  0.00     0.010 A 
ATOM     62  C   UNL A   1      45.377  27.145  36.958  1.00  0.00     0.020 A 
ATOM     63  C   UNL A   1      46.845  28.822  35.986  1.00  0.00     0.020 A 
ATOM     64  C   UNL A   1      46.654  27.683  36.772  1.00  0.00     0.054 A 
BRANCH  64  65
ATOM     65  S   UNL A   1      48.074  26.848  37.533  1.00  0.00     0.124 S 
ATOM     66  O   UNL A   1      47.425  25.952  38.486  1.00  0.00    -0.237 OA
ATOM     67  O   UNL A   1      48.714  26.198  36.393  1.00  0.00    -0.237 OA
ATOM     68  O   UNL A   1      48.840  27.942  38.128  1.00  0.00    -0.744 OA
ENDBRANCH  64  65
ENDBRANCH  38  59
ENDBRANCH  12  13
ENDBRANCH   5   7
ENDBRANCH   2   3
ENDBRANCH   1   2
BRANCH   1  69
ATOM     69  C   UNL A   1      31.939  30.309  26.522  1.00  0.00     0.118 C 
BRANCH  69  70
ATOM     70  N   UNL A   1      32.959  29.970  25.546  1.00  0.00    -0.352 N 
ATOM     71  C   UNL A   1      32.978  28.950  24.634  1.00  0.00     0.255 C 
ATOM     72  H   UNL A   1      33.749  30.557  25.539  1.00  0.00     0.163 HD
ATOM     73  O   UNL A   1      33.992  28.741  23.971  1.00  0.00    -0.269 OA
BRANCH  71  74
ATOM     74  C   UNL A   1      31.809  28.067  24.451  1.00  0.00     0.083 A 
ATOM     75  C   UNL A   1      31.969  26.720  24.811  1.00  0.00     0.044 A 
ATOM     76  C   UNL A   1      30.635  28.487  23.820  1.00  0.00     0.128 A 
ATOM     77  C   UNL A   1      30.977  25.777  24.507  1.00  0.00     0.053 A 
ATOM     78  C   UNL A   1      29.621  27.568  23.561  1.00  0.00     0.049 A 
ATOM     79  C   UNL A   1      29.805  26.218  23.881  1.00  0.00     0.031 A 
BRANCH  76  80
ATOM     80  O   UNL A   1      30.478  29.787  23.429  1.00  0.00    -0.507 OA
ATOM     81  H   UNL A   1      30.011  29.986  22.642  1.00  0.00     0.293 HD
ENDBRANCH  76  80
BRANCH  77  82
ATOM     82  N   UNL A   1      31.191  24.403  24.781  1.00  0.00    -0.249 N 
ATOM     83  C   UNL A   1      30.894  23.798  25.974  1.00  0.00     0.236 C 
ATOM     84  C   UNL A   1      31.735  23.524  23.873  1.00  0.00     0.256 C 
ATOM     85  O   UNL A   1      30.440  24.310  26.991  1.00  0.00    -0.274 OA
ATOM     86  C   UNL A   1      31.105  22.320  25.851  1.00  0.00     0.136 C 
ATOM     87  C   UNL A   1      31.748  22.129  24.489  1.00  0.00     0.179 C 
ATOM     88  O   UNL A   1      32.231  23.811  22.790  1.00  0.00    -0.272 OA
BRANCH  87  89
ATOM     89  N   UNL A   1      33.119  21.619  24.665  1.00  0.00    -0.370 N 
ATOM     90  H   UNL A   1      33.837  22.181  25.036  1.00  0.00     0.161 HD
BRANCH  89  91
ATOM     91  C   UNL A   1      33.347  20.289  24.275  1.00  0.00     0.077 A 
ATOM     92  C   UNL A   1      32.374  19.618  23.530  1.00  0.00     0.029 A 
ATOM     93  C   UNL A   1      34.453  19.555  24.734  1.00  0.00     0.138 A 
ATOM     94  C   UNL A   1      32.521  18.261  23.223  1.00  0.00     0.002 A 
ATOM     95  C   UNL A   1      34.605  18.202  24.439  1.00  0.00     0.048 A 
ATOM     96  C   UNL A   1      33.634  17.554  23.678  1.00  0.00     0.004 A 
BRANCH  93  97
ATOM     97  O   UNL A   1      35.389  20.191  25.501  1.00  0.00    -0.506 OA
ATOM     98  H   UNL A   1      35.744  19.766  26.256  1.00  0.00     0.293 HD
ENDBRANCH  93  97
ENDBRANCH  89  91
ENDBRANCH  87  89
ENDBRANCH  77  82
ENDBRANCH  71  74
ENDBRANCH  69  70
ENDBRANCH   1  69
TORSDOF 18
ENDMDL
