MODEL 1
REMARK VINA RESULT:     -12.0      0.000      0.000
REMARK SMILES O=C(NCCCNC(=O)c1ccc(-c2c3nc(c(-c4ccc(S(=O)(=O)[O-])cc4)c4ccc([nH]4)c(-c4ccc(S(=O)(=O)[O-])cc4)c4nc(c(-c5ccc(S(=O)(=O)[O-])cc5)c5ccc2[nH]5)C=C4)C=C3)cc1)C1=Cc2cc(S(F)(F)(F)(F)F)ccc2O[C@@H]1C(F)(F)F
REMARK SMILES IDX 6 1 5 2 4 3 3 4 1 5 2 6 70 8 71 9 85 10 72 11 84 12 73 13
REMARK SMILES IDX 83 14 74 15 82 16 81 17 86 18 87 19 88 20 89 21 75 22 76 23
REMARK SMILES IDX 77 24 78 25 79 26 80 27 7 28 8 29 9 31 10 32 11 33 69 34
REMARK SMILES IDX 12 35 68 36 13 37 14 38 15 39 62 40 16 41 67 42 61 43 63 44
REMARK SMILES IDX 17 45 66 46 60 47 59 48 18 50 48 51 29 52 47 53 30 54 33 55
REMARK SMILES IDX 46 56 64 57 31 58 32 59 45 61 65 62 34 63 19 64 20 65 28 66
REMARK SMILES IDX 21 67 27 68 22 69 23 70 24 71 25 72 26 73 49 74 50 75 58 76
REMARK SMILES IDX 51 77 57 78 52 79 53 80 54 81 55 82 56 83 35 84 36 85 44 86
REMARK SMILES IDX 37 87 43 88 38 89 39 90 40 91 41 92 42 93
REMARK H PARENT 3 7 7 30 63 49 33 60
REMARK Flexibility Score: inf
ROOT
ATOM      1  C   UNL A   1      34.103  28.114  26.917  1.00  0.00     0.118 C 
ENDROOT
BRANCH   1   2
ATOM      2  C   UNL A   1      33.063  27.389  26.078  1.00  0.00     0.042 C 
BRANCH   2   3
ATOM      3  C   UNL A   1      33.334  25.894  26.115  1.00  0.00     0.118 C 
BRANCH   3   4
ATOM      4  N   UNL A   1      34.434  25.573  25.194  1.00  0.00    -0.352 N 
ATOM      5  O   UNL A   1      35.151  24.396  23.259  1.00  0.00    -0.270 OA
ATOM      6  C   UNL A   1      34.200  24.674  24.055  1.00  0.00     0.251 C 
ATOM      7  H   UNL A   1      35.328  25.961  25.340  1.00  0.00     0.163 HD
BRANCH   6   8
ATOM      8  C   UNL A   1      32.821  24.075  23.830  1.00  0.00     0.067 C 
ATOM      9  C   UNL A   1      31.818  24.846  23.331  1.00  0.00     0.025 C 
ATOM     10  C   UNL A   1      32.564  22.614  24.162  1.00  0.00     0.314 C 
ATOM     11  C   UNL A   1      32.076  26.306  22.997  1.00  0.00     0.019 A 
ATOM     12  O   UNL A   1      34.146  25.723  21.985  1.00  0.00    -0.475 OA
ATOM     13  C   UNL A   1      31.176  27.234  23.495  1.00  0.00     0.036 A 
ATOM     14  C   UNL A   1      33.165  26.687  22.340  1.00  0.00     0.128 A 
ATOM     15  C   UNL A   1      31.367  28.543  22.993  1.00  0.00     0.107 A 
ATOM     16  C   UNL A   1      33.352  28.005  22.001  1.00  0.00     0.048 A 
ATOM     17  C   UNL A   1      32.471  28.968  22.408  1.00  0.00     0.028 A 
BRANCH  10  18
ATOM     18  C   UNL A   1      32.126  21.878  22.908  1.00  0.00     0.429 C 
ATOM     19  F   UNL A   1      30.842  22.133  22.671  1.00  0.00    -0.167 F 
ATOM     20  F   UNL A   1      32.857  22.287  21.874  1.00  0.00    -0.167 F 
ATOM     21  F   UNL A   1      32.293  20.570  23.079  1.00  0.00    -0.167 F 
ENDBRANCH  10  18
BRANCH  15  22
ATOM     22  S   UNL A   1      30.000  29.718  23.165  1.00  0.00     0.310 S 
ATOM     23  F   UNL A   1      29.028  28.595  23.721  1.00  0.00    -0.094 F 
ATOM     24  F   UNL A   1      29.510  29.331  21.719  1.00  0.00    -0.094 F 
ATOM     25  F   UNL A   1      28.827  30.726  23.323  1.00  0.00    -0.094 F 
ATOM     26  F   UNL A   1      30.425  29.990  24.662  1.00  0.00    -0.094 F 
ATOM     27  F   UNL A   1      31.129  28.617  23.060  1.00  0.00    -0.094 F 
ENDBRANCH  15  22
ENDBRANCH   6   8
ENDBRANCH   3   4
ENDBRANCH   2   3
ENDBRANCH   1   2
BRANCH   1  28
ATOM     28  N   UNL A   1      33.582  29.429  27.316  1.00  0.00    -0.352 N 
ATOM     29  C   UNL A   1      34.459  30.391  27.998  1.00  0.00     0.251 C 
ATOM     30  H   UNL A   1      32.646  29.666  27.126  1.00  0.00     0.163 HD
ATOM     31  O   UNL A   1      34.010  31.528  28.343  1.00  0.00    -0.269 OA
BRANCH  29  32
ATOM     32  C   UNL A   1      35.906  30.026  28.291  1.00  0.00     0.039 A 
ATOM     33  C   UNL A   1      36.865  30.222  27.311  1.00  0.00     0.014 A 
ATOM     34  C   UNL A   1      36.226  29.524  29.478  1.00  0.00     0.014 A 
ATOM     35  C   UNL A   1      38.099  29.585  27.580  1.00  0.00     0.010 A 
ATOM     36  C   UNL A   1      37.491  29.042  29.715  1.00  0.00     0.010 A 
ATOM     37  C   UNL A   1      38.473  29.150  28.769  1.00  0.00    -0.014 A 
BRANCH  37  38
ATOM     38  C   UNL A   1      39.919  28.789  29.071  1.00  0.00     0.031 A 
ATOM     39  C   UNL A   1      40.391  27.521  28.728  1.00  0.00     0.074 A 
ATOM     40  C   UNL A   1      40.694  29.768  29.667  1.00  0.00     0.049 A 
ATOM     41  N   UNL A   1      41.630  27.048  28.871  1.00  0.00    -0.248 NA
ATOM     42  C   UNL A   1      39.562  26.467  28.126  1.00  0.00     0.031 C 
ATOM     43  C   UNL A   1      40.227  31.053  30.009  1.00  0.00     0.029 A 
ATOM     44  N   UNL A   1      42.020  29.692  30.033  1.00  0.00    -0.354 N 
ATOM     45  C   UNL A   1      41.703  25.798  28.410  1.00  0.00     0.074 A 
ATOM     46  C   UNL A   1      40.371  25.404  27.931  1.00  0.00     0.031 C 
ATOM     47  C   UNL A   1      41.252  31.736  30.582  1.00  0.00     0.029 A 
ATOM     48  C   UNL A   1      42.377  30.891  30.608  1.00  0.00     0.049 A 
ATOM     49  H   UNL A   1      42.609  28.914  29.905  1.00  0.00     0.167 HD
ATOM     50  C   UNL A   1      42.827  24.972  28.370  1.00  0.00     0.031 A 
ATOM     51  C   UNL A   1      43.610  31.245  31.133  1.00  0.00     0.031 A 
ATOM     52  C   UNL A   1      44.071  25.343  28.856  1.00  0.00     0.049 A 
ATOM     53  C   UNL A   1      44.721  30.398  31.145  1.00  0.00     0.074 A 
ATOM     54  C   UNL A   1      45.217  24.525  28.815  1.00  0.00     0.029 A 
ATOM     55  N   UNL A   1      44.423  26.532  29.453  1.00  0.00    -0.354 N 
ATOM     56  N   UNL A   1      44.802  29.163  30.648  1.00  0.00    -0.248 NA
ATOM     57  C   UNL A   1      46.022  30.752  31.728  1.00  0.00     0.031 C 
ATOM     58  C   UNL A   1      46.243  25.208  29.390  1.00  0.00     0.029 A 
ATOM     59  C   UNL A   1      45.755  26.464  29.798  1.00  0.00     0.049 A 
ATOM     60  H   UNL A   1      43.826  27.300  29.608  1.00  0.00     0.167 HD
ATOM     61  C   UNL A   1      46.032  28.676  30.830  1.00  0.00     0.074 A 
ATOM     62  C   UNL A   1      46.832  29.688  31.533  1.00  0.00     0.031 C 
ATOM     63  C   UNL A   1      46.520  27.429  30.434  1.00  0.00     0.031 A 
BRANCH  50  64
ATOM     64  C   UNL A   1      42.679  23.588  27.759  1.00  0.00    -0.014 A 
ATOM     65  C   UNL A   1      42.991  23.379  26.425  1.00  0.00     0.010 A 
ATOM     66  C   UNL A   1      42.290  22.588  28.540  1.00  0.00     0.010 A 
ATOM     67  C   UNL A   1      42.581  22.119  25.931  1.00  0.00     0.020 A 
ATOM     68  C   UNL A   1      42.037  21.345  28.011  1.00  0.00     0.020 A 
ATOM     69  C   UNL A   1      42.266  21.083  26.689  1.00  0.00     0.054 A 
BRANCH  69  70
ATOM     70  S   UNL A   1      42.146  19.409  26.014  1.00  0.00     0.124 S 
ATOM     71  O   UNL A   1      40.685  19.093  25.689  1.00  0.00    -0.237 OA
ATOM     72  O   UNL A   1      42.985  19.312  24.736  1.00  0.00    -0.237 OA
ATOM     73  O   UNL A   1      42.730  18.286  27.164  1.00  0.00    -0.744 OA
ENDBRANCH  69  70
ENDBRANCH  50  64
BRANCH  51  74
ATOM     74  C   UNL A   1      43.763  32.636  31.728  1.00  0.00    -0.014 A 
ATOM     75  C   UNL A   1      44.165  33.694  30.930  1.00  0.00     0.010 A 
ATOM     76  C   UNL A   1      43.545  32.798  33.028  1.00  0.00     0.010 A 
ATOM     77  C   UNL A   1      44.594  34.830  31.656  1.00  0.00     0.020 A 
ATOM     78  C   UNL A   1      43.862  33.983  33.648  1.00  0.00     0.020 A 
ATOM     79  C   UNL A   1      44.321  35.052  32.929  1.00  0.00     0.054 A 
BRANCH  79  80
ATOM     80  S   UNL A   1      44.542  36.683  33.682  1.00  0.00     0.124 S 
ATOM     81  O   UNL A   1      46.030  37.038  33.701  1.00  0.00    -0.237 OA
ATOM     82  O   UNL A   1      43.779  37.729  32.865  1.00  0.00    -0.237 OA
ATOM     83  O   UNL A   1      43.939  36.659  35.282  1.00  0.00    -0.744 OA
ENDBRANCH  79  80
ENDBRANCH  51  74
BRANCH  63  84
ATOM     84  C   UNL A   1      47.979  27.110  30.718  1.00  0.00    -0.014 A 
ATOM     85  C   UNL A   1      48.313  26.465  31.897  1.00  0.00     0.010 A 
ATOM     86  C   UNL A   1      48.908  27.459  29.835  1.00  0.00     0.010 A 
ATOM     87  C   UNL A   1      49.698  26.487  32.189  1.00  0.00     0.020 A 
ATOM     88  C   UNL A   1      50.242  27.326  30.136  1.00  0.00     0.020 A 
ATOM     89  C   UNL A   1      50.646  26.751  31.308  1.00  0.00     0.054 A 
BRANCH  89  90
ATOM     90  S   UNL A   1      52.385  26.371  31.636  1.00  0.00     0.124 S 
ATOM     91  O   UNL A   1      53.186  26.483  30.337  1.00  0.00    -0.237 OA
ATOM     92  O   UNL A   1      52.938  27.359  32.665  1.00  0.00    -0.237 OA
ATOM     93  O   UNL A   1      52.514  24.779  32.247  1.00  0.00    -0.744 OA
ENDBRANCH  89  90
ENDBRANCH  63  84
ENDBRANCH  37  38
ENDBRANCH  29  32
ENDBRANCH   1  28
TORSDOF 15
ENDMDL
MODEL 2
REMARK VINA RESULT:     -12.0      2.043      4.132
REMARK SMILES O=C(NCCCNC(=O)c1ccc(-c2c3nc(c(-c4ccc(S(=O)(=O)[O-])cc4)c4ccc([nH]4)c(-c4ccc(S(=O)(=O)[O-])cc4)c4nc(c(-c5ccc(S(=O)(=O)[O-])cc5)c5ccc2[nH]5)C=C4)C=C3)cc1)C1=Cc2cc(S(F)(F)(F)(F)F)ccc2O[C@@H]1C(F)(F)F
REMARK SMILES IDX 6 1 5 2 4 3 3 4 1 5 2 6 70 8 71 9 85 10 72 11 84 12 73 13
REMARK SMILES IDX 83 14 74 15 82 16 81 17 86 18 87 19 88 20 89 21 75 22 76 23
REMARK SMILES IDX 77 24 78 25 79 26 80 27 7 28 8 29 9 31 10 32 11 33 69 34
REMARK SMILES IDX 12 35 68 36 13 37 14 38 15 39 62 40 16 41 67 42 61 43 63 44
REMARK SMILES IDX 17 45 66 46 60 47 59 48 18 50 48 51 29 52 47 53 30 54 33 55
REMARK SMILES IDX 46 56 64 57 31 58 32 59 45 61 65 62 34 63 19 64 20 65 28 66
REMARK SMILES IDX 21 67 27 68 22 69 23 70 24 71 25 72 26 73 49 74 50 75 58 76
REMARK SMILES IDX 51 77 57 78 52 79 53 80 54 81 55 82 56 83 35 84 36 85 44 86
REMARK SMILES IDX 37 87 43 88 38 89 39 90 40 91 41 92 42 93
REMARK H PARENT 3 7 7 30 63 49 33 60
REMARK Flexibility Score: inf
ROOT
ATOM      1  C   UNL A   1      34.420  28.433  26.522  1.00  0.00     0.118 C 
ENDROOT
BRANCH   1   2
ATOM      2  C   UNL A   1      33.452  27.841  25.511  1.00  0.00     0.042 C 
BRANCH   2   3
ATOM      3  C   UNL A   1      33.351  26.339  25.726  1.00  0.00     0.118 C 
BRANCH   3   4
ATOM      4  N   UNL A   1      33.811  25.640  24.517  1.00  0.00    -0.352 N 
ATOM      5  O   UNL A   1      33.397  23.954  22.895  1.00  0.00    -0.270 OA
ATOM      6  C   UNL A   1      32.999  24.559  23.940  1.00  0.00     0.251 C 
ATOM      7  H   UNL A   1      34.663  25.896  24.094  1.00  0.00     0.163 HD
BRANCH   6   8
ATOM      8  C   UNL A   1      31.685  24.163  24.593  1.00  0.00     0.067 C 
ATOM      9  C   UNL A   1      31.525  22.909  25.095  1.00  0.00     0.025 C 
ATOM     10  C   UNL A   1      30.550  25.170  24.686  1.00  0.00     0.314 C 
ATOM     11  C   UNL A   1      32.661  21.903  25.002  1.00  0.00     0.019 A 
ATOM     12  O   UNL A   1      34.214  23.578  25.658  1.00  0.00    -0.475 OA
ATOM     13  C   UNL A   1      32.352  20.649  24.500  1.00  0.00     0.036 A 
ATOM     14  C   UNL A   1      33.911  22.237  25.299  1.00  0.00     0.128 A 
ATOM     15  C   UNL A   1      33.404  19.710  24.619  1.00  0.00     0.107 A 
ATOM     16  C   UNL A   1      34.913  21.299  25.262  1.00  0.00     0.048 A 
ATOM     17  C   UNL A   1      34.668  20.024  24.833  1.00  0.00     0.028 A 
BRANCH  10  18
ATOM     18  C   UNL A   1      30.195  25.400  26.145  1.00  0.00     0.429 C 
ATOM     19  F   UNL A   1      30.348  26.689  26.440  1.00  0.00    -0.167 F 
ATOM     20  F   UNL A   1      28.931  25.044  26.357  1.00  0.00    -0.167 F 
ATOM     21  F   UNL A   1      30.997  24.672  26.918  1.00  0.00    -0.167 F 
ENDBRANCH  10  18
BRANCH  15  22
ATOM     22  S   UNL A   1      32.987  17.956  24.465  1.00  0.00     0.310 S 
ATOM     23  F   UNL A   1      34.510  17.525  24.561  1.00  0.00    -0.094 F 
ATOM     24  F   UNL A   1      33.186  18.063  22.906  1.00  0.00    -0.094 F 
ATOM     25  F   UNL A   1      32.631  16.447  24.343  1.00  0.00    -0.094 F 
ATOM     26  F   UNL A   1      32.928  17.834  26.039  1.00  0.00    -0.094 F 
ATOM     27  F   UNL A   1      33.455  19.458  24.613  1.00  0.00    -0.094 F 
ENDBRANCH  15  22
ENDBRANCH   6   8
ENDBRANCH   3   4
ENDBRANCH   2   3
ENDBRANCH   1   2
BRANCH   1  28
ATOM     28  N   UNL A   1      33.852  29.668  27.080  1.00  0.00    -0.352 N 
ATOM     29  C   UNL A   1      34.665  30.520  27.959  1.00  0.00     0.251 C 
ATOM     30  H   UNL A   1      32.927  29.926  26.864  1.00  0.00     0.163 HD
ATOM     31  O   UNL A   1      34.175  31.589  28.442  1.00  0.00    -0.269 OA
BRANCH  29  32
ATOM     32  C   UNL A   1      36.095  30.123  28.292  1.00  0.00     0.039 A 
ATOM     33  C   UNL A   1      37.093  30.340  27.357  1.00  0.00     0.014 A 
ATOM     34  C   UNL A   1      36.363  29.574  29.471  1.00  0.00     0.014 A 
ATOM     35  C   UNL A   1      38.307  29.675  27.648  1.00  0.00     0.010 A 
ATOM     36  C   UNL A   1      37.612  29.066  29.737  1.00  0.00     0.010 A 
ATOM     37  C   UNL A   1      38.630  29.193  28.833  1.00  0.00    -0.014 A 
BRANCH  37  38
ATOM     38  C   UNL A   1      40.058  28.799  29.175  1.00  0.00     0.031 A 
ATOM     39  C   UNL A   1      40.520  27.531  28.820  1.00  0.00     0.074 A 
ATOM     40  C   UNL A   1      40.829  29.752  29.818  1.00  0.00     0.049 A 
ATOM     41  N   UNL A   1      41.746  27.034  28.994  1.00  0.00    -0.248 NA
ATOM     42  C   UNL A   1      39.694  26.505  28.168  1.00  0.00     0.031 C 
ATOM     43  C   UNL A   1      40.373  31.037  30.172  1.00  0.00     0.029 A 
ATOM     44  N   UNL A   1      42.141  29.644  30.226  1.00  0.00    -0.354 N 
ATOM     45  C   UNL A   1      41.813  25.792  28.509  1.00  0.00     0.074 A 
ATOM     46  C   UNL A   1      40.491  25.432  27.977  1.00  0.00     0.031 C 
ATOM     47  C   UNL A   1      41.390  31.689  30.794  1.00  0.00     0.029 A 
ATOM     48  C   UNL A   1      42.499  30.824  30.839  1.00  0.00     0.049 A 
ATOM     49  H   UNL A   1      42.721  28.858  30.101  1.00  0.00     0.167 HD
ATOM     50  C   UNL A   1      42.923  24.947  28.488  1.00  0.00     0.031 A 
ATOM     51  C   UNL A   1      43.719  31.145  31.412  1.00  0.00     0.031 A 
ATOM     52  C   UNL A   1      44.156  25.285  29.023  1.00  0.00     0.049 A 
ATOM     53  C   UNL A   1      44.815  30.278  31.443  1.00  0.00     0.074 A 
ATOM     54  C   UNL A   1      45.289  24.448  29.003  1.00  0.00     0.029 A 
ATOM     55  N   UNL A   1      44.508  26.456  29.658  1.00  0.00    -0.354 N 
ATOM     56  N   UNL A   1      44.892  29.053  30.922  1.00  0.00    -0.248 NA
ATOM     57  C   UNL A   1      46.101  30.597  32.076  1.00  0.00     0.031 C 
ATOM     58  C   UNL A   1      46.306  25.101  29.626  1.00  0.00     0.029 A 
ATOM     59  C   UNL A   1      45.826  26.356  30.045  1.00  0.00     0.049 A 
ATOM     60  H   UNL A   1      43.919  27.230  29.809  1.00  0.00     0.167 HD
ATOM     61  C   UNL A   1      46.106  28.540  31.135  1.00  0.00     0.074 A 
ATOM     62  C   UNL A   1      46.899  29.523  31.886  1.00  0.00     0.031 C 
ATOM     63  C   UNL A   1      46.586  27.293  30.728  1.00  0.00     0.031 A 
BRANCH  50  64
ATOM     64  C   UNL A   1      42.773  23.579  27.842  1.00  0.00    -0.014 A 
ATOM     65  C   UNL A   1      43.128  23.393  26.516  1.00  0.00     0.010 A 
ATOM     66  C   UNL A   1      42.337  22.571  28.587  1.00  0.00     0.010 A 
ATOM     67  C   UNL A   1      42.713  22.151  25.981  1.00  0.00     0.020 A 
ATOM     68  C   UNL A   1      42.081  21.344  28.023  1.00  0.00     0.020 A 
ATOM     69  C   UNL A   1      42.353  21.106  26.704  1.00  0.00     0.054 A 
BRANCH  69  70
ATOM     70  S   UNL A   1      42.227  19.449  25.989  1.00  0.00     0.124 S 
ATOM     71  O   UNL A   1      43.033  19.391  24.689  1.00  0.00    -0.237 OA
ATOM     72  O   UNL A   1      42.782  18.421  26.979  1.00  0.00    -0.237 OA
ATOM     73  O   UNL A   1      40.588  19.093  25.659  1.00  0.00    -0.744 OA
ENDBRANCH  69  70
ENDBRANCH  50  64
BRANCH  51  74
ATOM     74  C   UNL A   1      43.875  32.520  32.043  1.00  0.00    -0.014 A 
ATOM     75  C   UNL A   1      43.630  32.697  33.394  1.00  0.00     0.010 A 
ATOM     76  C   UNL A   1      44.207  33.543  31.263  1.00  0.00     0.010 A 
ATOM     77  C   UNL A   1      43.476  34.050  33.777  1.00  0.00     0.020 A 
ATOM     78  C   UNL A   1      44.164  34.830  31.743  1.00  0.00     0.020 A 
ATOM     79  C   UNL A   1      43.871  35.082  33.055  1.00  0.00     0.054 A 
BRANCH  79  80
ATOM     80  S   UNL A   1      44.016  36.742  33.762  1.00  0.00     0.124 S 
ATOM     81  O   UNL A   1      42.620  37.300  34.045  1.00  0.00    -0.237 OA
ATOM     82  O   UNL A   1      44.812  36.672  35.068  1.00  0.00    -0.237 OA
ATOM     83  O   UNL A   1      44.826  37.764  32.656  1.00  0.00    -0.744 OA
ENDBRANCH  79  80
ENDBRANCH  51  74
BRANCH  63  84
ATOM     84  C   UNL A   1      48.029  26.943  31.053  1.00  0.00    -0.014 A 
ATOM     85  C   UNL A   1      48.312  26.269  32.229  1.00  0.00     0.010 A 
ATOM     86  C   UNL A   1      48.993  27.291  30.208  1.00  0.00     0.010 A 
ATOM     87  C   UNL A   1      49.686  26.260  32.568  1.00  0.00     0.020 A 
ATOM     88  C   UNL A   1      50.313  27.129  30.550  1.00  0.00     0.020 A 
ATOM     89  C   UNL A   1      50.668  26.524  31.723  1.00  0.00     0.054 A 
BRANCH  89  90
ATOM     90  S   UNL A   1      52.387  26.106  32.100  1.00  0.00     0.124 S 
ATOM     91  O   UNL A   1      52.996  27.197  32.984  1.00  0.00    -0.237 OA
ATOM     92  O   UNL A   1      52.437  24.765  32.837  1.00  0.00    -0.237 OA
ATOM     93  O   UNL A   1      53.278  25.990  30.645  1.00  0.00    -0.744 OA
ENDBRANCH  89  90
ENDBRANCH  63  84
ENDBRANCH  37  38
ENDBRANCH  29  32
ENDBRANCH   1  28
TORSDOF 15
ENDMDL
MODEL 3
REMARK VINA RESULT:     -11.9      2.944      8.733
REMARK SMILES O=C(NCCCNC(=O)c1ccc(-c2c3nc(c(-c4ccc(S(=O)(=O)[O-])cc4)c4ccc([nH]4)c(-c4ccc(S(=O)(=O)[O-])cc4)c4nc(c(-c5ccc(S(=O)(=O)[O-])cc5)c5ccc2[nH]5)C=C4)C=C3)cc1)C1=Cc2cc(S(F)(F)(F)(F)F)ccc2O[C@@H]1C(F)(F)F
REMARK SMILES IDX 6 1 5 2 4 3 3 4 1 5 2 6 70 8 71 9 85 10 72 11 84 12 73 13
REMARK SMILES IDX 83 14 74 15 82 16 81 17 86 18 87 19 88 20 89 21 75 22 76 23
REMARK SMILES IDX 77 24 78 25 79 26 80 27 7 28 8 29 9 31 10 32 11 33 69 34
REMARK SMILES IDX 12 35 68 36 13 37 14 38 15 39 62 40 16 41 67 42 61 43 63 44
REMARK SMILES IDX 17 45 66 46 60 47 59 48 18 50 48 51 29 52 47 53 30 54 33 55
REMARK SMILES IDX 46 56 64 57 31 58 32 59 45 61 65 62 34 63 19 64 20 65 28 66
REMARK SMILES IDX 21 67 27 68 22 69 23 70 24 71 25 72 26 73 49 74 50 75 58 76
REMARK SMILES IDX 51 77 57 78 52 79 53 80 54 81 55 82 56 83 35 84 36 85 44 86
REMARK SMILES IDX 37 87 43 88 38 89 39 90 40 91 41 92 42 93
REMARK H PARENT 3 7 7 30 63 49 33 60
REMARK Flexibility Score: inf
ROOT
ATOM      1  C   UNL A   1      36.808  24.012  25.463  1.00  0.00     0.118 C 
ENDROOT
BRANCH   1   2
ATOM      2  C   UNL A   1      35.664  23.827  24.479  1.00  0.00     0.042 C 
BRANCH   2   3
ATOM      3  C   UNL A   1      34.713  25.008  24.579  1.00  0.00     0.118 C 
BRANCH   3   4
ATOM      4  N   UNL A   1      33.637  24.855  23.590  1.00  0.00    -0.352 N 
ATOM      5  O   UNL A   1      31.343  24.395  23.176  1.00  0.00    -0.270 OA
ATOM      6  C   UNL A   1      32.274  24.527  24.032  1.00  0.00     0.251 C 
ATOM      7  H   UNL A   1      33.829  24.972  22.630  1.00  0.00     0.163 HD
BRANCH   6   8
ATOM      8  C   UNL A   1      31.977  24.345  25.511  1.00  0.00     0.067 C 
ATOM      9  C   UNL A   1      31.960  25.424  26.339  1.00  0.00     0.025 C 
ATOM     10  C   UNL A   1      31.699  22.958  26.065  1.00  0.00     0.314 C 
ATOM     11  C   UNL A   1      32.237  26.812  25.784  1.00  0.00     0.019 A 
ATOM     12  O   UNL A   1      30.848  26.355  23.911  1.00  0.00    -0.475 OA
ATOM     13  C   UNL A   1      33.174  27.583  26.454  1.00  0.00     0.036 A 
ATOM     14  C   UNL A   1      31.680  27.233  24.655  1.00  0.00     0.128 A 
ATOM     15  C   UNL A   1      33.243  28.921  26.002  1.00  0.00     0.107 A 
ATOM     16  C   UNL A   1      31.900  28.510  24.201  1.00  0.00     0.048 A 
ATOM     17  C   UNL A   1      32.767  29.347  24.847  1.00  0.00     0.028 A 
BRANCH  10  18
ATOM     18  C   UNL A   1      30.311  22.926  26.681  1.00  0.00     0.429 C 
ATOM     19  F   UNL A   1      29.639  21.881  26.205  1.00  0.00    -0.167 F 
ATOM     20  F   UNL A   1      30.413  22.823  28.003  1.00  0.00    -0.167 F 
ATOM     21  F   UNL A   1      29.662  24.046  26.372  1.00  0.00    -0.167 F 
ENDBRANCH  10  18
BRANCH  15  22
ATOM     22  S   UNL A   1      34.041  30.134  27.082  1.00  0.00     0.310 S 
ATOM     23  F   UNL A   1      34.220  29.069  28.243  1.00  0.00    -0.094 F 
ATOM     24  F   UNL A   1      32.635  30.477  27.705  1.00  0.00    -0.094 F 
ATOM     25  F   UNL A   1      34.735  31.172  28.010  1.00  0.00    -0.094 F 
ATOM     26  F   UNL A   1      35.455  29.680  26.546  1.00  0.00    -0.094 F 
ATOM     27  F   UNL A   1      33.363  29.000  26.215  1.00  0.00    -0.094 F 
ENDBRANCH  15  22
ENDBRANCH   6   8
ENDBRANCH   3   4
ENDBRANCH   2   3
ENDBRANCH   1   2
BRANCH   1  28
ATOM     28  N   UNL A   1      37.685  22.833  25.424  1.00  0.00    -0.352 N 
ATOM     29  C   UNL A   1      38.995  22.869  26.089  1.00  0.00     0.251 C 
ATOM     30  H   UNL A   1      37.395  22.020  24.952  1.00  0.00     0.163 HD
ATOM     31  O   UNL A   1      39.754  21.850  26.056  1.00  0.00    -0.269 OA
BRANCH  29  32
ATOM     32  C   UNL A   1      39.443  24.126  26.819  1.00  0.00     0.039 A 
ATOM     33  C   UNL A   1      39.112  24.287  28.154  1.00  0.00     0.014 A 
ATOM     34  C   UNL A   1      40.142  25.047  26.166  1.00  0.00     0.014 A 
ATOM     35  C   UNL A   1      39.318  25.599  28.642  1.00  0.00     0.010 A 
ATOM     36  C   UNL A   1      40.424  26.257  26.753  1.00  0.00     0.010 A 
ATOM     37  C   UNL A   1      40.074  26.507  28.052  1.00  0.00    -0.014 A 
BRANCH  37  38
ATOM     38  C   UNL A   1      40.531  27.762  28.776  1.00  0.00     0.031 A 
ATOM     39  C   UNL A   1      39.662  28.851  28.869  1.00  0.00     0.074 A 
ATOM     40  C   UNL A   1      41.802  27.739  29.322  1.00  0.00     0.049 A 
ATOM     41  N   UNL A   1      39.870  30.007  29.502  1.00  0.00    -0.248 NA
ATOM     42  C   UNL A   1      38.324  28.893  28.260  1.00  0.00     0.031 C 
ATOM     43  C   UNL A   1      42.682  26.641  29.240  1.00  0.00     0.029 A 
ATOM     44  N   UNL A   1      42.440  28.737  30.025  1.00  0.00    -0.354 N 
ATOM     45  C   UNL A   1      38.800  30.796  29.385  1.00  0.00     0.074 A 
ATOM     46  C   UNL A   1      37.793  30.093  28.579  1.00  0.00     0.031 C 
ATOM     47  C   UNL A   1      43.836  26.977  29.874  1.00  0.00     0.029 A 
ATOM     48  C   UNL A   1      43.698  28.290  30.363  1.00  0.00     0.049 A 
ATOM     49  H   UNL A   1      42.062  29.619  30.246  1.00  0.00     0.167 HD
ATOM     50  C   UNL A   1      38.625  32.073  29.920  1.00  0.00     0.031 A 
ATOM     51  C   UNL A   1      44.683  28.974  31.057  1.00  0.00     0.031 A 
ATOM     52  C   UNL A   1      39.595  32.740  30.650  1.00  0.00     0.049 A 
ATOM     53  C   UNL A   1      44.530  30.275  31.543  1.00  0.00     0.074 A 
ATOM     54  C   UNL A   1      39.432  34.025  31.204  1.00  0.00     0.029 A 
ATOM     55  N   UNL A   1      40.862  32.303  30.967  1.00  0.00    -0.354 N 
ATOM     56  N   UNL A   1      43.445  31.047  31.459  1.00  0.00    -0.248 NA
ATOM     57  C   UNL A   1      45.578  31.020  32.250  1.00  0.00     0.031 C 
ATOM     58  C   UNL A   1      40.587  34.361  31.837  1.00  0.00     0.029 A 
ATOM     59  C   UNL A   1      41.491  33.293  31.690  1.00  0.00     0.049 A 
ATOM     60  H   UNL A   1      41.251  31.433  30.721  1.00  0.00     0.167 HD
ATOM     61  C   UNL A   1      43.670  32.220  32.056  1.00  0.00     0.074 A 
ATOM     62  C   UNL A   1      45.048  32.222  32.568  1.00  0.00     0.031 C 
ATOM     63  C   UNL A   1      42.780  33.286  32.199  1.00  0.00     0.031 A 
BRANCH  50  64
ATOM     64  C   UNL A   1      37.295  32.772  29.687  1.00  0.00    -0.014 A 
ATOM     65  C   UNL A   1      37.048  33.416  28.485  1.00  0.00     0.010 A 
ATOM     66  C   UNL A   1      36.372  32.713  30.639  1.00  0.00     0.010 A 
ATOM     67  C   UNL A   1      35.886  34.222  28.495  1.00  0.00     0.020 A 
ATOM     68  C   UNL A   1      35.200  33.420  30.521  1.00  0.00     0.020 A 
ATOM     69  C   UNL A   1      34.915  34.126  29.386  1.00  0.00     0.054 A 
BRANCH  69  70
ATOM     70  S   UNL A   1      33.296  34.888  29.116  1.00  0.00     0.124 S 
ATOM     71  O   UNL A   1      32.541  34.113  28.034  1.00  0.00    -0.237 OA
ATOM     72  O   UNL A   1      32.493  34.855  30.420  1.00  0.00    -0.237 OA
ATOM     73  O   UNL A   1      33.504  36.509  28.617  1.00  0.00    -0.744 OA
ENDBRANCH  69  70
ENDBRANCH  50  64
BRANCH  51  74
ATOM     74  C   UNL A   1      46.007  28.268  31.304  1.00  0.00    -0.014 A 
ATOM     75  C   UNL A   1      46.194  27.526  32.457  1.00  0.00     0.010 A 
ATOM     76  C   UNL A   1      46.983  28.418  30.415  1.00  0.00     0.010 A 
ATOM     77  C   UNL A   1      47.549  27.216  32.727  1.00  0.00     0.020 A 
ATOM     78  C   UNL A   1      48.253  27.970  30.689  1.00  0.00     0.020 A 
ATOM     79  C   UNL A   1      48.522  27.280  31.838  1.00  0.00     0.054 A 
BRANCH  79  80
ATOM     80  S   UNL A   1      50.128  26.496  32.125  1.00  0.00     0.124 S 
ATOM     81  O   UNL A   1      50.759  26.119  30.783  1.00  0.00    -0.237 OA
ATOM     82  O   UNL A   1      51.048  27.472  32.864  1.00  0.00    -0.237 OA
ATOM     83  O   UNL A   1      49.915  25.088  33.071  1.00  0.00    -0.744 OA
ENDBRANCH  79  80
ENDBRANCH  51  74
BRANCH  63  84
ATOM     84  C   UNL A   1      43.254  34.514  32.960  1.00  0.00    -0.014 A 
ATOM     85  C   UNL A   1      43.080  34.567  34.333  1.00  0.00     0.010 A 
ATOM     86  C   UNL A   1      43.821  35.515  32.297  1.00  0.00     0.010 A 
ATOM     87  C   UNL A   1      43.280  35.855  34.886  1.00  0.00     0.020 A 
ATOM     88  C   UNL A   1      44.114  36.697  32.933  1.00  0.00     0.020 A 
ATOM     89  C   UNL A   1      43.914  36.841  34.278  1.00  0.00     0.054 A 
BRANCH  89  90
ATOM     90  S   UNL A   1      44.485  38.304  35.177  1.00  0.00     0.124 S 
ATOM     91  O   UNL A   1      44.103  38.178  36.653  1.00  0.00    -0.237 OA
ATOM     92  O   UNL A   1      46.007  38.419  35.051  1.00  0.00    -0.237 OA
ATOM     93  O   UNL A   1      43.752  39.701  34.517  1.00  0.00    -0.744 OA
ENDBRANCH  89  90
ENDBRANCH  63  84
ENDBRANCH  37  38
ENDBRANCH  29  32
ENDBRANCH   1  28
TORSDOF 15
ENDMDL
