MODEL 1
REMARK VINA RESULT:     -13.4      0.000      0.000
REMARK SMILES O=C(NCCCNC(=O)[C@@H]1[C@H](C(=O)Nc2ccc(Cn3cncn3)cc2)[C@@H]2C=C[C@H]1CC2)c1ccc(-c2c3nc(c(-c4ccc(S(=O)(=O)[O-])cc4)c4ccc([nH]4)c(-c4ccc(S(=O)(=O)[O-])cc4)c4nc(c(-c5ccc(S(=O)(=O)[O-])cc5)c5ccc2[nH]5)C=C4)C=C3)cc1
REMARK SMILES IDX 5 1 4 2 3 3 1 4 2 5 33 7 34 8 92 9 35 10 91 11 36 12 37 13
REMARK SMILES IDX 38 14 85 15 39 16 90 17 84 18 86 19 40 20 89 21 83 22 82 23
REMARK SMILES IDX 41 25 71 26 52 27 70 28 53 29 56 30 69 31 87 32 54 33 55 34
REMARK SMILES IDX 68 36 88 37 57 38 42 39 43 40 51 41 44 42 50 43 45 44 46 45
REMARK SMILES IDX 47 46 48 47 49 48 72 49 73 50 81 51 74 52 80 53 75 54 76 55
REMARK SMILES IDX 77 56 78 57 79 58 58 59 59 60 67 61 60 62 66 63 61 64 62 65
REMARK SMILES IDX 63 66 64 67 65 68 6 69 7 70 8 71 9 73 10 74 11 75 30 76
REMARK SMILES IDX 27 77 29 78 31 79 28 80 32 81 12 82 13 83 14 84 15 86 16 87
REMARK SMILES IDX 26 88 17 89 25 90 18 91 19 92 20 93 21 94 24 95 22 96 23 97
REMARK H PARENT 3 6 86 24 56 35 7 72 14 85
REMARK Flexibility Score: inf
ROOT
ATOM      1  C   UNL A   1      32.504  29.713  27.100  1.00  0.00     0.042 C 
ENDROOT
BRANCH   1   2
ATOM      2  C   UNL A   1      32.759  31.228  27.182  1.00  0.00     0.118 C 
BRANCH   2   3
ATOM      3  N   UNL A   1      33.660  31.607  28.260  1.00  0.00    -0.352 N 
ATOM      4  O   UNL A   1      34.801  33.496  27.722  1.00  0.00    -0.269 OA
ATOM      5  C   UNL A   1      34.823  32.294  27.973  1.00  0.00     0.251 C 
ATOM      6  H   UNL A   1      33.443  31.372  29.191  1.00  0.00     0.163 HD
BRANCH   5   7
ATOM      7  C   UNL A   1      36.095  31.543  28.146  1.00  0.00     0.039 A 
ATOM      8  C   UNL A   1      36.203  30.183  27.839  1.00  0.00     0.014 A 
ATOM      9  C   UNL A   1      37.181  32.211  28.725  1.00  0.00     0.014 A 
ATOM     10  C   UNL A   1      37.371  29.488  28.161  1.00  0.00     0.010 A 
ATOM     11  C   UNL A   1      38.320  31.503  29.107  1.00  0.00     0.010 A 
ATOM     12  C   UNL A   1      38.420  30.138  28.829  1.00  0.00    -0.014 A 
BRANCH  12  13
ATOM     13  C   UNL A   1      39.726  29.475  28.897  1.00  0.00     0.031 A 
ATOM     14  C   UNL A   1      40.117  29.154  30.294  1.00  0.00     0.074 A 
ATOM     15  C   UNL A   1      40.533  29.048  27.905  1.00  0.00     0.049 A 
ATOM     16  N   UNL A   1      40.897  29.841  31.060  1.00  0.00    -0.248 NA
ATOM     17  C   UNL A   1      39.437  28.035  30.962  1.00  0.00     0.031 C 
ATOM     18  C   UNL A   1      40.262  28.933  26.475  1.00  0.00     0.029 A 
ATOM     19  N   UNL A   1      41.798  28.533  28.022  1.00  0.00    -0.354 N 
ATOM     20  C   UNL A   1      40.960  29.133  32.254  1.00  0.00     0.074 A 
ATOM     21  C   UNL A   1      39.886  28.171  32.209  1.00  0.00     0.031 C 
ATOM     22  C   UNL A   1      41.248  28.203  25.892  1.00  0.00     0.029 A 
ATOM     23  C   UNL A   1      42.286  27.918  26.875  1.00  0.00     0.049 A 
ATOM     24  H   UNL A   1      42.321  28.593  28.854  1.00  0.00     0.167 HD
ATOM     25  C   UNL A   1      42.033  29.209  33.088  1.00  0.00     0.031 A 
ATOM     26  C   UNL A   1      43.435  27.200  26.767  1.00  0.00     0.031 A 
ATOM     27  C   UNL A   1      42.936  30.268  32.715  1.00  0.00     0.049 A 
ATOM     28  C   UNL A   1      44.326  27.603  27.883  1.00  0.00     0.074 A 
ATOM     29  C   UNL A   1      42.829  31.634  32.541  1.00  0.00     0.029 A 
ATOM     30  N   UNL A   1      44.100  29.896  32.084  1.00  0.00    -0.354 N 
ATOM     31  N   UNL A   1      44.899  28.769  27.966  1.00  0.00    -0.248 NA
ATOM     32  C   UNL A   1      44.303  26.832  29.116  1.00  0.00     0.031 C 
ATOM     33  C   UNL A   1      43.672  31.934  31.431  1.00  0.00     0.029 A 
ATOM     34  C   UNL A   1      44.285  30.748  31.025  1.00  0.00     0.049 A 
ATOM     35  H   UNL A   1      44.692  29.153  32.343  1.00  0.00     0.167 HD
ATOM     36  C   UNL A   1      44.912  29.061  29.320  1.00  0.00     0.074 A 
ATOM     37  C   UNL A   1      44.638  27.790  29.983  1.00  0.00     0.031 C 
ATOM     38  C   UNL A   1      44.872  30.354  29.762  1.00  0.00     0.031 A 
BRANCH  25  39
ATOM     39  C   UNL A   1      42.465  28.083  33.993  1.00  0.00    -0.014 A 
ATOM     40  C   UNL A   1      42.368  28.255  35.388  1.00  0.00     0.010 A 
ATOM     41  C   UNL A   1      43.202  26.971  33.536  1.00  0.00     0.010 A 
ATOM     42  C   UNL A   1      43.020  27.387  36.274  1.00  0.00     0.020 A 
ATOM     43  C   UNL A   1      43.810  26.069  34.409  1.00  0.00     0.020 A 
ATOM     44  C   UNL A   1      43.745  26.305  35.774  1.00  0.00     0.054 A 
BRANCH  44  45
ATOM     45  S   UNL A   1      44.657  25.241  36.917  1.00  0.00     0.124 S 
ATOM     46  O   UNL A   1      44.207  23.914  36.513  1.00  0.00    -0.237 OA
ATOM     47  O   UNL A   1      46.045  25.567  36.601  1.00  0.00    -0.237 OA
ATOM     48  O   UNL A   1      44.202  25.686  38.233  1.00  0.00    -0.744 OA
ENDBRANCH  44  45
ENDBRANCH  25  39
BRANCH  26  49
ATOM     49  C   UNL A   1      43.759  26.024  25.918  1.00  0.00    -0.014 A 
ATOM     50  C   UNL A   1      45.093  25.732  25.562  1.00  0.00     0.010 A 
ATOM     51  C   UNL A   1      42.798  25.013  25.727  1.00  0.00     0.010 A 
ATOM     52  C   UNL A   1      45.464  24.454  25.110  1.00  0.00     0.020 A 
ATOM     53  C   UNL A   1      43.159  23.738  25.269  1.00  0.00     0.020 A 
ATOM     54  C   UNL A   1      44.496  23.455  24.991  1.00  0.00     0.054 A 
BRANCH  54  55
ATOM     55  S   UNL A   1      45.010  21.752  24.609  1.00  0.00     0.124 S 
ATOM     56  O   UNL A   1      46.452  21.804  24.831  1.00  0.00    -0.237 OA
ATOM     57  O   UNL A   1      44.250  20.965  25.576  1.00  0.00    -0.237 OA
ATOM     58  O   UNL A   1      44.603  21.575  23.216  1.00  0.00    -0.744 OA
ENDBRANCH  54  55
ENDBRANCH  26  49
BRANCH  38  59
ATOM     59  C   UNL A   1      45.227  31.462  28.799  1.00  0.00    -0.014 A 
ATOM     60  C   UNL A   1      46.527  31.967  28.609  1.00  0.00     0.010 A 
ATOM     61  C   UNL A   1      44.196  31.943  27.968  1.00  0.00     0.010 A 
ATOM     62  C   UNL A   1      46.779  32.957  27.647  1.00  0.00     0.020 A 
ATOM     63  C   UNL A   1      44.445  32.910  26.992  1.00  0.00     0.020 A 
ATOM     64  C   UNL A   1      45.732  33.422  26.845  1.00  0.00     0.054 A 
BRANCH  64  65
ATOM     65  S   UNL A   1      46.073  34.679  25.582  1.00  0.00     0.124 S 
ATOM     66  O   UNL A   1      47.499  34.500  25.332  1.00  0.00    -0.237 OA
ATOM     67  O   UNL A   1      45.186  34.287  24.490  1.00  0.00    -0.237 OA
ATOM     68  O   UNL A   1      45.712  35.938  26.238  1.00  0.00    -0.744 OA
ENDBRANCH  64  65
ENDBRANCH  38  59
ENDBRANCH  12  13
ENDBRANCH   5   7
ENDBRANCH   2   3
ENDBRANCH   1   2
BRANCH   1  69
ATOM     69  C   UNL A   1      33.473  28.980  26.173  1.00  0.00     0.117 C 
BRANCH  69  70
ATOM     70  N   UNL A   1      33.706  27.575  26.450  1.00  0.00    -0.356 N 
ATOM     71  C   UNL A   1      33.410  26.488  25.679  1.00  0.00     0.224 C 
ATOM     72  H   UNL A   1      34.137  27.378  27.312  1.00  0.00     0.163 HD
ATOM     73  O   UNL A   1      34.231  25.562  25.739  1.00  0.00    -0.275 OA
BRANCH  71  74
ATOM     74  C   UNL A   1      32.117  26.265  24.872  1.00  0.00     0.098 C 
ATOM     75  C   UNL A   1      32.208  25.355  23.596  1.00  0.00     0.098 C 
ATOM     76  C   UNL A   1      30.968  27.310  24.695  1.00  0.00     0.025 C 
ATOM     77  C   UNL A   1      31.003  25.665  22.652  1.00  0.00     0.025 C 
ATOM     78  C   UNL A   1      30.985  27.970  23.330  1.00  0.00    -0.027 C 
ATOM     79  C   UNL A   1      29.632  26.506  24.643  1.00  0.00     0.009 C 
ATOM     80  C   UNL A   1      31.000  27.127  22.282  1.00  0.00    -0.027 C 
ATOM     81  C   UNL A   1      29.687  25.480  23.468  1.00  0.00     0.009 C 
BRANCH  75  82
ATOM     82  C   UNL A   1      33.526  24.978  22.859  1.00  0.00     0.228 C 
ATOM     83  O   UNL A   1      34.046  25.842  22.130  1.00  0.00    -0.274 OA
ATOM     84  N   UNL A   1      34.300  23.865  23.048  1.00  0.00    -0.326 N 
ATOM     85  H   UNL A   1      35.226  23.977  22.733  1.00  0.00     0.169 HD
BRANCH  84  86
ATOM     86  C   UNL A   1      34.053  22.602  23.594  1.00  0.00     0.041 A 
ATOM     87  C   UNL A   1      34.992  21.944  24.382  1.00  0.00     0.026 A 
ATOM     88  C   UNL A   1      32.882  21.943  23.330  1.00  0.00     0.026 A 
ATOM     89  C   UNL A   1      34.645  20.747  25.039  1.00  0.00     0.008 A 
ATOM     90  C   UNL A   1      32.518  20.759  23.961  1.00  0.00     0.008 A 
ATOM     91  C   UNL A   1      33.373  20.175  24.878  1.00  0.00    -0.026 A 
BRANCH  91  92
ATOM     92  C   UNL A   1      32.847  19.020  25.691  1.00  0.00     0.181 C 
BRANCH  92  93
ATOM     93  N   UNL A   1      33.107  17.748  25.064  1.00  0.00    -0.249 N 
ATOM     94  C   UNL A   1      33.899  17.495  23.993  1.00  0.00     0.220 A 
ATOM     95  N   UNL A   1      32.598  16.615  25.561  1.00  0.00    -0.160 NA
ATOM     96  N   UNL A   1      33.940  16.202  23.770  1.00  0.00    -0.224 NA
ATOM     97  C   UNL A   1      33.154  15.700  24.765  1.00  0.00     0.246 A 
ENDBRANCH  92  93
ENDBRANCH  91  92
ENDBRANCH  84  86
ENDBRANCH  75  82
ENDBRANCH  71  74
ENDBRANCH  69  70
ENDBRANCH   1  69
TORSDOF 17
ENDMDL
MODEL 2
REMARK VINA RESULT:     -13.3      3.483      8.014
REMARK SMILES O=C(NCCCNC(=O)[C@@H]1[C@H](C(=O)Nc2ccc(Cn3cncn3)cc2)[C@@H]2C=C[C@H]1CC2)c1ccc(-c2c3nc(c(-c4ccc(S(=O)(=O)[O-])cc4)c4ccc([nH]4)c(-c4ccc(S(=O)(=O)[O-])cc4)c4nc(c(-c5ccc(S(=O)(=O)[O-])cc5)c5ccc2[nH]5)C=C4)C=C3)cc1
REMARK SMILES IDX 5 1 4 2 3 3 1 4 2 5 33 7 34 8 92 9 35 10 91 11 36 12 37 13
REMARK SMILES IDX 38 14 85 15 39 16 90 17 84 18 86 19 40 20 89 21 83 22 82 23
REMARK SMILES IDX 41 25 71 26 52 27 70 28 53 29 56 30 69 31 87 32 54 33 55 34
REMARK SMILES IDX 68 36 88 37 57 38 42 39 43 40 51 41 44 42 50 43 45 44 46 45
REMARK SMILES IDX 47 46 48 47 49 48 72 49 73 50 81 51 74 52 80 53 75 54 76 55
REMARK SMILES IDX 77 56 78 57 79 58 58 59 59 60 67 61 60 62 66 63 61 64 62 65
REMARK SMILES IDX 63 66 64 67 65 68 6 69 7 70 8 71 9 73 10 74 11 75 30 76
REMARK SMILES IDX 27 77 29 78 31 79 28 80 32 81 12 82 13 83 14 84 15 86 16 87
REMARK SMILES IDX 26 88 17 89 25 90 18 91 19 92 20 93 21 94 24 95 22 96 23 97
REMARK H PARENT 3 6 86 24 56 35 7 72 14 85
REMARK Flexibility Score: inf
ROOT
ATOM      1  C   UNL A   1      34.725  21.455  26.871  1.00  0.00     0.042 C 
ENDROOT
BRANCH   1   2
ATOM      2  C   UNL A   1      34.836  21.054  25.389  1.00  0.00     0.118 C 
BRANCH   2   3
ATOM      3  N   UNL A   1      36.052  21.534  24.748  1.00  0.00    -0.352 N 
ATOM      4  O   UNL A   1      37.640  19.909  24.731  1.00  0.00    -0.269 OA
ATOM      5  C   UNL A   1      37.276  21.014  25.123  1.00  0.00     0.251 C 
ATOM      6  H   UNL A   1      36.003  22.227  24.050  1.00  0.00     0.163 HD
BRANCH   5   7
ATOM      7  C   UNL A   1      38.177  21.926  25.877  1.00  0.00     0.039 A 
ATOM      8  C   UNL A   1      37.924  23.297  25.989  1.00  0.00     0.014 A 
ATOM      9  C   UNL A   1      39.360  21.393  26.405  1.00  0.00     0.014 A 
ATOM     10  C   UNL A   1      38.877  24.133  26.576  1.00  0.00     0.010 A 
ATOM     11  C   UNL A   1      40.338  22.237  26.931  1.00  0.00     0.010 A 
ATOM     12  C   UNL A   1      40.101  23.612  27.017  1.00  0.00    -0.014 A 
BRANCH  12  13
ATOM     13  C   UNL A   1      40.950  24.443  27.876  1.00  0.00     0.031 A 
ATOM     14  C   UNL A   1      40.333  25.765  28.158  1.00  0.00     0.074 A 
ATOM     15  C   UNL A   1      42.110  24.147  28.496  1.00  0.00     0.049 A 
ATOM     16  N   UNL A   1      40.576  26.882  27.555  1.00  0.00    -0.248 NA
ATOM     17  C   UNL A   1      39.208  25.816  29.103  1.00  0.00     0.031 C 
ATOM     18  C   UNL A   1      42.765  22.852  28.664  1.00  0.00     0.029 A 
ATOM     19  N   UNL A   1      42.922  24.998  29.200  1.00  0.00    -0.354 N 
ATOM     20  C   UNL A   1      39.767  27.822  28.180  1.00  0.00     0.074 A 
ATOM     21  C   UNL A   1      38.807  27.077  28.955  1.00  0.00     0.031 C 
ATOM     22  C   UNL A   1      43.757  22.973  29.583  1.00  0.00     0.029 A 
ATOM     23  C   UNL A   1      43.899  24.373  29.964  1.00  0.00     0.049 A 
ATOM     24  H   UNL A   1      42.820  25.976  29.167  1.00  0.00     0.167 HD
ATOM     25  C   UNL A   1      40.090  29.145  28.220  1.00  0.00     0.031 A 
ATOM     26  C   UNL A   1      44.727  24.967  30.864  1.00  0.00     0.031 A 
ATOM     27  C   UNL A   1      41.193  29.461  27.350  1.00  0.00     0.049 A 
ATOM     28  C   UNL A   1      44.791  26.411  30.535  1.00  0.00     0.074 A 
ATOM     29  C   UNL A   1      41.451  29.322  26.001  1.00  0.00     0.029 A 
ATOM     30  N   UNL A   1      42.414  29.670  27.949  1.00  0.00    -0.354 N 
ATOM     31  N   UNL A   1      45.378  26.886  29.474  1.00  0.00    -0.248 NA
ATOM     32  C   UNL A   1      43.881  27.327  31.204  1.00  0.00     0.031 C 
ATOM     33  C   UNL A   1      42.834  28.988  25.919  1.00  0.00     0.029 A 
ATOM     34  C   UNL A   1      43.354  28.995  27.214  1.00  0.00     0.049 A 
ATOM     35  H   UNL A   1      42.582  30.206  28.758  1.00  0.00     0.167 HD
ATOM     36  C   UNL A   1      44.602  27.969  29.094  1.00  0.00     0.074 A 
ATOM     37  C   UNL A   1      43.766  28.259  30.255  1.00  0.00     0.031 C 
ATOM     38  C   UNL A   1      44.518  28.351  27.785  1.00  0.00     0.031 A 
BRANCH  25  39
ATOM     39  C   UNL A   1      39.671  30.069  29.336  1.00  0.00    -0.014 A 
ATOM     40  C   UNL A   1      40.230  29.890  30.616  1.00  0.00     0.010 A 
ATOM     41  C   UNL A   1      38.563  30.937  29.238  1.00  0.00     0.010 A 
ATOM     42  C   UNL A   1      39.673  30.504  31.745  1.00  0.00     0.020 A 
ATOM     43  C   UNL A   1      38.033  31.597  30.346  1.00  0.00     0.020 A 
ATOM     44  C   UNL A   1      38.571  31.347  31.600  1.00  0.00     0.054 A 
BRANCH  44  45
ATOM     45  S   UNL A   1      37.802  32.066  33.070  1.00  0.00     0.124 S 
ATOM     46  O   UNL A   1      37.865  33.493  32.772  1.00  0.00    -0.237 OA
ATOM     47  O   UNL A   1      36.470  31.469  33.046  1.00  0.00    -0.237 OA
ATOM     48  O   UNL A   1      38.663  31.613  34.161  1.00  0.00    -0.744 OA
ENDBRANCH  44  45
ENDBRANCH  25  39
BRANCH  26  49
ATOM     49  C   UNL A   1      45.300  24.447  32.133  1.00  0.00    -0.014 A 
ATOM     50  C   UNL A   1      46.395  25.088  32.751  1.00  0.00     0.010 A 
ATOM     51  C   UNL A   1      44.572  23.518  32.901  1.00  0.00     0.010 A 
ATOM     52  C   UNL A   1      46.699  24.869  34.105  1.00  0.00     0.020 A 
ATOM     53  C   UNL A   1      44.874  23.289  34.252  1.00  0.00     0.020 A 
ATOM     54  C   UNL A   1      45.918  23.988  34.855  1.00  0.00     0.054 A 
BRANCH  54  55
ATOM     55  S   UNL A   1      46.181  23.867  36.652  1.00  0.00     0.124 S 
ATOM     56  O   UNL A   1      45.825  25.206  37.110  1.00  0.00    -0.237 OA
ATOM     57  O   UNL A   1      45.261  22.801  37.038  1.00  0.00    -0.237 OA
ATOM     58  O   UNL A   1      47.599  23.528  36.769  1.00  0.00    -0.744 OA
ENDBRANCH  54  55
ENDBRANCH  26  49
BRANCH  38  59
ATOM     59  C   UNL A   1      45.573  27.867  26.818  1.00  0.00    -0.014 A 
ATOM     60  C   UNL A   1      45.391  26.818  25.898  1.00  0.00     0.010 A 
ATOM     61  C   UNL A   1      46.781  28.589  26.775  1.00  0.00     0.010 A 
ATOM     62  C   UNL A   1      46.405  26.474  24.991  1.00  0.00     0.020 A 
ATOM     63  C   UNL A   1      47.785  28.268  25.859  1.00  0.00     0.020 A 
ATOM     64  C   UNL A   1      47.598  27.203  24.981  1.00  0.00     0.054 A 
BRANCH  64  65
ATOM     65  S   UNL A   1      48.891  26.771  23.784  1.00  0.00     0.124 S 
ATOM     66  O   UNL A   1      48.978  27.974  22.963  1.00  0.00    -0.237 OA
ATOM     67  O   UNL A   1      50.045  26.504  24.638  1.00  0.00    -0.237 OA
ATOM     68  O   UNL A   1      48.352  25.593  23.100  1.00  0.00    -0.744 OA
ENDBRANCH  64  65
ENDBRANCH  38  59
ENDBRANCH  12  13
ENDBRANCH   5   7
ENDBRANCH   2   3
ENDBRANCH   1   2
BRANCH   1  69
ATOM     69  C   UNL A   1      33.285  21.642  27.346  1.00  0.00     0.117 C 
BRANCH  69  70
ATOM     70  N   UNL A   1      32.746  22.988  27.288  1.00  0.00    -0.356 N 
ATOM     71  C   UNL A   1      32.040  23.587  26.285  1.00  0.00     0.224 C 
ATOM     72  H   UNL A   1      32.913  23.546  28.081  1.00  0.00     0.163 HD
ATOM     73  O   UNL A   1      31.157  24.371  26.660  1.00  0.00    -0.275 OA
BRANCH  71  74
ATOM     74  C   UNL A   1      32.326  23.479  24.775  1.00  0.00     0.098 C 
ATOM     75  C   UNL A   1      33.430  24.424  24.179  1.00  0.00     0.098 C 
ATOM     76  C   UNL A   1      31.270  23.139  23.675  1.00  0.00     0.025 C 
ATOM     77  C   UNL A   1      33.216  24.560  22.638  1.00  0.00     0.025 C 
ATOM     78  C   UNL A   1      30.835  24.360  22.887  1.00  0.00    -0.027 C 
ATOM     79  C   UNL A   1      32.009  22.304  22.584  1.00  0.00     0.009 C 
ATOM     80  C   UNL A   1      31.832  25.087  22.353  1.00  0.00    -0.027 C 
ATOM     81  C   UNL A   1      33.208  23.128  22.020  1.00  0.00     0.009 C 
BRANCH  75  82
ATOM     82  C   UNL A   1      33.979  25.705  24.871  1.00  0.00     0.228 C 
ATOM     83  O   UNL A   1      35.044  25.604  25.506  1.00  0.00    -0.274 OA
ATOM     84  N   UNL A   1      33.534  26.990  24.723  1.00  0.00    -0.326 N 
ATOM     85  H   UNL A   1      34.202  27.666  24.980  1.00  0.00     0.169 HD
BRANCH  84  86
ATOM     86  C   UNL A   1      32.329  27.547  24.284  1.00  0.00     0.041 A 
ATOM     87  C   UNL A   1      32.271  28.419  23.202  1.00  0.00     0.026 A 
ATOM     88  C   UNL A   1      31.157  27.285  24.942  1.00  0.00     0.026 A 
ATOM     89  C   UNL A   1      31.023  28.834  22.696  1.00  0.00     0.008 A 
ATOM     90  C   UNL A   1      29.913  27.687  24.468  1.00  0.00     0.008 A 
ATOM     91  C   UNL A   1      29.825  28.416  23.296  1.00  0.00    -0.026 A 
BRANCH  91  92
ATOM     92  C   UNL A   1      28.454  28.639  22.710  1.00  0.00     0.181 C 
BRANCH  92  93
ATOM     93  N   UNL A   1      28.222  30.023  22.377  1.00  0.00    -0.249 N 
ATOM     94  C   UNL A   1      27.957  31.049  23.223  1.00  0.00     0.220 A 
ATOM     95  N   UNL A   1      28.314  30.455  21.114  1.00  0.00    -0.160 NA
ATOM     96  N   UNL A   1      27.883  32.171  22.546  1.00  0.00    -0.224 NA
ATOM     97  C   UNL A   1      28.133  31.768  21.267  1.00  0.00     0.246 A 
ENDBRANCH  92  93
ENDBRANCH  91  92
ENDBRANCH  84  86
ENDBRANCH  75  82
ENDBRANCH  71  74
ENDBRANCH  69  70
ENDBRANCH   1  69
TORSDOF 17
ENDMDL
MODEL 3
REMARK VINA RESULT:     -13.2      2.004      4.641
REMARK SMILES O=C(NCCCNC(=O)[C@@H]1[C@H](C(=O)Nc2ccc(Cn3cncn3)cc2)[C@@H]2C=C[C@H]1CC2)c1ccc(-c2c3nc(c(-c4ccc(S(=O)(=O)[O-])cc4)c4ccc([nH]4)c(-c4ccc(S(=O)(=O)[O-])cc4)c4nc(c(-c5ccc(S(=O)(=O)[O-])cc5)c5ccc2[nH]5)C=C4)C=C3)cc1
REMARK SMILES IDX 5 1 4 2 3 3 1 4 2 5 33 7 34 8 92 9 35 10 91 11 36 12 37 13
REMARK SMILES IDX 38 14 85 15 39 16 90 17 84 18 86 19 40 20 89 21 83 22 82 23
REMARK SMILES IDX 41 25 71 26 52 27 70 28 53 29 56 30 69 31 87 32 54 33 55 34
REMARK SMILES IDX 68 36 88 37 57 38 42 39 43 40 51 41 44 42 50 43 45 44 46 45
REMARK SMILES IDX 47 46 48 47 49 48 72 49 73 50 81 51 74 52 80 53 75 54 76 55
REMARK SMILES IDX 77 56 78 57 79 58 58 59 59 60 67 61 60 62 66 63 61 64 62 65
REMARK SMILES IDX 63 66 64 67 65 68 6 69 7 70 8 71 9 73 10 74 11 75 30 76
REMARK SMILES IDX 27 77 29 78 31 79 28 80 32 81 12 82 13 83 14 84 15 86 16 87
REMARK SMILES IDX 26 88 17 89 25 90 18 91 19 92 20 93 21 94 24 95 22 96 23 97
REMARK H PARENT 3 6 86 24 56 35 7 72 14 85
REMARK Flexibility Score: inf
ROOT
ATOM      1  C   UNL A   1      32.133  28.531  27.006  1.00  0.00     0.042 C 
ENDROOT
BRANCH   1   2
ATOM      2  C   UNL A   1      32.883  29.845  26.727  1.00  0.00     0.118 C 
BRANCH   2   3
ATOM      3  N   UNL A   1      33.582  30.372  27.889  1.00  0.00    -0.352 N 
ATOM      4  O   UNL A   1      34.504  32.394  27.419  1.00  0.00    -0.269 OA
ATOM      5  C   UNL A   1      34.663  31.214  27.717  1.00  0.00     0.251 C 
ATOM      6  H   UNL A   1      33.286  30.128  28.796  1.00  0.00     0.163 HD
BRANCH   5   7
ATOM      7  C   UNL A   1      35.996  30.657  28.070  1.00  0.00     0.039 A 
ATOM      8  C   UNL A   1      36.263  29.285  28.032  1.00  0.00     0.014 A 
ATOM      9  C   UNL A   1      36.975  31.541  28.543  1.00  0.00     0.014 A 
ATOM     10  C   UNL A   1      37.480  28.799  28.518  1.00  0.00     0.010 A 
ATOM     11  C   UNL A   1      38.161  31.051  29.087  1.00  0.00     0.010 A 
ATOM     12  C   UNL A   1      38.418  29.677  29.079  1.00  0.00    -0.014 A 
BRANCH  12  13
ATOM     13  C   UNL A   1      39.782  29.192  29.313  1.00  0.00     0.031 A 
ATOM     14  C   UNL A   1      40.113  29.131  30.760  1.00  0.00     0.074 A 
ATOM     15  C   UNL A   1      40.695  28.721  28.440  1.00  0.00     0.049 A 
ATOM     16  N   UNL A   1      40.761  30.012  31.447  1.00  0.00    -0.248 NA
ATOM     17  C   UNL A   1      39.517  28.052  31.561  1.00  0.00     0.031 C 
ATOM     18  C   UNL A   1      40.532  28.362  27.033  1.00  0.00     0.029 A 
ATOM     19  N   UNL A   1      41.999  28.381  28.697  1.00  0.00    -0.354 N 
ATOM     20  C   UNL A   1      40.822  29.502  32.738  1.00  0.00     0.074 A 
ATOM     21  C   UNL A   1      39.866  28.425  32.791  1.00  0.00     0.031 C 
ATOM     22  C   UNL A   1      41.629  27.675  26.620  1.00  0.00     0.029 A 
ATOM     23  C   UNL A   1      42.625  27.665  27.685  1.00  0.00     0.049 A 
ATOM     24  H   UNL A   1      42.456  28.627  29.533  1.00  0.00     0.167 HD
ATOM     25  C   UNL A   1      41.824  29.829  33.601  1.00  0.00     0.031 A 
ATOM     26  C   UNL A   1      43.851  27.080  27.745  1.00  0.00     0.031 A 
ATOM     27  C   UNL A   1      42.627  30.920  33.111  1.00  0.00     0.049 A 
ATOM     28  C   UNL A   1      44.617  27.747  28.826  1.00  0.00     0.074 A 
ATOM     29  C   UNL A   1      42.383  32.222  32.721  1.00  0.00     0.029 A 
ATOM     30  N   UNL A   1      43.864  30.598  32.603  1.00  0.00    -0.354 N 
ATOM     31  N   UNL A   1      45.052  28.972  28.755  1.00  0.00    -0.248 NA
ATOM     32  C   UNL A   1      44.596  27.172  30.162  1.00  0.00     0.031 C 
ATOM     33  C   UNL A   1      43.259  32.451  31.621  1.00  0.00     0.029 A 
ATOM     34  C   UNL A   1      44.024  31.298  31.435  1.00  0.00     0.049 A 
ATOM     35  H   UNL A   1      44.516  29.978  33.003  1.00  0.00     0.167 HD
ATOM     36  C   UNL A   1      44.943  29.463  30.046  1.00  0.00     0.074 A 
ATOM     37  C   UNL A   1      44.767  28.281  30.884  1.00  0.00     0.031 C 
ATOM     38  C   UNL A   1      44.733  30.792  30.278  1.00  0.00     0.031 A 
BRANCH  25  39
ATOM     39  C   UNL A   1      42.316  28.910  34.690  1.00  0.00    -0.014 A 
ATOM     40  C   UNL A   1      42.493  29.426  35.989  1.00  0.00     0.010 A 
ATOM     41  C   UNL A   1      42.856  27.633  34.431  1.00  0.00     0.010 A 
ATOM     42  C   UNL A   1      43.219  28.722  36.958  1.00  0.00     0.020 A 
ATOM     43  C   UNL A   1      43.535  26.899  35.403  1.00  0.00     0.020 A 
ATOM     44  C   UNL A   1      43.743  27.465  36.652  1.00  0.00     0.054 A 
BRANCH  44  45
ATOM     45  S   UNL A   1      44.754  26.601  37.877  1.00  0.00     0.124 S 
ATOM     46  O   UNL A   1      45.918  27.476  37.972  1.00  0.00    -0.237 OA
ATOM     47  O   UNL A   1      43.876  26.581  39.043  1.00  0.00    -0.237 OA
ATOM     48  O   UNL A   1      44.995  25.298  37.262  1.00  0.00    -0.744 OA
ENDBRANCH  44  45
ENDBRANCH  25  39
BRANCH  26  49
ATOM     49  C   UNL A   1      44.356  25.837  27.106  1.00  0.00    -0.014 A 
ATOM     50  C   UNL A   1      43.973  24.567  27.589  1.00  0.00     0.010 A 
ATOM     51  C   UNL A   1      44.954  25.896  25.833  1.00  0.00     0.010 A 
ATOM     52  C   UNL A   1      44.107  23.415  26.795  1.00  0.00     0.020 A 
ATOM     53  C   UNL A   1      45.098  24.749  25.038  1.00  0.00     0.020 A 
ATOM     54  C   UNL A   1      44.646  23.518  25.512  1.00  0.00     0.054 A 
BRANCH  54  55
ATOM     55  S   UNL A   1      44.625  22.069  24.412  1.00  0.00     0.124 S 
ATOM     56  O   UNL A   1      46.018  21.633  24.443  1.00  0.00    -0.237 OA
ATOM     57  O   UNL A   1      43.671  21.182  25.072  1.00  0.00    -0.237 OA
ATOM     58  O   UNL A   1      44.175  22.615  23.133  1.00  0.00    -0.744 OA
ENDBRANCH  54  55
ENDBRANCH  26  49
BRANCH  38  59
ATOM     59  C   UNL A   1      45.027  31.779  29.172  1.00  0.00    -0.014 A 
ATOM     60  C   UNL A   1      46.237  32.485  29.035  1.00  0.00     0.010 A 
ATOM     61  C   UNL A   1      44.056  31.916  28.162  1.00  0.00     0.010 A 
ATOM     62  C   UNL A   1      46.450  33.337  27.940  1.00  0.00     0.020 A 
ATOM     63  C   UNL A   1      44.271  32.743  27.057  1.00  0.00     0.020 A 
ATOM     64  C   UNL A   1      45.462  33.460  26.959  1.00  0.00     0.054 A 
BRANCH  64  65
ATOM     65  S   UNL A   1      45.759  34.539  25.531  1.00  0.00     0.124 S 
ATOM     66  O   UNL A   1      45.428  35.859  26.056  1.00  0.00    -0.237 OA
ATOM     67  O   UNL A   1      47.172  34.310  25.243  1.00  0.00    -0.237 OA
ATOM     68  O   UNL A   1      44.839  34.028  24.513  1.00  0.00    -0.744 OA
ENDBRANCH  64  65
ENDBRANCH  38  59
ENDBRANCH  12  13
ENDBRANCH   5   7
ENDBRANCH   2   3
ENDBRANCH   1   2
BRANCH   1  69
ATOM     69  C   UNL A   1      32.839  27.295  26.451  1.00  0.00     0.117 C 
BRANCH  69  70
ATOM     70  N   UNL A   1      32.013  26.129  26.196  1.00  0.00    -0.356 N 
ATOM     71  C   UNL A   1      32.378  24.815  26.141  1.00  0.00     0.224 C 
ATOM     72  H   UNL A   1      31.058  26.310  26.043  1.00  0.00     0.163 HD
ATOM     73  O   UNL A   1      31.539  24.017  26.584  1.00  0.00    -0.275 OA
BRANCH  71  74
ATOM     74  C   UNL A   1      33.645  24.245  25.473  1.00  0.00     0.098 C 
ATOM     75  C   UNL A   1      33.482  23.591  24.056  1.00  0.00     0.098 C 
ATOM     76  C   UNL A   1      34.848  23.589  26.225  1.00  0.00     0.025 C 
ATOM     77  C   UNL A   1      34.689  22.636  23.786  1.00  0.00     0.025 C 
ATOM     78  C   UNL A   1      34.848  22.077  26.117  1.00  0.00    -0.027 C 
ATOM     79  C   UNL A   1      36.135  23.964  25.426  1.00  0.00     0.009 C 
ATOM     80  C   UNL A   1      34.769  21.588  24.867  1.00  0.00    -0.027 C 
ATOM     81  C   UNL A   1      36.004  23.456  23.957  1.00  0.00     0.009 C 
BRANCH  75  82
ATOM     82  C   UNL A   1      32.134  23.119  23.437  1.00  0.00     0.228 C 
ATOM     83  O   UNL A   1      31.998  21.904  23.212  1.00  0.00    -0.274 OA
ATOM     84  N   UNL A   1      30.991  23.852  23.270  1.00  0.00    -0.326 N 
ATOM     85  H   UNL A   1      30.183  23.296  23.172  1.00  0.00     0.169 HD
BRANCH  84  86
ATOM     86  C   UNL A   1      30.726  25.223  23.209  1.00  0.00     0.041 A 
ATOM     87  C   UNL A   1      29.568  25.775  23.747  1.00  0.00     0.026 A 
ATOM     88  C   UNL A   1      31.587  26.073  22.568  1.00  0.00     0.026 A 
ATOM     89  C   UNL A   1      29.414  27.174  23.803  1.00  0.00     0.008 A 
ATOM     90  C   UNL A   1      31.455  27.457  22.603  1.00  0.00     0.008 A 
ATOM     91  C   UNL A   1      30.394  28.032  23.280  1.00  0.00    -0.026 A 
BRANCH  91  92
ATOM     92  C   UNL A   1      30.413  29.526  23.475  1.00  0.00     0.181 C 
BRANCH  92  93
ATOM     93  N   UNL A   1      29.337  30.181  22.774  1.00  0.00    -0.249 N 
ATOM     94  C   UNL A   1      28.468  31.104  23.257  1.00  0.00     0.220 A 
ATOM     95  N   UNL A   1      29.126  29.961  21.471  1.00  0.00    -0.160 NA
ATOM     96  N   UNL A   1      27.683  31.518  22.291  1.00  0.00    -0.224 NA
ATOM     97  C   UNL A   1      28.134  30.816  21.213  1.00  0.00     0.246 A 
ENDBRANCH  92  93
ENDBRANCH  91  92
ENDBRANCH  84  86
ENDBRANCH  75  82
ENDBRANCH  71  74
ENDBRANCH  69  70
ENDBRANCH   1  69
TORSDOF 17
ENDMDL
