MODEL 1
REMARK VINA RESULT:      -9.9      0.000      0.000
REMARK SMILES CC[C@@H](COC)NC(=O)N1CC[C@H](C(=O)NCCCNC(=O)c2ccc(-c3c4nc(c(-c5ccc(S(=O)(=O)[O-])cc5)c5ccc([nH]5)c(-c5ccc(S(=O)(=O)[O-])cc5)c5nc(c(-c6ccc(S(=O)(=O)[O-])cc6)c6ccc3[nH]6)C=C5)C=C4)cc2)[C@@H]1C
REMARK SMILES IDX 17 1 16 2 14 3 15 4 13 6 10 7 11 8 83 9 12 10 84 11 8 12
REMARK SMILES IDX 7 13 9 15 3 16 2 17 1 18 4 19 5 20 6 21 18 22 19 23 20 24
REMARK SMILES IDX 21 25 22 27 23 28 24 29 82 30 25 31 81 32 26 33 27 34 28 35
REMARK SMILES IDX 75 36 29 37 80 38 74 39 76 40 30 41 79 42 73 43 72 44 31 46
REMARK SMILES IDX 61 47 42 48 60 49 43 50 46 51 59 52 77 53 44 54 45 55 58 57
REMARK SMILES IDX 78 58 47 59 32 60 33 61 41 62 34 63 40 64 35 65 36 66 37 67
REMARK SMILES IDX 38 68 39 69 62 70 63 71 71 72 64 73 70 74 65 75 66 76 67 77
REMARK SMILES IDX 68 78 69 79 48 80 49 81 57 82 50 83 56 84 51 85 52 86 53 87
REMARK SMILES IDX 54 88 55 89
REMARK H PARENT 16 5 7 14 20 26 76 45 46 56
REMARK Flexibility Score: inf
ROOT
ATOM      1  C   UNL A   1      34.116  24.556  25.389  1.00  0.00     0.117 C 
ENDROOT
BRANCH   1   2
ATOM      2  N   UNL A   1      32.975  24.353  26.257  1.00  0.00    -0.356 N 
ATOM      3  C   UNL A   1      32.194  23.272  26.485  1.00  0.00     0.225 C 
ATOM      4  O   UNL A   1      31.330  23.390  27.362  1.00  0.00    -0.275 OA
ATOM      5  H   UNL A   1      32.719  25.150  26.776  1.00  0.00     0.163 HD
BRANCH   3   6
ATOM      6  C   UNL A   1      32.348  21.940  25.773  1.00  0.00     0.102 C 
ATOM      7  N   UNL A   1      34.177  20.580  25.090  1.00  0.00    -0.321 N 
ATOM      8  C   UNL A   1      33.873  21.419  23.956  1.00  0.00     0.122 C 
ATOM      9  C   UNL A   1      33.430  20.982  26.293  1.00  0.00     0.096 C 
ATOM     10  C   UNL A   1      32.480  21.940  24.248  1.00  0.00     0.037 C 
ATOM     11  C   UNL A   1      34.324  21.471  27.431  1.00  0.00     0.032 C 
BRANCH   7  12
ATOM     12  C   UNL A   1      35.213  19.700  25.007  1.00  0.00     0.317 C 
ATOM     13  N   UNL A   1      34.931  18.377  24.951  1.00  0.00    -0.333 N 
ATOM     14  H   UNL A   1      35.637  17.774  25.277  1.00  0.00     0.165 HD
ATOM     15  O   UNL A   1      36.382  20.065  24.902  1.00  0.00    -0.249 OA
BRANCH  13  16
ATOM     16  C   UNL A   1      33.711  17.729  24.469  1.00  0.00     0.109 C 
BRANCH  16  17
ATOM     17  C   UNL A   1      33.662  17.735  22.933  1.00  0.00     0.024 C 
ATOM     18  C   UNL A   1      32.339  18.267  22.396  1.00  0.00     0.006 C 
ENDBRANCH  16  17
BRANCH  16  19
ATOM     19  C   UNL A   1      33.541  16.372  25.174  1.00  0.00     0.184 C 
BRANCH  19  20
ATOM     20  O   UNL A   1      32.335  16.245  25.929  1.00  0.00    -0.383 OA
ATOM     21  C   UNL A   1      31.994  14.912  26.271  1.00  0.00     0.194 C 
ENDBRANCH  19  20
ENDBRANCH  16  19
ENDBRANCH  13  16
ENDBRANCH   7  12
ENDBRANCH   3   6
ENDBRANCH   1   2
BRANCH   1  22
ATOM     22  C   UNL A   1      35.421  24.088  26.015  1.00  0.00     0.042 C 
BRANCH  22  23
ATOM     23  C   UNL A   1      36.537  23.888  25.001  1.00  0.00     0.118 C 
BRANCH  23  24
ATOM     24  N   UNL A   1      37.445  22.821  25.392  1.00  0.00    -0.352 N 
ATOM     25  C   UNL A   1      38.639  22.893  26.066  1.00  0.00     0.251 C 
ATOM     26  H   UNL A   1      37.162  21.914  25.136  1.00  0.00     0.163 HD
ATOM     27  O   UNL A   1      39.370  21.909  26.110  1.00  0.00    -0.269 OA
BRANCH  25  28
ATOM     28  C   UNL A   1      39.048  24.156  26.719  1.00  0.00     0.039 A 
ATOM     29  C   UNL A   1      38.604  24.419  28.017  1.00  0.00     0.014 A 
ATOM     30  C   UNL A   1      39.854  25.084  26.053  1.00  0.00     0.014 A 
ATOM     31  C   UNL A   1      39.019  25.584  28.667  1.00  0.00     0.010 A 
ATOM     32  C   UNL A   1      40.333  26.200  26.732  1.00  0.00     0.010 A 
ATOM     33  C   UNL A   1      39.916  26.466  28.043  1.00  0.00    -0.014 A 
BRANCH  33  34
ATOM     34  C   UNL A   1      40.433  27.667  28.748  1.00  0.00     0.031 A 
ATOM     35  C   UNL A   1      41.814  27.658  29.347  1.00  0.00     0.074 A 
ATOM     36  C   UNL A   1      39.635  28.744  28.898  1.00  0.00     0.049 A 
ATOM     37  N   UNL A   1      42.413  28.585  30.049  1.00  0.00    -0.248 NA
ATOM     38  C   UNL A   1      42.620  26.441  29.152  1.00  0.00     0.031 C 
ATOM     39  C   UNL A   1      38.265  28.860  28.393  1.00  0.00     0.029 A 
ATOM     40  N   UNL A   1      39.859  29.945  29.524  1.00  0.00    -0.354 N 
ATOM     41  C   UNL A   1      43.655  28.061  30.389  1.00  0.00     0.074 A 
ATOM     42  C   UNL A   1      43.705  26.716  29.862  1.00  0.00     0.031 C 
ATOM     43  C   UNL A   1      37.783  30.074  28.705  1.00  0.00     0.029 A 
ATOM     44  C   UNL A   1      38.787  30.804  29.471  1.00  0.00     0.049 A 
ATOM     45  H   UNL A   1      40.709  30.170  29.969  1.00  0.00     0.167 HD
ATOM     46  C   UNL A   1      44.670  28.654  31.062  1.00  0.00     0.031 A 
ATOM     47  C   UNL A   1      38.624  32.036  29.991  1.00  0.00     0.031 A 
ATOM     48  C   UNL A   1      44.618  29.996  31.578  1.00  0.00     0.049 A 
ATOM     49  C   UNL A   1      39.756  32.660  30.759  1.00  0.00     0.074 A 
ATOM     50  C   UNL A   1      45.612  30.705  32.229  1.00  0.00     0.029 A 
ATOM     51  N   UNL A   1      43.514  30.832  31.504  1.00  0.00    -0.354 N 
ATOM     52  N   UNL A   1      40.947  32.172  31.014  1.00  0.00    -0.248 NA
ATOM     53  C   UNL A   1      39.527  34.005  31.305  1.00  0.00     0.031 C 
ATOM     54  C   UNL A   1      45.089  31.947  32.603  1.00  0.00     0.029 A 
ATOM     55  C   UNL A   1      43.792  32.038  32.125  1.00  0.00     0.049 A 
ATOM     56  H   UNL A   1      42.659  30.601  31.075  1.00  0.00     0.167 HD
ATOM     57  C   UNL A   1      41.618  33.161  31.724  1.00  0.00     0.074 A 
ATOM     58  C   UNL A   1      40.707  34.281  31.843  1.00  0.00     0.031 C 
ATOM     59  C   UNL A   1      42.873  33.144  32.235  1.00  0.00     0.031 A 
BRANCH  46  60
ATOM     60  C   UNL A   1      45.927  27.853  31.282  1.00  0.00    -0.014 A 
ATOM     61  C   UNL A   1      46.964  27.853  30.332  1.00  0.00     0.010 A 
ATOM     62  C   UNL A   1      46.102  27.139  32.482  1.00  0.00     0.010 A 
ATOM     63  C   UNL A   1      48.137  27.129  30.561  1.00  0.00     0.020 A 
ATOM     64  C   UNL A   1      47.285  26.438  32.729  1.00  0.00     0.020 A 
ATOM     65  C   UNL A   1      48.291  26.425  31.760  1.00  0.00     0.054 A 
BRANCH  65  66
ATOM     66  S   UNL A   1      49.839  25.526  32.046  1.00  0.00     0.124 S 
ATOM     67  O   UNL A   1      50.145  25.023  30.710  1.00  0.00    -0.237 OA
ATOM     68  O   UNL A   1      50.729  26.572  32.541  1.00  0.00    -0.237 OA
ATOM     69  O   UNL A   1      49.474  24.506  33.026  1.00  0.00    -0.744 OA
ENDBRANCH  65  66
ENDBRANCH  46  60
BRANCH  47  70
ATOM     70  C   UNL A   1      37.337  32.762  29.804  1.00  0.00    -0.014 A 
ATOM     71  C   UNL A   1      36.333  32.709  30.787  1.00  0.00     0.010 A 
ATOM     72  C   UNL A   1      37.107  33.512  28.636  1.00  0.00     0.010 A 
ATOM     73  C   UNL A   1      35.116  33.368  30.595  1.00  0.00     0.020 A 
ATOM     74  C   UNL A   1      35.904  34.199  28.454  1.00  0.00     0.020 A 
ATOM     75  C   UNL A   1      34.908  34.109  29.428  1.00  0.00     0.054 A 
BRANCH  75  76
ATOM     76  S   UNL A   1      33.332  34.982  29.214  1.00  0.00     0.124 S 
ATOM     77  O   UNL A   1      32.661  34.155  28.217  1.00  0.00    -0.237 OA
ATOM     78  O   UNL A   1      32.765  34.942  30.559  1.00  0.00    -0.237 OA
ATOM     79  O   UNL A   1      33.737  36.310  28.757  1.00  0.00    -0.744 OA
ENDBRANCH  75  76
ENDBRANCH  47  70
BRANCH  59  80
ATOM     80  C   UNL A   1      43.354  34.385  32.942  1.00  0.00    -0.014 A 
ATOM     81  C   UNL A   1      43.278  34.501  34.340  1.00  0.00     0.010 A 
ATOM     82  C   UNL A   1      43.946  35.421  32.197  1.00  0.00     0.010 A 
ATOM     83  C   UNL A   1      43.760  35.647  34.979  1.00  0.00     0.020 A 
ATOM     84  C   UNL A   1      44.457  36.554  32.834  1.00  0.00     0.020 A 
ATOM     85  C   UNL A   1      44.349  36.665  34.222  1.00  0.00     0.054 A 
BRANCH  85  86
ATOM     86  S   UNL A   1      45.012  38.118  35.082  1.00  0.00     0.124 S 
ATOM     87  O   UNL A   1      44.960  39.138  34.039  1.00  0.00    -0.237 OA
ATOM     88  O   UNL A   1      44.069  38.295  36.184  1.00  0.00    -0.237 OA
ATOM     89  O   UNL A   1      46.355  37.702  35.481  1.00  0.00    -0.744 OA
ENDBRANCH  85  86
ENDBRANCH  59  80
ENDBRANCH  33  34
ENDBRANCH  25  28
ENDBRANCH  23  24
ENDBRANCH  22  23
ENDBRANCH   1  22
TORSDOF 18
ENDMDL
MODEL 2
REMARK VINA RESULT:      -9.7      4.386     10.131
REMARK SMILES CC[C@@H](COC)NC(=O)N1CC[C@H](C(=O)NCCCNC(=O)c2ccc(-c3c4nc(c(-c5ccc(S(=O)(=O)[O-])cc5)c5ccc([nH]5)c(-c5ccc(S(=O)(=O)[O-])cc5)c5nc(c(-c6ccc(S(=O)(=O)[O-])cc6)c6ccc3[nH]6)C=C5)C=C4)cc2)[C@@H]1C
REMARK SMILES IDX 17 1 16 2 14 3 15 4 13 6 10 7 11 8 83 9 12 10 84 11 8 12
REMARK SMILES IDX 7 13 9 15 3 16 2 17 1 18 4 19 5 20 6 21 18 22 19 23 20 24
REMARK SMILES IDX 21 25 22 27 23 28 24 29 82 30 25 31 81 32 26 33 27 34 28 35
REMARK SMILES IDX 75 36 29 37 80 38 74 39 76 40 30 41 79 42 73 43 72 44 31 46
REMARK SMILES IDX 61 47 42 48 60 49 43 50 46 51 59 52 77 53 44 54 45 55 58 57
REMARK SMILES IDX 78 58 47 59 32 60 33 61 41 62 34 63 40 64 35 65 36 66 37 67
REMARK SMILES IDX 38 68 39 69 62 70 63 71 71 72 64 73 70 74 65 75 66 76 67 77
REMARK SMILES IDX 68 78 69 79 48 80 49 81 57 82 50 83 56 84 51 85 52 86 53 87
REMARK SMILES IDX 54 88 55 89
REMARK H PARENT 16 5 7 14 20 26 76 45 46 56
REMARK Flexibility Score: inf
ROOT
ATOM      1  C   UNL A   1      32.814  29.699  27.116  1.00  0.00     0.117 C 
ENDROOT
BRANCH   1   2
ATOM      2  N   UNL A   1      31.979  30.010  25.974  1.00  0.00    -0.356 N 
ATOM      3  C   UNL A   1      31.437  29.229  25.011  1.00  0.00     0.225 C 
ATOM      4  O   UNL A   1      30.688  29.789  24.202  1.00  0.00    -0.275 OA
ATOM      5  H   UNL A   1      31.768  30.968  25.880  1.00  0.00     0.163 HD
BRANCH   3   6
ATOM      6  C   UNL A   1      31.655  27.730  24.902  1.00  0.00     0.102 C 
ATOM      7  N   UNL A   1      32.505  26.254  23.241  1.00  0.00    -0.321 N 
ATOM      8  C   UNL A   1      31.078  26.301  23.025  1.00  0.00     0.122 C 
ATOM      9  C   UNL A   1      32.949  27.252  24.227  1.00  0.00     0.096 C 
ATOM     10  C   UNL A   1      30.531  26.872  24.318  1.00  0.00     0.037 C 
ATOM     11  C   UNL A   1      33.880  28.313  23.645  1.00  0.00     0.032 C 
BRANCH   7  12
ATOM     12  C   UNL A   1      33.278  25.498  22.413  1.00  0.00     0.317 C 
ATOM     13  N   UNL A   1      33.834  24.367  22.906  1.00  0.00    -0.333 N 
ATOM     14  H   UNL A   1      34.657  24.064  22.458  1.00  0.00     0.165 HD
ATOM     15  O   UNL A   1      33.422  25.764  21.221  1.00  0.00    -0.249 OA
BRANCH  13  16
ATOM     16  C   UNL A   1      33.370  23.538  24.018  1.00  0.00     0.109 C 
BRANCH  16  17
ATOM     17  C   UNL A   1      32.068  22.809  23.647  1.00  0.00     0.024 C 
ATOM     18  C   UNL A   1      32.249  21.864  22.466  1.00  0.00     0.006 C 
ENDBRANCH  16  17
BRANCH  16  19
ATOM     19  C   UNL A   1      34.537  22.677  24.534  1.00  0.00     0.184 C 
BRANCH  19  20
ATOM     20  O   UNL A   1      34.150  21.634  25.430  1.00  0.00    -0.383 OA
ATOM     21  C   UNL A   1      34.631  21.790  26.755  1.00  0.00     0.194 C 
ENDBRANCH  19  20
ENDBRANCH  16  19
ENDBRANCH  13  16
ENDBRANCH   7  12
ENDBRANCH   3   6
ENDBRANCH   1   2
BRANCH   1  22
ATOM     22  C   UNL A   1      34.149  30.427  27.084  1.00  0.00     0.042 C 
BRANCH  22  23
ATOM     23  C   UNL A   1      35.178  29.836  28.036  1.00  0.00     0.118 C 
BRANCH  23  24
ATOM     24  N   UNL A   1      35.277  30.598  29.272  1.00  0.00    -0.352 N 
ATOM     25  C   UNL A   1      36.326  30.698  30.153  1.00  0.00     0.251 C 
ATOM     26  H   UNL A   1      34.476  31.117  29.512  1.00  0.00     0.163 HD
ATOM     27  O   UNL A   1      36.144  31.212  31.253  1.00  0.00    -0.269 OA
BRANCH  25  28
ATOM     28  C   UNL A   1      37.659  30.174  29.786  1.00  0.00     0.039 A 
ATOM     29  C   UNL A   1      38.032  30.162  28.440  1.00  0.00     0.014 A 
ATOM     30  C   UNL A   1      38.534  29.683  30.760  1.00  0.00     0.014 A 
ATOM     31  C   UNL A   1      39.305  29.714  28.079  1.00  0.00     0.010 A 
ATOM     32  C   UNL A   1      39.829  29.317  30.408  1.00  0.00     0.010 A 
ATOM     33  C   UNL A   1      40.227  29.322  29.064  1.00  0.00    -0.014 A 
BRANCH  33  34
ATOM     34  C   UNL A   1      41.612  28.922  28.707  1.00  0.00     0.031 A 
ATOM     35  C   UNL A   1      42.713  29.947  28.673  1.00  0.00     0.074 A 
ATOM     36  C   UNL A   1      41.864  27.644  28.357  1.00  0.00     0.049 A 
ATOM     37  N   UNL A   1      43.966  29.800  28.328  1.00  0.00    -0.248 NA
ATOM     38  C   UNL A   1      42.356  31.324  29.056  1.00  0.00     0.031 C 
ATOM     39  C   UNL A   1      40.874  26.565  28.317  1.00  0.00     0.029 A 
ATOM     40  N   UNL A   1      43.031  27.036  27.963  1.00  0.00    -0.354 N 
ATOM     41  C   UNL A   1      44.541  31.061  28.438  1.00  0.00     0.074 A 
ATOM     42  C   UNL A   1      43.491  31.971  28.833  1.00  0.00     0.031 C 
ATOM     43  C   UNL A   1      41.480  25.425  27.948  1.00  0.00     0.029 A 
ATOM     44  C   UNL A   1      42.888  25.699  27.679  1.00  0.00     0.049 A 
ATOM     45  H   UNL A   1      43.888  27.514  27.891  1.00  0.00     0.167 HD
ATOM     46  C   UNL A   1      45.833  31.422  28.249  1.00  0.00     0.031 A 
ATOM     47  C   UNL A   1      43.785  24.794  27.239  1.00  0.00     0.031 A 
ATOM     48  C   UNL A   1      46.877  30.509  27.863  1.00  0.00     0.049 A 
ATOM     49  C   UNL A   1      45.206  25.229  27.008  1.00  0.00     0.074 A 
ATOM     50  C   UNL A   1      48.225  30.769  27.695  1.00  0.00     0.029 A 
ATOM     51  N   UNL A   1      46.690  29.164  27.585  1.00  0.00    -0.354 N 
ATOM     52  N   UNL A   1      45.744  26.413  27.182  1.00  0.00    -0.248 NA
ATOM     53  C   UNL A   1      46.144  24.205  26.530  1.00  0.00     0.031 C 
ATOM     54  C   UNL A   1      48.844  29.594  27.256  1.00  0.00     0.029 A 
ATOM     55  C   UNL A   1      47.893  28.587  27.216  1.00  0.00     0.049 A 
ATOM     56  H   UNL A   1      45.829  28.690  27.640  1.00  0.00     0.167 HD
ATOM     57  C   UNL A   1      47.089  26.269  26.860  1.00  0.00     0.074 A 
ATOM     58  C   UNL A   1      47.286  24.879  26.500  1.00  0.00     0.031 C 
ATOM     59  C   UNL A   1      48.073  27.201  26.861  1.00  0.00     0.031 A 
BRANCH  46  60
ATOM     60  C   UNL A   1      46.192  32.871  28.452  1.00  0.00    -0.014 A 
ATOM     61  C   UNL A   1      46.078  33.802  27.404  1.00  0.00     0.010 A 
ATOM     62  C   UNL A   1      46.591  33.322  29.724  1.00  0.00     0.010 A 
ATOM     63  C   UNL A   1      46.388  35.148  27.614  1.00  0.00     0.020 A 
ATOM     64  C   UNL A   1      46.873  34.673  29.946  1.00  0.00     0.020 A 
ATOM     65  C   UNL A   1      46.783  35.576  28.885  1.00  0.00     0.054 A 
BRANCH  65  66
ATOM     66  S   UNL A   1      47.141  37.336  29.135  1.00  0.00     0.124 S 
ATOM     67  O   UNL A   1      46.833  37.507  30.552  1.00  0.00    -0.237 OA
ATOM     68  O   UNL A   1      48.555  37.428  28.785  1.00  0.00    -0.237 OA
ATOM     69  O   UNL A   1      46.228  38.011  28.214  1.00  0.00    -0.744 OA
ENDBRANCH  65  66
ENDBRANCH  46  60
BRANCH  47  70
ATOM     70  C   UNL A   1      43.367  23.387  26.987  1.00  0.00    -0.014 A 
ATOM     71  C   UNL A   1      43.075  22.522  28.056  1.00  0.00     0.010 A 
ATOM     72  C   UNL A   1      43.261  22.902  25.670  1.00  0.00     0.010 A 
ATOM     73  C   UNL A   1      42.713  21.194  27.816  1.00  0.00     0.020 A 
ATOM     74  C   UNL A   1      42.868  21.584  25.425  1.00  0.00     0.020 A 
ATOM     75  C   UNL A   1      42.612  20.733  26.501  1.00  0.00     0.054 A 
BRANCH  75  76
ATOM     76  S   UNL A   1      42.108  19.014  26.212  1.00  0.00     0.124 S 
ATOM     77  O   UNL A   1      42.341  18.407  27.519  1.00  0.00    -0.237 OA
ATOM     78  O   UNL A   1      40.709  19.157  25.818  1.00  0.00    -0.237 OA
ATOM     79  O   UNL A   1      43.005  18.569  25.147  1.00  0.00    -0.744 OA
ENDBRANCH  75  76
ENDBRANCH  47  70
BRANCH  59  80
ATOM     80  C   UNL A   1      49.461  26.748  26.492  1.00  0.00    -0.014 A 
ATOM     81  C   UNL A   1      50.331  26.208  27.455  1.00  0.00     0.010 A 
ATOM     82  C   UNL A   1      49.877  26.809  25.149  1.00  0.00     0.010 A 
ATOM     83  C   UNL A   1      51.604  25.764  27.086  1.00  0.00     0.020 A 
ATOM     84  C   UNL A   1      51.135  26.337  24.770  1.00  0.00     0.020 A 
ATOM     85  C   UNL A   1      51.997  25.829  25.745  1.00  0.00     0.054 A 
BRANCH  85  86
ATOM     86  S   UNL A   1      53.634  25.197  25.285  1.00  0.00     0.124 S 
ATOM     87  O   UNL A   1      54.483  25.768  26.326  1.00  0.00    -0.237 OA
ATOM     88  O   UNL A   1      53.446  23.749  25.350  1.00  0.00    -0.237 OA
ATOM     89  O   UNL A   1      53.847  25.731  23.942  1.00  0.00    -0.744 OA
ENDBRANCH  85  86
ENDBRANCH  59  80
ENDBRANCH  33  34
ENDBRANCH  25  28
ENDBRANCH  23  24
ENDBRANCH  22  23
ENDBRANCH   1  22
TORSDOF 18
ENDMDL
MODEL 3
REMARK VINA RESULT:      -9.5      3.415      5.066
REMARK SMILES CC[C@@H](COC)NC(=O)N1CC[C@H](C(=O)NCCCNC(=O)c2ccc(-c3c4nc(c(-c5ccc(S(=O)(=O)[O-])cc5)c5ccc([nH]5)c(-c5ccc(S(=O)(=O)[O-])cc5)c5nc(c(-c6ccc(S(=O)(=O)[O-])cc6)c6ccc3[nH]6)C=C5)C=C4)cc2)[C@@H]1C
REMARK SMILES IDX 17 1 16 2 14 3 15 4 13 6 10 7 11 8 83 9 12 10 84 11 8 12
REMARK SMILES IDX 7 13 9 15 3 16 2 17 1 18 4 19 5 20 6 21 18 22 19 23 20 24
REMARK SMILES IDX 21 25 22 27 23 28 24 29 82 30 25 31 81 32 26 33 27 34 28 35
REMARK SMILES IDX 75 36 29 37 80 38 74 39 76 40 30 41 79 42 73 43 72 44 31 46
REMARK SMILES IDX 61 47 42 48 60 49 43 50 46 51 59 52 77 53 44 54 45 55 58 57
REMARK SMILES IDX 78 58 47 59 32 60 33 61 41 62 34 63 40 64 35 65 36 66 37 67
REMARK SMILES IDX 38 68 39 69 62 70 63 71 71 72 64 73 70 74 65 75 66 76 67 77
REMARK SMILES IDX 68 78 69 79 48 80 49 81 57 82 50 83 56 84 51 85 52 86 53 87
REMARK SMILES IDX 54 88 55 89
REMARK H PARENT 16 5 7 14 20 26 76 45 46 56
REMARK Flexibility Score: inf
ROOT
ATOM      1  C   UNL A   1      37.149  22.710  26.113  1.00  0.00     0.117 C 
ENDROOT
BRANCH   1   2
ATOM      2  N   UNL A   1      36.387  21.526  25.775  1.00  0.00    -0.356 N 
ATOM      3  C   UNL A   1      35.121  21.365  25.325  1.00  0.00     0.225 C 
ATOM      4  O   UNL A   1      34.778  20.210  25.043  1.00  0.00    -0.275 OA
ATOM      5  H   UNL A   1      36.881  20.683  25.894  1.00  0.00     0.163 HD
BRANCH   3   6
ATOM      6  C   UNL A   1      34.138  22.502  25.108  1.00  0.00     0.102 C 
ATOM      7  N   UNL A   1      32.053  23.148  26.053  1.00  0.00    -0.321 N 
ATOM      8  C   UNL A   1      31.725  22.331  24.908  1.00  0.00     0.122 C 
ATOM      9  C   UNL A   1      33.492  23.125  26.355  1.00  0.00     0.096 C 
ATOM     10  C   UNL A   1      33.006  22.302  24.099  1.00  0.00     0.037 C 
ATOM     11  C   UNL A   1      33.822  22.504  27.711  1.00  0.00     0.032 C 
BRANCH   7  12
ATOM     12  C   UNL A   1      31.046  23.649  26.822  1.00  0.00     0.317 C 
ATOM     13  N   UNL A   1      30.864  24.990  26.849  1.00  0.00    -0.333 N 
ATOM     14  H   UNL A   1      30.433  25.347  27.659  1.00  0.00     0.165 HD
ATOM     15  O   UNL A   1      30.255  22.927  27.425  1.00  0.00    -0.249 OA
BRANCH  13  16
ATOM     16  C   UNL A   1      31.226  25.976  25.831  1.00  0.00     0.109 C 
BRANCH  16  17
ATOM     17  C   UNL A   1      30.014  26.318  24.950  1.00  0.00     0.024 C 
ATOM     18  C   UNL A   1      29.985  25.504  23.662  1.00  0.00     0.006 C 
ENDBRANCH  16  17
BRANCH  16  19
ATOM     19  C   UNL A   1      31.967  27.149  26.497  1.00  0.00     0.184 C 
BRANCH  19  20
ATOM     20  O   UNL A   1      33.266  27.407  25.962  1.00  0.00    -0.383 OA
ATOM     21  C   UNL A   1      33.630  26.573  24.875  1.00  0.00     0.194 C 
ENDBRANCH  19  20
ENDBRANCH  16  19
ENDBRANCH  13  16
ENDBRANCH   7  12
ENDBRANCH   3   6
ENDBRANCH   1   2
BRANCH   1  22
ATOM     22  C   UNL A   1      38.651  22.492  26.012  1.00  0.00     0.042 C 
BRANCH  22  23
ATOM     23  C   UNL A   1      39.462  23.535  26.764  1.00  0.00     0.118 C 
BRANCH  23  24
ATOM     24  N   UNL A   1      40.767  23.753  26.158  1.00  0.00    -0.352 N 
ATOM     25  C   UNL A   1      41.623  24.819  26.287  1.00  0.00     0.251 C 
ATOM     26  H   UNL A   1      41.083  23.030  25.570  1.00  0.00     0.163 HD
ATOM     27  O   UNL A   1      42.578  24.923  25.525  1.00  0.00    -0.269 OA
BRANCH  25  28
ATOM     28  C   UNL A   1      41.383  25.844  27.326  1.00  0.00     0.039 A 
ATOM     29  C   UNL A   1      40.426  25.594  28.313  1.00  0.00     0.014 A 
ATOM     30  C   UNL A   1      42.085  27.053  27.322  1.00  0.00     0.014 A 
ATOM     31  C   UNL A   1      40.219  26.529  29.329  1.00  0.00     0.010 A 
ATOM     32  C   UNL A   1      41.937  27.945  28.381  1.00  0.00     0.010 A 
ATOM     33  C   UNL A   1      40.998  27.696  29.392  1.00  0.00    -0.014 A 
BRANCH  33  34
ATOM     34  C   UNL A   1      40.851  28.663  30.509  1.00  0.00     0.031 A 
ATOM     35  C   UNL A   1      41.723  28.550  31.730  1.00  0.00     0.074 A 
ATOM     36  C   UNL A   1      39.890  29.608  30.447  1.00  0.00     0.049 A 
ATOM     37  N   UNL A   1      41.700  29.261  32.828  1.00  0.00    -0.248 NA
ATOM     38  C   UNL A   1      42.741  27.485  31.729  1.00  0.00     0.031 C 
ATOM     39  C   UNL A   1      38.958  29.797  29.333  1.00  0.00     0.029 A 
ATOM     40  N   UNL A   1      39.533  30.584  31.344  1.00  0.00    -0.354 N 
ATOM     41  C   UNL A   1      42.685  28.724  33.649  1.00  0.00     0.074 A 
ATOM     42  C   UNL A   1      43.253  27.596  32.946  1.00  0.00     0.031 C 
ATOM     43  C   UNL A   1      38.157  30.840  29.600  1.00  0.00     0.029 A 
ATOM     44  C   UNL A   1      38.484  31.365  30.922  1.00  0.00     0.049 A 
ATOM     45  H   UNL A   1      39.987  30.711  32.209  1.00  0.00     0.167 HD
ATOM     46  C   UNL A   1      43.094  29.146  34.869  1.00  0.00     0.031 A 
ATOM     47  C   UNL A   1      37.845  32.381  31.534  1.00  0.00     0.031 A 
ATOM     48  C   UNL A   1      42.530  30.274  35.562  1.00  0.00     0.049 A 
ATOM     49  C   UNL A   1      38.300  32.811  32.903  1.00  0.00     0.074 A 
ATOM     50  C   UNL A   1      42.909  30.811  36.779  1.00  0.00     0.029 A 
ATOM     51  N   UNL A   1      41.469  31.038  35.101  1.00  0.00    -0.354 N 
ATOM     52  N   UNL A   1      39.277  32.331  33.635  1.00  0.00    -0.248 NA
ATOM     53  C   UNL A   1      37.571  33.925  33.525  1.00  0.00     0.031 C 
ATOM     54  C   UNL A   1      42.037  31.862  37.083  1.00  0.00     0.029 A 
ATOM     55  C   UNL A   1      41.159  32.022  36.024  1.00  0.00     0.049 A 
ATOM     56  H   UNL A   1      41.003  30.900  34.244  1.00  0.00     0.167 HD
ATOM     57  C   UNL A   1      39.298  33.102  34.791  1.00  0.00     0.074 A 
ATOM     58  C   UNL A   1      38.248  34.091  34.653  1.00  0.00     0.031 C 
ATOM     59  C   UNL A   1      40.111  33.000  35.871  1.00  0.00     0.031 A 
BRANCH  46  60
ATOM     60  C   UNL A   1      44.206  28.380  35.540  1.00  0.00    -0.014 A 
ATOM     61  C   UNL A   1      43.932  27.268  36.356  1.00  0.00     0.010 A 
ATOM     62  C   UNL A   1      45.545  28.739  35.303  1.00  0.00     0.010 A 
ATOM     63  C   UNL A   1      44.973  26.550  36.949  1.00  0.00     0.020 A 
ATOM     64  C   UNL A   1      46.592  28.005  35.870  1.00  0.00     0.020 A 
ATOM     65  C   UNL A   1      46.298  26.923  36.702  1.00  0.00     0.054 A 
BRANCH  65  66
ATOM     66  S   UNL A   1      47.629  25.948  37.454  1.00  0.00     0.124 S 
ATOM     67  O   UNL A   1      46.879  24.968  38.235  1.00  0.00    -0.237 OA
ATOM     68  O   UNL A   1      48.333  25.417  36.291  1.00  0.00    -0.237 OA
ATOM     69  O   UNL A   1      48.377  26.927  38.240  1.00  0.00    -0.744 OA
ENDBRANCH  65  66
ENDBRANCH  46  60
BRANCH  47  70
ATOM     70  C   UNL A   1      36.706  33.065  30.860  1.00  0.00    -0.014 A 
ATOM     71  C   UNL A   1      36.913  33.826  29.696  1.00  0.00     0.010 A 
ATOM     72  C   UNL A   1      35.404  32.959  31.382  1.00  0.00     0.010 A 
ATOM     73  C   UNL A   1      35.847  34.490  29.084  1.00  0.00     0.020 A 
ATOM     74  C   UNL A   1      34.330  33.595  30.754  1.00  0.00     0.020 A 
ATOM     75  C   UNL A   1      34.561  34.370  29.617  1.00  0.00     0.054 A 
BRANCH  75  76
ATOM     76  S   UNL A   1      33.187  35.215  28.786  1.00  0.00     0.124 S 
ATOM     77  O   UNL A   1      32.416  35.723  29.916  1.00  0.00    -0.237 OA
ATOM     78  O   UNL A   1      33.875  36.222  27.983  1.00  0.00    -0.237 OA
ATOM     79  O   UNL A   1      32.545  34.149  28.019  1.00  0.00    -0.744 OA
ENDBRANCH  75  76
ENDBRANCH  47  70
BRANCH  59  80
ATOM     80  C   UNL A   1      39.923  34.003  36.980  1.00  0.00    -0.014 A 
ATOM     81  C   UNL A   1      40.417  35.314  36.866  1.00  0.00     0.010 A 
ATOM     82  C   UNL A   1      39.190  33.642  38.124  1.00  0.00     0.010 A 
ATOM     83  C   UNL A   1      40.204  36.239  37.893  1.00  0.00     0.020 A 
ATOM     84  C   UNL A   1      38.947  34.571  39.138  1.00  0.00     0.020 A 
ATOM     85  C   UNL A   1      39.468  35.862  39.021  1.00  0.00     0.054 A 
BRANCH  85  86
ATOM     86  S   UNL A   1      39.162  37.097  40.314  1.00  0.00     0.124 S 
ATOM     87  O   UNL A   1      38.249  36.385  41.204  1.00  0.00    -0.237 OA
ATOM     88  O   UNL A   1      40.502  37.337  40.849  1.00  0.00    -0.237 OA
ATOM     89  O   UNL A   1      38.577  38.222  39.589  1.00  0.00    -0.744 OA
ENDBRANCH  85  86
ENDBRANCH  59  80
ENDBRANCH  33  34
ENDBRANCH  25  28
ENDBRANCH  23  24
ENDBRANCH  22  23
ENDBRANCH   1  22
TORSDOF 18
ENDMDL
