MODEL 1
REMARK VINA RESULT:     -11.7      0.000      0.000
REMARK SMILES CC(C)[NH2+][C@@]1(C(=O)NCCCNC(=O)c2ccc(-c3c4nc(c(-c5ccc(S(=O)(=O)[O-])cc5)c5ccc([nH]5)c(-c5ccc(S(=O)(=O)[O-])cc5)c5nc(c(-c6ccc(S(=O)(=O)[O-])cc6)c6ccc3[nH]6)C=C5)C=C4)cc2)CCC[C@@H]([NH+]2CCS(=O)CC2)C1
REMARK SMILES IDX 10 1 9 2 8 3 6 4 7 5 5 7 75 8 86 9 76 10 78 11 77 12 4 13
REMARK SMILES IDX 2 16 1 17 3 18 79 19 80 20 85 21 81 23 84 24 82 25 83 26
REMARK SMILES IDX 11 27 12 28 13 29 14 31 15 32 16 33 74 34 17 35 73 36 18 37
REMARK SMILES IDX 19 38 20 39 67 40 21 41 72 42 66 43 68 44 22 45 71 46 65 47
REMARK SMILES IDX 64 48 23 50 53 51 34 52 52 53 35 54 38 55 51 56 69 57 36 58
REMARK SMILES IDX 37 59 50 61 70 62 39 63 24 64 25 65 33 66 26 67 32 68 27 69
REMARK SMILES IDX 28 70 29 71 30 72 31 73 54 74 55 75 63 76 56 77 62 78 57 79
REMARK SMILES IDX 58 80 59 81 60 82 61 83 40 84 41 85 49 86 42 87 48 88 43 89
REMARK SMILES IDX 44 90 45 91 46 92 47 93
REMARK H PARENT 8 6 4 14 4 15 79 22 12 30 68 49 38 60
REMARK Flexibility Score: inf
ROOT
ATOM      1  C   UNL A   1      39.036  22.633  26.439  1.00  0.00     0.042 C 
ENDROOT
BRANCH   1   2
ATOM      2  C   UNL A   1      37.753  22.218  25.713  1.00  0.00     0.118 C 
BRANCH   2   3
ATOM      3  N   UNL A   1      37.416  23.099  24.610  1.00  0.00    -0.351 N 
ATOM      4  C   UNL A   1      36.290  23.023  23.848  1.00  0.00     0.281 C 
ATOM      5  O   UNL A   1      36.521  22.785  22.654  1.00  0.00    -0.268 OA
ATOM      6  H   UNL A   1      38.058  23.812  24.393  1.00  0.00     0.163 HD
BRANCH   4   7
ATOM      7  C   UNL A   1      34.806  23.240  24.398  1.00  0.00     0.181 C 
ATOM      8  C   UNL A   1      34.639  23.831  25.822  1.00  0.00     0.079 C 
ATOM      9  C   UNL A   1      34.083  21.896  24.372  1.00  0.00     0.144 C 
ATOM     10  C   UNL A   1      34.590  22.867  27.033  1.00  0.00     0.013 C 
ATOM     11  C   UNL A   1      34.774  20.938  25.357  1.00  0.00     0.190 C 
ATOM     12  C   UNL A   1      34.388  21.361  26.775  1.00  0.00     0.065 C 
BRANCH   7  13
ATOM     13  N   UNL A   1      34.055  24.189  23.484  1.00  0.00    -0.331 N 
ATOM     14  H   UNL A   1      33.719  24.963  24.057  1.00  0.00     0.347 HD
ATOM     15  H   UNL A   1      34.729  24.439  22.761  1.00  0.00     0.347 HD
BRANCH  13  16
ATOM     16  C   UNL A   1      32.897  23.652  22.746  1.00  0.00     0.176 C 
ATOM     17  C   UNL A   1      31.649  24.490  23.040  1.00  0.00     0.075 C 
ATOM     18  C   UNL A   1      33.169  23.695  21.236  1.00  0.00     0.075 C 
ENDBRANCH  13  16
ENDBRANCH   7  13
BRANCH  11  19
ATOM     19  N   UNL A   1      34.515  19.599  24.888  1.00  0.00    -0.331 N 
ATOM     20  C   UNL A   1      35.517  18.667  24.415  1.00  0.00     0.276 C 
ATOM     21  C   UNL A   1      33.231  19.413  24.195  1.00  0.00     0.276 C 
ATOM     22  H   UNL A   1      34.518  19.274  25.854  1.00  0.00     0.348 HD
ATOM     23  C   UNL A   1      35.140  17.286  24.963  1.00  0.00     0.166 C 
ATOM     24  C   UNL A   1      32.567  18.222  24.859  1.00  0.00     0.166 C 
ATOM     25  S   UNL A   1      33.478  16.700  24.465  1.00  0.00     0.032 S 
ATOM     26  O   UNL A   1      33.458  16.536  22.974  1.00  0.00    -0.259 OA
ENDBRANCH  11  19
ENDBRANCH   4   7
ENDBRANCH   2   3
ENDBRANCH   1   2
BRANCH   1  27
ATOM     27  C   UNL A   1      39.163  24.124  26.669  1.00  0.00     0.118 C 
BRANCH  27  28
ATOM     28  N   UNL A   1      40.259  24.694  25.904  1.00  0.00    -0.352 N 
ATOM     29  C   UNL A   1      40.898  25.903  26.049  1.00  0.00     0.251 C 
ATOM     30  H   UNL A   1      40.594  24.130  25.169  1.00  0.00     0.163 HD
ATOM     31  O   UNL A   1      41.590  26.329  25.132  1.00  0.00    -0.269 OA
BRANCH  29  32
ATOM     32  C   UNL A   1      40.749  26.682  27.300  1.00  0.00     0.039 A 
ATOM     33  C   UNL A   1      39.906  26.209  28.309  1.00  0.00     0.014 A 
ATOM     34  C   UNL A   1      41.407  27.903  27.460  1.00  0.00     0.014 A 
ATOM     35  C   UNL A   1      39.765  26.938  29.494  1.00  0.00     0.010 A 
ATOM     36  C   UNL A   1      41.360  28.563  28.681  1.00  0.00     0.010 A 
ATOM     37  C   UNL A   1      40.512  28.108  29.700  1.00  0.00    -0.014 A 
BRANCH  37  38
ATOM     38  C   UNL A   1      40.382  28.930  30.930  1.00  0.00     0.031 A 
ATOM     39  C   UNL A   1      39.345  30.025  30.976  1.00  0.00     0.074 A 
ATOM     40  C   UNL A   1      41.234  28.752  31.958  1.00  0.00     0.049 A 
ATOM     41  N   UNL A   1      39.157  30.950  31.881  1.00  0.00    -0.248 NA
ATOM     42  C   UNL A   1      38.420  30.115  29.830  1.00  0.00     0.031 C 
ATOM     43  C   UNL A   1      42.297  27.748  32.019  1.00  0.00     0.029 A 
ATOM     44  N   UNL A   1      41.346  29.426  33.149  1.00  0.00    -0.354 N 
ATOM     45  C   UNL A   1      38.123  31.745  31.398  1.00  0.00     0.074 A 
ATOM     46  C   UNL A   1      37.765  31.234  30.095  1.00  0.00     0.031 C 
ATOM     47  C   UNL A   1      42.936  27.853  33.197  1.00  0.00     0.029 A 
ATOM     48  C   UNL A   1      42.364  28.964  33.951  1.00  0.00     0.049 A 
ATOM     49  H   UNL A   1      40.755  30.170  33.406  1.00  0.00     0.167 HD
ATOM     50  C   UNL A   1      37.504  32.789  31.998  1.00  0.00     0.031 A 
ATOM     51  C   UNL A   1      42.795  29.396  35.153  1.00  0.00     0.031 A 
ATOM     52  C   UNL A   1      37.845  33.270  33.308  1.00  0.00     0.049 A 
ATOM     53  C   UNL A   1      42.099  30.568  35.794  1.00  0.00     0.074 A 
ATOM     54  C   UNL A   1      37.253  34.290  34.031  1.00  0.00     0.029 A 
ATOM     55  N   UNL A   1      38.865  32.757  34.095  1.00  0.00    -0.354 N 
ATOM     56  N   UNL A   1      41.092  31.278  35.343  1.00  0.00    -0.248 NA
ATOM     57  C   UNL A   1      42.589  30.989  37.114  1.00  0.00     0.031 C 
ATOM     58  C   UNL A   1      37.946  34.424  35.238  1.00  0.00     0.029 A 
ATOM     59  C   UNL A   1      38.926  33.445  35.294  1.00  0.00     0.049 A 
ATOM     60  H   UNL A   1      39.457  32.014  33.840  1.00  0.00     0.167 HD
ATOM     61  C   UNL A   1      40.801  32.201  36.342  1.00  0.00     0.074 A 
ATOM     62  C   UNL A   1      41.734  31.954  37.422  1.00  0.00     0.031 C 
ATOM     63  C   UNL A   1      39.848  33.165  36.366  1.00  0.00     0.031 A 
BRANCH  50  64
ATOM     64  C   UNL A   1      36.390  33.469  31.246  1.00  0.00    -0.014 A 
ATOM     65  C   UNL A   1      35.146  33.715  31.857  1.00  0.00     0.010 A 
ATOM     66  C   UNL A   1      36.598  33.906  29.925  1.00  0.00     0.010 A 
ATOM     67  C   UNL A   1      34.120  34.347  31.149  1.00  0.00     0.020 A 
ATOM     68  C   UNL A   1      35.586  34.568  29.224  1.00  0.00     0.020 A 
ATOM     69  C   UNL A   1      34.347  34.770  29.836  1.00  0.00     0.054 A 
BRANCH  69  70
ATOM     70  S   UNL A   1      33.007  35.620  28.957  1.00  0.00     0.124 S 
ATOM     71  O   UNL A   1      33.743  36.603  28.165  1.00  0.00    -0.237 OA
ATOM     72  O   UNL A   1      32.390  34.537  28.195  1.00  0.00    -0.237 OA
ATOM     73  O   UNL A   1      32.184  36.174  30.028  1.00  0.00    -0.744 OA
ENDBRANCH  69  70
ENDBRANCH  50  64
BRANCH  51  74
ATOM     74  C   UNL A   1      43.925  28.710  35.838  1.00  0.00    -0.014 A 
ATOM     75  C   UNL A   1      45.248  29.144  35.635  1.00  0.00     0.010 A 
ATOM     76  C   UNL A   1      43.692  27.618  36.693  1.00  0.00     0.010 A 
ATOM     77  C   UNL A   1      46.316  28.479  36.245  1.00  0.00     0.020 A 
ATOM     78  C   UNL A   1      44.754  26.969  37.331  1.00  0.00     0.020 A 
ATOM     79  C   UNL A   1      46.062  27.394  37.088  1.00  0.00     0.054 A 
BRANCH  79  80
ATOM     80  S   UNL A   1      47.464  26.566  37.891  1.00  0.00     0.124 S 
ATOM     81  O   UNL A   1      46.914  25.244  38.174  1.00  0.00    -0.237 OA
ATOM     82  O   UNL A   1      48.493  26.614  36.855  1.00  0.00    -0.237 OA
ATOM     83  O   UNL A   1      47.731  27.399  39.062  1.00  0.00    -0.744 OA
ENDBRANCH  79  80
ENDBRANCH  51  74
BRANCH  63  84
ATOM     84  C   UNL A   1      39.711  33.981  37.623  1.00  0.00    -0.014 A 
ATOM     85  C   UNL A   1      38.933  33.540  38.706  1.00  0.00     0.010 A 
ATOM     86  C   UNL A   1      40.445  35.177  37.745  1.00  0.00     0.010 A 
ATOM     87  C   UNL A   1      38.872  34.293  39.881  1.00  0.00     0.020 A 
ATOM     88  C   UNL A   1      40.410  35.916  38.928  1.00  0.00     0.020 A 
ATOM     89  C   UNL A   1      39.614  35.474  39.986  1.00  0.00     0.054 A 
BRANCH  89  90
ATOM     90  S   UNL A   1      39.567  36.400  41.545  1.00  0.00     0.124 S 
ATOM     91  O   UNL A   1      40.919  36.197  42.061  1.00  0.00    -0.237 OA
ATOM     92  O   UNL A   1      39.260  37.757  41.102  1.00  0.00    -0.237 OA
ATOM     93  O   UNL A   1      38.506  35.744  42.307  1.00  0.00    -0.744 OA
ENDBRANCH  89  90
ENDBRANCH  63  84
ENDBRANCH  37  38
ENDBRANCH  29  32
ENDBRANCH  27  28
ENDBRANCH   1  27
TORSDOF 16
ENDMDL
MODEL 2
REMARK VINA RESULT:     -11.7      6.663     11.560
REMARK SMILES CC(C)[NH2+][C@@]1(C(=O)NCCCNC(=O)c2ccc(-c3c4nc(c(-c5ccc(S(=O)(=O)[O-])cc5)c5ccc([nH]5)c(-c5ccc(S(=O)(=O)[O-])cc5)c5nc(c(-c6ccc(S(=O)(=O)[O-])cc6)c6ccc3[nH]6)C=C5)C=C4)cc2)CCC[C@@H]([NH+]2CCS(=O)CC2)C1
REMARK SMILES IDX 10 1 9 2 8 3 6 4 7 5 5 7 75 8 86 9 76 10 78 11 77 12 4 13
REMARK SMILES IDX 2 16 1 17 3 18 79 19 80 20 85 21 81 23 84 24 82 25 83 26
REMARK SMILES IDX 11 27 12 28 13 29 14 31 15 32 16 33 74 34 17 35 73 36 18 37
REMARK SMILES IDX 19 38 20 39 67 40 21 41 72 42 66 43 68 44 22 45 71 46 65 47
REMARK SMILES IDX 64 48 23 50 53 51 34 52 52 53 35 54 38 55 51 56 69 57 36 58
REMARK SMILES IDX 37 59 50 61 70 62 39 63 24 64 25 65 33 66 26 67 32 68 27 69
REMARK SMILES IDX 28 70 29 71 30 72 31 73 54 74 55 75 63 76 56 77 62 78 57 79
REMARK SMILES IDX 58 80 59 81 60 82 61 83 40 84 41 85 49 86 42 87 48 88 43 89
REMARK SMILES IDX 44 90 45 91 46 92 47 93
REMARK H PARENT 8 6 4 14 4 15 79 22 12 30 68 49 38 60
REMARK Flexibility Score: inf
ROOT
ATOM      1  C   UNL A   1      34.040  29.549  27.228  1.00  0.00     0.042 C 
ENDROOT
BRANCH   1   2
ATOM      2  C   UNL A   1      34.030  28.474  26.137  1.00  0.00     0.118 C 
BRANCH   2   3
ATOM      3  N   UNL A   1      33.304  27.279  26.527  1.00  0.00    -0.351 N 
ATOM      4  C   UNL A   1      32.093  26.893  26.042  1.00  0.00     0.281 C 
ATOM      5  O   UNL A   1      31.209  26.850  26.910  1.00  0.00    -0.268 OA
ATOM      6  H   UNL A   1      33.725  26.698  27.201  1.00  0.00     0.163 HD
BRANCH   4   7
ATOM      7  C   UNL A   1      31.807  26.498  24.520  1.00  0.00     0.181 C 
ATOM      8  C   UNL A   1      30.441  25.846  24.184  1.00  0.00     0.079 C 
ATOM      9  C   UNL A   1      32.900  25.537  24.061  1.00  0.00     0.144 C 
ATOM     10  C   UNL A   1      30.308  24.305  24.261  1.00  0.00     0.013 C 
ATOM     11  C   UNL A   1      32.794  24.235  24.874  1.00  0.00     0.190 C 
ATOM     12  C   UNL A   1      31.589  23.452  24.354  1.00  0.00     0.065 C 
BRANCH   7  13
ATOM     13  N   UNL A   1      31.882  27.736  23.647  1.00  0.00    -0.331 N 
ATOM     14  H   UNL A   1      32.685  28.281  23.960  1.00  0.00     0.347 HD
ATOM     15  H   UNL A   1      31.940  27.376  22.695  1.00  0.00     0.347 HD
BRANCH  13  16
ATOM     16  C   UNL A   1      30.714  28.636  23.637  1.00  0.00     0.176 C 
ATOM     17  C   UNL A   1      30.972  29.846  24.538  1.00  0.00     0.075 C 
ATOM     18  C   UNL A   1      30.449  29.137  22.211  1.00  0.00     0.075 C 
ENDBRANCH  13  16
ENDBRANCH   7  13
BRANCH  11  19
ATOM     19  N   UNL A   1      34.110  23.644  24.889  1.00  0.00    -0.331 N 
ATOM     20  C   UNL A   1      35.357  24.376  24.970  1.00  0.00     0.276 C 
ATOM     21  C   UNL A   1      34.255  22.412  24.100  1.00  0.00     0.276 C 
ATOM     22  H   UNL A   1      34.015  23.489  25.892  1.00  0.00     0.348 HD
ATOM     23  C   UNL A   1      36.278  23.591  25.910  1.00  0.00     0.166 C 
ATOM     24  C   UNL A   1      34.896  21.396  25.027  1.00  0.00     0.166 C 
ATOM     25  S   UNL A   1      36.614  21.870  25.381  1.00  0.00     0.032 S 
ATOM     26  O   UNL A   1      37.348  21.910  24.073  1.00  0.00    -0.259 OA
ENDBRANCH  11  19
ENDBRANCH   4   7
ENDBRANCH   2   3
ENDBRANCH   1   2
BRANCH   1  27
ATOM     27  C   UNL A   1      35.423  29.912  27.727  1.00  0.00     0.118 C 
BRANCH  27  28
ATOM     28  N   UNL A   1      35.416  30.232  29.145  1.00  0.00    -0.352 N 
ATOM     29  C   UNL A   1      36.360  29.973  30.110  1.00  0.00     0.251 C 
ATOM     30  H   UNL A   1      34.612  30.705  29.462  1.00  0.00     0.163 HD
ATOM     31  O   UNL A   1      36.046  30.053  31.292  1.00  0.00    -0.269 OA
BRANCH  29  32
ATOM     32  C   UNL A   1      37.740  29.597  29.725  1.00  0.00     0.039 A 
ATOM     33  C   UNL A   1      38.128  29.683  28.385  1.00  0.00     0.014 A 
ATOM     34  C   UNL A   1      38.640  29.119  30.680  1.00  0.00     0.014 A 
ATOM     35  C   UNL A   1      39.431  29.334  28.016  1.00  0.00     0.010 A 
ATOM     36  C   UNL A   1      39.964  28.889  30.332  1.00  0.00     0.010 A 
ATOM     37  C   UNL A   1      40.367  28.959  28.992  1.00  0.00    -0.014 A 
BRANCH  37  38
ATOM     38  C   UNL A   1      41.756  28.559  28.651  1.00  0.00     0.031 A 
ATOM     39  C   UNL A   1      42.842  29.607  28.643  1.00  0.00     0.074 A 
ATOM     40  C   UNL A   1      42.025  27.294  28.272  1.00  0.00     0.049 A 
ATOM     41  N   UNL A   1      44.081  29.512  28.237  1.00  0.00    -0.248 NA
ATOM     42  C   UNL A   1      42.472  30.953  29.121  1.00  0.00     0.031 C 
ATOM     43  C   UNL A   1      41.054  26.200  28.209  1.00  0.00     0.029 A 
ATOM     44  N   UNL A   1      43.200  26.719  27.855  1.00  0.00    -0.354 N 
ATOM     45  C   UNL A   1      44.622  30.786  28.378  1.00  0.00     0.074 A 
ATOM     46  C   UNL A   1      43.563  31.649  28.847  1.00  0.00     0.031 C 
ATOM     47  C   UNL A   1      41.678  25.080  27.806  1.00  0.00     0.029 A 
ATOM     48  C   UNL A   1      43.077  25.388  27.529  1.00  0.00     0.049 A 
ATOM     49  H   UNL A   1      44.049  27.213  27.793  1.00  0.00     0.167 HD
ATOM     50  C   UNL A   1      45.895  31.195  28.166  1.00  0.00     0.031 A 
ATOM     51  C   UNL A   1      43.989  24.518  27.051  1.00  0.00     0.031 A 
ATOM     52  C   UNL A   1      46.950  30.322  27.729  1.00  0.00     0.049 A 
ATOM     53  C   UNL A   1      45.396  25.001  26.811  1.00  0.00     0.074 A 
ATOM     54  C   UNL A   1      48.285  30.621  27.528  1.00  0.00     0.029 A 
ATOM     55  N   UNL A   1      46.788  28.976  27.437  1.00  0.00    -0.354 N 
ATOM     56  N   UNL A   1      45.901  26.198  26.994  1.00  0.00    -0.248 NA
ATOM     57  C   UNL A   1      46.360  24.011  26.310  1.00  0.00     0.031 C 
ATOM     58  C   UNL A   1      48.922  29.465  27.068  1.00  0.00     0.029 A 
ATOM     59  C   UNL A   1      47.998  28.431  27.047  1.00  0.00     0.049 A 
ATOM     60  H   UNL A   1      45.939  28.482  27.497  1.00  0.00     0.167 HD
ATOM     61  C   UNL A   1      47.250  26.094  26.673  1.00  0.00     0.074 A 
ATOM     62  C   UNL A   1      47.482  24.717  26.291  1.00  0.00     0.031 C 
ATOM     63  C   UNL A   1      48.211  27.050  26.694  1.00  0.00     0.031 A 
BRANCH  50  64
ATOM     64  C   UNL A   1      46.215  32.647  28.414  1.00  0.00    -0.014 A 
ATOM     65  C   UNL A   1      46.080  33.605  27.392  1.00  0.00     0.010 A 
ATOM     66  C   UNL A   1      46.616  33.069  29.695  1.00  0.00     0.010 A 
ATOM     67  C   UNL A   1      46.379  34.948  27.633  1.00  0.00     0.020 A 
ATOM     68  C   UNL A   1      46.884  34.417  29.950  1.00  0.00     0.020 A 
ATOM     69  C   UNL A   1      46.780  35.346  28.912  1.00  0.00     0.054 A 
BRANCH  69  70
ATOM     70  S   UNL A   1      47.126  37.102  29.204  1.00  0.00     0.124 S 
ATOM     71  O   UNL A   1      47.762  37.069  30.519  1.00  0.00    -0.237 OA
ATOM     72  O   UNL A   1      48.008  37.442  28.090  1.00  0.00    -0.237 OA
ATOM     73  O   UNL A   1      45.808  37.728  29.166  1.00  0.00    -0.744 OA
ENDBRANCH  69  70
ENDBRANCH  50  64
BRANCH  51  74
ATOM     74  C   UNL A   1      43.612  23.102  26.788  1.00  0.00    -0.014 A 
ATOM     75  C   UNL A   1      42.950  22.347  27.774  1.00  0.00     0.010 A 
ATOM     76  C   UNL A   1      43.913  22.494  25.556  1.00  0.00     0.010 A 
ATOM     77  C   UNL A   1      42.629  21.005  27.547  1.00  0.00     0.020 A 
ATOM     78  C   UNL A   1      43.565  21.162  25.311  1.00  0.00     0.020 A 
ATOM     79  C   UNL A   1      42.940  20.421  26.317  1.00  0.00     0.054 A 
BRANCH  79  80
ATOM     80  S   UNL A   1      42.486  18.686  26.036  1.00  0.00     0.124 S 
ATOM     81  O   UNL A   1      41.079  18.797  25.664  1.00  0.00    -0.237 OA
ATOM     82  O   UNL A   1      43.394  18.292  24.962  1.00  0.00    -0.237 OA
ATOM     83  O   UNL A   1      42.745  18.050  27.326  1.00  0.00    -0.744 OA
ENDBRANCH  79  80
ENDBRANCH  51  74
BRANCH  63  84
ATOM     84  C   UNL A   1      49.619  26.633  26.363  1.00  0.00    -0.014 A 
ATOM     85  C   UNL A   1      50.481  26.112  27.343  1.00  0.00     0.010 A 
ATOM     86  C   UNL A   1      50.053  26.692  25.025  1.00  0.00     0.010 A 
ATOM     87  C   UNL A   1      51.763  25.680  26.993  1.00  0.00     0.020 A 
ATOM     88  C   UNL A   1      51.322  26.233  24.668  1.00  0.00     0.020 A 
ATOM     89  C   UNL A   1      52.173  25.740  25.657  1.00  0.00     0.054 A 
BRANCH  89  90
ATOM     90  S   UNL A   1      53.819  25.114  25.221  1.00  0.00     0.124 S 
ATOM     91  O   UNL A   1      54.186  25.978  24.101  1.00  0.00    -0.237 OA
ATOM     92  O   UNL A   1      54.577  25.323  26.451  1.00  0.00    -0.237 OA
ATOM     93  O   UNL A   1      53.579  23.715  24.874  1.00  0.00    -0.744 OA
ENDBRANCH  89  90
ENDBRANCH  63  84
ENDBRANCH  37  38
ENDBRANCH  29  32
ENDBRANCH  27  28
ENDBRANCH   1  27
TORSDOF 16
ENDMDL
MODEL 3
REMARK VINA RESULT:     -11.6      4.685      9.569
REMARK SMILES CC(C)[NH2+][C@@]1(C(=O)NCCCNC(=O)c2ccc(-c3c4nc(c(-c5ccc(S(=O)(=O)[O-])cc5)c5ccc([nH]5)c(-c5ccc(S(=O)(=O)[O-])cc5)c5nc(c(-c6ccc(S(=O)(=O)[O-])cc6)c6ccc3[nH]6)C=C5)C=C4)cc2)CCC[C@@H]([NH+]2CCS(=O)CC2)C1
REMARK SMILES IDX 10 1 9 2 8 3 6 4 7 5 5 7 75 8 86 9 76 10 78 11 77 12 4 13
REMARK SMILES IDX 2 16 1 17 3 18 79 19 80 20 85 21 81 23 84 24 82 25 83 26
REMARK SMILES IDX 11 27 12 28 13 29 14 31 15 32 16 33 74 34 17 35 73 36 18 37
REMARK SMILES IDX 19 38 20 39 67 40 21 41 72 42 66 43 68 44 22 45 71 46 65 47
REMARK SMILES IDX 64 48 23 50 53 51 34 52 52 53 35 54 38 55 51 56 69 57 36 58
REMARK SMILES IDX 37 59 50 61 70 62 39 63 24 64 25 65 33 66 26 67 32 68 27 69
REMARK SMILES IDX 28 70 29 71 30 72 31 73 54 74 55 75 63 76 56 77 62 78 57 79
REMARK SMILES IDX 58 80 59 81 60 82 61 83 40 84 41 85 49 86 42 87 48 88 43 89
REMARK SMILES IDX 44 90 45 91 46 92 47 93
REMARK H PARENT 8 6 4 14 4 15 79 22 12 30 68 49 38 60
REMARK Flexibility Score: inf
ROOT
ATOM      1  C   UNL A   1      33.766  27.649  26.766  1.00  0.00     0.042 C 
ENDROOT
BRANCH   1   2
ATOM      2  C   UNL A   1      32.304  27.590  27.218  1.00  0.00     0.118 C 
BRANCH   2   3
ATOM      3  N   UNL A   1      31.684  26.302  26.966  1.00  0.00    -0.351 N 
ATOM      4  C   UNL A   1      30.759  26.042  26.003  1.00  0.00     0.281 C 
ATOM      5  O   UNL A   1      29.666  25.678  26.459  1.00  0.00    -0.268 OA
ATOM      6  H   UNL A   1      31.957  25.553  27.543  1.00  0.00     0.163 HD
BRANCH   4   7
ATOM      7  C   UNL A   1      31.027  26.153  24.432  1.00  0.00     0.181 C 
ATOM      8  C   UNL A   1      30.057  25.414  23.476  1.00  0.00     0.079 C 
ATOM      9  C   UNL A   1      32.435  25.634  24.148  1.00  0.00     0.144 C 
ATOM     10  C   UNL A   1      30.360  23.946  23.087  1.00  0.00     0.013 C 
ATOM     11  C   UNL A   1      32.493  24.136  24.493  1.00  0.00     0.190 C 
ATOM     12  C   UNL A   1      31.757  23.370  23.393  1.00  0.00     0.065 C 
BRANCH   7  13
ATOM     13  N   UNL A   1      30.975  27.607  24.005  1.00  0.00    -0.331 N 
ATOM     14  H   UNL A   1      30.584  28.139  24.783  1.00  0.00     0.347 HD
ATOM     15  H   UNL A   1      31.937  27.838  23.756  1.00  0.00     0.347 HD
BRANCH  13  16
ATOM     16  C   UNL A   1      30.187  27.939  22.803  1.00  0.00     0.176 C 
ATOM     17  C   UNL A   1      28.766  28.347  23.200  1.00  0.00     0.075 C 
ATOM     18  C   UNL A   1      30.839  29.107  22.053  1.00  0.00     0.075 C 
ENDBRANCH  13  16
ENDBRANCH   7  13
BRANCH  11  19
ATOM     19  N   UNL A   1      33.868  23.835  24.811  1.00  0.00    -0.331 N 
ATOM     20  C   UNL A   1      34.494  24.041  26.101  1.00  0.00     0.276 C 
ATOM     21  C   UNL A   1      34.823  24.016  23.709  1.00  0.00     0.276 C 
ATOM     22  H   UNL A   1      33.603  22.865  24.979  1.00  0.00     0.348 HD
ATOM     23  C   UNL A   1      35.400  22.831  26.358  1.00  0.00     0.166 C 
ATOM     24  C   UNL A   1      35.619  22.727  23.629  1.00  0.00     0.166 C 
ATOM     25  S   UNL A   1      36.690  22.565  25.087  1.00  0.00     0.032 S 
ATOM     26  O   UNL A   1      37.618  23.743  25.098  1.00  0.00    -0.259 OA
ENDBRANCH  11  19
ENDBRANCH   4   7
ENDBRANCH   2   3
ENDBRANCH   1   2
BRANCH   1  27
ATOM     27  C   UNL A   1      34.095  28.836  25.886  1.00  0.00     0.118 C 
BRANCH  27  28
ATOM     28  N   UNL A   1      33.793  30.095  26.547  1.00  0.00    -0.352 N 
ATOM     29  C   UNL A   1      34.410  30.697  27.617  1.00  0.00     0.251 C 
ATOM     30  H   UNL A   1      33.029  30.592  26.171  1.00  0.00     0.163 HD
ATOM     31  O   UNL A   1      33.832  31.599  28.213  1.00  0.00    -0.269 OA
BRANCH  29  32
ATOM     32  C   UNL A   1      35.757  30.257  28.048  1.00  0.00     0.039 A 
ATOM     33  C   UNL A   1      35.921  29.675  29.308  1.00  0.00     0.014 A 
ATOM     34  C   UNL A   1      36.868  30.457  27.226  1.00  0.00     0.014 A 
ATOM     35  C   UNL A   1      37.190  29.253  29.718  1.00  0.00     0.010 A 
ATOM     36  C   UNL A   1      38.101  29.930  27.584  1.00  0.00     0.010 A 
ATOM     37  C   UNL A   1      38.285  29.353  28.847  1.00  0.00    -0.014 A 
BRANCH  37  38
ATOM     38  C   UNL A   1      39.656  28.940  29.242  1.00  0.00     0.031 A 
ATOM     39  C   UNL A   1      40.552  29.934  29.939  1.00  0.00     0.074 A 
ATOM     40  C   UNL A   1      40.120  27.720  28.909  1.00  0.00     0.049 A 
ATOM     41  N   UNL A   1      41.820  29.838  30.238  1.00  0.00    -0.248 NA
ATOM     42  C   UNL A   1      39.947  31.227  30.313  1.00  0.00     0.031 C 
ATOM     43  C   UNL A   1      39.361  26.682  28.208  1.00  0.00     0.029 A 
ATOM     44  N   UNL A   1      41.354  27.151  29.105  1.00  0.00    -0.354 N 
ATOM     45  C   UNL A   1      42.169  31.062  30.801  1.00  0.00     0.074 A 
ATOM     46  C   UNL A   1      40.998  31.906  30.745  1.00  0.00     0.031 C 
ATOM     47  C   UNL A   1      40.136  25.595  28.058  1.00  0.00     0.029 A 
ATOM     48  C   UNL A   1      41.461  25.876  28.602  1.00  0.00     0.049 A 
ATOM     49  H   UNL A   1      42.094  27.613  29.562  1.00  0.00     0.167 HD
ATOM     50  C   UNL A   1      43.350  31.441  31.345  1.00  0.00     0.031 A 
ATOM     51  C   UNL A   1      42.512  25.032  28.572  1.00  0.00     0.031 A 
ATOM     52  C   UNL A   1      44.500  30.584  31.425  1.00  0.00     0.049 A 
ATOM     53  C   UNL A   1      43.819  25.481  29.172  1.00  0.00     0.074 A 
ATOM     54  C   UNL A   1      45.731  30.848  31.997  1.00  0.00     0.029 A 
ATOM     55  N   UNL A   1      44.556  29.290  30.926  1.00  0.00    -0.354 N 
ATOM     56  N   UNL A   1      44.116  26.625  29.741  1.00  0.00    -0.248 NA
ATOM     57  C   UNL A   1      44.930  24.520  29.136  1.00  0.00     0.031 C 
ATOM     58  C   UNL A   1      46.548  29.731  31.802  1.00  0.00     0.029 A 
ATOM     59  C   UNL A   1      45.805  28.747  31.168  1.00  0.00     0.049 A 
ATOM     60  H   UNL A   1      43.817  28.829  30.468  1.00  0.00     0.167 HD
ATOM     61  C   UNL A   1      45.434  26.505  30.169  1.00  0.00     0.074 A 
ATOM     62  C   UNL A   1      45.872  25.175  29.799  1.00  0.00     0.031 C 
ATOM     63  C   UNL A   1      46.211  27.411  30.812  1.00  0.00     0.031 A 
BRANCH  50  64
ATOM     64  C   UNL A   1      43.448  32.837  31.903  1.00  0.00    -0.014 A 
ATOM     65  C   UNL A   1      43.154  33.101  33.254  1.00  0.00     0.010 A 
ATOM     66  C   UNL A   1      43.878  33.894  31.080  1.00  0.00     0.010 A 
ATOM     67  C   UNL A   1      43.248  34.400  33.760  1.00  0.00     0.020 A 
ATOM     68  C   UNL A   1      44.007  35.189  31.591  1.00  0.00     0.020 A 
ATOM     69  C   UNL A   1      43.675  35.436  32.925  1.00  0.00     0.054 A 
BRANCH  69  70
ATOM     70  S   UNL A   1      43.822  37.104  33.621  1.00  0.00     0.124 S 
ATOM     71  O   UNL A   1      43.881  37.929  32.416  1.00  0.00    -0.237 OA
ATOM     72  O   UNL A   1      42.598  37.231  34.408  1.00  0.00    -0.237 OA
ATOM     73  O   UNL A   1      45.057  37.050  34.399  1.00  0.00    -0.744 OA
ENDBRANCH  69  70
ENDBRANCH  50  64
BRANCH  51  74
ATOM     74  C   UNL A   1      42.371  23.675  27.976  1.00  0.00    -0.014 A 
ATOM     75  C   UNL A   1      42.833  23.420  26.671  1.00  0.00     0.010 A 
ATOM     76  C   UNL A   1      41.772  22.629  28.700  1.00  0.00     0.010 A 
ATOM     77  C   UNL A   1      42.668  22.159  26.092  1.00  0.00     0.020 A 
ATOM     78  C   UNL A   1      41.633  21.356  28.137  1.00  0.00     0.020 A 
ATOM     79  C   UNL A   1      42.068  21.135  26.828  1.00  0.00     0.054 A 
BRANCH  79  80
ATOM     80  S   UNL A   1      41.892  19.498  26.063  1.00  0.00     0.124 S 
ATOM     81  O   UNL A   1      42.403  18.618  27.109  1.00  0.00    -0.237 OA
ATOM     82  O   UNL A   1      40.454  19.418  25.817  1.00  0.00    -0.237 OA
ATOM     83  O   UNL A   1      42.718  19.590  24.861  1.00  0.00    -0.744 OA
ENDBRANCH  79  80
ENDBRANCH  51  74
BRANCH  63  84
ATOM     84  C   UNL A   1      47.592  26.978  31.224  1.00  0.00    -0.014 A 
ATOM     85  C   UNL A   1      47.831  26.362  32.465  1.00  0.00     0.010 A 
ATOM     86  C   UNL A   1      48.655  27.123  30.312  1.00  0.00     0.010 A 
ATOM     87  C   UNL A   1      49.115  25.920  32.794  1.00  0.00     0.020 A 
ATOM     88  C   UNL A   1      49.932  26.654  30.626  1.00  0.00     0.020 A 
ATOM     89  C   UNL A   1      50.156  26.066  31.871  1.00  0.00     0.054 A 
BRANCH  89  90
ATOM     90  S   UNL A   1      51.798  25.426  32.300  1.00  0.00     0.124 S 
ATOM     91  O   UNL A   1      52.646  26.071  31.300  1.00  0.00    -0.237 OA
ATOM     92  O   UNL A   1      51.976  25.895  33.672  1.00  0.00    -0.237 OA
ATOM     93  O   UNL A   1      51.657  23.979  32.155  1.00  0.00    -0.744 OA
ENDBRANCH  89  90
ENDBRANCH  63  84
ENDBRANCH  37  38
ENDBRANCH  29  32
ENDBRANCH  27  28
ENDBRANCH   1  27
TORSDOF 16
ENDMDL
