MODEL 1
REMARK VINA RESULT:     -13.3      0.000      0.000
REMARK SMILES O=C(NCCCNC(=O)c1ccc2nc(-c3c[nH]nc3-c3ccc(F)cc3F)[nH]c2c1)c1ccc(-c2c3nc(c(-c4ccc(S(=O)(=O)[O-])cc4)c4ccc([nH]4)c(-c4ccc(S(=O)(=O)[O-])cc4)c4nc(c(-c5ccc(S(=O)(=O)[O-])cc5)c5ccc2[nH]5)C=C4)C=C3)cc1
REMARK SMILES IDX 4 1 3 2 1 3 2 4 32 6 33 7 91 8 34 9 90 10 35 11 36 12 37 13
REMARK SMILES IDX 84 14 38 15 89 16 83 17 85 18 39 19 88 20 82 21 81 22 40 24
REMARK SMILES IDX 70 25 51 26 69 27 52 28 55 29 68 30 86 31 53 32 54 33 67 35
REMARK SMILES IDX 87 36 56 37 41 38 42 39 50 40 43 41 49 42 44 43 45 44 46 45
REMARK SMILES IDX 47 46 48 47 71 48 72 49 80 50 73 51 79 52 74 53 75 54 76 55
REMARK SMILES IDX 77 56 78 57 57 58 58 59 66 60 59 61 65 62 60 63 61 64 62 65
REMARK SMILES IDX 63 66 64 67 5 68 6 69 7 70 8 71 9 73 10 74 11 75 31 76 12 77
REMARK SMILES IDX 30 78 13 79 29 80 14 81 15 82 16 84 17 85 20 86 18 87 19 88
REMARK SMILES IDX 21 90 22 91 27 92 23 93 26 94 28 95 24 96 25 97
REMARK H PARENT 3 5 85 23 55 34 7 72 29 83 18 89
REMARK Flexibility Score: inf
ROOT
ATOM      1  C   UNL A   1      41.356  23.230  27.545  1.00  0.00     0.118 C 
ENDROOT
BRANCH   1   2
ATOM      2  N   UNL A   1      41.438  24.057  26.347  1.00  0.00    -0.352 N 
ATOM      3  O   UNL A   1      41.144  25.865  25.044  1.00  0.00    -0.269 OA
ATOM      4  C   UNL A   1      41.211  25.401  26.180  1.00  0.00     0.251 C 
ATOM      5  H   UNL A   1      41.697  23.575  25.529  1.00  0.00     0.163 HD
BRANCH   4   6
ATOM      6  C   UNL A   1      41.031  26.283  27.354  1.00  0.00     0.039 A 
ATOM      7  C   UNL A   1      41.885  27.366  27.569  1.00  0.00     0.014 A 
ATOM      8  C   UNL A   1      39.973  26.044  28.237  1.00  0.00     0.014 A 
ATOM      9  C   UNL A   1      41.784  28.104  28.742  1.00  0.00     0.010 A 
ATOM     10  C   UNL A   1      39.809  26.856  29.364  1.00  0.00     0.010 A 
ATOM     11  C   UNL A   1      40.732  27.875  29.641  1.00  0.00    -0.014 A 
BRANCH  11  12
ATOM     12  C   UNL A   1      40.580  28.775  30.813  1.00  0.00     0.031 A 
ATOM     13  C   UNL A   1      41.492  28.675  32.005  1.00  0.00     0.074 A 
ATOM     14  C   UNL A   1      39.623  29.725  30.768  1.00  0.00     0.049 A 
ATOM     15  N   UNL A   1      41.516  29.418  33.082  1.00  0.00    -0.248 NA
ATOM     16  C   UNL A   1      42.501  27.604  31.993  1.00  0.00     0.031 C 
ATOM     17  C   UNL A   1      38.672  29.912  29.668  1.00  0.00     0.029 A 
ATOM     18  N   UNL A   1      39.308  30.727  31.648  1.00  0.00    -0.354 N 
ATOM     19  C   UNL A   1      42.525  28.898  33.885  1.00  0.00     0.074 A 
ATOM     20  C   UNL A   1      43.076  27.760  33.180  1.00  0.00     0.031 C 
ATOM     21  C   UNL A   1      37.923  30.996  29.911  1.00  0.00     0.029 A 
ATOM     22  C   UNL A   1      38.290  31.541  31.212  1.00  0.00     0.049 A 
ATOM     23  H   UNL A   1      39.766  30.852  32.511  1.00  0.00     0.167 HD
ATOM     24  C   UNL A   1      42.952  29.333  35.095  1.00  0.00     0.031 A 
ATOM     25  C   UNL A   1      37.701  32.601  31.795  1.00  0.00     0.031 A 
ATOM     26  C   UNL A   1      42.398  30.466  35.789  1.00  0.00     0.049 A 
ATOM     27  C   UNL A   1      38.179  33.043  33.146  1.00  0.00     0.074 A 
ATOM     28  C   UNL A   1      42.782  31.002  37.008  1.00  0.00     0.029 A 
ATOM     29  N   UNL A   1      41.340  31.239  35.332  1.00  0.00    -0.354 N 
ATOM     30  N   UNL A   1      39.155  32.555  33.873  1.00  0.00    -0.248 NA
ATOM     31  C   UNL A   1      37.478  34.180  33.756  1.00  0.00     0.031 C 
ATOM     32  C   UNL A   1      41.926  32.065  37.310  1.00  0.00     0.029 A 
ATOM     33  C   UNL A   1      41.043  32.230  36.255  1.00  0.00     0.049 A 
ATOM     34  H   UNL A   1      40.870  31.104  34.478  1.00  0.00     0.167 HD
ATOM     35  C   UNL A   1      39.190  33.330  35.024  1.00  0.00     0.074 A 
ATOM     36  C   UNL A   1      38.157  34.337  34.883  1.00  0.00     0.031 C 
ATOM     37  C   UNL A   1      40.003  33.216  36.104  1.00  0.00     0.031 A 
BRANCH  24  38
ATOM     38  C   UNL A   1      44.064  28.567  35.763  1.00  0.00    -0.014 A 
ATOM     39  C   UNL A   1      45.411  28.930  35.580  1.00  0.00     0.010 A 
ATOM     40  C   UNL A   1      43.754  27.508  36.636  1.00  0.00     0.010 A 
ATOM     41  C   UNL A   1      46.427  28.228  36.235  1.00  0.00     0.020 A 
ATOM     42  C   UNL A   1      44.767  26.819  37.311  1.00  0.00     0.020 A 
ATOM     43  C   UNL A   1      46.100  27.175  37.095  1.00  0.00     0.054 A 
BRANCH  43  44
ATOM     44  S   UNL A   1      47.439  26.302  37.954  1.00  0.00     0.124 S 
ATOM     45  O   UNL A   1      48.380  27.388  38.222  1.00  0.00    -0.237 OA
ATOM     46  O   UNL A   1      46.764  25.754  39.128  1.00  0.00    -0.237 OA
ATOM     47  O   UNL A   1      47.890  25.313  36.979  1.00  0.00    -0.744 OA
ENDBRANCH  43  44
ENDBRANCH  24  38
BRANCH  25  48
ATOM     48  C   UNL A   1      36.578  33.292  31.107  1.00  0.00    -0.014 A 
ATOM     49  C   UNL A   1      35.293  33.317  31.675  1.00  0.00     0.010 A 
ATOM     50  C   UNL A   1      36.800  33.953  29.885  1.00  0.00     0.010 A 
ATOM     51  C   UNL A   1      34.247  33.978  31.026  1.00  0.00     0.020 A 
ATOM     52  C   UNL A   1      35.765  34.641  29.248  1.00  0.00     0.020 A 
ATOM     53  C   UNL A   1      34.490  34.636  29.817  1.00  0.00     0.054 A 
BRANCH  53  54
ATOM     54  S   UNL A   1      33.132  35.533  29.015  1.00  0.00     0.124 S 
ATOM     55  O   UNL A   1      33.851  36.551  28.255  1.00  0.00    -0.237 OA
ATOM     56  O   UNL A   1      32.487  34.489  28.223  1.00  0.00    -0.237 OA
ATOM     57  O   UNL A   1      32.342  36.030  30.138  1.00  0.00    -0.744 OA
ENDBRANCH  53  54
ENDBRANCH  25  48
BRANCH  37  58
ATOM     58  C   UNL A   1      39.814  34.219  37.208  1.00  0.00    -0.014 A 
ATOM     59  C   UNL A   1      40.324  35.525  37.097  1.00  0.00     0.010 A 
ATOM     60  C   UNL A   1      39.092  33.857  38.359  1.00  0.00     0.010 A 
ATOM     61  C   UNL A   1      40.147  36.441  38.137  1.00  0.00     0.020 A 
ATOM     62  C   UNL A   1      38.890  34.779  39.389  1.00  0.00     0.020 A 
ATOM     63  C   UNL A   1      39.434  36.060  39.278  1.00  0.00     0.054 A 
BRANCH  63  64
ATOM     64  S   UNL A   1      39.191  37.275  40.603  1.00  0.00     0.124 S 
ATOM     65  O   UNL A   1      40.549  37.769  40.813  1.00  0.00    -0.237 OA
ATOM     66  O   UNL A   1      38.261  38.228  40.000  1.00  0.00    -0.237 OA
ATOM     67  O   UNL A   1      38.638  36.485  41.699  1.00  0.00    -0.744 OA
ENDBRANCH  63  64
ENDBRANCH  37  58
ENDBRANCH  11  12
ENDBRANCH   4   6
ENDBRANCH   1   2
BRANCH   1  68
ATOM     68  C   UNL A   1      40.362  22.085  27.403  1.00  0.00     0.042 C 
BRANCH  68  69
ATOM     69  C   UNL A   1      39.313  22.317  26.324  1.00  0.00     0.118 C 
BRANCH  69  70
ATOM     70  N   UNL A   1      39.031  21.101  25.577  1.00  0.00    -0.352 N 
ATOM     71  C   UNL A   1      37.838  20.655  25.076  1.00  0.00     0.251 C 
ATOM     72  H   UNL A   1      39.806  20.518  25.409  1.00  0.00     0.163 HD
ATOM     73  O   UNL A   1      37.716  19.498  24.683  1.00  0.00    -0.269 OA
BRANCH  71  74
ATOM     74  C   UNL A   1      36.689  21.576  24.995  1.00  0.00     0.042 A 
ATOM     75  C   UNL A   1      36.584  22.451  23.905  1.00  0.00     0.016 A 
ATOM     76  C   UNL A   1      35.697  21.494  25.985  1.00  0.00     0.042 A 
ATOM     77  C   UNL A   1      35.471  23.285  23.773  1.00  0.00     0.031 A 
ATOM     78  C   UNL A   1      34.606  22.351  25.828  1.00  0.00     0.067 A 
ATOM     79  C   UNL A   1      34.459  23.201  24.737  1.00  0.00     0.089 A 
ATOM     80  N   UNL A   1      33.483  22.581  26.585  1.00  0.00    -0.338 N 
ATOM     81  N   UNL A   1      33.248  23.829  24.770  1.00  0.00    -0.228 NA
ATOM     82  C   UNL A   1      32.668  23.430  25.881  1.00  0.00     0.142 A 
ATOM     83  H   UNL A   1      33.298  22.204  27.475  1.00  0.00     0.168 HD
BRANCH  82  84
ATOM     84  C   UNL A   1      31.293  23.819  26.261  1.00  0.00     0.063 A 
ATOM     85  C   UNL A   1      30.274  22.982  26.642  1.00  0.00     0.117 A 
ATOM     86  C   UNL A   1      30.750  25.134  26.288  1.00  0.00     0.106 A 
ATOM     87  N   UNL A   1      29.236  23.808  26.963  1.00  0.00    -0.284 N 
ATOM     88  N   UNL A   1      29.472  25.105  26.703  1.00  0.00    -0.175 NA
ATOM     89  H   UNL A   1      28.391  23.484  27.351  1.00  0.00     0.189 HD
BRANCH  86  90
ATOM     90  C   UNL A   1      31.368  26.358  25.790  1.00  0.00     0.039 A 
ATOM     91  C   UNL A   1      32.267  27.060  26.613  1.00  0.00     0.016 A 
ATOM     92  C   UNL A   1      31.082  26.864  24.520  1.00  0.00     0.135 A 
ATOM     93  C   UNL A   1      32.852  28.248  26.173  1.00  0.00     0.040 A 
ATOM     94  C   UNL A   1      31.668  28.047  24.073  1.00  0.00     0.079 A 
ATOM     95  F   UNL A   1      30.221  26.236  23.704  1.00  0.00    -0.206 F 
ATOM     96  C   UNL A   1      32.546  28.729  24.907  1.00  0.00     0.126 A 
ATOM     97  F   UNL A   1      33.109  29.869  24.484  1.00  0.00    -0.207 F 
ENDBRANCH  86  90
ENDBRANCH  82  84
ENDBRANCH  71  74
ENDBRANCH  69  70
ENDBRANCH  68  69
ENDBRANCH   1  68
TORSDOF 15
ENDMDL
MODEL 2
REMARK VINA RESULT:     -12.7      0.457      8.021
REMARK SMILES O=C(NCCCNC(=O)c1ccc2nc(-c3c[nH]nc3-c3ccc(F)cc3F)[nH]c2c1)c1ccc(-c2c3nc(c(-c4ccc(S(=O)(=O)[O-])cc4)c4ccc([nH]4)c(-c4ccc(S(=O)(=O)[O-])cc4)c4nc(c(-c5ccc(S(=O)(=O)[O-])cc5)c5ccc2[nH]5)C=C4)C=C3)cc1
REMARK SMILES IDX 4 1 3 2 1 3 2 4 32 6 33 7 91 8 34 9 90 10 35 11 36 12 37 13
REMARK SMILES IDX 84 14 38 15 89 16 83 17 85 18 39 19 88 20 82 21 81 22 40 24
REMARK SMILES IDX 70 25 51 26 69 27 52 28 55 29 68 30 86 31 53 32 54 33 67 35
REMARK SMILES IDX 87 36 56 37 41 38 42 39 50 40 43 41 49 42 44 43 45 44 46 45
REMARK SMILES IDX 47 46 48 47 71 48 72 49 80 50 73 51 79 52 74 53 75 54 76 55
REMARK SMILES IDX 77 56 78 57 57 58 58 59 66 60 59 61 65 62 60 63 61 64 62 65
REMARK SMILES IDX 63 66 64 67 5 68 6 69 7 70 8 71 9 73 10 74 11 75 31 76 12 77
REMARK SMILES IDX 30 78 13 79 29 80 14 81 15 82 16 84 17 85 20 86 18 87 19 88
REMARK SMILES IDX 21 90 22 91 27 92 23 93 26 94 28 95 24 96 25 97
REMARK H PARENT 3 5 85 23 55 34 7 72 29 83 18 89
REMARK Flexibility Score: inf
ROOT
ATOM      1  C   UNL A   1      41.569  23.343  27.585  1.00  0.00     0.118 C 
ENDROOT
BRANCH   1   2
ATOM      2  N   UNL A   1      41.541  24.136  26.363  1.00  0.00    -0.352 N 
ATOM      3  O   UNL A   1      41.099  25.895  25.033  1.00  0.00    -0.269 OA
ATOM      4  C   UNL A   1      41.259  25.467  26.175  1.00  0.00     0.251 C 
ATOM      5  H   UNL A   1      41.759  23.638  25.542  1.00  0.00     0.163 HD
BRANCH   4   6
ATOM      6  C   UNL A   1      41.131  26.377  27.333  1.00  0.00     0.039 A 
ATOM      7  C   UNL A   1      40.174  26.143  28.321  1.00  0.00     0.014 A 
ATOM      8  C   UNL A   1      42.002  27.465  27.451  1.00  0.00     0.014 A 
ATOM      9  C   UNL A   1      39.979  27.076  29.331  1.00  0.00     0.010 A 
ATOM     10  C   UNL A   1      41.873  28.347  28.528  1.00  0.00     0.010 A 
ATOM     11  C   UNL A   1      40.840  28.176  29.463  1.00  0.00    -0.014 A 
BRANCH  11  12
ATOM     12  C   UNL A   1      40.683  29.075  30.634  1.00  0.00     0.031 A 
ATOM     13  C   UNL A   1      39.594  30.111  30.691  1.00  0.00     0.074 A 
ATOM     14  C   UNL A   1      41.522  28.915  31.679  1.00  0.00     0.049 A 
ATOM     15  N   UNL A   1      39.299  30.936  31.663  1.00  0.00    -0.248 NA
ATOM     16  C   UNL A   1      38.728  30.243  29.509  1.00  0.00     0.031 C 
ATOM     17  C   UNL A   1      42.625  27.950  31.733  1.00  0.00     0.029 A 
ATOM     18  N   UNL A   1      41.565  29.532  32.902  1.00  0.00    -0.354 N 
ATOM     19  C   UNL A   1      38.229  31.699  31.207  1.00  0.00     0.074 A 
ATOM     20  C   UNL A   1      37.939  31.251  29.861  1.00  0.00     0.031 C 
ATOM     21  C   UNL A   1      43.195  27.998  32.945  1.00  0.00     0.029 A 
ATOM     22  C   UNL A   1      42.548  29.042  33.729  1.00  0.00     0.049 A 
ATOM     23  H   UNL A   1      40.952  30.257  33.163  1.00  0.00     0.167 HD
ATOM     24  C   UNL A   1      37.551  32.677  31.855  1.00  0.00     0.031 A 
ATOM     25  C   UNL A   1      42.905  29.399  34.976  1.00  0.00     0.031 A 
ATOM     26  C   UNL A   1      37.846  33.115  33.195  1.00  0.00     0.049 A 
ATOM     27  C   UNL A   1      42.150  30.503  35.658  1.00  0.00     0.074 A 
ATOM     28  C   UNL A   1      37.197  34.081  33.947  1.00  0.00     0.029 A 
ATOM     29  N   UNL A   1      38.875  32.623  33.984  1.00  0.00    -0.354 N 
ATOM     30  N   UNL A   1      41.123  31.188  35.219  1.00  0.00    -0.248 NA
ATOM     31  C   UNL A   1      42.604  30.880  37.002  1.00  0.00     0.031 C 
ATOM     32  C   UNL A   1      37.864  34.206  35.170  1.00  0.00     0.029 A 
ATOM     33  C   UNL A   1      38.894  33.280  35.204  1.00  0.00     0.049 A 
ATOM     34  H   UNL A   1      39.500  31.910  33.717  1.00  0.00     0.167 HD
ATOM     35  C   UNL A   1      40.800  32.075  36.238  1.00  0.00     0.074 A 
ATOM     36  C   UNL A   1      41.724  31.818  37.325  1.00  0.00     0.031 C 
ATOM     37  C   UNL A   1      39.828  33.020  36.269  1.00  0.00     0.031 A 
BRANCH  24  38
ATOM     38  C   UNL A   1      36.430  33.362  31.116  1.00  0.00    -0.014 A 
ATOM     39  C   UNL A   1      35.170  33.545  31.712  1.00  0.00     0.010 A 
ATOM     40  C   UNL A   1      36.661  33.884  29.830  1.00  0.00     0.010 A 
ATOM     41  C   UNL A   1      34.153  34.212  31.023  1.00  0.00     0.020 A 
ATOM     42  C   UNL A   1      35.653  34.572  29.148  1.00  0.00     0.020 A 
ATOM     43  C   UNL A   1      34.399  34.720  29.743  1.00  0.00     0.054 A 
BRANCH  43  44
ATOM     44  S   UNL A   1      33.069  35.607  28.886  1.00  0.00     0.124 S 
ATOM     45  O   UNL A   1      33.818  36.599  28.117  1.00  0.00    -0.237 OA
ATOM     46  O   UNL A   1      32.434  34.553  28.099  1.00  0.00    -0.237 OA
ATOM     47  O   UNL A   1      32.255  36.146  29.973  1.00  0.00    -0.744 OA
ENDBRANCH  43  44
ENDBRANCH  24  38
BRANCH  25  48
ATOM     48  C   UNL A   1      44.046  28.718  35.641  1.00  0.00    -0.014 A 
ATOM     49  C   UNL A   1      45.333  29.281  35.616  1.00  0.00     0.010 A 
ATOM     50  C   UNL A   1      43.842  27.506  36.327  1.00  0.00     0.010 A 
ATOM     51  C   UNL A   1      46.398  28.637  36.252  1.00  0.00     0.020 A 
ATOM     52  C   UNL A   1      44.896  26.875  36.990  1.00  0.00     0.020 A 
ATOM     53  C   UNL A   1      46.173  27.439  36.936  1.00  0.00     0.054 A 
BRANCH  53  54
ATOM     54  S   UNL A   1      47.557  26.645  37.799  1.00  0.00     0.124 S 
ATOM     55  O   UNL A   1      48.429  26.272  36.690  1.00  0.00    -0.237 OA
ATOM     56  O   UNL A   1      48.050  27.716  38.661  1.00  0.00    -0.237 OA
ATOM     57  O   UNL A   1      46.925  25.531  38.503  1.00  0.00    -0.744 OA
ENDBRANCH  53  54
ENDBRANCH  25  48
BRANCH  37  58
ATOM     58  C   UNL A   1      39.709  33.833  37.529  1.00  0.00    -0.014 A 
ATOM     59  C   UNL A   1      38.896  33.406  38.594  1.00  0.00     0.010 A 
ATOM     60  C   UNL A   1      40.443  35.025  37.658  1.00  0.00     0.010 A 
ATOM     61  C   UNL A   1      38.789  34.178  39.753  1.00  0.00     0.020 A 
ATOM     62  C   UNL A   1      40.359  35.786  38.827  1.00  0.00     0.020 A 
ATOM     63  C   UNL A   1      39.519  35.366  39.860  1.00  0.00     0.054 A 
BRANCH  63  64
ATOM     64  S   UNL A   1      39.389  36.338  41.386  1.00  0.00     0.124 S 
ATOM     65  O   UNL A   1      38.344  35.621  42.113  1.00  0.00    -0.237 OA
ATOM     66  O   UNL A   1      40.733  36.234  41.950  1.00  0.00    -0.237 OA
ATOM     67  O   UNL A   1      39.019  37.671  40.917  1.00  0.00    -0.744 OA
ENDBRANCH  63  64
ENDBRANCH  37  58
ENDBRANCH  11  12
ENDBRANCH   4   6
ENDBRANCH   1   2
BRANCH   1  68
ATOM     68  C   UNL A   1      40.455  22.306  27.640  1.00  0.00     0.042 C 
BRANCH  68  69
ATOM     69  C   UNL A   1      39.383  22.505  26.578  1.00  0.00     0.118 C 
BRANCH  69  70
ATOM     70  N   UNL A   1      39.205  21.314  25.762  1.00  0.00    -0.352 N 
ATOM     71  C   UNL A   1      38.069  20.842  25.163  1.00  0.00     0.251 C 
ATOM     72  H   UNL A   1      40.015  20.772  25.622  1.00  0.00     0.163 HD
ATOM     73  O   UNL A   1      38.026  19.700  24.712  1.00  0.00    -0.269 OA
BRANCH  71  74
ATOM     74  C   UNL A   1      36.888  21.717  25.043  1.00  0.00     0.042 A 
ATOM     75  C   UNL A   1      36.741  22.524  23.907  1.00  0.00     0.016 A 
ATOM     76  C   UNL A   1      35.910  21.658  26.048  1.00  0.00     0.042 A 
ATOM     77  C   UNL A   1      35.599  23.310  23.741  1.00  0.00     0.031 A 
ATOM     78  C   UNL A   1      34.788  22.466  25.856  1.00  0.00     0.067 A 
ATOM     79  C   UNL A   1      34.600  23.248  24.720  1.00  0.00     0.089 A 
ATOM     80  N   UNL A   1      33.665  22.701  26.612  1.00  0.00    -0.338 N 
ATOM     81  N   UNL A   1      33.368  23.834  24.732  1.00  0.00    -0.228 NA
ATOM     82  C   UNL A   1      32.814  23.480  25.871  1.00  0.00     0.142 A 
ATOM     83  H   UNL A   1      33.502  22.369  27.525  1.00  0.00     0.168 HD
BRANCH  82  84
ATOM     84  C   UNL A   1      31.430  23.842  26.245  1.00  0.00     0.063 A 
ATOM     85  C   UNL A   1      30.421  22.985  26.607  1.00  0.00     0.117 A 
ATOM     86  C   UNL A   1      30.867  25.149  26.284  1.00  0.00     0.106 A 
ATOM     87  N   UNL A   1      29.369  23.791  26.931  1.00  0.00    -0.284 N 
ATOM     88  N   UNL A   1      29.586  25.095  26.689  1.00  0.00    -0.175 NA
ATOM     89  H   UNL A   1      28.526  23.450  27.308  1.00  0.00     0.189 HD
BRANCH  86  90
ATOM     90  C   UNL A   1      31.469  26.388  25.806  1.00  0.00     0.039 A 
ATOM     91  C   UNL A   1      32.512  26.977  26.543  1.00  0.00     0.016 A 
ATOM     92  C   UNL A   1      31.029  27.019  24.639  1.00  0.00     0.135 A 
ATOM     93  C   UNL A   1      33.089  28.176  26.124  1.00  0.00     0.040 A 
ATOM     94  C   UNL A   1      31.606  28.214  24.212  1.00  0.00     0.079 A 
ATOM     95  F   UNL A   1      30.029  26.503  23.910  1.00  0.00    -0.206 F 
ATOM     96  C   UNL A   1      32.629  28.782  24.962  1.00  0.00     0.126 A 
ATOM     97  F   UNL A   1      33.183  29.933  24.559  1.00  0.00    -0.207 F 
ENDBRANCH  86  90
ENDBRANCH  82  84
ENDBRANCH  71  74
ENDBRANCH  69  70
ENDBRANCH  68  69
ENDBRANCH   1  68
TORSDOF 15
ENDMDL
MODEL 3
REMARK VINA RESULT:     -12.7      4.541      9.714
REMARK SMILES O=C(NCCCNC(=O)c1ccc2nc(-c3c[nH]nc3-c3ccc(F)cc3F)[nH]c2c1)c1ccc(-c2c3nc(c(-c4ccc(S(=O)(=O)[O-])cc4)c4ccc([nH]4)c(-c4ccc(S(=O)(=O)[O-])cc4)c4nc(c(-c5ccc(S(=O)(=O)[O-])cc5)c5ccc2[nH]5)C=C4)C=C3)cc1
REMARK SMILES IDX 4 1 3 2 1 3 2 4 32 6 33 7 91 8 34 9 90 10 35 11 36 12 37 13
REMARK SMILES IDX 84 14 38 15 89 16 83 17 85 18 39 19 88 20 82 21 81 22 40 24
REMARK SMILES IDX 70 25 51 26 69 27 52 28 55 29 68 30 86 31 53 32 54 33 67 35
REMARK SMILES IDX 87 36 56 37 41 38 42 39 50 40 43 41 49 42 44 43 45 44 46 45
REMARK SMILES IDX 47 46 48 47 71 48 72 49 80 50 73 51 79 52 74 53 75 54 76 55
REMARK SMILES IDX 77 56 78 57 57 58 58 59 66 60 59 61 65 62 60 63 61 64 62 65
REMARK SMILES IDX 63 66 64 67 5 68 6 69 7 70 8 71 9 73 10 74 11 75 31 76 12 77
REMARK SMILES IDX 30 78 13 79 29 80 14 81 15 82 16 84 17 85 20 86 18 87 19 88
REMARK SMILES IDX 21 90 22 91 27 92 23 93 26 94 28 95 24 96 25 97
REMARK H PARENT 3 5 85 23 55 34 7 72 29 83 18 89
REMARK Flexibility Score: inf
ROOT
ATOM      1  C   UNL A   1      34.082  28.462  26.221  1.00  0.00     0.118 C 
ENDROOT
BRANCH   1   2
ATOM      2  N   UNL A   1      33.738  29.740  26.832  1.00  0.00    -0.352 N 
ATOM      3  O   UNL A   1      33.858  31.449  28.288  1.00  0.00    -0.269 OA
ATOM      4  C   UNL A   1      34.419  30.492  27.757  1.00  0.00     0.251 C 
ATOM      5  H   UNL A   1      32.883  30.126  26.532  1.00  0.00     0.163 HD
BRANCH   4   6
ATOM      6  C   UNL A   1      35.809  30.148  28.129  1.00  0.00     0.039 A 
ATOM      7  C   UNL A   1      36.862  30.388  27.245  1.00  0.00     0.014 A 
ATOM      8  C   UNL A   1      36.068  29.606  29.392  1.00  0.00     0.014 A 
ATOM      9  C   UNL A   1      38.140  29.940  27.555  1.00  0.00     0.010 A 
ATOM     10  C   UNL A   1      37.374  29.253  29.743  1.00  0.00     0.010 A 
ATOM     11  C   UNL A   1      38.418  29.390  28.816  1.00  0.00    -0.014 A 
BRANCH  11  12
ATOM     12  C   UNL A   1      39.823  29.050  29.157  1.00  0.00     0.031 A 
ATOM     13  C   UNL A   1      40.424  27.723  28.782  1.00  0.00     0.074 A 
ATOM     14  C   UNL A   1      40.572  29.983  29.780  1.00  0.00     0.049 A 
ATOM     15  N   UNL A   1      41.648  27.298  28.968  1.00  0.00    -0.248 NA
ATOM     16  C   UNL A   1      39.545  26.747  28.120  1.00  0.00     0.031 C 
ATOM     17  C   UNL A   1      40.093  31.303  30.203  1.00  0.00     0.029 A 
ATOM     18  N   UNL A   1      41.894  29.982  30.142  1.00  0.00    -0.354 N 
ATOM     19  C   UNL A   1      41.684  26.002  28.466  1.00  0.00     0.074 A 
ATOM     20  C   UNL A   1      40.351  25.701  27.986  1.00  0.00     0.031 C 
ATOM     21  C   UNL A   1      41.117  32.003  30.709  1.00  0.00     0.029 A 
ATOM     22  C   UNL A   1      42.307  31.162  30.713  1.00  0.00     0.049 A 
ATOM     23  H   UNL A   1      42.490  29.210  30.005  1.00  0.00     0.167 HD
ATOM     24  C   UNL A   1      42.732  25.145  28.409  1.00  0.00     0.031 A 
ATOM     25  C   UNL A   1      43.506  31.528  31.202  1.00  0.00     0.031 A 
ATOM     26  C   UNL A   1      44.055  25.453  28.888  1.00  0.00     0.049 A 
ATOM     27  C   UNL A   1      44.642  30.549  31.147  1.00  0.00     0.074 A 
ATOM     28  C   UNL A   1      45.191  24.660  28.849  1.00  0.00     0.029 A 
ATOM     29  N   UNL A   1      44.423  26.643  29.497  1.00  0.00    -0.354 N 
ATOM     30  N   UNL A   1      44.660  29.340  30.640  1.00  0.00    -0.248 NA
ATOM     31  C   UNL A   1      45.917  30.984  31.728  1.00  0.00     0.031 C 
ATOM     32  C   UNL A   1      46.231  25.351  29.478  1.00  0.00     0.029 A 
ATOM     33  C   UNL A   1      45.760  26.597  29.860  1.00  0.00     0.049 A 
ATOM     34  H   UNL A   1      43.823  27.408  29.650  1.00  0.00     0.167 HD
ATOM     35  C   UNL A   1      45.952  28.871  30.835  1.00  0.00     0.074 A 
ATOM     36  C   UNL A   1      46.692  29.937  31.479  1.00  0.00     0.031 C 
ATOM     37  C   UNL A   1      46.478  27.663  30.512  1.00  0.00     0.031 A 
BRANCH  24  38
ATOM     38  C   UNL A   1      42.490  23.778  27.823  1.00  0.00    -0.014 A 
ATOM     39  C   UNL A   1      42.715  23.519  26.460  1.00  0.00     0.010 A 
ATOM     40  C   UNL A   1      42.092  22.721  28.663  1.00  0.00     0.010 A 
ATOM     41  C   UNL A   1      42.517  22.236  25.941  1.00  0.00     0.020 A 
ATOM     42  C   UNL A   1      41.916  21.432  28.153  1.00  0.00     0.020 A 
ATOM     43  C   UNL A   1      42.116  21.200  26.791  1.00  0.00     0.054 A 
BRANCH  43  44
ATOM     44  S   UNL A   1      41.896  19.538  26.095  1.00  0.00     0.124 S 
ATOM     45  O   UNL A   1      42.715  19.609  24.887  1.00  0.00    -0.237 OA
ATOM     46  O   UNL A   1      42.414  18.675  27.154  1.00  0.00    -0.237 OA
ATOM     47  O   UNL A   1      40.456  19.445  25.867  1.00  0.00    -0.744 OA
ENDBRANCH  43  44
ENDBRANCH  24  38
BRANCH  25  48
ATOM     48  C   UNL A   1      43.675  32.875  31.807  1.00  0.00    -0.014 A 
ATOM     49  C   UNL A   1      44.082  33.969  31.024  1.00  0.00     0.010 A 
ATOM     50  C   UNL A   1      43.403  33.075  33.174  1.00  0.00     0.010 A 
ATOM     51  C   UNL A   1      44.228  35.234  31.600  1.00  0.00     0.020 A 
ATOM     52  C   UNL A   1      43.519  34.343  33.746  1.00  0.00     0.020 A 
ATOM     53  C   UNL A   1      43.945  35.413  32.957  1.00  0.00     0.054 A 
BRANCH  53  54
ATOM     54  S   UNL A   1      44.091  37.073  33.675  1.00  0.00     0.124 S 
ATOM     55  O   UNL A   1      43.215  36.975  34.838  1.00  0.00    -0.237 OA
ATOM     56  O   UNL A   1      45.519  37.169  33.964  1.00  0.00    -0.237 OA
ATOM     57  O   UNL A   1      43.620  37.949  32.605  1.00  0.00    -0.744 OA
ENDBRANCH  53  54
ENDBRANCH  25  48
BRANCH  37  58
ATOM     58  C   UNL A   1      47.929  27.443  30.839  1.00  0.00    -0.014 A 
ATOM     59  C   UNL A   1      48.319  26.865  32.059  1.00  0.00     0.010 A 
ATOM     60  C   UNL A   1      48.913  27.796  29.898  1.00  0.00     0.010 A 
ATOM     61  C   UNL A   1      49.672  26.677  32.351  1.00  0.00     0.020 A 
ATOM     62  C   UNL A   1      50.266  27.585  30.176  1.00  0.00     0.020 A 
ATOM     63  C   UNL A   1      50.638  27.042  31.407  1.00  0.00     0.054 A 
BRANCH  63  64
ATOM     64  S   UNL A   1      52.387  26.762  31.794  1.00  0.00     0.124 S 
ATOM     65  O   UNL A   1      52.910  28.124  31.834  1.00  0.00    -0.237 OA
ATOM     66  O   UNL A   1      52.326  26.073  33.082  1.00  0.00    -0.237 OA
ATOM     67  O   UNL A   1      52.861  25.944  30.681  1.00  0.00    -0.744 OA
ENDBRANCH  63  64
ENDBRANCH  37  58
ENDBRANCH  11  12
ENDBRANCH   4   6
ENDBRANCH   1   2
BRANCH   1  68
ATOM     68  C   UNL A   1      33.070  28.020  25.173  1.00  0.00     0.042 C 
BRANCH  68  69
ATOM     69  C   UNL A   1      32.966  28.968  23.987  1.00  0.00     0.118 C 
BRANCH  69  70
ATOM     70  N   UNL A   1      31.609  29.033  23.466  1.00  0.00    -0.352 N 
ATOM     71  C   UNL A   1      30.949  28.139  22.667  1.00  0.00     0.251 C 
ATOM     72  H   UNL A   1      31.094  29.831  23.725  1.00  0.00     0.163 HD
ATOM     73  O   UNL A   1      29.897  28.449  22.115  1.00  0.00    -0.269 OA
BRANCH  71  74
ATOM     74  C   UNL A   1      31.498  26.784  22.477  1.00  0.00     0.042 A 
ATOM     75  C   UNL A   1      32.345  26.529  21.390  1.00  0.00     0.016 A 
ATOM     76  C   UNL A   1      31.204  25.805  23.440  1.00  0.00     0.042 A 
ATOM     77  C   UNL A   1      32.930  25.271  21.228  1.00  0.00     0.031 A 
ATOM     78  C   UNL A   1      31.796  24.556  23.240  1.00  0.00     0.067 A 
ATOM     79  C   UNL A   1      32.669  24.288  22.191  1.00  0.00     0.089 A 
ATOM     80  N   UNL A   1      31.723  23.368  23.927  1.00  0.00    -0.338 N 
ATOM     81  N   UNL A   1      33.196  23.034  22.306  1.00  0.00    -0.228 NA
ATOM     82  C   UNL A   1      32.627  22.503  23.366  1.00  0.00     0.142 A 
ATOM     83  H   UNL A   1      31.128  23.174  24.686  1.00  0.00     0.168 HD
BRANCH  82  84
ATOM     84  C   UNL A   1      32.982  21.167  23.891  1.00  0.00     0.063 A 
ATOM     85  C   UNL A   1      32.200  20.039  23.877  1.00  0.00     0.117 A 
ATOM     86  C   UNL A   1      34.197  20.793  24.531  1.00  0.00     0.106 A 
ATOM     87  N   UNL A   1      32.988  19.054  24.398  1.00  0.00    -0.284 N 
ATOM     88  N   UNL A   1      34.173  19.489  24.857  1.00  0.00    -0.175 NA
ATOM     89  H   UNL A   1      32.713  18.109  24.435  1.00  0.00     0.189 HD
BRANCH  86  90
ATOM     90  C   UNL A   1      35.279  21.671  24.961  1.00  0.00     0.039 A 
ATOM     91  C   UNL A   1      36.523  21.603  24.306  1.00  0.00     0.016 A 
ATOM     92  C   UNL A   1      35.122  22.572  26.016  1.00  0.00     0.135 A 
ATOM     93  C   UNL A   1      37.584  22.412  24.714  1.00  0.00     0.040 A 
ATOM     94  C   UNL A   1      36.178  23.387  26.423  1.00  0.00     0.079 A 
ATOM     95  F   UNL A   1      33.959  22.664  26.679  1.00  0.00    -0.206 F 
ATOM     96  C   UNL A   1      37.400  23.296  25.769  1.00  0.00     0.126 A 
ATOM     97  F   UNL A   1      38.419  24.074  26.159  1.00  0.00    -0.207 F 
ENDBRANCH  86  90
ENDBRANCH  82  84
ENDBRANCH  71  74
ENDBRANCH  69  70
ENDBRANCH  68  69
ENDBRANCH   1  68
TORSDOF 15
ENDMDL
