MODEL 1
REMARK VINA RESULT:     -10.6      0.000      0.000
REMARK SMILES C[C@@H]1C[N@H+]2CCC[C@@H]2CN1C(=O)N1CC(C(=O)NCCCNC(=O)c2ccc(-c3c4nc(c(-c5ccc(S(=O)(=O)[O-])cc5)c5ccc([nH]5)c(-c5ccc(S(=O)(=O)[O-])cc5)c5nc(c(-c6ccc(S(=O)(=O)[O-])cc6)c6ccc3[nH]6)C=C5)C=C4)cc2)C1
REMARK SMILES IDX 21 1 20 2 19 3 18 4 16 5 17 6 15 8 11 9 12 10 13 11 14 12
REMARK SMILES IDX 85 13 10 14 1 15 2 16 3 17 4 18 9 19 5 20 8 21 6 23 7 24
REMARK SMILES IDX 22 25 23 26 24 28 25 29 26 30 84 31 27 32 83 33 28 34 29 35
REMARK SMILES IDX 30 36 77 37 31 38 82 39 76 40 78 41 32 42 81 43 75 44 74 45
REMARK SMILES IDX 33 47 63 48 44 49 62 50 45 51 48 52 61 53 79 54 46 55 47 56
REMARK SMILES IDX 60 58 80 59 49 60 34 61 35 62 43 63 36 64 42 65 37 66 38 67
REMARK SMILES IDX 39 68 40 69 41 70 64 71 65 72 73 73 66 74 72 75 67 76 68 77
REMARK SMILES IDX 69 78 70 79 71 80 50 81 51 82 59 83 52 84 58 85 53 86 54 87
REMARK SMILES IDX 55 88 56 89 57 90
REMARK H PARENT 18 7 4 22 22 27 78 46 48 57
REMARK Flexibility Score: inf
ROOT
ATOM      1  C   UNL A   1      35.074  33.219  28.064  1.00  0.00     0.118 C 
ENDROOT
BRANCH   1   2
ATOM      2  C   UNL A   1      34.396  34.585  28.004  1.00  0.00     0.042 C 
BRANCH   2   3
ATOM      3  C   UNL A   1      33.033  34.631  28.685  1.00  0.00     0.117 C 
BRANCH   3   4
ATOM      4  N   UNL A   1      32.879  35.815  29.511  1.00  0.00    -0.356 N 
ATOM      5  C   UNL A   1      33.124  36.031  30.845  1.00  0.00     0.226 C 
ATOM      6  O   UNL A   1      32.868  37.174  31.255  1.00  0.00    -0.275 OA
ATOM      7  H   UNL A   1      32.538  36.603  29.029  1.00  0.00     0.163 HD
BRANCH   5   8
ATOM      8  C   UNL A   1      33.702  34.955  31.768  1.00  0.00     0.117 C 
ATOM      9  C   UNL A   1      36.151  33.890  33.767  1.00  0.00     0.320 C 
ATOM     10  O   UNL A   1      35.696  33.662  34.889  1.00  0.00    -0.248 OA
ATOM     11  N   UNL A   1      35.430  34.632  32.869  1.00  0.00    -0.323 N 
ATOM     12  C   UNL A   1      34.193  35.349  33.156  1.00  0.00     0.136 C 
ATOM     13  C   UNL A   1      35.055  34.299  31.497  1.00  0.00     0.136 C 
BRANCH   9  14
ATOM     14  N   UNL A   1      37.403  33.460  33.378  1.00  0.00    -0.310 N 
ATOM     15  C   UNL A   1      39.343  34.655  32.399  1.00  0.00     0.037 C 
ATOM     16  C   UNL A   1      38.688  34.148  33.685  1.00  0.00     0.139 C 
ATOM     17  C   UNL A   1      39.658  33.222  34.495  1.00  0.00     0.287 C 
ATOM     18  N   UNL A   1      39.768  31.898  33.882  1.00  0.00    -0.329 N 
ATOM     19  C   UNL A   1      37.543  32.090  32.849  1.00  0.00     0.186 C 
ATOM     20  C   UNL A   1      40.627  30.941  34.569  1.00  0.00     0.262 C 
ATOM     21  C   UNL A   1      38.440  31.272  33.780  1.00  0.00     0.204 C 
ATOM     22  H   UNL A   1      40.197  32.092  32.977  1.00  0.00     0.348 HD
ATOM     23  C   UNL A   1      40.043  29.576  34.181  1.00  0.00     0.068 C 
ATOM     24  C   UNL A   1      38.827  29.887  33.307  1.00  0.00     0.073 C 
ENDBRANCH   9  14
ENDBRANCH   5   8
ENDBRANCH   3   4
ENDBRANCH   2   3
ENDBRANCH   1   2
BRANCH   1  25
ATOM     25  N   UNL A   1      34.135  32.115  27.907  1.00  0.00    -0.352 N 
ATOM     26  C   UNL A   1      34.356  30.760  27.864  1.00  0.00     0.251 C 
ATOM     27  H   UNL A   1      33.193  32.384  27.816  1.00  0.00     0.163 HD
ATOM     28  O   UNL A   1      33.438  30.011  27.532  1.00  0.00    -0.269 OA
BRANCH  26  29
ATOM     29  C   UNL A   1      35.686  30.201  28.186  1.00  0.00     0.039 A 
ATOM     30  C   UNL A   1      36.653  30.132  27.179  1.00  0.00     0.014 A 
ATOM     31  C   UNL A   1      35.984  29.738  29.470  1.00  0.00     0.014 A 
ATOM     32  C   UNL A   1      37.940  29.680  27.482  1.00  0.00     0.010 A 
ATOM     33  C   UNL A   1      37.287  29.366  29.789  1.00  0.00     0.010 A 
ATOM     34  C   UNL A   1      38.283  29.341  28.801  1.00  0.00    -0.014 A 
BRANCH  34  35
ATOM     35  C   UNL A   1      39.679  28.988  29.174  1.00  0.00     0.031 A 
ATOM     36  C   UNL A   1      40.577  30.008  29.821  1.00  0.00     0.074 A 
ATOM     37  C   UNL A   1      40.162  27.770  28.858  1.00  0.00     0.049 A 
ATOM     38  N   UNL A   1      41.842  29.907  30.139  1.00  0.00    -0.248 NA
ATOM     39  C   UNL A   1      39.983  31.319  30.127  1.00  0.00     0.031 C 
ATOM     40  C   UNL A   1      39.405  26.703  28.196  1.00  0.00     0.029 A 
ATOM     41  N   UNL A   1      41.408  27.224  29.041  1.00  0.00    -0.354 N 
ATOM     42  C   UNL A   1      42.199  31.140  30.672  1.00  0.00     0.074 A 
ATOM     43  C   UNL A   1      41.031  31.991  30.584  1.00  0.00     0.031 C 
ATOM     44  C   UNL A   1      40.195  25.628  28.048  1.00  0.00     0.029 A 
ATOM     45  C   UNL A   1      41.526  25.942  28.556  1.00  0.00     0.049 A 
ATOM     46  H   UNL A   1      42.148  27.705  29.477  1.00  0.00     0.167 HD
ATOM     47  C   UNL A   1      43.384  31.525  31.203  1.00  0.00     0.031 A 
ATOM     48  C   UNL A   1      42.589  25.114  28.508  1.00  0.00     0.031 A 
ATOM     49  C   UNL A   1      44.545  30.677  31.285  1.00  0.00     0.049 A 
ATOM     50  C   UNL A   1      43.904  25.574  29.072  1.00  0.00     0.074 A 
ATOM     51  C   UNL A   1      45.778  30.960  31.846  1.00  0.00     0.029 A 
ATOM     52  N   UNL A   1      44.622  29.386  30.786  1.00  0.00    -0.354 N 
ATOM     53  N   UNL A   1      44.202  26.723  29.631  1.00  0.00    -0.248 NA
ATOM     54  C   UNL A   1      45.024  24.625  29.007  1.00  0.00     0.031 C 
ATOM     55  C   UNL A   1      46.619  29.864  31.632  1.00  0.00     0.029 A 
ATOM     56  C   UNL A   1      45.889  28.870  30.999  1.00  0.00     0.049 A 
ATOM     57  H   UNL A   1      43.884  28.907  30.345  1.00  0.00     0.167 HD
ATOM     58  C   UNL A   1      45.538  26.625  30.007  1.00  0.00     0.074 A 
ATOM     59  C   UNL A   1      45.983  25.300  29.628  1.00  0.00     0.031 C 
ATOM     60  C   UNL A   1      46.322  27.549  30.614  1.00  0.00     0.031 A 
BRANCH  47  61
ATOM     61  C   UNL A   1      43.487  32.934  31.730  1.00  0.00    -0.014 A 
ATOM     62  C   UNL A   1      43.219  33.227  33.081  1.00  0.00     0.010 A 
ATOM     63  C   UNL A   1      43.894  33.974  30.875  1.00  0.00     0.010 A 
ATOM     64  C   UNL A   1      43.310  34.539  33.553  1.00  0.00     0.020 A 
ATOM     65  C   UNL A   1      44.019  35.284  31.352  1.00  0.00     0.020 A 
ATOM     66  C   UNL A   1      43.706  35.559  32.684  1.00  0.00     0.054 A 
BRANCH  66  67
ATOM     67  S   UNL A   1      43.830  37.249  33.332  1.00  0.00     0.124 S 
ATOM     68  O   UNL A   1      42.633  37.340  34.165  1.00  0.00    -0.237 OA
ATOM     69  O   UNL A   1      45.097  37.223  34.055  1.00  0.00    -0.237 OA
ATOM     70  O   UNL A   1      43.816  38.083  32.132  1.00  0.00    -0.744 OA
ENDBRANCH  66  67
ENDBRANCH  47  61
BRANCH  48  71
ATOM     71  C   UNL A   1      42.447  23.763  27.897  1.00  0.00    -0.014 A 
ATOM     72  C   UNL A   1      42.722  23.558  26.534  1.00  0.00     0.010 A 
ATOM     73  C   UNL A   1      42.052  22.665  28.685  1.00  0.00     0.010 A 
ATOM     74  C   UNL A   1      42.591  22.287  25.966  1.00  0.00     0.020 A 
ATOM     75  C   UNL A   1      41.950  21.387  28.129  1.00  0.00     0.020 A 
ATOM     76  C   UNL A   1      42.210  21.208  26.769  1.00  0.00     0.054 A 
BRANCH  76  77
ATOM     77  S   UNL A   1      42.104  19.557  26.024  1.00  0.00     0.124 S 
ATOM     78  O   UNL A   1      42.551  18.701  27.118  1.00  0.00    -0.237 OA
ATOM     79  O   UNL A   1      40.687  19.459  25.681  1.00  0.00    -0.237 OA
ATOM     80  O   UNL A   1      43.009  19.640  24.880  1.00  0.00    -0.744 OA
ENDBRANCH  76  77
ENDBRANCH  48  71
BRANCH  60  81
ATOM     81  C   UNL A   1      47.740  27.156  30.937  1.00  0.00    -0.014 A 
ATOM     82  C   UNL A   1      48.798  27.446  30.057  1.00  0.00     0.010 A 
ATOM     83  C   UNL A   1      48.026  26.546  32.173  1.00  0.00     0.010 A 
ATOM     84  C   UNL A   1      50.112  27.110  30.396  1.00  0.00     0.020 A 
ATOM     85  C   UNL A   1      49.341  26.237  32.528  1.00  0.00     0.020 A 
ATOM     86  C   UNL A   1      50.376  26.511  31.632  1.00  0.00     0.054 A 
BRANCH  86  87
ATOM     87  S   UNL A   1      52.095  26.138  32.070  1.00  0.00     0.124 S 
ATOM     88  O   UNL A   1      52.776  26.284  30.786  1.00  0.00    -0.237 OA
ATOM     89  O   UNL A   1      52.401  27.164  33.063  1.00  0.00    -0.237 OA
ATOM     90  O   UNL A   1      52.034  24.774  32.590  1.00  0.00    -0.744 OA
ENDBRANCH  86  87
ENDBRANCH  60  81
ENDBRANCH  34  35
ENDBRANCH  26  29
ENDBRANCH   1  25
TORSDOF 14
ENDMDL
MODEL 2
REMARK VINA RESULT:     -10.4      3.788      6.581
REMARK SMILES C[C@@H]1C[N@H+]2CCC[C@@H]2CN1C(=O)N1CC(C(=O)NCCCNC(=O)c2ccc(-c3c4nc(c(-c5ccc(S(=O)(=O)[O-])cc5)c5ccc([nH]5)c(-c5ccc(S(=O)(=O)[O-])cc5)c5nc(c(-c6ccc(S(=O)(=O)[O-])cc6)c6ccc3[nH]6)C=C5)C=C4)cc2)C1
REMARK SMILES IDX 21 1 20 2 19 3 18 4 16 5 17 6 15 8 11 9 12 10 13 11 14 12
REMARK SMILES IDX 85 13 10 14 1 15 2 16 3 17 4 18 9 19 5 20 8 21 6 23 7 24
REMARK SMILES IDX 22 25 23 26 24 28 25 29 26 30 84 31 27 32 83 33 28 34 29 35
REMARK SMILES IDX 30 36 77 37 31 38 82 39 76 40 78 41 32 42 81 43 75 44 74 45
REMARK SMILES IDX 33 47 63 48 44 49 62 50 45 51 48 52 61 53 79 54 46 55 47 56
REMARK SMILES IDX 60 58 80 59 49 60 34 61 35 62 43 63 36 64 42 65 37 66 38 67
REMARK SMILES IDX 39 68 40 69 41 70 64 71 65 72 73 73 66 74 72 75 67 76 68 77
REMARK SMILES IDX 69 78 70 79 71 80 50 81 51 82 59 83 52 84 58 85 53 86 54 87
REMARK SMILES IDX 55 88 56 89 57 90
REMARK H PARENT 18 7 4 22 22 27 78 46 48 57
REMARK Flexibility Score: inf
ROOT
ATOM      1  C   UNL A   1      33.442  28.521  27.264  1.00  0.00     0.118 C 
ENDROOT
BRANCH   1   2
ATOM      2  C   UNL A   1      32.145  28.093  26.582  1.00  0.00     0.042 C 
BRANCH   2   3
ATOM      3  C   UNL A   1      32.294  27.803  25.093  1.00  0.00     0.117 C 
BRANCH   3   4
ATOM      4  N   UNL A   1      31.089  28.133  24.353  1.00  0.00    -0.356 N 
ATOM      5  C   UNL A   1      30.021  27.363  23.966  1.00  0.00     0.226 C 
ATOM      6  O   UNL A   1      29.144  27.956  23.319  1.00  0.00    -0.275 OA
ATOM      7  H   UNL A   1      31.029  29.077  24.080  1.00  0.00     0.163 HD
BRANCH   5   8
ATOM      8  C   UNL A   1      29.890  25.882  24.329  1.00  0.00     0.117 C 
ATOM      9  C   UNL A   1      31.000  23.219  26.004  1.00  0.00     0.320 C 
ATOM     10  O   UNL A   1      30.105  22.789  26.734  1.00  0.00    -0.248 OA
ATOM     11  N   UNL A   1      30.906  24.474  25.465  1.00  0.00    -0.323 N 
ATOM     12  C   UNL A   1      29.894  25.469  25.797  1.00  0.00     0.136 C 
ATOM     13  C   UNL A   1      31.015  24.881  24.066  1.00  0.00     0.136 C 
BRANCH   9  14
ATOM     14  N   UNL A   1      32.142  22.492  25.733  1.00  0.00    -0.310 N 
ATOM     15  C   UNL A   1      32.492  20.120  25.103  1.00  0.00     0.037 C 
ATOM     16  C   UNL A   1      32.316  21.551  24.592  1.00  0.00     0.139 C 
ATOM     17  C   UNL A   1      33.508  21.979  23.669  1.00  0.00     0.287 C 
ATOM     18  N   UNL A   1      34.710  22.273  24.451  1.00  0.00    -0.329 N 
ATOM     19  C   UNL A   1      33.385  22.845  26.444  1.00  0.00     0.186 C 
ATOM     20  C   UNL A   1      35.877  22.709  23.695  1.00  0.00     0.262 C 
ATOM     21  C   UNL A   1      34.430  23.329  25.437  1.00  0.00     0.204 C 
ATOM     22  H   UNL A   1      34.943  21.374  24.872  1.00  0.00     0.348 HD
ATOM     23  C   UNL A   1      36.666  23.566  24.694  1.00  0.00     0.068 C 
ATOM     24  C   UNL A   1      35.824  23.579  25.971  1.00  0.00     0.073 C 
ENDBRANCH   9  14
ENDBRANCH   5   8
ENDBRANCH   3   4
ENDBRANCH   2   3
ENDBRANCH   1   2
BRANCH   1  25
ATOM     25  N   UNL A   1      33.465  29.941  27.592  1.00  0.00    -0.352 N 
ATOM     26  C   UNL A   1      34.444  30.700  28.185  1.00  0.00     0.251 C 
ATOM     27  H   UNL A   1      32.648  30.434  27.351  1.00  0.00     0.163 HD
ATOM     28  O   UNL A   1      34.181  31.847  28.544  1.00  0.00    -0.269 OA
BRANCH  26  29
ATOM     29  C   UNL A   1      35.794  30.144  28.417  1.00  0.00     0.039 A 
ATOM     30  C   UNL A   1      36.730  30.185  27.380  1.00  0.00     0.014 A 
ATOM     31  C   UNL A   1      36.139  29.575  29.646  1.00  0.00     0.014 A 
ATOM     32  C   UNL A   1      38.034  29.735  27.604  1.00  0.00     0.010 A 
ATOM     33  C   UNL A   1      37.458  29.204  29.892  1.00  0.00     0.010 A 
ATOM     34  C   UNL A   1      38.424  29.288  28.877  1.00  0.00    -0.014 A 
BRANCH  34  35
ATOM     35  C   UNL A   1      39.837  28.933  29.176  1.00  0.00     0.031 A 
ATOM     36  C   UNL A   1      40.774  29.957  29.757  1.00  0.00     0.074 A 
ATOM     37  C   UNL A   1      40.296  27.708  28.852  1.00  0.00     0.049 A 
ATOM     38  N   UNL A   1      42.054  29.854  30.006  1.00  0.00    -0.248 NA
ATOM     39  C   UNL A   1      40.204  31.276  30.078  1.00  0.00     0.031 C 
ATOM     40  C   UNL A   1      39.499  26.636  28.249  1.00  0.00     0.029 A 
ATOM     41  N   UNL A   1      41.548  27.158  28.973  1.00  0.00    -0.354 N 
ATOM     42  C   UNL A   1      42.447  31.093  30.500  1.00  0.00     0.074 A 
ATOM     43  C   UNL A   1      41.279  31.948  30.465  1.00  0.00     0.031 C 
ATOM     44  C   UNL A   1      40.274  25.555  28.073  1.00  0.00     0.029 A 
ATOM     45  C   UNL A   1      41.633  25.869  28.501  1.00  0.00     0.049 A 
ATOM     46  H   UNL A   1      42.313  27.641  29.360  1.00  0.00     0.167 HD
ATOM     47  C   UNL A   1      43.661  31.479  30.959  1.00  0.00     0.031 A 
ATOM     48  C   UNL A   1      42.688  25.035  28.405  1.00  0.00     0.031 A 
ATOM     49  C   UNL A   1      44.821  30.627  30.987  1.00  0.00     0.049 A 
ATOM     50  C   UNL A   1      44.034  25.496  28.888  1.00  0.00     0.074 A 
ATOM     51  C   UNL A   1      46.085  30.911  31.475  1.00  0.00     0.029 A 
ATOM     52  N   UNL A   1      44.864  29.328  30.504  1.00  0.00    -0.354 N 
ATOM     53  N   UNL A   1      44.369  26.651  29.413  1.00  0.00    -0.248 NA
ATOM     54  C   UNL A   1      45.145  24.541  28.774  1.00  0.00     0.031 C 
ATOM     55  C   UNL A   1      46.907  29.807  31.230  1.00  0.00     0.029 A 
ATOM     56  C   UNL A   1      46.139  28.809  30.653  1.00  0.00     0.049 A 
ATOM     57  H   UNL A   1      44.100  28.846  30.112  1.00  0.00     0.167 HD
ATOM     58  C   UNL A   1      45.723  26.551  29.715  1.00  0.00     0.074 A 
ATOM     59  C   UNL A   1      46.140  25.219  29.331  1.00  0.00     0.031 C 
ATOM     60  C   UNL A   1      46.544  27.480  30.263  1.00  0.00     0.031 A 
BRANCH  47  61
ATOM     61  C   UNL A   1      43.799  32.895  31.458  1.00  0.00    -0.014 A 
ATOM     62  C   UNL A   1      43.556  33.217  32.807  1.00  0.00     0.010 A 
ATOM     63  C   UNL A   1      44.215  33.911  30.579  1.00  0.00     0.010 A 
ATOM     64  C   UNL A   1      43.680  34.535  33.254  1.00  0.00     0.020 A 
ATOM     65  C   UNL A   1      44.373  35.226  31.030  1.00  0.00     0.020 A 
ATOM     66  C   UNL A   1      44.085  35.532  32.361  1.00  0.00     0.054 A 
BRANCH  66  67
ATOM     67  S   UNL A   1      44.251  37.230  32.976  1.00  0.00     0.124 S 
ATOM     68  O   UNL A   1      43.099  37.341  33.869  1.00  0.00    -0.237 OA
ATOM     69  O   UNL A   1      45.554  37.206  33.634  1.00  0.00    -0.237 OA
ATOM     70  O   UNL A   1      44.180  38.047  31.767  1.00  0.00    -0.744 OA
ENDBRANCH  66  67
ENDBRANCH  47  61
BRANCH  48  71
ATOM     71  C   UNL A   1      42.506  23.676  27.823  1.00  0.00    -0.014 A 
ATOM     72  C   UNL A   1      42.676  23.456  26.445  1.00  0.00     0.010 A 
ATOM     73  C   UNL A   1      42.178  22.586  28.652  1.00  0.00     0.010 A 
ATOM     74  C   UNL A   1      42.508  22.178  25.904  1.00  0.00     0.020 A 
ATOM     75  C   UNL A   1      42.040  21.301  28.120  1.00  0.00     0.020 A 
ATOM     76  C   UNL A   1      42.196  21.107  26.747  1.00  0.00     0.054 A 
BRANCH  76  77
ATOM     77  S   UNL A   1      42.040  19.447  26.031  1.00  0.00     0.124 S 
ATOM     78  O   UNL A   1      42.904  19.540  24.858  1.00  0.00    -0.237 OA
ATOM     79  O   UNL A   1      42.528  18.593  27.111  1.00  0.00    -0.237 OA
ATOM     80  O   UNL A   1      40.611  19.328  25.751  1.00  0.00    -0.744 OA
ENDBRANCH  76  77
ENDBRANCH  48  71
BRANCH  60  81
ATOM     81  C   UNL A   1      47.976  27.085  30.512  1.00  0.00    -0.014 A 
ATOM     82  C   UNL A   1      48.970  27.286  29.539  1.00  0.00     0.010 A 
ATOM     83  C   UNL A   1      48.343  26.563  31.767  1.00  0.00     0.010 A 
ATOM     84  C   UNL A   1      50.300  26.951  29.806  1.00  0.00     0.020 A 
ATOM     85  C   UNL A   1      49.676  26.255  32.049  1.00  0.00     0.020 A 
ATOM     86  C   UNL A   1      50.646  26.441  31.062  1.00  0.00     0.054 A 
BRANCH  86  87
ATOM     87  S   UNL A   1      52.388  26.068  31.403  1.00  0.00     0.124 S 
ATOM     88  O   UNL A   1      52.315  24.696  31.898  1.00  0.00    -0.237 OA
ATOM     89  O   UNL A   1      53.011  26.231  30.092  1.00  0.00    -0.237 OA
ATOM     90  O   UNL A   1      52.769  27.068  32.397  1.00  0.00    -0.744 OA
ENDBRANCH  86  87
ENDBRANCH  60  81
ENDBRANCH  34  35
ENDBRANCH  26  29
ENDBRANCH   1  25
TORSDOF 14
ENDMDL
MODEL 3
REMARK VINA RESULT:     -10.2      2.919     11.822
REMARK SMILES C[C@@H]1C[N@H+]2CCC[C@@H]2CN1C(=O)N1CC(C(=O)NCCCNC(=O)c2ccc(-c3c4nc(c(-c5ccc(S(=O)(=O)[O-])cc5)c5ccc([nH]5)c(-c5ccc(S(=O)(=O)[O-])cc5)c5nc(c(-c6ccc(S(=O)(=O)[O-])cc6)c6ccc3[nH]6)C=C5)C=C4)cc2)C1
REMARK SMILES IDX 21 1 20 2 19 3 18 4 16 5 17 6 15 8 11 9 12 10 13 11 14 12
REMARK SMILES IDX 85 13 10 14 1 15 2 16 3 17 4 18 9 19 5 20 8 21 6 23 7 24
REMARK SMILES IDX 22 25 23 26 24 28 25 29 26 30 84 31 27 32 83 33 28 34 29 35
REMARK SMILES IDX 30 36 77 37 31 38 82 39 76 40 78 41 32 42 81 43 75 44 74 45
REMARK SMILES IDX 33 47 63 48 44 49 62 50 45 51 48 52 61 53 79 54 46 55 47 56
REMARK SMILES IDX 60 58 80 59 49 60 34 61 35 62 43 63 36 64 42 65 37 66 38 67
REMARK SMILES IDX 39 68 40 69 41 70 64 71 65 72 73 73 66 74 72 75 67 76 68 77
REMARK SMILES IDX 69 78 70 79 71 80 50 81 51 82 59 83 52 84 58 85 53 86 54 87
REMARK SMILES IDX 55 88 56 89 57 90
REMARK H PARENT 18 7 4 22 22 27 78 46 48 57
REMARK Flexibility Score: inf
ROOT
ATOM      1  C   UNL A   1      41.197  21.697  27.268  1.00  0.00     0.118 C 
ENDROOT
BRANCH   1   2
ATOM      2  C   UNL A   1      41.756  20.278  27.338  1.00  0.00     0.042 C 
BRANCH   2   3
ATOM      3  C   UNL A   1      41.890  19.597  25.980  1.00  0.00     0.117 C 
BRANCH   3   4
ATOM      4  N   UNL A   1      43.169  18.926  25.835  1.00  0.00    -0.356 N 
ATOM      5  C   UNL A   1      44.375  19.363  25.345  1.00  0.00     0.226 C 
ATOM      6  O   UNL A   1      45.286  18.520  25.343  1.00  0.00    -0.275 OA
ATOM      7  H   UNL A   1      43.172  17.990  26.142  1.00  0.00     0.163 HD
BRANCH   5   8
ATOM      8  C   UNL A   1      44.603  20.797  24.861  1.00  0.00     0.117 C 
ATOM      9  C   UNL A   1      46.210  23.707  25.138  1.00  0.00     0.320 C 
ATOM     10  O   UNL A   1      46.775  23.968  24.074  1.00  0.00    -0.248 OA
ATOM     11  N   UNL A   1      45.759  22.438  25.385  1.00  0.00    -0.323 N 
ATOM     12  C   UNL A   1      46.022  21.266  24.558  1.00  0.00     0.136 C 
ATOM     13  C   UNL A   1      44.424  22.001  25.784  1.00  0.00     0.136 C 
BRANCH   9  14
ATOM     14  N   UNL A   1      46.046  24.648  26.135  1.00  0.00    -0.310 N 
ATOM     15  C   UNL A   1      46.863  24.752  28.474  1.00  0.00     0.037 C 
ATOM     16  C   UNL A   1      47.124  25.162  27.023  1.00  0.00     0.139 C 
ATOM     17  C   UNL A   1      47.289  26.715  26.889  1.00  0.00     0.287 C 
ATOM     18  N   UNL A   1      45.998  27.399  26.981  1.00  0.00    -0.329 N 
ATOM     19  C   UNL A   1      44.785  25.413  26.178  1.00  0.00     0.186 C 
ATOM     20  C   UNL A   1      46.028  28.849  26.842  1.00  0.00     0.262 C 
ATOM     21  C   UNL A   1      45.081  26.896  25.946  1.00  0.00     0.204 C 
ATOM     22  H   UNL A   1      45.690  27.193  27.932  1.00  0.00     0.348 HD
ATOM     23  C   UNL A   1      44.638  29.196  26.292  1.00  0.00     0.068 C 
ATOM     24  C   UNL A   1      43.923  27.856  26.118  1.00  0.00     0.073 C 
ENDBRANCH   9  14
ENDBRANCH   5   8
ENDBRANCH   3   4
ENDBRANCH   2   3
ENDBRANCH   1   2
BRANCH   1  25
ATOM     25  N   UNL A   1      39.975  21.784  26.476  1.00  0.00    -0.352 N 
ATOM     26  C   UNL A   1      39.077  22.813  26.341  1.00  0.00     0.251 C 
ATOM     27  H   UNL A   1      39.761  20.976  25.957  1.00  0.00     0.163 HD
ATOM     28  O   UNL A   1      38.007  22.607  25.769  1.00  0.00    -0.269 OA
BRANCH  26  29
ATOM     29  C   UNL A   1      39.371  24.151  26.898  1.00  0.00     0.039 A 
ATOM     30  C   UNL A   1      38.952  24.449  28.198  1.00  0.00     0.014 A 
ATOM     31  C   UNL A   1      40.047  25.114  26.146  1.00  0.00     0.014 A 
ATOM     32  C   UNL A   1      39.288  25.679  28.771  1.00  0.00     0.010 A 
ATOM     33  C   UNL A   1      40.451  26.305  26.744  1.00  0.00     0.010 A 
ATOM     34  C   UNL A   1      40.084  26.597  28.067  1.00  0.00    -0.014 A 
BRANCH  34  35
ATOM     35  C   UNL A   1      40.569  27.852  28.702  1.00  0.00     0.031 A 
ATOM     36  C   UNL A   1      41.951  27.924  29.292  1.00  0.00     0.074 A 
ATOM     37  C   UNL A   1      39.732  28.903  28.817  1.00  0.00     0.049 A 
ATOM     38  N   UNL A   1      42.513  28.901  29.956  1.00  0.00    -0.248 NA
ATOM     39  C   UNL A   1      42.805  26.735  29.136  1.00  0.00     0.031 C 
ATOM     40  C   UNL A   1      38.354  28.948  28.321  1.00  0.00     0.029 A 
ATOM     41  N   UNL A   1      39.913  30.134  29.397  1.00  0.00    -0.354 N 
ATOM     42  C   UNL A   1      43.778  28.445  30.307  1.00  0.00     0.074 A 
ATOM     43  C   UNL A   1      43.881  27.082  29.829  1.00  0.00     0.031 C 
ATOM     44  C   UNL A   1      37.824  30.149  28.598  1.00  0.00     0.029 A 
ATOM     45  C   UNL A   1      38.801  30.942  29.335  1.00  0.00     0.049 A 
ATOM     46  H   UNL A   1      40.758  30.412  29.818  1.00  0.00     0.167 HD
ATOM     47  C   UNL A   1      44.771  29.103  30.951  1.00  0.00     0.031 A 
ATOM     48  C   UNL A   1      38.582  32.177  29.831  1.00  0.00     0.031 A 
ATOM     49  C   UNL A   1      44.664  30.457  31.429  1.00  0.00     0.049 A 
ATOM     50  C   UNL A   1      39.687  32.876  30.573  1.00  0.00     0.074 A 
ATOM     51  C   UNL A   1      45.630  31.228  32.053  1.00  0.00     0.029 A 
ATOM     52  N   UNL A   1      43.523  31.241  31.343  1.00  0.00    -0.354 N 
ATOM     53  N   UNL A   1      40.899  32.450  30.837  1.00  0.00    -0.248 NA
ATOM     54  C   UNL A   1      39.399  34.226  31.077  1.00  0.00     0.031 C 
ATOM     55  C   UNL A   1      45.054  32.454  32.400  1.00  0.00     0.029 A 
ATOM     56  C   UNL A   1      43.751  32.474  31.930  1.00  0.00     0.049 A 
ATOM     57  H   UNL A   1      42.676  30.961  30.927  1.00  0.00     0.167 HD
ATOM     58  C   UNL A   1      41.527  33.489  31.516  1.00  0.00     0.074 A 
ATOM     59  C   UNL A   1      40.566  34.569  31.606  1.00  0.00     0.031 C 
ATOM     60  C   UNL A   1      42.785  33.542  32.017  1.00  0.00     0.031 A 
BRANCH  47  61
ATOM     61  C   UNL A   1      46.062  28.360  31.187  1.00  0.00    -0.014 A 
ATOM     62  C   UNL A   1      46.234  27.543  32.320  1.00  0.00     0.010 A 
ATOM     63  C   UNL A   1      47.103  28.447  30.245  1.00  0.00     0.010 A 
ATOM     64  C   UNL A   1      47.439  26.868  32.530  1.00  0.00     0.020 A 
ATOM     65  C   UNL A   1      48.299  27.746  30.435  1.00  0.00     0.020 A 
ATOM     66  C   UNL A   1      48.465  26.976  31.587  1.00  0.00     0.054 A 
BRANCH  66  67
ATOM     67  S   UNL A   1      50.010  26.074  31.882  1.00  0.00     0.124 S 
ATOM     68  O   UNL A   1      51.005  26.999  31.345  1.00  0.00    -0.237 OA
ATOM     69  O   UNL A   1      50.018  25.917  33.333  1.00  0.00    -0.237 OA
ATOM     70  O   UNL A   1      49.840  24.836  31.125  1.00  0.00    -0.744 OA
ENDBRANCH  66  67
ENDBRANCH  47  61
BRANCH  48  71
ATOM     71  C   UNL A   1      37.256  32.827  29.639  1.00  0.00    -0.014 A 
ATOM     72  C   UNL A   1      36.377  32.999  30.723  1.00  0.00     0.010 A 
ATOM     73  C   UNL A   1      36.872  33.295  28.369  1.00  0.00     0.010 A 
ATOM     74  C   UNL A   1      35.135  33.612  30.539  1.00  0.00     0.020 A 
ATOM     75  C   UNL A   1      35.644  33.937  28.186  1.00  0.00     0.020 A 
ATOM     76  C   UNL A   1      34.778  34.083  29.271  1.00  0.00     0.054 A 
BRANCH  76  77
ATOM     77  S   UNL A   1      33.185  34.928  29.068  1.00  0.00     0.124 S 
ATOM     78  O   UNL A   1      33.602  36.256  28.629  1.00  0.00    -0.237 OA
ATOM     79  O   UNL A   1      32.521  34.107  28.060  1.00  0.00    -0.237 OA
ATOM     80  O   UNL A   1      32.593  34.865  30.402  1.00  0.00    -0.744 OA
ENDBRANCH  76  77
ENDBRANCH  48  71
BRANCH  60  81
ATOM     81  C   UNL A   1      43.215  34.822  32.685  1.00  0.00    -0.014 A 
ATOM     82  C   UNL A   1      43.780  35.878  31.948  1.00  0.00     0.010 A 
ATOM     83  C   UNL A   1      42.990  34.994  34.064  1.00  0.00     0.010 A 
ATOM     84  C   UNL A   1      44.133  37.073  32.581  1.00  0.00     0.020 A 
ATOM     85  C   UNL A   1      43.313  36.199  34.694  1.00  0.00     0.020 A 
ATOM     86  C   UNL A   1      43.893  37.227  33.950  1.00  0.00     0.054 A 
BRANCH  86  87
ATOM     87  S   UNL A   1      44.308  38.809  34.735  1.00  0.00     0.124 S 
ATOM     88  O   UNL A   1      43.335  39.714  34.128  1.00  0.00    -0.237 OA
ATOM     89  O   UNL A   1      44.104  38.525  36.152  1.00  0.00    -0.237 OA
ATOM     90  O   UNL A   1      45.697  39.037  34.344  1.00  0.00    -0.744 OA
ENDBRANCH  86  87
ENDBRANCH  60  81
ENDBRANCH  34  35
ENDBRANCH  26  29
ENDBRANCH   1  25
TORSDOF 14
ENDMDL
