MODEL 1
REMARK VINA RESULT:     -13.1      0.000      0.000
REMARK SMILES O=C(NCCCNC(=O)c1nn(Cc2ccc(O)cc2)c2ccccc12)c1ccc(-c2c3nc(c(-c4ccc(S(=O)(=O)[O-])cc4)c4ccc([nH]4)c(-c4ccc(S(=O)(=O)[O-])cc4)c4nc(c(-c5ccc(S(=O)(=O)[O-])cc5)c5ccc2[nH]5)C=C4)C=C3)cc1
REMARK SMILES IDX 5 1 4 2 3 3 1 4 2 5 27 7 28 8 86 9 29 10 85 11 30 12 31 13
REMARK SMILES IDX 32 14 79 15 33 16 84 17 78 18 80 19 34 20 83 21 77 22 76 23
REMARK SMILES IDX 35 25 65 26 46 27 64 28 47 29 50 30 63 31 81 32 48 33 49 34
REMARK SMILES IDX 62 36 82 37 51 38 36 39 37 40 45 41 38 42 44 43 39 44 40 45
REMARK SMILES IDX 41 46 42 47 43 48 66 49 67 50 75 51 68 52 74 53 69 54 70 55
REMARK SMILES IDX 71 56 72 57 73 58 52 59 53 60 61 61 54 62 60 63 55 64 56 65
REMARK SMILES IDX 57 66 58 67 59 68 6 69 7 70 8 71 9 73 10 74 11 75 26 76
REMARK SMILES IDX 12 77 21 78 25 79 22 80 24 81 23 82 13 83 14 84 15 85 20 86
REMARK SMILES IDX 16 87 19 88 17 89 18 90
REMARK H PARENT 3 6 80 24 50 35 7 72 18 91
REMARK Flexibility Score: inf
ROOT
ATOM      1  C   UNL A   1      38.622  22.548  25.476  1.00  0.00     0.042 C 
ENDROOT
BRANCH   1   2
ATOM      2  C   UNL A   1      39.621  22.050  26.489  1.00  0.00     0.118 C 
BRANCH   2   3
ATOM      3  N   UNL A   1      41.010  22.022  26.004  1.00  0.00    -0.352 N 
ATOM      4  O   UNL A   1      42.913  23.021  25.253  1.00  0.00    -0.269 OA
ATOM      5  C   UNL A   1      41.924  23.076  25.955  1.00  0.00     0.251 C 
ATOM      6  H   UNL A   1      41.334  21.154  25.671  1.00  0.00     0.163 HD
BRANCH   5   7
ATOM      7  C   UNL A   1      41.634  24.258  26.792  1.00  0.00     0.039 A 
ATOM      8  C   UNL A   1      42.119  24.437  28.086  1.00  0.00     0.014 A 
ATOM      9  C   UNL A   1      40.920  25.268  26.170  1.00  0.00     0.014 A 
ATOM     10  C   UNL A   1      41.917  25.680  28.687  1.00  0.00     0.010 A 
ATOM     11  C   UNL A   1      41.097  26.546  26.588  1.00  0.00     0.010 A 
ATOM     12  C   UNL A   1      41.410  26.740  27.912  1.00  0.00    -0.014 A 
BRANCH  12  13
ATOM     13  C   UNL A   1      41.179  28.080  28.425  1.00  0.00     0.031 A 
ATOM     14  C   UNL A   1      42.232  29.050  28.088  1.00  0.00     0.074 A 
ATOM     15  C   UNL A   1      40.042  28.463  29.050  1.00  0.00     0.049 A 
ATOM     16  N   UNL A   1      43.192  29.424  28.859  1.00  0.00    -0.248 NA
ATOM     17  C   UNL A   1      42.349  29.509  26.700  1.00  0.00     0.031 C 
ATOM     18  C   UNL A   1      38.777  27.731  29.239  1.00  0.00     0.029 A 
ATOM     19  N   UNL A   1      39.761  29.669  29.609  1.00  0.00    -0.354 N 
ATOM     20  C   UNL A   1      43.917  30.352  28.132  1.00  0.00     0.074 A 
ATOM     21  C   UNL A   1      43.483  30.211  26.763  1.00  0.00     0.031 C 
ATOM     22  C   UNL A   1      37.813  28.573  29.675  1.00  0.00     0.029 A 
ATOM     23  C   UNL A   1      38.438  29.841  29.993  1.00  0.00     0.049 A 
ATOM     24  H   UNL A   1      40.443  30.368  29.733  1.00  0.00     0.167 HD
ATOM     25  C   UNL A   1      44.639  31.317  28.763  1.00  0.00     0.031 A 
ATOM     26  C   UNL A   1      37.898  30.927  30.594  1.00  0.00     0.031 A 
ATOM     27  C   UNL A   1      44.755  31.045  30.177  1.00  0.00     0.049 A 
ATOM     28  C   UNL A   1      39.022  31.627  31.260  1.00  0.00     0.074 A 
ATOM     29  C   UNL A   1      45.327  30.035  30.923  1.00  0.00     0.029 A 
ATOM     30  N   UNL A   1      43.837  31.661  30.999  1.00  0.00    -0.354 N 
ATOM     31  N   UNL A   1      39.687  31.124  32.262  1.00  0.00    -0.248 NA
ATOM     32  C   UNL A   1      39.690  32.697  30.540  1.00  0.00     0.031 C 
ATOM     33  C   UNL A   1      44.423  29.813  32.003  1.00  0.00     0.029 A 
ATOM     34  C   UNL A   1      43.384  30.744  31.914  1.00  0.00     0.049 A 
ATOM     35  H   UNL A   1      43.554  32.602  30.939  1.00  0.00     0.167 HD
ATOM     36  C   UNL A   1      41.004  31.498  32.036  1.00  0.00     0.074 A 
ATOM     37  C   UNL A   1      40.925  32.555  31.029  1.00  0.00     0.031 C 
ATOM     38  C   UNL A   1      42.047  30.739  32.488  1.00  0.00     0.031 A 
BRANCH  25  39
ATOM     39  C   UNL A   1      44.921  32.672  28.176  1.00  0.00    -0.014 A 
ATOM     40  C   UNL A   1      43.927  33.647  27.959  1.00  0.00     0.010 A 
ATOM     41  C   UNL A   1      46.261  33.085  28.029  1.00  0.00     0.010 A 
ATOM     42  C   UNL A   1      44.238  34.954  27.590  1.00  0.00     0.020 A 
ATOM     43  C   UNL A   1      46.587  34.407  27.703  1.00  0.00     0.020 A 
ATOM     44  C   UNL A   1      45.569  35.329  27.472  1.00  0.00     0.054 A 
BRANCH  44  45
ATOM     45  S   UNL A   1      45.930  37.055  27.073  1.00  0.00     0.124 S 
ATOM     46  O   UNL A   1      46.714  36.918  25.847  1.00  0.00    -0.237 OA
ATOM     47  O   UNL A   1      44.597  37.623  26.908  1.00  0.00    -0.237 OA
ATOM     48  O   UNL A   1      46.671  37.528  28.239  1.00  0.00    -0.744 OA
ENDBRANCH  44  45
ENDBRANCH  25  39
BRANCH  26  49
ATOM     49  C   UNL A   1      36.651  31.631  30.196  1.00  0.00    -0.014 A 
ATOM     50  C   UNL A   1      36.509  32.138  28.888  1.00  0.00     0.010 A 
ATOM     51  C   UNL A   1      35.760  32.094  31.184  1.00  0.00     0.010 A 
ATOM     52  C   UNL A   1      35.587  33.152  28.603  1.00  0.00     0.020 A 
ATOM     53  C   UNL A   1      34.834  33.111  30.905  1.00  0.00     0.020 A 
ATOM     54  C   UNL A   1      34.786  33.664  29.624  1.00  0.00     0.054 A 
BRANCH  54  55
ATOM     55  S   UNL A   1      33.766  35.125  29.271  1.00  0.00     0.124 S 
ATOM     56  O   UNL A   1      32.541  34.524  28.753  1.00  0.00    -0.237 OA
ATOM     57  O   UNL A   1      33.650  35.755  30.584  1.00  0.00    -0.237 OA
ATOM     58  O   UNL A   1      34.556  35.872  28.295  1.00  0.00    -0.744 OA
ENDBRANCH  54  55
ENDBRANCH  26  49
BRANCH  38  59
ATOM     59  C   UNL A   1      41.769  29.654  33.514  1.00  0.00    -0.014 A 
ATOM     60  C   UNL A   1      42.078  29.949  34.855  1.00  0.00     0.010 A 
ATOM     61  C   UNL A   1      41.402  28.331  33.193  1.00  0.00     0.010 A 
ATOM     62  C   UNL A   1      42.072  28.957  35.836  1.00  0.00     0.020 A 
ATOM     63  C   UNL A   1      41.365  27.331  34.182  1.00  0.00     0.020 A 
ATOM     64  C   UNL A   1      41.728  27.649  35.494  1.00  0.00     0.054 A 
BRANCH  64  65
ATOM     65  S   UNL A   1      41.793  26.384  36.795  1.00  0.00     0.124 S 
ATOM     66  O   UNL A   1      42.876  26.870  37.647  1.00  0.00    -0.237 OA
ATOM     67  O   UNL A   1      40.458  26.459  37.384  1.00  0.00    -0.237 OA
ATOM     68  O   UNL A   1      42.080  25.146  36.073  1.00  0.00    -0.744 OA
ENDBRANCH  64  65
ENDBRANCH  38  59
ENDBRANCH  12  13
ENDBRANCH   5   7
ENDBRANCH   2   3
ENDBRANCH   1   2
BRANCH   1  69
ATOM     69  C   UNL A   1      37.316  21.765  25.529  1.00  0.00     0.118 C 
BRANCH  69  70
ATOM     70  N   UNL A   1      36.405  22.168  26.596  1.00  0.00    -0.351 N 
ATOM     71  C   UNL A   1      35.031  22.333  26.544  1.00  0.00     0.272 C 
ATOM     72  H   UNL A   1      36.822  22.347  27.469  1.00  0.00     0.163 HD
ATOM     73  O   UNL A   1      34.439  22.729  27.546  1.00  0.00    -0.267 OA
BRANCH  71  74
ATOM     74  C   UNL A   1      34.354  22.005  25.287  1.00  0.00     0.158 A 
ATOM     75  N   UNL A   1      33.810  20.796  25.066  1.00  0.00    -0.166 NA
ATOM     76  C   UNL A   1      34.084  22.900  24.210  1.00  0.00     0.033 A 
ATOM     77  N   UNL A   1      33.117  20.947  23.917  1.00  0.00    -0.260 N 
ATOM     78  C   UNL A   1      33.276  22.187  23.333  1.00  0.00     0.069 A 
ATOM     79  C   UNL A   1      34.366  24.259  23.946  1.00  0.00     0.013 A 
ATOM     80  C   UNL A   1      32.759  22.775  22.170  1.00  0.00     0.028 A 
ATOM     81  C   UNL A   1      33.735  24.887  22.872  1.00  0.00     0.001 A 
ATOM     82  C   UNL A   1      32.947  24.151  21.995  1.00  0.00     0.002 A 
BRANCH  77  83
ATOM     83  C   UNL A   1      32.286  19.838  23.448  1.00  0.00     0.180 C 
BRANCH  83  84
ATOM     84  C   UNL A   1      32.752  18.483  23.946  1.00  0.00    -0.026 A 
ATOM     85  C   UNL A   1      33.569  17.656  23.158  1.00  0.00     0.009 A 
ATOM     86  C   UNL A   1      32.407  18.031  25.230  1.00  0.00     0.009 A 
ATOM     87  C   UNL A   1      34.005  16.414  23.615  1.00  0.00     0.046 A 
ATOM     88  C   UNL A   1      32.858  16.789  25.700  1.00  0.00     0.046 A 
ATOM     89  C   UNL A   1      33.646  15.988  24.883  1.00  0.00     0.115 A 
BRANCH  89  90
ATOM     90  O   UNL A   1      34.097  14.767  25.287  1.00  0.00    -0.508 OA
ATOM     91  H   UNL A   1      34.956  14.681  25.649  1.00  0.00     0.293 HD
ENDBRANCH  89  90
ENDBRANCH  83  84
ENDBRANCH  77  83
ENDBRANCH  71  74
ENDBRANCH  69  70
ENDBRANCH   1  69
TORSDOF 16
ENDMDL
MODEL 2
REMARK VINA RESULT:     -12.9      1.904      3.762
REMARK SMILES O=C(NCCCNC(=O)c1nn(Cc2ccc(O)cc2)c2ccccc12)c1ccc(-c2c3nc(c(-c4ccc(S(=O)(=O)[O-])cc4)c4ccc([nH]4)c(-c4ccc(S(=O)(=O)[O-])cc4)c4nc(c(-c5ccc(S(=O)(=O)[O-])cc5)c5ccc2[nH]5)C=C4)C=C3)cc1
REMARK SMILES IDX 5 1 4 2 3 3 1 4 2 5 27 7 28 8 86 9 29 10 85 11 30 12 31 13
REMARK SMILES IDX 32 14 79 15 33 16 84 17 78 18 80 19 34 20 83 21 77 22 76 23
REMARK SMILES IDX 35 25 65 26 46 27 64 28 47 29 50 30 63 31 81 32 48 33 49 34
REMARK SMILES IDX 62 36 82 37 51 38 36 39 37 40 45 41 38 42 44 43 39 44 40 45
REMARK SMILES IDX 41 46 42 47 43 48 66 49 67 50 75 51 68 52 74 53 69 54 70 55
REMARK SMILES IDX 71 56 72 57 73 58 52 59 53 60 61 61 54 62 60 63 55 64 56 65
REMARK SMILES IDX 57 66 58 67 59 68 6 69 7 70 8 71 9 73 10 74 11 75 26 76
REMARK SMILES IDX 12 77 21 78 25 79 22 80 24 81 23 82 13 83 14 84 15 85 20 86
REMARK SMILES IDX 16 87 19 88 17 89 18 90
REMARK H PARENT 3 6 80 24 50 35 7 72 18 91
REMARK Flexibility Score: inf
ROOT
ATOM      1  C   UNL A   1      39.031  21.574  26.119  1.00  0.00     0.042 C 
ENDROOT
BRANCH   1   2
ATOM      2  C   UNL A   1      39.932  22.524  26.866  1.00  0.00     0.118 C 
BRANCH   2   3
ATOM      3  N   UNL A   1      41.341  22.102  26.921  1.00  0.00    -0.352 N 
ATOM      4  O   UNL A   1      43.566  22.425  26.565  1.00  0.00    -0.269 OA
ATOM      5  C   UNL A   1      42.481  22.902  26.826  1.00  0.00     0.251 C 
ATOM      6  H   UNL A   1      41.500  21.137  27.036  1.00  0.00     0.163 HD
BRANCH   5   7
ATOM      7  C   UNL A   1      42.308  24.351  27.056  1.00  0.00     0.039 A 
ATOM      8  C   UNL A   1      41.932  25.260  26.068  1.00  0.00     0.014 A 
ATOM      9  C   UNL A   1      42.439  24.765  28.370  1.00  0.00     0.014 A 
ATOM     10  C   UNL A   1      41.630  26.562  26.469  1.00  0.00     0.010 A 
ATOM     11  C   UNL A   1      41.763  25.869  28.777  1.00  0.00     0.010 A 
ATOM     12  C   UNL A   1      41.536  26.851  27.843  1.00  0.00    -0.014 A 
BRANCH  12  13
ATOM     13  C   UNL A   1      41.209  28.164  28.374  1.00  0.00     0.031 A 
ATOM     14  C   UNL A   1      42.199  29.207  28.065  1.00  0.00     0.074 A 
ATOM     15  C   UNL A   1      40.041  28.460  28.990  1.00  0.00     0.049 A 
ATOM     16  N   UNL A   1      43.123  29.631  28.856  1.00  0.00    -0.248 NA
ATOM     17  C   UNL A   1      42.303  29.696  26.686  1.00  0.00     0.031 C 
ATOM     18  C   UNL A   1      38.826  27.643  29.150  1.00  0.00     0.029 A 
ATOM     19  N   UNL A   1      39.674  29.636  29.563  1.00  0.00    -0.354 N 
ATOM     20  C   UNL A   1      43.793  30.618  28.153  1.00  0.00     0.074 A 
ATOM     21  C   UNL A   1      43.386  30.470  26.776  1.00  0.00     0.031 C 
ATOM     22  C   UNL A   1      37.803  28.412  29.586  1.00  0.00     0.029 A 
ATOM     23  C   UNL A   1      38.338  29.713  29.931  1.00  0.00     0.049 A 
ATOM     24  H   UNL A   1      40.306  30.376  29.706  1.00  0.00     0.167 HD
ATOM     25  C   UNL A   1      44.442  31.618  28.808  1.00  0.00     0.031 A 
ATOM     26  C   UNL A   1      37.719  30.751  30.542  1.00  0.00     0.031 A 
ATOM     27  C   UNL A   1      44.558  31.332  30.218  1.00  0.00     0.049 A 
ATOM     28  C   UNL A   1      38.785  31.514  31.233  1.00  0.00     0.074 A 
ATOM     29  C   UNL A   1      45.187  30.350  30.957  1.00  0.00     0.029 A 
ATOM     30  N   UNL A   1      43.591  31.872  31.037  1.00  0.00    -0.354 N 
ATOM     31  N   UNL A   1      39.470  31.040  32.237  1.00  0.00    -0.248 NA
ATOM     32  C   UNL A   1      39.390  32.637  30.539  1.00  0.00     0.031 C 
ATOM     33  C   UNL A   1      44.286  30.051  32.021  1.00  0.00     0.029 A 
ATOM     34  C   UNL A   1      43.189  30.912  31.932  1.00  0.00     0.049 A 
ATOM     35  H   UNL A   1      43.246  32.793  30.988  1.00  0.00     0.167 HD
ATOM     36  C   UNL A   1      40.762  31.504  32.034  1.00  0.00     0.074 A 
ATOM     37  C   UNL A   1      40.625  32.569  31.042  1.00  0.00     0.031 C 
ATOM     38  C   UNL A   1      41.847  30.809  32.488  1.00  0.00     0.031 A 
BRANCH  25  39
ATOM     39  C   UNL A   1      44.639  32.998  28.245  1.00  0.00    -0.014 A 
ATOM     40  C   UNL A   1      43.579  33.886  27.974  1.00  0.00     0.010 A 
ATOM     41  C   UNL A   1      45.945  33.526  28.181  1.00  0.00     0.010 A 
ATOM     42  C   UNL A   1      43.797  35.219  27.630  1.00  0.00     0.020 A 
ATOM     43  C   UNL A   1      46.174  34.874  27.881  1.00  0.00     0.020 A 
ATOM     44  C   UNL A   1      45.096  35.708  27.595  1.00  0.00     0.054 A 
BRANCH  44  45
ATOM     45  S   UNL A   1      45.330  37.463  27.226  1.00  0.00     0.124 S 
ATOM     46  O   UNL A   1      46.256  37.408  26.097  1.00  0.00    -0.237 OA
ATOM     47  O   UNL A   1      43.974  37.899  26.908  1.00  0.00    -0.237 OA
ATOM     48  O   UNL A   1      45.885  38.001  28.465  1.00  0.00    -0.744 OA
ENDBRANCH  44  45
ENDBRANCH  25  39
BRANCH  26  49
ATOM     49  C   UNL A   1      36.433  31.376  30.138  1.00  0.00    -0.014 A 
ATOM     50  C   UNL A   1      36.157  31.615  28.776  1.00  0.00     0.010 A 
ATOM     51  C   UNL A   1      35.641  32.037  31.098  1.00  0.00     0.010 A 
ATOM     52  C   UNL A   1      35.203  32.563  28.388  1.00  0.00     0.020 A 
ATOM     53  C   UNL A   1      34.684  32.990  30.715  1.00  0.00     0.020 A 
ATOM     54  C   UNL A   1      34.503  33.277  29.361  1.00  0.00     0.054 A 
BRANCH  54  55
ATOM     55  S   UNL A   1      33.442  34.652  28.828  1.00  0.00     0.124 S 
ATOM     56  O   UNL A   1      34.419  35.623  28.348  1.00  0.00    -0.237 OA
ATOM     57  O   UNL A   1      32.615  34.030  27.795  1.00  0.00    -0.237 OA
ATOM     58  O   UNL A   1      32.728  35.032  30.044  1.00  0.00    -0.744 OA
ENDBRANCH  54  55
ENDBRANCH  26  49
BRANCH  38  59
ATOM     59  C   UNL A   1      41.630  29.692  33.494  1.00  0.00    -0.014 A 
ATOM     60  C   UNL A   1      41.719  30.032  34.857  1.00  0.00     0.010 A 
ATOM     61  C   UNL A   1      41.530  28.326  33.156  1.00  0.00     0.010 A 
ATOM     62  C   UNL A   1      41.757  29.052  35.849  1.00  0.00     0.020 A 
ATOM     63  C   UNL A   1      41.539  27.333  34.153  1.00  0.00     0.020 A 
ATOM     64  C   UNL A   1      41.680  27.705  35.493  1.00  0.00     0.054 A 
BRANCH  64  65
ATOM     65  S   UNL A   1      41.794  26.467  36.816  1.00  0.00     0.124 S 
ATOM     66  O   UNL A   1      43.039  26.841  37.484  1.00  0.00    -0.237 OA
ATOM     67  O   UNL A   1      40.578  26.709  37.589  1.00  0.00    -0.237 OA
ATOM     68  O   UNL A   1      41.830  25.190  36.106  1.00  0.00    -0.744 OA
ENDBRANCH  64  65
ENDBRANCH  38  59
ENDBRANCH  12  13
ENDBRANCH   5   7
ENDBRANCH   2   3
ENDBRANCH   1   2
BRANCH   1  69
ATOM     69  C   UNL A   1      37.702  22.220  25.748  1.00  0.00     0.118 C 
BRANCH  69  70
ATOM     70  N   UNL A   1      37.519  22.466  24.321  1.00  0.00    -0.351 N 
ATOM     71  C   UNL A   1      36.411  22.975  23.666  1.00  0.00     0.272 C 
ATOM     72  H   UNL A   1      38.286  22.239  23.747  1.00  0.00     0.163 HD
ATOM     73  O   UNL A   1      36.431  23.064  22.440  1.00  0.00    -0.267 OA
BRANCH  71  74
ATOM     74  C   UNL A   1      35.272  23.398  24.484  1.00  0.00     0.158 A 
ATOM     75  N   UNL A   1      35.176  24.643  24.982  1.00  0.00    -0.166 NA
ATOM     76  C   UNL A   1      34.102  22.634  24.770  1.00  0.00     0.033 A 
ATOM     77  N   UNL A   1      33.925  24.706  25.486  1.00  0.00    -0.260 N 
ATOM     78  C   UNL A   1      33.242  23.510  25.421  1.00  0.00     0.069 A 
ATOM     79  C   UNL A   1      33.661  21.329  24.459  1.00  0.00     0.013 A 
ATOM     80  C   UNL A   1      31.953  23.117  25.808  1.00  0.00     0.028 A 
ATOM     81  C   UNL A   1      32.332  20.983  24.709  1.00  0.00     0.001 A 
ATOM     82  C   UNL A   1      31.493  21.866  25.380  1.00  0.00     0.002 A 
BRANCH  77  83
ATOM     83  C   UNL A   1      33.440  25.986  26.000  1.00  0.00     0.180 C 
BRANCH  83  84
ATOM     84  C   UNL A   1      32.983  26.938  24.911  1.00  0.00    -0.026 A 
ATOM     85  C   UNL A   1      31.680  26.882  24.390  1.00  0.00     0.009 A 
ATOM     86  C   UNL A   1      33.843  27.932  24.417  1.00  0.00     0.009 A 
ATOM     87  C   UNL A   1      31.254  27.761  23.395  1.00  0.00     0.046 A 
ATOM     88  C   UNL A   1      33.413  28.829  23.428  1.00  0.00     0.046 A 
ATOM     89  C   UNL A   1      32.124  28.728  22.920  1.00  0.00     0.115 A 
BRANCH  89  90
ATOM     90  O   UNL A   1      31.663  29.565  21.948  1.00  0.00    -0.508 OA
ATOM     91  H   UNL A   1      30.753  29.569  21.726  1.00  0.00     0.293 HD
ENDBRANCH  89  90
ENDBRANCH  83  84
ENDBRANCH  77  83
ENDBRANCH  71  74
ENDBRANCH  69  70
ENDBRANCH   1  69
TORSDOF 16
ENDMDL
MODEL 3
REMARK VINA RESULT:     -12.7      2.282      4.390
REMARK SMILES O=C(NCCCNC(=O)c1nn(Cc2ccc(O)cc2)c2ccccc12)c1ccc(-c2c3nc(c(-c4ccc(S(=O)(=O)[O-])cc4)c4ccc([nH]4)c(-c4ccc(S(=O)(=O)[O-])cc4)c4nc(c(-c5ccc(S(=O)(=O)[O-])cc5)c5ccc2[nH]5)C=C4)C=C3)cc1
REMARK SMILES IDX 5 1 4 2 3 3 1 4 2 5 27 7 28 8 86 9 29 10 85 11 30 12 31 13
REMARK SMILES IDX 32 14 79 15 33 16 84 17 78 18 80 19 34 20 83 21 77 22 76 23
REMARK SMILES IDX 35 25 65 26 46 27 64 28 47 29 50 30 63 31 81 32 48 33 49 34
REMARK SMILES IDX 62 36 82 37 51 38 36 39 37 40 45 41 38 42 44 43 39 44 40 45
REMARK SMILES IDX 41 46 42 47 43 48 66 49 67 50 75 51 68 52 74 53 69 54 70 55
REMARK SMILES IDX 71 56 72 57 73 58 52 59 53 60 61 61 54 62 60 63 55 64 56 65
REMARK SMILES IDX 57 66 58 67 59 68 6 69 7 70 8 71 9 73 10 74 11 75 26 76
REMARK SMILES IDX 12 77 21 78 25 79 22 80 24 81 23 82 13 83 14 84 15 85 20 86
REMARK SMILES IDX 16 87 19 88 17 89 18 90
REMARK H PARENT 3 6 80 24 50 35 7 72 18 91
REMARK Flexibility Score: inf
ROOT
ATOM      1  C   UNL A   1      35.696  23.610  25.916  1.00  0.00     0.042 C 
ENDROOT
BRANCH   1   2
ATOM      2  C   UNL A   1      37.173  23.893  25.809  1.00  0.00     0.118 C 
BRANCH   2   3
ATOM      3  N   UNL A   1      38.033  22.811  26.314  1.00  0.00    -0.352 N 
ATOM      4  O   UNL A   1      40.060  21.899  26.809  1.00  0.00    -0.269 OA
ATOM      5  C   UNL A   1      39.367  22.892  26.717  1.00  0.00     0.251 C 
ATOM      6  H   UNL A   1      37.618  21.920  26.374  1.00  0.00     0.163 HD
BRANCH   5   7
ATOM      7  C   UNL A   1      39.897  24.236  27.027  1.00  0.00     0.039 A 
ATOM      8  C   UNL A   1      40.444  25.097  26.077  1.00  0.00     0.014 A 
ATOM      9  C   UNL A   1      39.722  24.659  28.332  1.00  0.00     0.014 A 
ATOM     10  C   UNL A   1      40.736  26.401  26.479  1.00  0.00     0.010 A 
ATOM     11  C   UNL A   1      39.620  25.989  28.580  1.00  0.00     0.010 A 
ATOM     12  C   UNL A   1      40.300  26.841  27.743  1.00  0.00    -0.014 A 
BRANCH  12  13
ATOM     13  C   UNL A   1      40.529  28.181  28.257  1.00  0.00     0.031 A 
ATOM     14  C   UNL A   1      41.772  28.809  27.783  1.00  0.00     0.074 A 
ATOM     15  C   UNL A   1      39.633  28.868  29.003  1.00  0.00     0.049 A 
ATOM     16  N   UNL A   1      42.882  28.874  28.433  1.00  0.00    -0.248 NA
ATOM     17  C   UNL A   1      41.857  29.238  26.384  1.00  0.00     0.031 C 
ATOM     18  C   UNL A   1      38.240  28.532  29.348  1.00  0.00     0.029 A 
ATOM     19  N   UNL A   1      39.781  30.093  29.569  1.00  0.00    -0.354 N 
ATOM     20  C   UNL A   1      43.757  29.564  27.611  1.00  0.00     0.074 A 
ATOM     21  C   UNL A   1      43.145  29.579  26.304  1.00  0.00     0.031 C 
ATOM     22  C   UNL A   1      37.620  29.610  29.878  1.00  0.00     0.029 A 
ATOM     23  C   UNL A   1      38.619  30.636  30.100  1.00  0.00     0.049 A 
ATOM     24  H   UNL A   1      40.647  30.561  29.601  1.00  0.00     0.167 HD
ATOM     25  C   UNL A   1      44.796  30.266  28.138  1.00  0.00     0.031 A 
ATOM     26  C   UNL A   1      38.491  31.822  30.741  1.00  0.00     0.031 A 
ATOM     27  C   UNL A   1      44.990  29.948  29.532  1.00  0.00     0.049 A 
ATOM     28  C   UNL A   1      39.839  32.153  31.260  1.00  0.00     0.074 A 
ATOM     29  C   UNL A   1      45.326  28.802  30.225  1.00  0.00     0.029 A 
ATOM     30  N   UNL A   1      44.393  30.790  30.444  1.00  0.00    -0.354 N 
ATOM     31  N   UNL A   1      40.441  31.461  32.188  1.00  0.00    -0.248 NA
ATOM     32  C   UNL A   1      40.702  32.995  30.450  1.00  0.00     0.031 C 
ATOM     33  C   UNL A   1      44.528  28.834  31.405  1.00  0.00     0.029 A 
ATOM     34  C   UNL A   1      43.801  30.028  31.421  1.00  0.00     0.049 A 
ATOM     35  H   UNL A   1      44.391  31.774  30.401  1.00  0.00     0.167 HD
ATOM     36  C   UNL A   1      41.774  31.440  31.805  1.00  0.00     0.074 A 
ATOM     37  C   UNL A   1      41.889  32.491  30.795  1.00  0.00     0.031 C 
ATOM     38  C   UNL A   1      42.596  30.403  32.146  1.00  0.00     0.031 A 
BRANCH  25  39
ATOM     39  C   UNL A   1      45.390  31.491  27.498  1.00  0.00    -0.014 A 
ATOM     40  C   UNL A   1      44.777  32.759  27.533  1.00  0.00     0.010 A 
ATOM     41  C   UNL A   1      46.716  31.436  27.026  1.00  0.00     0.010 A 
ATOM     42  C   UNL A   1      45.431  33.911  27.097  1.00  0.00     0.020 A 
ATOM     43  C   UNL A   1      47.399  32.592  26.628  1.00  0.00     0.020 A 
ATOM     44  C   UNL A   1      46.744  33.822  26.656  1.00  0.00     0.054 A 
BRANCH  44  45
ATOM     45  S   UNL A   1      47.583  35.350  26.178  1.00  0.00     0.124 S 
ATOM     46  O   UNL A   1      48.465  34.884  25.111  1.00  0.00    -0.237 OA
ATOM     47  O   UNL A   1      46.472  36.196  25.754  1.00  0.00    -0.237 OA
ATOM     48  O   UNL A   1      48.254  35.770  27.406  1.00  0.00    -0.744 OA
ENDBRANCH  44  45
ENDBRANCH  25  39
BRANCH  26  49
ATOM     49  C   UNL A   1      37.465  32.864  30.478  1.00  0.00    -0.014 A 
ATOM     50  C   UNL A   1      36.355  33.000  31.337  1.00  0.00     0.010 A 
ATOM     51  C   UNL A   1      37.402  33.484  29.215  1.00  0.00     0.010 A 
ATOM     52  C   UNL A   1      35.184  33.635  30.909  1.00  0.00     0.020 A 
ATOM     53  C   UNL A   1      36.230  34.121  28.779  1.00  0.00     0.020 A 
ATOM     54  C   UNL A   1      35.112  34.152  29.615  1.00  0.00     0.054 A 
BRANCH  54  55
ATOM     55  S   UNL A   1      33.510  34.765  29.018  1.00  0.00     0.124 S 
ATOM     56  O   UNL A   1      33.148  33.756  28.028  1.00  0.00    -0.237 OA
ATOM     57  O   UNL A   1      32.700  34.770  30.234  1.00  0.00    -0.237 OA
ATOM     58  O   UNL A   1      33.823  36.086  28.478  1.00  0.00    -0.744 OA
ENDBRANCH  54  55
ENDBRANCH  26  49
BRANCH  38  59
ATOM     59  C   UNL A   1      42.135  29.428  33.216  1.00  0.00    -0.014 A 
ATOM     60  C   UNL A   1      42.642  29.619  34.515  1.00  0.00     0.010 A 
ATOM     61  C   UNL A   1      41.393  28.257  32.958  1.00  0.00     0.010 A 
ATOM     62  C   UNL A   1      42.462  28.660  35.512  1.00  0.00     0.020 A 
ATOM     63  C   UNL A   1      41.183  27.299  33.967  1.00  0.00     0.020 A 
ATOM     64  C   UNL A   1      41.744  27.497  35.231  1.00  0.00     0.054 A 
BRANCH  64  65
ATOM     65  S   UNL A   1      41.589  26.254  36.545  1.00  0.00     0.124 S 
ATOM     66  O   UNL A   1      41.130  25.078  35.808  1.00  0.00    -0.237 OA
ATOM     67  O   UNL A   1      42.952  26.165  37.067  1.00  0.00    -0.237 OA
ATOM     68  O   UNL A   1      40.612  26.829  37.466  1.00  0.00    -0.744 OA
ENDBRANCH  64  65
ENDBRANCH  38  59
ENDBRANCH  12  13
ENDBRANCH   5   7
ENDBRANCH   2   3
ENDBRANCH   1   2
BRANCH   1  69
ATOM     69  C   UNL A   1      34.972  23.842  24.596  1.00  0.00     0.118 C 
BRANCH  69  70
ATOM     70  N   UNL A   1      33.987  22.822  24.251  1.00  0.00    -0.351 N 
ATOM     71  C   UNL A   1      32.606  22.922  24.238  1.00  0.00     0.272 C 
ATOM     72  H   UNL A   1      34.352  21.945  23.993  1.00  0.00     0.163 HD
ATOM     73  O   UNL A   1      31.938  21.928  23.964  1.00  0.00    -0.267 OA
BRANCH  71  74
ATOM     74  C   UNL A   1      32.017  24.229  24.541  1.00  0.00     0.158 A 
ATOM     75  N   UNL A   1      31.808  24.641  25.803  1.00  0.00    -0.166 NA
ATOM     76  C   UNL A   1      31.694  25.252  23.602  1.00  0.00     0.033 A 
ATOM     77  N   UNL A   1      31.459  25.939  25.678  1.00  0.00    -0.260 N 
ATOM     78  C   UNL A   1      31.335  26.354  24.369  1.00  0.00     0.069 A 
ATOM     79  C   UNL A   1      31.761  25.376  22.197  1.00  0.00     0.013 A 
ATOM     80  C   UNL A   1      31.005  27.582  23.777  1.00  0.00     0.028 A 
ATOM     81  C   UNL A   1      31.578  26.631  21.616  1.00  0.00     0.001 A 
ATOM     82  C   UNL A   1      31.200  27.717  22.398  1.00  0.00     0.002 A 
BRANCH  77  83
ATOM     83  C   UNL A   1      31.282  26.738  26.890  1.00  0.00     0.180 C 
BRANCH  83  84
ATOM     84  C   UNL A   1      32.216  27.931  26.967  1.00  0.00    -0.026 A 
ATOM     85  C   UNL A   1      33.606  27.783  26.825  1.00  0.00     0.009 A 
ATOM     86  C   UNL A   1      31.711  29.228  27.148  1.00  0.00     0.009 A 
ATOM     87  C   UNL A   1      34.465  28.878  26.888  1.00  0.00     0.046 A 
ATOM     88  C   UNL A   1      32.572  30.335  27.194  1.00  0.00     0.046 A 
ATOM     89  C   UNL A   1      33.943  30.146  27.073  1.00  0.00     0.115 A 
BRANCH  89  90
ATOM     90  O   UNL A   1      34.822  31.186  27.127  1.00  0.00    -0.508 OA
ATOM     91  H   UNL A   1      34.520  32.044  27.351  1.00  0.00     0.293 HD
ENDBRANCH  89  90
ENDBRANCH  83  84
ENDBRANCH  77  83
ENDBRANCH  71  74
ENDBRANCH  69  70
ENDBRANCH   1  69
TORSDOF 16
ENDMDL
