MODEL 1
REMARK VINA RESULT:     -12.7      0.000      0.000
REMARK SMILES O=C(NCCCNC(=O)[C@@H](NC(=O)c1ccc(C[NH+]2CCCCC2)cc1)c1ccccc1F)c1ccc(-c2c3nc(c(-c4ccc(S(=O)(=O)[O-])cc4)c4ccc([nH]4)c(-c4ccc(S(=O)(=O)[O-])cc4)c4nc(c(-c5ccc(S(=O)(=O)[O-])cc5)c5ccc2[nH]5)C=C4)C=C3)cc1
REMARK SMILES IDX 5 1 4 2 3 3 1 4 2 5 34 7 35 8 93 9 36 10 92 11 37 12 38 13
REMARK SMILES IDX 39 14 86 15 40 16 91 17 85 18 87 19 41 20 90 21 84 22 83 23
REMARK SMILES IDX 42 25 72 26 53 27 71 28 54 29 57 30 70 31 88 32 55 33 56 34
REMARK SMILES IDX 69 36 89 37 58 38 43 39 44 40 52 41 45 42 51 43 46 44 47 45
REMARK SMILES IDX 48 46 49 47 50 48 73 49 74 50 82 51 75 52 81 53 76 54 77 55
REMARK SMILES IDX 78 56 79 57 80 58 59 59 60 60 68 61 61 62 67 63 62 64 63 65
REMARK SMILES IDX 64 66 65 67 66 68 6 69 7 70 8 71 9 73 10 74 11 75 12 76
REMARK SMILES IDX 13 78 14 79 15 80 26 81 16 82 25 83 17 84 18 85 19 86 20 87
REMARK SMILES IDX 24 88 21 90 23 91 22 92 27 93 28 94 32 95 29 96 31 97 33 98
REMARK SMILES IDX 30 99
REMARK H PARENT 3 6 87 24 57 35 7 72 11 77 19 89
REMARK Flexibility Score: inf
ROOT
ATOM      1  C   UNL A   1      33.840  28.733  27.210  1.00  0.00     0.042 C 
ENDROOT
BRANCH   1   2
ATOM      2  C   UNL A   1      35.154  29.428  27.514  1.00  0.00     0.118 C 
BRANCH   2   3
ATOM      3  N   UNL A   1      35.255  29.854  28.911  1.00  0.00    -0.352 N 
ATOM      4  O   UNL A   1      36.141  29.991  30.980  1.00  0.00    -0.269 OA
ATOM      5  C   UNL A   1      36.309  29.751  29.788  1.00  0.00     0.251 C 
ATOM      6  H   UNL A   1      34.446  30.278  29.279  1.00  0.00     0.163 HD
BRANCH   5   7
ATOM      7  C   UNL A   1      37.631  29.332  29.283  1.00  0.00     0.039 A 
ATOM      8  C   UNL A   1      38.501  28.637  30.120  1.00  0.00     0.014 A 
ATOM      9  C   UNL A   1      38.018  29.665  27.982  1.00  0.00     0.014 A 
ATOM     10  C   UNL A   1      39.820  28.464  29.741  1.00  0.00     0.010 A 
ATOM     11  C   UNL A   1      39.316  29.369  27.554  1.00  0.00     0.010 A 
ATOM     12  C   UNL A   1      40.241  28.807  28.446  1.00  0.00    -0.014 A 
BRANCH  12  13
ATOM     13  C   UNL A   1      41.641  28.507  28.058  1.00  0.00     0.031 A 
ATOM     14  C   UNL A   1      42.723  29.546  28.166  1.00  0.00     0.074 A 
ATOM     15  C   UNL A   1      41.936  27.250  27.673  1.00  0.00     0.049 A 
ATOM     16  N   UNL A   1      44.005  29.419  27.929  1.00  0.00    -0.248 NA
ATOM     17  C   UNL A   1      42.324  30.899  28.582  1.00  0.00     0.031 C 
ATOM     18  C   UNL A   1      40.963  26.160  27.536  1.00  0.00     0.029 A 
ATOM     19  N   UNL A   1      43.135  26.658  27.376  1.00  0.00    -0.354 N 
ATOM     20  C   UNL A   1      44.557  30.679  28.128  1.00  0.00     0.074 A 
ATOM     21  C   UNL A   1      43.470  31.561  28.494  1.00  0.00     0.031 C 
ATOM     22  C   UNL A   1      41.612  25.018  27.275  1.00  0.00     0.029 A 
ATOM     23  C   UNL A   1      43.033  25.307  27.140  1.00  0.00     0.049 A 
ATOM     24  H   UNL A   1      43.986  27.150  27.336  1.00  0.00     0.167 HD
ATOM     25  C   UNL A   1      45.851  31.062  28.012  1.00  0.00     0.031 A 
ATOM     26  C   UNL A   1      43.976  24.397  26.838  1.00  0.00     0.031 A 
ATOM     27  C   UNL A   1      46.927  30.171  27.663  1.00  0.00     0.049 A 
ATOM     28  C   UNL A   1      45.399  24.850  26.714  1.00  0.00     0.074 A 
ATOM     29  C   UNL A   1      48.278  30.453  27.549  1.00  0.00     0.029 A 
ATOM     30  N   UNL A   1      46.776  28.821  27.376  1.00  0.00    -0.354 N 
ATOM     31  N   UNL A   1      45.900  26.045  26.912  1.00  0.00    -0.248 NA
ATOM     32  C   UNL A   1      46.381  23.834  26.316  1.00  0.00     0.031 C 
ATOM     33  C   UNL A   1      48.937  29.285  27.148  1.00  0.00     0.029 A 
ATOM     34  C   UNL A   1      48.005  28.263  27.063  1.00  0.00     0.049 A 
ATOM     35  H   UNL A   1      45.921  28.334  27.393  1.00  0.00     0.167 HD
ATOM     36  C   UNL A   1      47.262  25.926  26.672  1.00  0.00     0.074 A 
ATOM     37  C   UNL A   1      47.506  24.536  26.337  1.00  0.00     0.031 C 
ATOM     38  C   UNL A   1      48.223  26.881  26.720  1.00  0.00     0.031 A 
BRANCH  25  39
ATOM     39  C   UNL A   1      46.168  32.522  28.217  1.00  0.00    -0.014 A 
ATOM     40  C   UNL A   1      46.129  33.442  27.155  1.00  0.00     0.010 A 
ATOM     41  C   UNL A   1      46.483  32.985  29.509  1.00  0.00     0.010 A 
ATOM     42  C   UNL A   1      46.442  34.788  27.372  1.00  0.00     0.020 A 
ATOM     43  C   UNL A   1      46.774  34.333  29.735  1.00  0.00     0.020 A 
ATOM     44  C   UNL A   1      46.771  35.224  28.659  1.00  0.00     0.054 A 
BRANCH  44  45
ATOM     45  S   UNL A   1      47.169  36.975  28.919  1.00  0.00     0.124 S 
ATOM     46  O   UNL A   1      46.501  37.606  27.782  1.00  0.00    -0.237 OA
ATOM     47  O   UNL A   1      46.580  37.251  30.226  1.00  0.00    -0.237 OA
ATOM     48  O   UNL A   1      48.629  37.009  28.878  1.00  0.00    -0.744 OA
ENDBRANCH  44  45
ENDBRANCH  25  39
BRANCH  26  49
ATOM     49  C   UNL A   1      43.589  22.977  26.629  1.00  0.00    -0.014 A 
ATOM     50  C   UNL A   1      44.009  22.284  25.481  1.00  0.00     0.010 A 
ATOM     51  C   UNL A   1      42.840  22.296  27.606  1.00  0.00     0.010 A 
ATOM     52  C   UNL A   1      43.678  20.937  25.309  1.00  0.00     0.020 A 
ATOM     53  C   UNL A   1      42.533  20.941  27.452  1.00  0.00     0.020 A 
ATOM     54  C   UNL A   1      42.945  20.273  26.298  1.00  0.00     0.054 A 
BRANCH  54  55
ATOM     55  S   UNL A   1      42.587  18.507  26.091  1.00  0.00     0.124 S 
ATOM     56  O   UNL A   1      42.968  17.968  27.391  1.00  0.00    -0.237 OA
ATOM     57  O   UNL A   1      41.156  18.505  25.798  1.00  0.00    -0.237 OA
ATOM     58  O   UNL A   1      43.444  18.116  24.973  1.00  0.00    -0.744 OA
ENDBRANCH  54  55
ENDBRANCH  26  49
BRANCH  38  59
ATOM     59  C   UNL A   1      49.628  26.439  26.423  1.00  0.00    -0.014 A 
ATOM     60  C   UNL A   1      50.191  26.620  25.147  1.00  0.00     0.010 A 
ATOM     61  C   UNL A   1      50.401  25.852  27.441  1.00  0.00     0.010 A 
ATOM     62  C   UNL A   1      51.491  26.182  24.883  1.00  0.00     0.020 A 
ATOM     63  C   UNL A   1      51.709  25.436  27.188  1.00  0.00     0.020 A 
ATOM     64  C   UNL A   1      52.240  25.588  25.904  1.00  0.00     0.054 A 
BRANCH  64  65
ATOM     65  S   UNL A   1      53.933  25.047  25.547  1.00  0.00     0.124 S 
ATOM     66  O   UNL A   1      53.792  23.594  25.537  1.00  0.00    -0.237 OA
ATOM     67  O   UNL A   1      54.201  25.661  24.248  1.00  0.00    -0.237 OA
ATOM     68  O   UNL A   1      54.711  25.591  26.657  1.00  0.00    -0.744 OA
ENDBRANCH  64  65
ENDBRANCH  38  59
ENDBRANCH  12  13
ENDBRANCH   5   7
ENDBRANCH   2   3
ENDBRANCH   1   2
BRANCH   1  69
ATOM     69  C   UNL A   1      33.233  29.207  25.909  1.00  0.00     0.117 C 
BRANCH  69  70
ATOM     70  N   UNL A   1      34.107  29.044  24.767  1.00  0.00    -0.354 N 
ATOM     71  C   UNL A   1      33.860  28.388  23.592  1.00  0.00     0.247 C 
ATOM     72  H   UNL A   1      34.996  29.460  24.846  1.00  0.00     0.163 HD
ATOM     73  O   UNL A   1      34.628  28.616  22.652  1.00  0.00    -0.272 OA
BRANCH  71  74
ATOM     74  C   UNL A   1      32.632  27.449  23.413  1.00  0.00     0.205 C 
BRANCH  74  75
ATOM     75  N   UNL A   1      32.546  26.985  22.006  1.00  0.00    -0.336 N 
ATOM     76  C   UNL A   1      32.773  25.822  21.326  1.00  0.00     0.252 C 
ATOM     77  H   UNL A   1      32.246  27.705  21.406  1.00  0.00     0.165 HD
ATOM     78  O   UNL A   1      32.953  25.853  20.112  1.00  0.00    -0.269 OA
BRANCH  76  79
ATOM     79  C   UNL A   1      32.801  24.531  22.016  1.00  0.00     0.039 A 
ATOM     80  C   UNL A   1      34.016  23.868  22.198  1.00  0.00     0.014 A 
ATOM     81  C   UNL A   1      31.613  23.973  22.472  1.00  0.00     0.014 A 
ATOM     82  C   UNL A   1      34.063  22.734  23.006  1.00  0.00     0.010 A 
ATOM     83  C   UNL A   1      31.661  22.835  23.272  1.00  0.00     0.010 A 
ATOM     84  C   UNL A   1      32.890  22.231  23.585  1.00  0.00     0.006 A 
BRANCH  84  85
ATOM     85  C   UNL A   1      32.944  21.056  24.537  1.00  0.00     0.299 C 
BRANCH  85  86
ATOM     86  N   UNL A   1      33.366  19.769  23.967  1.00  0.00    -0.331 N 
ATOM     87  C   UNL A   1      34.142  18.959  24.912  1.00  0.00     0.262 C 
ATOM     88  C   UNL A   1      32.244  19.019  23.388  1.00  0.00     0.262 C 
ATOM     89  H   UNL A   1      33.997  19.995  23.198  1.00  0.00     0.348 HD
ATOM     90  C   UNL A   1      34.679  17.691  24.251  1.00  0.00     0.062 C 
ATOM     91  C   UNL A   1      32.730  17.750  22.689  1.00  0.00     0.062 C 
ATOM     92  C   UNL A   1      33.544  16.879  23.640  1.00  0.00     0.012 C 
ENDBRANCH  85  86
ENDBRANCH  84  85
ENDBRANCH  76  79
ENDBRANCH  74  75
BRANCH  74  93
ATOM     93  C   UNL A   1      32.409  26.485  24.565  1.00  0.00     0.020 A 
ATOM     94  C   UNL A   1      31.158  26.249  25.160  1.00  0.00     0.009 A 
ATOM     95  C   UNL A   1      33.487  25.741  25.057  1.00  0.00     0.129 A 
ATOM     96  C   UNL A   1      31.011  25.384  26.250  1.00  0.00     0.001 A 
ATOM     97  C   UNL A   1      33.350  24.862  26.135  1.00  0.00     0.039 A 
ATOM     98  F   UNL A   1      34.704  25.891  24.513  1.00  0.00    -0.207 F 
ATOM     99  C   UNL A   1      32.112  24.698  26.747  1.00  0.00     0.003 A 
ENDBRANCH  74  93
ENDBRANCH  71  74
ENDBRANCH  69  70
ENDBRANCH   1  69
TORSDOF 18
ENDMDL
MODEL 2
REMARK VINA RESULT:     -12.7      4.017      9.486
REMARK SMILES O=C(NCCCNC(=O)[C@@H](NC(=O)c1ccc(C[NH+]2CCCCC2)cc1)c1ccccc1F)c1ccc(-c2c3nc(c(-c4ccc(S(=O)(=O)[O-])cc4)c4ccc([nH]4)c(-c4ccc(S(=O)(=O)[O-])cc4)c4nc(c(-c5ccc(S(=O)(=O)[O-])cc5)c5ccc2[nH]5)C=C4)C=C3)cc1
REMARK SMILES IDX 5 1 4 2 3 3 1 4 2 5 34 7 35 8 93 9 36 10 92 11 37 12 38 13
REMARK SMILES IDX 39 14 86 15 40 16 91 17 85 18 87 19 41 20 90 21 84 22 83 23
REMARK SMILES IDX 42 25 72 26 53 27 71 28 54 29 57 30 70 31 88 32 55 33 56 34
REMARK SMILES IDX 69 36 89 37 58 38 43 39 44 40 52 41 45 42 51 43 46 44 47 45
REMARK SMILES IDX 48 46 49 47 50 48 73 49 74 50 82 51 75 52 81 53 76 54 77 55
REMARK SMILES IDX 78 56 79 57 80 58 59 59 60 60 68 61 61 62 67 63 62 64 63 65
REMARK SMILES IDX 64 66 65 67 66 68 6 69 7 70 8 71 9 73 10 74 11 75 12 76
REMARK SMILES IDX 13 78 14 79 15 80 26 81 16 82 25 83 17 84 18 85 19 86 20 87
REMARK SMILES IDX 24 88 21 90 23 91 22 92 27 93 28 94 32 95 29 96 31 97 33 98
REMARK SMILES IDX 30 99
REMARK H PARENT 3 6 87 24 57 35 7 72 11 77 19 89
REMARK Flexibility Score: inf
ROOT
ATOM      1  C   UNL A   1      35.533  24.230  24.502  1.00  0.00     0.042 C 
ENDROOT
BRANCH   1   2
ATOM      2  C   UNL A   1      36.301  24.131  25.806  1.00  0.00     0.118 C 
BRANCH   2   3
ATOM      3  N   UNL A   1      37.192  22.971  25.849  1.00  0.00    -0.352 N 
ATOM      4  O   UNL A   1      39.147  21.861  26.012  1.00  0.00    -0.269 OA
ATOM      5  C   UNL A   1      38.511  22.888  26.228  1.00  0.00     0.251 C 
ATOM      6  H   UNL A   1      36.785  22.121  25.563  1.00  0.00     0.163 HD
BRANCH   5   7
ATOM      7  C   UNL A   1      39.152  24.050  26.873  1.00  0.00     0.039 A 
ATOM      8  C   UNL A   1      39.008  24.243  28.246  1.00  0.00     0.014 A 
ATOM      9  C   UNL A   1      39.867  24.971  26.103  1.00  0.00     0.014 A 
ATOM     10  C   UNL A   1      39.387  25.447  28.810  1.00  0.00     0.010 A 
ATOM     11  C   UNL A   1      40.366  26.130  26.704  1.00  0.00     0.010 A 
ATOM     12  C   UNL A   1      40.091  26.398  28.053  1.00  0.00    -0.014 A 
BRANCH  12  13
ATOM     13  C   UNL A   1      40.562  27.630  28.733  1.00  0.00     0.031 A 
ATOM     14  C   UNL A   1      41.996  27.791  29.156  1.00  0.00     0.074 A 
ATOM     15  C   UNL A   1      39.683  28.638  28.897  1.00  0.00     0.049 A 
ATOM     16  N   UNL A   1      42.575  28.832  29.700  1.00  0.00    -0.248 NA
ATOM     17  C   UNL A   1      42.894  26.644  28.956  1.00  0.00     0.031 C 
ATOM     18  C   UNL A   1      38.265  28.591  28.520  1.00  0.00     0.029 A 
ATOM     19  N   UNL A   1      39.853  29.911  29.373  1.00  0.00    -0.354 N 
ATOM     20  C   UNL A   1      43.891  28.454  29.943  1.00  0.00     0.074 A 
ATOM     21  C   UNL A   1      44.022  27.083  29.497  1.00  0.00     0.031 C 
ATOM     22  C   UNL A   1      37.722  29.802  28.690  1.00  0.00     0.029 A 
ATOM     23  C   UNL A   1      38.723  30.688  29.268  1.00  0.00     0.049 A 
ATOM     24  H   UNL A   1      40.699  30.239  29.751  1.00  0.00     0.167 HD
ATOM     25  C   UNL A   1      44.893  29.183  30.490  1.00  0.00     0.031 A 
ATOM     26  C   UNL A   1      38.508  31.972  29.608  1.00  0.00     0.031 A 
ATOM     27  C   UNL A   1      44.754  30.553  30.914  1.00  0.00     0.049 A 
ATOM     28  C   UNL A   1      39.633  32.754  30.212  1.00  0.00     0.074 A 
ATOM     29  C   UNL A   1      45.716  31.391  31.452  1.00  0.00     0.029 A 
ATOM     30  N   UNL A   1      43.578  31.288  30.844  1.00  0.00    -0.354 N 
ATOM     31  N   UNL A   1      40.872  32.378  30.427  1.00  0.00    -0.248 NA
ATOM     32  C   UNL A   1      39.331  34.128  30.629  1.00  0.00     0.031 C 
ATOM     33  C   UNL A   1      45.110  32.617  31.750  1.00  0.00     0.029 A 
ATOM     34  C   UNL A   1      43.784  32.561  31.350  1.00  0.00     0.049 A 
ATOM     35  H   UNL A   1      42.725  30.953  30.487  1.00  0.00     0.167 HD
ATOM     36  C   UNL A   1      41.503  33.475  30.998  1.00  0.00     0.074 A 
ATOM     37  C   UNL A   1      40.514  34.533  31.072  1.00  0.00     0.031 C 
ATOM     38  C   UNL A   1      42.784  33.594  31.426  1.00  0.00     0.031 A 
BRANCH  25  39
ATOM     39  C   UNL A   1      46.219  28.498  30.706  1.00  0.00    -0.014 A 
ATOM     40  C   UNL A   1      47.237  28.541  29.738  1.00  0.00     0.010 A 
ATOM     41  C   UNL A   1      46.456  27.821  31.917  1.00  0.00     0.010 A 
ATOM     42  C   UNL A   1      48.452  27.883  29.958  1.00  0.00     0.020 A 
ATOM     43  C   UNL A   1      47.678  27.182  32.152  1.00  0.00     0.020 A 
ATOM     44  C   UNL A   1      48.661  27.200  31.161  1.00  0.00     0.054 A 
BRANCH  44  45
ATOM     45  S   UNL A   1      50.246  26.358  31.427  1.00  0.00     0.124 S 
ATOM     46  O   UNL A   1      49.940  24.998  30.987  1.00  0.00    -0.237 OA
ATOM     47  O   UNL A   1      51.159  27.105  30.567  1.00  0.00    -0.237 OA
ATOM     48  O   UNL A   1      50.482  26.508  32.861  1.00  0.00    -0.744 OA
ENDBRANCH  44  45
ENDBRANCH  25  39
BRANCH  26  49
ATOM     49  C   UNL A   1      37.169  32.578  29.385  1.00  0.00    -0.014 A 
ATOM     50  C   UNL A   1      36.278  32.755  30.456  1.00  0.00     0.010 A 
ATOM     51  C   UNL A   1      36.800  33.029  28.103  1.00  0.00     0.010 A 
ATOM     52  C   UNL A   1      35.037  33.365  30.250  1.00  0.00     0.020 A 
ATOM     53  C   UNL A   1      35.573  33.665  27.899  1.00  0.00     0.020 A 
ATOM     54  C   UNL A   1      34.694  33.819  28.972  1.00  0.00     0.054 A 
BRANCH  54  55
ATOM     55  S   UNL A   1      33.110  34.671  28.738  1.00  0.00     0.124 S 
ATOM     56  O   UNL A   1      32.549  34.639  30.085  1.00  0.00    -0.237 OA
ATOM     57  O   UNL A   1      33.524  35.985  28.254  1.00  0.00    -0.237 OA
ATOM     58  O   UNL A   1      32.421  33.841  27.751  1.00  0.00    -0.744 OA
ENDBRANCH  54  55
ENDBRANCH  26  49
BRANCH  38  59
ATOM     59  C   UNL A   1      43.185  34.928  31.990  1.00  0.00    -0.014 A 
ATOM     60  C   UNL A   1      42.989  35.228  33.351  1.00  0.00     0.010 A 
ATOM     61  C   UNL A   1      43.782  35.885  31.151  1.00  0.00     0.010 A 
ATOM     62  C   UNL A   1      43.347  36.481  33.852  1.00  0.00     0.020 A 
ATOM     63  C   UNL A   1      44.164  37.130  31.655  1.00  0.00     0.020 A 
ATOM     64  C   UNL A   1      43.928  37.426  33.000  1.00  0.00     0.054 A 
BRANCH  64  65
ATOM     65  S   UNL A   1      44.406  39.038  33.677  1.00  0.00     0.124 S 
ATOM     66  O   UNL A   1      43.113  39.698  33.832  1.00  0.00    -0.237 OA
ATOM     67  O   UNL A   1      45.083  38.679  34.921  1.00  0.00    -0.237 OA
ATOM     68  O   UNL A   1      45.274  39.602  32.645  1.00  0.00    -0.744 OA
ENDBRANCH  64  65
ENDBRANCH  38  59
ENDBRANCH  12  13
ENDBRANCH   5   7
ENDBRANCH   2   3
ENDBRANCH   1   2
BRANCH   1  69
ATOM     69  C   UNL A   1      34.108  24.689  24.713  1.00  0.00     0.117 C 
BRANCH  69  70
ATOM     70  N   UNL A   1      33.992  25.844  25.577  1.00  0.00    -0.354 N 
ATOM     71  C   UNL A   1      32.856  26.447  26.045  1.00  0.00     0.247 C 
ATOM     72  H   UNL A   1      34.841  26.250  25.865  1.00  0.00     0.163 HD
ATOM     73  O   UNL A   1      32.988  27.232  26.989  1.00  0.00    -0.272 OA
BRANCH  71  74
ATOM     74  C   UNL A   1      31.448  26.114  25.471  1.00  0.00     0.205 C 
BRANCH  74  75
ATOM     75  N   UNL A   1      30.645  25.384  26.483  1.00  0.00    -0.336 N 
ATOM     76  C   UNL A   1      30.410  24.080  26.815  1.00  0.00     0.252 C 
ATOM     77  H   UNL A   1      30.152  26.003  27.068  1.00  0.00     0.165 HD
ATOM     78  O   UNL A   1      29.417  23.790  27.476  1.00  0.00    -0.269 OA
BRANCH  76  79
ATOM     79  C   UNL A   1      31.325  23.013  26.401  1.00  0.00     0.039 A 
ATOM     80  C   UNL A   1      31.161  22.403  25.157  1.00  0.00     0.014 A 
ATOM     81  C   UNL A   1      32.340  22.612  27.261  1.00  0.00     0.014 A 
ATOM     82  C   UNL A   1      32.134  21.519  24.695  1.00  0.00     0.010 A 
ATOM     83  C   UNL A   1      33.306  21.722  26.801  1.00  0.00     0.010 A 
ATOM     84  C   UNL A   1      33.238  21.203  25.497  1.00  0.00     0.006 A 
BRANCH  84  85
ATOM     85  C   UNL A   1      34.345  20.317  24.969  1.00  0.00     0.299 C 
BRANCH  85  86
ATOM     86  N   UNL A   1      34.216  18.877  25.234  1.00  0.00    -0.331 N 
ATOM     87  C   UNL A   1      32.820  18.429  25.261  1.00  0.00     0.262 C 
ATOM     88  C   UNL A   1      35.040  18.066  24.328  1.00  0.00     0.262 C 
ATOM     89  H   UNL A   1      34.582  18.731  26.175  1.00  0.00     0.348 HD
ATOM     90  C   UNL A   1      32.712  16.962  25.670  1.00  0.00     0.062 C 
ATOM     91  C   UNL A   1      34.988  16.587  24.711  1.00  0.00     0.062 C 
ATOM     92  C   UNL A   1      33.550  16.082  24.750  1.00  0.00     0.012 C 
ENDBRANCH  85  86
ENDBRANCH  84  85
ENDBRANCH  76  79
ENDBRANCH  74  75
BRANCH  74  93
ATOM     93  C   UNL A   1      30.832  27.228  24.644  1.00  0.00     0.020 A 
ATOM     94  C   UNL A   1      31.277  28.562  24.668  1.00  0.00     0.009 A 
ATOM     95  C   UNL A   1      29.784  26.933  23.764  1.00  0.00     0.129 A 
ATOM     96  C   UNL A   1      30.646  29.562  23.921  1.00  0.00     0.001 A 
ATOM     97  C   UNL A   1      29.157  27.921  23.001  1.00  0.00     0.039 A 
ATOM     98  F   UNL A   1      29.332  25.674  23.665  1.00  0.00    -0.207 F 
ATOM     99  C   UNL A   1      29.576  29.244  23.095  1.00  0.00     0.003 A 
ENDBRANCH  74  93
ENDBRANCH  71  74
ENDBRANCH  69  70
ENDBRANCH   1  69
TORSDOF 18
ENDMDL
MODEL 3
REMARK VINA RESULT:     -12.4      3.027      8.775
REMARK SMILES O=C(NCCCNC(=O)[C@@H](NC(=O)c1ccc(C[NH+]2CCCCC2)cc1)c1ccccc1F)c1ccc(-c2c3nc(c(-c4ccc(S(=O)(=O)[O-])cc4)c4ccc([nH]4)c(-c4ccc(S(=O)(=O)[O-])cc4)c4nc(c(-c5ccc(S(=O)(=O)[O-])cc5)c5ccc2[nH]5)C=C4)C=C3)cc1
REMARK SMILES IDX 5 1 4 2 3 3 1 4 2 5 34 7 35 8 93 9 36 10 92 11 37 12 38 13
REMARK SMILES IDX 39 14 86 15 40 16 91 17 85 18 87 19 41 20 90 21 84 22 83 23
REMARK SMILES IDX 42 25 72 26 53 27 71 28 54 29 57 30 70 31 88 32 55 33 56 34
REMARK SMILES IDX 69 36 89 37 58 38 43 39 44 40 52 41 45 42 51 43 46 44 47 45
REMARK SMILES IDX 48 46 49 47 50 48 73 49 74 50 82 51 75 52 81 53 76 54 77 55
REMARK SMILES IDX 78 56 79 57 80 58 59 59 60 60 68 61 61 62 67 63 62 64 63 65
REMARK SMILES IDX 64 66 65 67 66 68 6 69 7 70 8 71 9 73 10 74 11 75 12 76
REMARK SMILES IDX 13 78 14 79 15 80 26 81 16 82 25 83 17 84 18 85 19 86 20 87
REMARK SMILES IDX 24 88 21 90 23 91 22 92 27 93 28 94 32 95 29 96 31 97 33 98
REMARK SMILES IDX 30 99
REMARK H PARENT 3 6 87 24 57 35 7 72 11 77 19 89
REMARK Flexibility Score: inf
ROOT
ATOM      1  C   UNL A   1      36.003  24.055  24.670  1.00  0.00     0.042 C 
ENDROOT
BRANCH   1   2
ATOM      2  C   UNL A   1      36.499  23.717  26.063  1.00  0.00     0.118 C 
BRANCH   2   3
ATOM      3  N   UNL A   1      37.310  22.499  26.092  1.00  0.00    -0.352 N 
ATOM      4  O   UNL A   1      39.192  21.258  26.056  1.00  0.00    -0.269 OA
ATOM      5  C   UNL A   1      38.668  22.350  26.253  1.00  0.00     0.251 C 
ATOM      6  H   UNL A   1      36.808  21.660  25.979  1.00  0.00     0.163 HD
BRANCH   5   7
ATOM      7  C   UNL A   1      39.482  23.518  26.643  1.00  0.00     0.039 A 
ATOM      8  C   UNL A   1      40.086  23.550  27.898  1.00  0.00     0.014 A 
ATOM      9  C   UNL A   1      39.613  24.600  25.768  1.00  0.00     0.014 A 
ATOM     10  C   UNL A   1      40.633  24.732  28.362  1.00  0.00     0.010 A 
ATOM     11  C   UNL A   1      40.285  25.750  26.194  1.00  0.00     0.010 A 
ATOM     12  C   UNL A   1      40.760  25.841  27.510  1.00  0.00    -0.014 A 
BRANCH  12  13
ATOM     13  C   UNL A   1      41.446  27.051  28.028  1.00  0.00     0.031 A 
ATOM     14  C   UNL A   1      42.925  27.252  27.846  1.00  0.00     0.074 A 
ATOM     15  C   UNL A   1      40.692  28.008  28.605  1.00  0.00     0.049 A 
ATOM     16  N   UNL A   1      43.657  28.284  28.182  1.00  0.00    -0.248 NA
ATOM     17  C   UNL A   1      43.684  26.160  27.218  1.00  0.00     0.031 C 
ATOM     18  C   UNL A   1      39.244  27.918  28.831  1.00  0.00     0.029 A 
ATOM     19  N   UNL A   1      41.018  29.257  29.061  1.00  0.00    -0.354 N 
ATOM     20  C   UNL A   1      44.964  27.952  27.844  1.00  0.00     0.074 A 
ATOM     21  C   UNL A   1      44.927  26.617  27.286  1.00  0.00     0.031 C 
ATOM     22  C   UNL A   1      38.795  29.093  29.293  1.00  0.00     0.029 A 
ATOM     23  C   UNL A   1      39.930  29.987  29.478  1.00  0.00     0.049 A 
ATOM     24  H   UNL A   1      41.939  29.600  29.087  1.00  0.00     0.167 HD
ATOM     25  C   UNL A   1      46.089  28.693  27.990  1.00  0.00     0.031 A 
ATOM     26  C   UNL A   1      39.849  31.238  29.967  1.00  0.00     0.031 A 
ATOM     27  C   UNL A   1      46.110  30.027  28.531  1.00  0.00     0.049 A 
ATOM     28  C   UNL A   1      41.109  32.033  30.119  1.00  0.00     0.074 A 
ATOM     29  C   UNL A   1      47.193  30.875  28.692  1.00  0.00     0.029 A 
ATOM     30  N   UNL A   1      44.995  30.711  28.995  1.00  0.00    -0.354 N 
ATOM     31  N   UNL A   1      42.334  31.702  29.787  1.00  0.00    -0.248 NA
ATOM     32  C   UNL A   1      40.979  33.365  30.720  1.00  0.00     0.031 C 
ATOM     33  C   UNL A   1      46.740  32.053  29.297  1.00  0.00     0.029 A 
ATOM     34  C   UNL A   1      45.367  31.961  29.464  1.00  0.00     0.049 A 
ATOM     35  H   UNL A   1      44.076  30.360  28.991  1.00  0.00     0.167 HD
ATOM     36  C   UNL A   1      43.124  32.790  30.132  1.00  0.00     0.074 A 
ATOM     37  C   UNL A   1      42.232  33.797  30.675  1.00  0.00     0.031 C 
ATOM     38  C   UNL A   1      44.466  32.942  30.012  1.00  0.00     0.031 A 
BRANCH  25  39
ATOM     39  C   UNL A   1      47.400  28.056  27.601  1.00  0.00    -0.014 A 
ATOM     40  C   UNL A   1      48.140  27.279  28.510  1.00  0.00     0.010 A 
ATOM     41  C   UNL A   1      47.882  28.216  26.289  1.00  0.00     0.010 A 
ATOM     42  C   UNL A   1      49.360  26.713  28.127  1.00  0.00     0.020 A 
ATOM     43  C   UNL A   1      49.090  27.632  25.895  1.00  0.00     0.020 A 
ATOM     44  C   UNL A   1      49.832  26.900  26.824  1.00  0.00     0.054 A 
BRANCH  44  45
ATOM     45  S   UNL A   1      51.415  26.152  26.347  1.00  0.00     0.124 S 
ATOM     46  O   UNL A   1      51.344  24.852  27.011  1.00  0.00    -0.237 OA
ATOM     47  O   UNL A   1      51.331  26.118  24.890  1.00  0.00    -0.237 OA
ATOM     48  O   UNL A   1      52.411  27.073  26.889  1.00  0.00    -0.744 OA
ENDBRANCH  44  45
ENDBRANCH  25  39
BRANCH  26  49
ATOM     49  C   UNL A   1      38.524  31.795  30.348  1.00  0.00    -0.014 A 
ATOM     50  C   UNL A   1      38.007  31.586  31.638  1.00  0.00     0.010 A 
ATOM     51  C   UNL A   1      37.798  32.583  29.436  1.00  0.00     0.010 A 
ATOM     52  C   UNL A   1      36.780  32.148  32.006  1.00  0.00     0.020 A 
ATOM     53  C   UNL A   1      36.587  33.170  29.810  1.00  0.00     0.020 A 
ATOM     54  C   UNL A   1      36.081  32.940  31.090  1.00  0.00     0.054 A 
BRANCH  54  55
ATOM     55  S   UNL A   1      34.527  33.719  31.609  1.00  0.00     0.124 S 
ATOM     56  O   UNL A   1      33.867  33.956  30.330  1.00  0.00    -0.237 OA
ATOM     57  O   UNL A   1      33.923  32.692  32.453  1.00  0.00    -0.237 OA
ATOM     58  O   UNL A   1      34.968  34.918  32.319  1.00  0.00    -0.744 OA
ENDBRANCH  54  55
ENDBRANCH  26  49
BRANCH  38  59
ATOM     59  C   UNL A   1      45.038  34.257  30.460  1.00  0.00    -0.014 A 
ATOM     60  C   UNL A   1      45.491  34.439  31.779  1.00  0.00     0.010 A 
ATOM     61  C   UNL A   1      45.142  35.317  29.543  1.00  0.00     0.010 A 
ATOM     62  C   UNL A   1      45.999  35.676  32.184  1.00  0.00     0.020 A 
ATOM     63  C   UNL A   1      45.672  36.547  29.937  1.00  0.00     0.020 A 
ATOM     64  C   UNL A   1      46.081  36.723  31.261  1.00  0.00     0.054 A 
BRANCH  64  65
ATOM     65  S   UNL A   1      46.765  38.313  31.801  1.00  0.00     0.124 S 
ATOM     66  O   UNL A   1      47.810  37.895  32.729  1.00  0.00    -0.237 OA
ATOM     67  O   UNL A   1      47.234  38.905  30.550  1.00  0.00    -0.237 OA
ATOM     68  O   UNL A   1      45.622  38.991  32.411  1.00  0.00    -0.744 OA
ENDBRANCH  64  65
ENDBRANCH  38  59
ENDBRANCH  12  13
ENDBRANCH   5   7
ENDBRANCH   2   3
ENDBRANCH   1   2
BRANCH   1  69
ATOM     69  C   UNL A   1      34.580  24.566  24.680  1.00  0.00     0.117 C 
BRANCH  69  70
ATOM     70  N   UNL A   1      34.398  25.763  25.472  1.00  0.00    -0.354 N 
ATOM     71  C   UNL A   1      33.231  26.314  25.927  1.00  0.00     0.247 C 
ATOM     72  H   UNL A   1      35.222  26.244  25.717  1.00  0.00     0.163 HD
ATOM     73  O   UNL A   1      33.324  27.165  26.818  1.00  0.00    -0.272 OA
BRANCH  71  74
ATOM     74  C   UNL A   1      31.840  25.849  25.405  1.00  0.00     0.205 C 
BRANCH  74  75
ATOM     75  N   UNL A   1      31.176  24.993  26.420  1.00  0.00    -0.336 N 
ATOM     76  C   UNL A   1      31.052  23.655  26.667  1.00  0.00     0.252 C 
ATOM     77  H   UNL A   1      30.699  25.532  27.092  1.00  0.00     0.165 HD
ATOM     78  O   UNL A   1      30.141  23.250  27.384  1.00  0.00    -0.269 OA
BRANCH  76  79
ATOM     79  C   UNL A   1      31.991  22.687  26.096  1.00  0.00     0.039 A 
ATOM     80  C   UNL A   1      33.019  22.169  26.886  1.00  0.00     0.014 A 
ATOM     81  C   UNL A   1      31.856  22.304  24.767  1.00  0.00     0.014 A 
ATOM     82  C   UNL A   1      33.796  21.121  26.398  1.00  0.00     0.010 A 
ATOM     83  C   UNL A   1      32.640  21.263  24.278  1.00  0.00     0.010 A 
ATOM     84  C   UNL A   1      33.586  20.631  25.103  1.00  0.00     0.006 A 
BRANCH  84  85
ATOM     85  C   UNL A   1      34.362  19.435  24.596  1.00  0.00     0.299 C 
BRANCH  85  86
ATOM     86  N   UNL A   1      33.996  18.128  25.160  1.00  0.00    -0.331 N 
ATOM     87  C   UNL A   1      32.562  17.846  25.050  1.00  0.00     0.262 C 
ATOM     88  C   UNL A   1      34.817  17.037  24.620  1.00  0.00     0.262 C 
ATOM     89  H   UNL A   1      34.201  18.185  26.158  1.00  0.00     0.348 HD
ATOM     90  C   UNL A   1      32.192  16.546  25.762  1.00  0.00     0.062 C 
ATOM     91  C   UNL A   1      34.505  15.713  25.318  1.00  0.00     0.062 C 
ATOM     92  C   UNL A   1      33.019  15.384  25.226  1.00  0.00     0.012 C 
ENDBRANCH  85  86
ENDBRANCH  84  85
ENDBRANCH  76  79
ENDBRANCH  74  75
BRANCH  74  93
ATOM     93  C   UNL A   1      31.063  26.919  24.661  1.00  0.00     0.020 A 
ATOM     94  C   UNL A   1      31.546  28.217  24.422  1.00  0.00     0.009 A 
ATOM     95  C   UNL A   1      29.805  26.611  24.130  1.00  0.00     0.129 A 
ATOM     96  C   UNL A   1      30.773  29.183  23.769  1.00  0.00     0.001 A 
ATOM     97  C   UNL A   1      29.030  27.563  23.463  1.00  0.00     0.039 A 
ATOM     98  F   UNL A   1      29.297  25.381  24.292  1.00  0.00    -0.207 F 
ATOM     99  C   UNL A   1      29.507  28.860  23.299  1.00  0.00     0.003 A 
ENDBRANCH  74  93
ENDBRANCH  71  74
ENDBRANCH  69  70
ENDBRANCH   1  69
TORSDOF 18
ENDMDL
