MODEL 1
REMARK VINA RESULT:     -12.6      0.000      0.000
REMARK SMILES O=C(NCCCNC(=O)[C@H]1Cc2[nH]cnc2CN1C(=O)c1ccncc1Cl)c1ccc(-c2c3nc(c(-c4ccc(S(=O)(=O)[O-])cc4)c4ccc([nH]4)c(-c4ccc(S(=O)(=O)[O-])cc4)c4nc(c(-c5ccc(S(=O)(=O)[O-])cc5)c5ccc2[nH]5)C=C4)C=C3)cc1
REMARK SMILES IDX 4 1 3 2 1 3 2 4 28 6 29 7 87 8 30 9 86 10 31 11 32 12 33 13
REMARK SMILES IDX 80 14 34 15 85 16 79 17 81 18 35 19 84 20 78 21 77 22 36 24
REMARK SMILES IDX 66 25 47 26 65 27 48 28 51 29 64 30 82 31 49 32 50 33 63 35
REMARK SMILES IDX 83 36 52 37 37 38 38 39 46 40 39 41 45 42 40 43 41 44 42 45
REMARK SMILES IDX 43 46 44 47 67 48 68 49 76 50 69 51 75 52 70 53 71 54 72 55
REMARK SMILES IDX 73 56 74 57 53 58 54 59 62 60 55 61 61 62 56 63 57 64 58 65
REMARK SMILES IDX 59 66 60 67 5 68 6 69 7 70 8 71 9 73 10 74 11 75 18 76 12 77
REMARK SMILES IDX 17 78 13 79 16 80 14 81 15 83 19 84 20 85 21 86 22 87 26 88
REMARK SMILES IDX 23 89 25 90 27 91 24 92
REMARK H PARENT 3 5 81 23 51 34 7 72 13 82
REMARK Flexibility Score: inf
ROOT
ATOM      1  C   UNL A   1      40.095  20.391  26.552  1.00  0.00     0.118 C 
ENDROOT
BRANCH   1   2
ATOM      2  N   UNL A   1      41.484  20.413  26.135  1.00  0.00    -0.352 N 
ATOM      3  O   UNL A   1      43.541  20.991  25.615  1.00  0.00    -0.269 OA
ATOM      4  C   UNL A   1      42.477  21.353  26.124  1.00  0.00     0.251 C 
ATOM      5  H   UNL A   1      41.781  19.547  25.775  1.00  0.00     0.163 HD
BRANCH   4   6
ATOM      6  C   UNL A   1      42.366  22.747  26.645  1.00  0.00     0.039 A 
ATOM      7  C   UNL A   1      41.757  23.821  25.995  1.00  0.00     0.014 A 
ATOM      8  C   UNL A   1      42.905  22.970  27.927  1.00  0.00     0.014 A 
ATOM      9  C   UNL A   1      41.714  25.084  26.591  1.00  0.00     0.010 A 
ATOM     10  C   UNL A   1      42.844  24.224  28.538  1.00  0.00     0.010 A 
ATOM     11  C   UNL A   1      42.258  25.290  27.864  1.00  0.00    -0.014 A 
BRANCH  11  12
ATOM     12  C   UNL A   1      42.070  26.602  28.489  1.00  0.00     0.031 A 
ATOM     13  C   UNL A   1      43.176  27.590  28.298  1.00  0.00     0.074 A 
ATOM     14  C   UNL A   1      40.929  27.029  29.067  1.00  0.00     0.049 A 
ATOM     15  N   UNL A   1      43.906  28.172  29.194  1.00  0.00    -0.248 NA
ATOM     16  C   UNL A   1      43.534  27.941  26.915  1.00  0.00     0.031 C 
ATOM     17  C   UNL A   1      39.615  26.384  29.062  1.00  0.00     0.029 A 
ATOM     18  N   UNL A   1      40.693  28.216  29.700  1.00  0.00    -0.354 N 
ATOM     19  C   UNL A   1      44.716  29.081  28.510  1.00  0.00     0.074 A 
ATOM     20  C   UNL A   1      44.512  28.827  27.105  1.00  0.00     0.031 C 
ATOM     21  C   UNL A   1      38.682  27.279  29.461  1.00  0.00     0.029 A 
ATOM     22  C   UNL A   1      39.349  28.499  29.887  1.00  0.00     0.049 A 
ATOM     23  H   UNL A   1      41.414  28.817  29.997  1.00  0.00     0.167 HD
ATOM     24  C   UNL A   1      45.396  30.088  29.126  1.00  0.00     0.031 A 
ATOM     25  C   UNL A   1      38.816  29.671  30.309  1.00  0.00     0.031 A 
ATOM     26  C   UNL A   1      45.472  29.916  30.550  1.00  0.00     0.049 A 
ATOM     27  C   UNL A   1      39.879  30.438  30.997  1.00  0.00     0.074 A 
ATOM     28  C   UNL A   1      46.019  28.969  31.392  1.00  0.00     0.029 A 
ATOM     29  N   UNL A   1      44.633  30.673  31.330  1.00  0.00    -0.354 N 
ATOM     30  N   UNL A   1      40.418  30.082  32.129  1.00  0.00    -0.248 NA
ATOM     31  C   UNL A   1      40.609  31.451  30.253  1.00  0.00     0.031 C 
ATOM     32  C   UNL A   1      45.127  28.904  32.503  1.00  0.00     0.029 A 
ATOM     33  C   UNL A   1      44.108  29.834  32.279  1.00  0.00     0.049 A 
ATOM     34  H   UNL A   1      44.445  31.635  31.228  1.00  0.00     0.167 HD
ATOM     35  C   UNL A   1      41.732  30.513  32.053  1.00  0.00     0.074 A 
ATOM     36  C   UNL A   1      41.756  31.452  30.937  1.00  0.00     0.031 C 
ATOM     37  C   UNL A   1      42.731  29.869  32.727  1.00  0.00     0.031 A 
BRANCH  24  38
ATOM     38  C   UNL A   1      45.753  31.398  28.468  1.00  0.00    -0.014 A 
ATOM     39  C   UNL A   1      44.752  32.368  28.256  1.00  0.00     0.010 A 
ATOM     40  C   UNL A   1      46.989  31.600  27.817  1.00  0.00     0.010 A 
ATOM     41  C   UNL A   1      44.962  33.460  27.401  1.00  0.00     0.020 A 
ATOM     42  C   UNL A   1      47.223  32.707  26.997  1.00  0.00     0.020 A 
ATOM     43  C   UNL A   1      46.196  33.613  26.766  1.00  0.00     0.054 A 
BRANCH  43  44
ATOM     44  S   UNL A   1      46.422  34.962  25.578  1.00  0.00     0.124 S 
ATOM     45  O   UNL A   1      47.862  34.912  25.339  1.00  0.00    -0.237 OA
ATOM     46  O   UNL A   1      45.580  34.541  24.461  1.00  0.00    -0.237 OA
ATOM     47  O   UNL A   1      45.946  36.138  26.301  1.00  0.00    -0.744 OA
ENDBRANCH  43  44
ENDBRANCH  24  38
BRANCH  25  48
ATOM     48  C   UNL A   1      37.527  30.284  29.909  1.00  0.00    -0.014 A 
ATOM     49  C   UNL A   1      36.779  31.056  30.815  1.00  0.00     0.010 A 
ATOM     50  C   UNL A   1      37.173  30.337  28.545  1.00  0.00     0.010 A 
ATOM     51  C   UNL A   1      35.750  31.899  30.363  1.00  0.00     0.020 A 
ATOM     52  C   UNL A   1      36.144  31.169  28.090  1.00  0.00     0.020 A 
ATOM     53  C   UNL A   1      35.453  31.965  29.000  1.00  0.00     0.054 A 
BRANCH  53  54
ATOM     54  S   UNL A   1      34.252  33.191  28.405  1.00  0.00     0.124 S 
ATOM     55  O   UNL A   1      33.825  33.833  29.645  1.00  0.00    -0.237 OA
ATOM     56  O   UNL A   1      35.059  34.018  27.511  1.00  0.00    -0.237 OA
ATOM     57  O   UNL A   1      33.232  32.381  27.741  1.00  0.00    -0.744 OA
ENDBRANCH  53  54
ENDBRANCH  25  48
BRANCH  37  58
ATOM     58  C   UNL A   1      42.352  28.887  33.815  1.00  0.00    -0.014 A 
ATOM     59  C   UNL A   1      42.130  27.518  33.573  1.00  0.00     0.010 A 
ATOM     60  C   UNL A   1      42.383  29.333  35.149  1.00  0.00     0.010 A 
ATOM     61  C   UNL A   1      41.930  26.624  34.635  1.00  0.00     0.020 A 
ATOM     62  C   UNL A   1      42.204  28.444  36.213  1.00  0.00     0.020 A 
ATOM     63  C   UNL A   1      41.974  27.093  35.950  1.00  0.00     0.054 A 
BRANCH  63  64
ATOM     64  S   UNL A   1      41.809  25.909  37.315  1.00  0.00     0.124 S 
ATOM     65  O   UNL A   1      42.819  26.370  38.262  1.00  0.00    -0.237 OA
ATOM     66  O   UNL A   1      40.421  26.090  37.738  1.00  0.00    -0.237 OA
ATOM     67  O   UNL A   1      42.089  24.616  36.689  1.00  0.00    -0.744 OA
ENDBRANCH  63  64
ENDBRANCH  37  58
ENDBRANCH  11  12
ENDBRANCH   4   6
ENDBRANCH   1   2
BRANCH   1  68
ATOM     68  C   UNL A   1      39.136  20.839  25.450  1.00  0.00     0.042 C 
BRANCH  68  69
ATOM     69  C   UNL A   1      38.311  22.063  25.851  1.00  0.00     0.117 C 
BRANCH  69  70
ATOM     70  N   UNL A   1      37.781  22.742  24.680  1.00  0.00    -0.354 N 
ATOM     71  C   UNL A   1      36.717  22.536  23.862  1.00  0.00     0.243 C 
ATOM     72  H   UNL A   1      38.314  23.528  24.421  1.00  0.00     0.163 HD
ATOM     73  O   UNL A   1      36.753  23.167  22.796  1.00  0.00    -0.273 OA
BRANCH  71  74
ATOM     74  C   UNL A   1      35.450  21.722  24.229  1.00  0.00     0.181 C 
ATOM     75  C   UNL A   1      35.671  20.319  24.838  1.00  0.00     0.091 C 
ATOM     76  N   UNL A   1      34.261  22.421  24.871  1.00  0.00    -0.320 N 
ATOM     77  C   UNL A   1      34.370  19.617  24.884  1.00  0.00     0.042 A 
ATOM     78  C   UNL A   1      32.953  21.718  24.736  1.00  0.00     0.178 C 
ATOM     79  N   UNL A   1      34.125  18.283  25.009  1.00  0.00    -0.348 N 
ATOM     80  C   UNL A   1      33.146  20.240  24.872  1.00  0.00     0.081 A 
ATOM     81  C   UNL A   1      32.762  18.152  25.099  1.00  0.00     0.197 A 
ATOM     82  H   UNL A   1      34.791  17.558  25.031  1.00  0.00     0.167 HD
ATOM     83  N   UNL A   1      32.145  19.313  25.003  1.00  0.00    -0.240 NA
BRANCH  76  84
ATOM     84  C   UNL A   1      34.257  23.543  25.694  1.00  0.00     0.256 C 
ATOM     85  O   UNL A   1      34.855  23.618  26.767  1.00  0.00    -0.269 OA
BRANCH  84  86
ATOM     86  C   UNL A   1      33.488  24.735  25.334  1.00  0.00     0.061 A 
ATOM     87  C   UNL A   1      34.081  25.669  24.484  1.00  0.00     0.035 A 
ATOM     88  C   UNL A   1      32.244  24.987  25.910  1.00  0.00     0.072 A 
ATOM     89  C   UNL A   1      33.350  26.799  24.165  1.00  0.00     0.112 A 
ATOM     90  C   UNL A   1      31.584  26.132  25.496  1.00  0.00     0.132 A 
ATOM     91  Cl  UNL A   1      31.514  23.963  27.087  1.00  0.00    -0.082 Cl
ATOM     92  N   UNL A   1      32.101  27.038  24.626  1.00  0.00    -0.263 NA
ENDBRANCH  84  86
ENDBRANCH  76  84
ENDBRANCH  71  74
ENDBRANCH  69  70
ENDBRANCH  68  69
ENDBRANCH   1  68
TORSDOF 15
ENDMDL
MODEL 2
REMARK VINA RESULT:     -12.6      1.941      2.836
REMARK SMILES O=C(NCCCNC(=O)[C@H]1Cc2[nH]cnc2CN1C(=O)c1ccncc1Cl)c1ccc(-c2c3nc(c(-c4ccc(S(=O)(=O)[O-])cc4)c4ccc([nH]4)c(-c4ccc(S(=O)(=O)[O-])cc4)c4nc(c(-c5ccc(S(=O)(=O)[O-])cc5)c5ccc2[nH]5)C=C4)C=C3)cc1
REMARK SMILES IDX 4 1 3 2 1 3 2 4 28 6 29 7 87 8 30 9 86 10 31 11 32 12 33 13
REMARK SMILES IDX 80 14 34 15 85 16 79 17 81 18 35 19 84 20 78 21 77 22 36 24
REMARK SMILES IDX 66 25 47 26 65 27 48 28 51 29 64 30 82 31 49 32 50 33 63 35
REMARK SMILES IDX 83 36 52 37 37 38 38 39 46 40 39 41 45 42 40 43 41 44 42 45
REMARK SMILES IDX 43 46 44 47 67 48 68 49 76 50 69 51 75 52 70 53 71 54 72 55
REMARK SMILES IDX 73 56 74 57 53 58 54 59 62 60 55 61 61 62 56 63 57 64 58 65
REMARK SMILES IDX 59 66 60 67 5 68 6 69 7 70 8 71 9 73 10 74 11 75 18 76 12 77
REMARK SMILES IDX 17 78 13 79 16 80 14 81 15 83 19 84 20 85 21 86 22 87 26 88
REMARK SMILES IDX 23 89 25 90 27 91 24 92
REMARK H PARENT 3 5 81 23 51 34 7 72 13 82
REMARK Flexibility Score: inf
ROOT
ATOM      1  C   UNL A   1      37.428  22.386  25.673  1.00  0.00     0.118 C 
ENDROOT
BRANCH   1   2
ATOM      2  N   UNL A   1      38.790  21.895  25.760  1.00  0.00    -0.352 N 
ATOM      3  O   UNL A   1      40.960  21.677  26.048  1.00  0.00    -0.269 OA
ATOM      4  C   UNL A   1      39.978  22.408  26.205  1.00  0.00     0.251 C 
ATOM      5  H   UNL A   1      38.880  20.977  25.419  1.00  0.00     0.163 HD
BRANCH   4   6
ATOM      6  C   UNL A   1      40.171  23.751  26.825  1.00  0.00     0.039 A 
ATOM      7  C   UNL A   1      39.408  24.891  26.572  1.00  0.00     0.014 A 
ATOM      8  C   UNL A   1      41.209  23.847  27.774  1.00  0.00     0.014 A 
ATOM      9  C   UNL A   1      39.688  26.095  27.222  1.00  0.00     0.010 A 
ATOM     10  C   UNL A   1      41.478  25.042  28.443  1.00  0.00     0.010 A 
ATOM     11  C   UNL A   1      40.724  26.176  28.159  1.00  0.00    -0.014 A 
BRANCH  11  12
ATOM     12  C   UNL A   1      40.888  27.430  28.900  1.00  0.00     0.031 A 
ATOM     13  C   UNL A   1      41.971  28.343  28.422  1.00  0.00     0.074 A 
ATOM     14  C   UNL A   1      40.045  27.884  29.849  1.00  0.00     0.049 A 
ATOM     15  N   UNL A   1      43.009  28.774  29.066  1.00  0.00    -0.248 NA
ATOM     16  C   UNL A   1      41.901  28.800  27.026  1.00  0.00     0.031 C 
ATOM     17  C   UNL A   1      38.738  27.348  30.233  1.00  0.00     0.029 A 
ATOM     18  N   UNL A   1      40.152  29.017  30.604  1.00  0.00    -0.354 N 
ATOM     19  C   UNL A   1      43.647  29.680  28.217  1.00  0.00     0.074 A 
ATOM     20  C   UNL A   1      42.976  29.584  26.943  1.00  0.00     0.031 C 
ATOM     21  C   UNL A   1      38.084  28.269  30.978  1.00  0.00     0.029 A 
ATOM     22  C   UNL A   1      38.978  29.385  31.243  1.00  0.00     0.049 A 
ATOM     23  H   UNL A   1      40.990  29.528  30.687  1.00  0.00     0.167 HD
ATOM     24  C   UNL A   1      44.592  30.565  28.642  1.00  0.00     0.031 A 
ATOM     25  C   UNL A   1      38.737  30.547  31.896  1.00  0.00     0.031 A 
ATOM     26  C   UNL A   1      45.103  30.247  29.946  1.00  0.00     0.049 A 
ATOM     27  C   UNL A   1      40.039  31.157  32.246  1.00  0.00     0.074 A 
ATOM     28  C   UNL A   1      45.788  29.181  30.494  1.00  0.00     0.029 A 
ATOM     29  N   UNL A   1      44.645  30.986  31.009  1.00  0.00    -0.354 N 
ATOM     30  N   UNL A   1      40.873  30.648  33.110  1.00  0.00    -0.248 NA
ATOM     31  C   UNL A   1      40.595  32.178  31.374  1.00  0.00     0.031 C 
ATOM     32  C   UNL A   1      45.299  29.075  31.830  1.00  0.00     0.029 A 
ATOM     33  C   UNL A   1      44.367  30.100  32.018  1.00  0.00     0.049 A 
ATOM     34  H   UNL A   1      44.537  31.965  31.040  1.00  0.00     0.167 HD
ATOM     35  C   UNL A   1      42.131  30.982  32.635  1.00  0.00     0.074 A 
ATOM     36  C   UNL A   1      41.894  32.022  31.640  1.00  0.00     0.031 C 
ATOM     37  C   UNL A   1      43.219  30.198  32.897  1.00  0.00     0.031 A 
BRANCH  24  38
ATOM     38  C   UNL A   1      44.856  31.902  27.994  1.00  0.00    -0.014 A 
ATOM     39  C   UNL A   1      46.139  32.190  27.484  1.00  0.00     0.010 A 
ATOM     40  C   UNL A   1      43.953  32.980  28.102  1.00  0.00     0.010 A 
ATOM     41  C   UNL A   1      46.513  33.498  27.144  1.00  0.00     0.020 A 
ATOM     42  C   UNL A   1      44.301  34.280  27.725  1.00  0.00     0.020 A 
ATOM     43  C   UNL A   1      45.592  34.538  27.281  1.00  0.00     0.054 A 
BRANCH  43  44
ATOM     44  S   UNL A   1      46.116  36.239  26.945  1.00  0.00     0.124 S 
ATOM     45  O   UNL A   1      46.913  36.546  28.129  1.00  0.00    -0.237 OA
ATOM     46  O   UNL A   1      46.864  36.097  25.698  1.00  0.00    -0.237 OA
ATOM     47  O   UNL A   1      44.856  36.969  26.829  1.00  0.00    -0.744 OA
ENDBRANCH  43  44
ENDBRANCH  24  38
BRANCH  25  48
ATOM     48  C   UNL A   1      37.461  31.295  31.986  1.00  0.00    -0.014 A 
ATOM     49  C   UNL A   1      36.995  31.790  33.216  1.00  0.00     0.010 A 
ATOM     50  C   UNL A   1      36.840  31.761  30.809  1.00  0.00     0.010 A 
ATOM     51  C   UNL A   1      35.985  32.764  33.264  1.00  0.00     0.020 A 
ATOM     52  C   UNL A   1      35.827  32.726  30.849  1.00  0.00     0.020 A 
ATOM     53  C   UNL A   1      35.420  33.241  32.078  1.00  0.00     0.054 A 
BRANCH  53  54
ATOM     54  S   UNL A   1      34.251  34.629  32.138  1.00  0.00     0.124 S 
ATOM     55  O   UNL A   1      35.010  35.642  32.866  1.00  0.00    -0.237 OA
ATOM     56  O   UNL A   1      34.017  34.909  30.724  1.00  0.00    -0.237 OA
ATOM     57  O   UNL A   1      33.101  34.080  32.855  1.00  0.00    -0.744 OA
ENDBRANCH  53  54
ENDBRANCH  25  48
BRANCH  37  58
ATOM     58  C   UNL A   1      43.108  29.145  33.978  1.00  0.00    -0.014 A 
ATOM     59  C   UNL A   1      43.401  29.398  35.332  1.00  0.00     0.010 A 
ATOM     60  C   UNL A   1      42.532  27.907  33.640  1.00  0.00     0.010 A 
ATOM     61  C   UNL A   1      43.139  28.434  36.316  1.00  0.00     0.020 A 
ATOM     62  C   UNL A   1      42.250  26.949  34.618  1.00  0.00     0.020 A 
ATOM     63  C   UNL A   1      42.559  27.217  35.952  1.00  0.00     0.054 A 
BRANCH  63  64
ATOM     64  S   UNL A   1      42.138  26.018  37.249  1.00  0.00     0.124 S 
ATOM     65  O   UNL A   1      40.722  26.284  37.483  1.00  0.00    -0.237 OA
ATOM     66  O   UNL A   1      42.440  24.734  36.618  1.00  0.00    -0.237 OA
ATOM     67  O   UNL A   1      43.028  26.376  38.355  1.00  0.00    -0.744 OA
ENDBRANCH  63  64
ENDBRANCH  37  58
ENDBRANCH  11  12
ENDBRANCH   4   6
ENDBRANCH   1   2
BRANCH   1  68
ATOM     68  C   UNL A   1      36.912  22.455  24.237  1.00  0.00     0.042 C 
BRANCH  68  69
ATOM     69  C   UNL A   1      35.415  22.156  24.136  1.00  0.00     0.117 C 
BRANCH  69  70
ATOM     70  N   UNL A   1      34.779  23.006  23.143  1.00  0.00    -0.354 N 
ATOM     71  C   UNL A   1      33.536  23.533  22.996  1.00  0.00     0.243 C 
ATOM     72  H   UNL A   1      35.387  23.256  22.410  1.00  0.00     0.163 HD
ATOM     73  O   UNL A   1      33.292  23.980  21.867  1.00  0.00    -0.273 OA
BRANCH  71  74
ATOM     74  C   UNL A   1      32.511  23.738  24.140  1.00  0.00     0.181 C 
ATOM     75  C   UNL A   1      32.167  22.504  25.003  1.00  0.00     0.091 C 
ATOM     76  N   UNL A   1      32.562  25.003  24.984  1.00  0.00    -0.320 N 
ATOM     77  C   UNL A   1      31.008  22.836  25.860  1.00  0.00     0.042 A 
ATOM     78  C   UNL A   1      31.298  25.353  25.694  1.00  0.00     0.178 C 
ATOM     79  N   UNL A   1      30.158  21.994  26.510  1.00  0.00    -0.348 N 
ATOM     80  C   UNL A   1      30.632  24.113  26.202  1.00  0.00     0.081 A 
ATOM     81  C   UNL A   1      29.318  22.792  27.245  1.00  0.00     0.197 A 
ATOM     82  H   UNL A   1      30.148  21.011  26.463  1.00  0.00     0.167 HD
ATOM     83  N   UNL A   1      29.569  24.074  27.067  1.00  0.00    -0.240 NA
BRANCH  76  84
ATOM     84  C   UNL A   1      33.666  25.788  25.302  1.00  0.00     0.256 C 
ATOM     85  O   UNL A   1      34.796  25.345  25.504  1.00  0.00    -0.269 OA
BRANCH  84  86
ATOM     86  C   UNL A   1      33.538  27.238  25.453  1.00  0.00     0.061 A 
ATOM     87  C   UNL A   1      33.483  27.763  26.744  1.00  0.00     0.035 A 
ATOM     88  C   UNL A   1      33.361  28.061  24.342  1.00  0.00     0.072 A 
ATOM     89  C   UNL A   1      33.345  29.133  26.872  1.00  0.00     0.112 A 
ATOM     90  C   UNL A   1      33.264  29.423  24.583  1.00  0.00     0.132 A 
ATOM     91  Cl  UNL A   1      33.258  27.474  22.727  1.00  0.00    -0.082 Cl
ATOM     92  N   UNL A   1      33.266  29.980  25.821  1.00  0.00    -0.263 NA
ENDBRANCH  84  86
ENDBRANCH  76  84
ENDBRANCH  71  74
ENDBRANCH  69  70
ENDBRANCH  68  69
ENDBRANCH   1  68
TORSDOF 15
ENDMDL
MODEL 3
REMARK VINA RESULT:     -12.5      2.221      4.046
REMARK SMILES O=C(NCCCNC(=O)[C@H]1Cc2[nH]cnc2CN1C(=O)c1ccncc1Cl)c1ccc(-c2c3nc(c(-c4ccc(S(=O)(=O)[O-])cc4)c4ccc([nH]4)c(-c4ccc(S(=O)(=O)[O-])cc4)c4nc(c(-c5ccc(S(=O)(=O)[O-])cc5)c5ccc2[nH]5)C=C4)C=C3)cc1
REMARK SMILES IDX 4 1 3 2 1 3 2 4 28 6 29 7 87 8 30 9 86 10 31 11 32 12 33 13
REMARK SMILES IDX 80 14 34 15 85 16 79 17 81 18 35 19 84 20 78 21 77 22 36 24
REMARK SMILES IDX 66 25 47 26 65 27 48 28 51 29 64 30 82 31 49 32 50 33 63 35
REMARK SMILES IDX 83 36 52 37 37 38 38 39 46 40 39 41 45 42 40 43 41 44 42 45
REMARK SMILES IDX 43 46 44 47 67 48 68 49 76 50 69 51 75 52 70 53 71 54 72 55
REMARK SMILES IDX 73 56 74 57 53 58 54 59 62 60 55 61 61 62 56 63 57 64 58 65
REMARK SMILES IDX 59 66 60 67 5 68 6 69 7 70 8 71 9 73 10 74 11 75 18 76 12 77
REMARK SMILES IDX 17 78 13 79 16 80 14 81 15 83 19 84 20 85 21 86 22 87 26 88
REMARK SMILES IDX 23 89 25 90 27 91 24 92
REMARK H PARENT 3 5 81 23 51 34 7 72 13 82
REMARK Flexibility Score: inf
ROOT
ATOM      1  C   UNL A   1      36.537  22.528  26.115  1.00  0.00     0.118 C 
ENDROOT
BRANCH   1   2
ATOM      2  N   UNL A   1      37.820  21.852  26.098  1.00  0.00    -0.352 N 
ATOM      3  O   UNL A   1      39.957  21.340  26.186  1.00  0.00    -0.269 OA
ATOM      4  C   UNL A   1      39.106  22.209  26.395  1.00  0.00     0.251 C 
ATOM      5  H   UNL A   1      37.747  20.916  25.803  1.00  0.00     0.163 HD
BRANCH   4   6
ATOM      6  C   UNL A   1      39.546  23.537  26.914  1.00  0.00     0.039 A 
ATOM      7  C   UNL A   1      38.878  24.749  26.741  1.00  0.00     0.014 A 
ATOM      8  C   UNL A   1      40.733  23.539  27.673  1.00  0.00     0.014 A 
ATOM      9  C   UNL A   1      39.392  25.930  27.283  1.00  0.00     0.010 A 
ATOM     10  C   UNL A   1      41.239  24.711  28.236  1.00  0.00     0.010 A 
ATOM     11  C   UNL A   1      40.574  25.917  28.031  1.00  0.00    -0.014 A 
BRANCH  11  12
ATOM     12  C   UNL A   1      40.996  27.162  28.678  1.00  0.00     0.031 A 
ATOM     13  C   UNL A   1      42.226  27.810  28.128  1.00  0.00     0.074 A 
ATOM     14  C   UNL A   1      40.279  27.837  29.599  1.00  0.00     0.049 A 
ATOM     15  N   UNL A   1      43.341  28.073  28.731  1.00  0.00    -0.248 NA
ATOM     16  C   UNL A   1      42.215  28.175  26.704  1.00  0.00     0.031 C 
ATOM     17  C   UNL A   1      38.901  27.594  30.032  1.00  0.00     0.029 A 
ATOM     18  N   UNL A   1      40.621  28.976  30.270  1.00  0.00    -0.354 N 
ATOM     19  C   UNL A   1      44.125  28.776  27.814  1.00  0.00     0.074 A 
ATOM     20  C   UNL A   1      43.420  28.725  26.556  1.00  0.00     0.031 C 
ATOM     21  C   UNL A   1      38.455  28.675  30.713  1.00  0.00     0.029 A 
ATOM     22  C   UNL A   1      39.555  29.609  30.890  1.00  0.00     0.049 A 
ATOM     23  H   UNL A   1      41.544  29.317  30.310  1.00  0.00     0.167 HD
ATOM     24  C   UNL A   1      45.233  29.485  28.167  1.00  0.00     0.031 A 
ATOM     25  C   UNL A   1      39.559  30.838  31.460  1.00  0.00     0.031 A 
ATOM     26  C   UNL A   1      45.701  29.163  29.486  1.00  0.00     0.049 A 
ATOM     27  C   UNL A   1      40.963  31.204  31.756  1.00  0.00     0.074 A 
ATOM     28  C   UNL A   1      46.177  28.025  30.104  1.00  0.00     0.029 A 
ATOM     29  N   UNL A   1      45.419  30.050  30.497  1.00  0.00    -0.354 N 
ATOM     30  N   UNL A   1      41.700  30.603  32.647  1.00  0.00    -0.248 NA
ATOM     31  C   UNL A   1      41.687  32.034  30.808  1.00  0.00     0.031 C 
ATOM     32  C   UNL A   1      45.706  28.109  31.448  1.00  0.00     0.029 A 
ATOM     33  C   UNL A   1      44.996  29.307  31.569  1.00  0.00     0.049 A 
ATOM     34  H   UNL A   1      45.504  31.030  30.459  1.00  0.00     0.167 HD
ATOM     35  C   UNL A   1      42.988  30.650  32.139  1.00  0.00     0.074 A 
ATOM     36  C   UNL A   1      42.937  31.645  31.074  1.00  0.00     0.031 C 
ATOM     37  C   UNL A   1      43.908  29.688  32.448  1.00  0.00     0.031 A 
BRANCH  24  38
ATOM     38  C   UNL A   1      45.738  30.697  27.423  1.00  0.00    -0.014 A 
ATOM     39  C   UNL A   1      47.126  30.932  27.331  1.00  0.00     0.010 A 
ATOM     40  C   UNL A   1      44.883  31.749  27.031  1.00  0.00     0.010 A 
ATOM     41  C   UNL A   1      47.630  32.173  26.914  1.00  0.00     0.020 A 
ATOM     42  C   UNL A   1      45.375  32.974  26.573  1.00  0.00     0.020 A 
ATOM     43  C   UNL A   1      46.747  33.191  26.551  1.00  0.00     0.054 A 
BRANCH  43  44
ATOM     44  S   UNL A   1      47.403  34.824  26.119  1.00  0.00     0.124 S 
ATOM     45  O   UNL A   1      46.185  35.558  25.790  1.00  0.00    -0.237 OA
ATOM     46  O   UNL A   1      48.071  35.229  27.354  1.00  0.00    -0.237 OA
ATOM     47  O   UNL A   1      48.295  34.549  24.996  1.00  0.00    -0.744 OA
ENDBRANCH  43  44
ENDBRANCH  24  38
BRANCH  25  48
ATOM     48  C   UNL A   1      38.455  31.826  31.506  1.00  0.00    -0.014 A 
ATOM     49  C   UNL A   1      37.837  32.279  30.328  1.00  0.00     0.010 A 
ATOM     50  C   UNL A   1      37.825  32.112  32.735  1.00  0.00     0.010 A 
ATOM     51  C   UNL A   1      36.599  32.942  30.373  1.00  0.00     0.020 A 
ATOM     52  C   UNL A   1      36.596  32.779  32.788  1.00  0.00     0.020 A 
ATOM     53  C   UNL A   1      35.977  33.170  31.603  1.00  0.00     0.054 A 
BRANCH  53  54
ATOM     54  S   UNL A   1      34.296  33.858  31.641  1.00  0.00     0.124 S 
ATOM     55  O   UNL A   1      33.622  32.976  32.589  1.00  0.00    -0.237 OA
ATOM     56  O   UNL A   1      34.523  35.226  32.101  1.00  0.00    -0.237 OA
ATOM     57  O   UNL A   1      33.846  33.742  30.256  1.00  0.00    -0.744 OA
ENDBRANCH  53  54
ENDBRANCH  25  48
BRANCH  37  58
ATOM     58  C   UNL A   1      43.618  28.754  33.603  1.00  0.00    -0.014 A 
ATOM     59  C   UNL A   1      44.024  29.016  34.926  1.00  0.00     0.010 A 
ATOM     60  C   UNL A   1      42.765  27.660  33.371  1.00  0.00     0.010 A 
ATOM     61  C   UNL A   1      43.603  28.197  35.982  1.00  0.00     0.020 A 
ATOM     62  C   UNL A   1      42.325  26.850  34.422  1.00  0.00     0.020 A 
ATOM     63  C   UNL A   1      42.749  27.121  35.724  1.00  0.00     0.054 A 
BRANCH  63  64
ATOM     64  S   UNL A   1      42.134  26.129  37.114  1.00  0.00     0.124 S 
ATOM     65  O   UNL A   1      40.859  26.766  37.422  1.00  0.00    -0.237 OA
ATOM     66  O   UNL A   1      42.045  24.786  36.542  1.00  0.00    -0.237 OA
ATOM     67  O   UNL A   1      43.170  26.286  38.136  1.00  0.00    -0.744 OA
ENDBRANCH  63  64
ENDBRANCH  37  58
ENDBRANCH  11  12
ENDBRANCH   4   6
ENDBRANCH   1   2
BRANCH   1  68
ATOM     68  C   UNL A   1      36.206  23.209  24.788  1.00  0.00     0.042 C 
BRANCH  68  69
ATOM     69  C   UNL A   1      34.873  23.958  24.829  1.00  0.00     0.117 C 
BRANCH  69  70
ATOM     70  N   UNL A   1      34.673  24.733  23.615  1.00  0.00    -0.354 N 
ATOM     71  C   UNL A   1      33.907  25.806  23.287  1.00  0.00     0.243 C 
ATOM     72  H   UNL A   1      35.215  24.407  22.861  1.00  0.00     0.163 HD
ATOM     73  O   UNL A   1      33.796  26.009  22.070  1.00  0.00    -0.273 OA
BRANCH  71  74
ATOM     74  C   UNL A   1      33.320  26.828  24.292  1.00  0.00     0.181 C 
ATOM     75  C   UNL A   1      34.004  28.212  24.364  1.00  0.00     0.091 C 
ATOM     76  N   UNL A   1      31.812  26.950  24.456  1.00  0.00    -0.320 N 
ATOM     77  C   UNL A   1      33.470  28.940  25.535  1.00  0.00     0.042 A 
ATOM     78  C   UNL A   1      31.352  27.555  25.738  1.00  0.00     0.178 C 
ATOM     79  N   UNL A   1      33.998  30.014  26.186  1.00  0.00    -0.348 N 
ATOM     80  C   UNL A   1      32.264  28.673  26.137  1.00  0.00     0.081 A 
ATOM     81  C   UNL A   1      33.078  30.375  27.137  1.00  0.00     0.197 A 
ATOM     82  H   UNL A   1      34.865  30.445  26.009  1.00  0.00     0.167 HD
ATOM     83  N   UNL A   1      32.030  29.574  27.143  1.00  0.00    -0.240 NA
BRANCH  76  84
ATOM     84  C   UNL A   1      30.817  26.714  23.512  1.00  0.00     0.256 C 
ATOM     85  O   UNL A   1      30.572  25.611  23.024  1.00  0.00    -0.269 OA
BRANCH  84  86
ATOM     86  C   UNL A   1      29.993  27.809  23.001  1.00  0.00     0.061 A 
ATOM     87  C   UNL A   1      30.636  28.887  22.392  1.00  0.00     0.035 A 
ATOM     88  C   UNL A   1      28.616  27.832  23.216  1.00  0.00     0.072 A 
ATOM     89  C   UNL A   1      29.847  29.924  21.928  1.00  0.00     0.112 A 
ATOM     90  C   UNL A   1      27.918  28.902  22.682  1.00  0.00     0.132 A 
ATOM     91  Cl  UNL A   1      27.769  26.618  24.097  1.00  0.00    -0.082 Cl
ATOM     92  N   UNL A   1      28.499  29.942  22.030  1.00  0.00    -0.263 NA
ENDBRANCH  84  86
ENDBRANCH  76  84
ENDBRANCH  71  74
ENDBRANCH  69  70
ENDBRANCH  68  69
ENDBRANCH   1  68
TORSDOF 15
ENDMDL
