MODEL 1
REMARK VINA RESULT:     -11.1      0.000      0.000
REMARK SMILES O=C(CN(Cc1ccccc1Cl)S(=O)(=O)c1ccc(Cl)cc1)NCCCNC(=O)c1ccc(-c2c3nc(c(-c4ccc(S(=O)(=O)[O-])cc4)c4ccc([nH]4)c(-c4ccc(S(=O)(=O)[O-])cc4)c4nc(c(-c5ccc(S(=O)(=O)[O-])cc5)c5ccc2[nH]5)C=C4)C=C3)cc1
REMARK SMILES IDX 25 1 24 2 23 3 1 4 2 5 3 7 4 8 5 9 6 10 7 11 11 12 8 13
REMARK SMILES IDX 10 14 12 15 9 16 13 17 14 18 15 19 16 20 17 21 22 22 18 23
REMARK SMILES IDX 21 24 19 25 20 26 26 27 27 28 28 29 29 31 30 32 31 33 89 34
REMARK SMILES IDX 32 35 88 36 33 37 34 38 35 39 82 40 36 41 87 42 81 43 83 44
REMARK SMILES IDX 37 45 86 46 80 47 79 48 38 50 68 51 49 52 67 53 50 54 53 55
REMARK SMILES IDX 66 56 84 57 51 58 52 59 65 61 85 62 54 63 39 64 40 65 48 66
REMARK SMILES IDX 41 67 47 68 42 69 43 70 44 71 45 72 46 73 69 74 70 75 78 76
REMARK SMILES IDX 71 77 77 78 72 79 73 80 74 81 75 82 76 83 55 84 56 85 64 86
REMARK SMILES IDX 57 87 63 88 58 89 59 90 60 91 61 92 62 93
REMARK H PARENT 23 6 27 30 83 49 53 60
REMARK Flexibility Score: inf
ROOT
ATOM      1  C   UNL A   1      36.042  23.671  24.105  1.00  0.00     0.042 C 
ENDROOT
BRANCH   1   2
ATOM      2  C   UNL A   1      35.042  22.562  23.809  1.00  0.00     0.117 C 
BRANCH   2   3
ATOM      3  N   UNL A   1      33.661  22.997  23.897  1.00  0.00    -0.355 N 
ATOM      4  O   UNL A   1      32.863  21.046  24.809  1.00  0.00    -0.274 OA
ATOM      5  C   UNL A   1      32.694  22.224  24.503  1.00  0.00     0.235 C 
ATOM      6  H   UNL A   1      33.407  23.867  23.514  1.00  0.00     0.163 HD
BRANCH   5   7
ATOM      7  C   UNL A   1      31.352  22.907  24.688  1.00  0.00     0.202 C 
BRANCH   7   8
ATOM      8  N   UNL A   1      31.276  24.411  24.755  1.00  0.00    -0.184 NA
BRANCH   8   9
ATOM      9  C   UNL A   1      30.601  24.938  23.530  1.00  0.00     0.140 C 
BRANCH   9  10
ATOM     10  C   UNL A   1      30.613  26.434  23.239  1.00  0.00    -0.014 A 
ATOM     11  C   UNL A   1      29.472  27.227  23.459  1.00  0.00     0.006 A 
ATOM     12  C   UNL A   1      31.773  27.113  22.815  1.00  0.00     0.045 A 
ATOM     13  C   UNL A   1      29.456  28.603  23.216  1.00  0.00     0.000 A 
ATOM     14  C   UNL A   1      31.761  28.498  22.579  1.00  0.00     0.021 A 
ATOM     15  Cl  UNL A   1      33.285  26.311  22.576  1.00  0.00    -0.084 Cl
ATOM     16  C   UNL A   1      30.600  29.241  22.770  1.00  0.00     0.002 A 
ENDBRANCH   9  10
ENDBRANCH   8   9
BRANCH   8  17
ATOM     17  S   UNL A   1      30.992  25.053  26.308  1.00  0.00     0.243 S 
ATOM     18  O   UNL A   1      29.582  25.351  26.452  1.00  0.00    -0.207 OA
ATOM     19  O   UNL A   1      31.631  24.155  27.241  1.00  0.00    -0.207 OA
BRANCH  17  20
ATOM     20  C   UNL A   1      31.866  26.605  26.492  1.00  0.00     0.082 A 
ATOM     21  C   UNL A   1      31.287  27.721  27.102  1.00  0.00     0.023 A 
ATOM     22  C   UNL A   1      33.229  26.638  26.156  1.00  0.00     0.023 A 
ATOM     23  C   UNL A   1      32.037  28.887  27.295  1.00  0.00     0.022 A 
ATOM     24  C   UNL A   1      33.989  27.788  26.394  1.00  0.00     0.022 A 
ATOM     25  C   UNL A   1      33.386  28.913  26.947  1.00  0.00     0.041 A 
ATOM     26  Cl  UNL A   1      34.315  30.331  27.237  1.00  0.00    -0.084 Cl
ENDBRANCH  17  20
ENDBRANCH   8  17
ENDBRANCH   7   8
ENDBRANCH   5   7
ENDBRANCH   2   3
ENDBRANCH   1   2
BRANCH   1  27
ATOM     27  C   UNL A   1      36.661  23.614  25.498  1.00  0.00     0.118 C 
BRANCH  27  28
ATOM     28  N   UNL A   1      37.821  22.735  25.584  1.00  0.00    -0.352 N 
ATOM     29  C   UNL A   1      39.077  22.964  26.091  1.00  0.00     0.251 C 
ATOM     30  H   UNL A   1      37.681  21.832  25.218  1.00  0.00     0.163 HD
ATOM     31  O   UNL A   1      39.943  22.102  25.955  1.00  0.00    -0.269 OA
BRANCH  29  32
ATOM     32  C   UNL A   1      39.409  24.238  26.770  1.00  0.00     0.039 A 
ATOM     33  C   UNL A   1      38.976  24.426  28.087  1.00  0.00     0.014 A 
ATOM     34  C   UNL A   1      40.114  25.255  26.121  1.00  0.00     0.014 A 
ATOM     35  C   UNL A   1      39.311  25.597  28.773  1.00  0.00     0.010 A 
ATOM     36  C   UNL A   1      40.506  26.392  26.828  1.00  0.00     0.010 A 
ATOM     37  C   UNL A   1      40.113  26.575  28.163  1.00  0.00    -0.014 A 
BRANCH  37  38
ATOM     38  C   UNL A   1      40.558  27.783  28.908  1.00  0.00     0.031 A 
ATOM     39  C   UNL A   1      41.908  27.815  29.575  1.00  0.00     0.074 A 
ATOM     40  C   UNL A   1      39.720  28.831  29.040  1.00  0.00     0.049 A 
ATOM     41  N   UNL A   1      42.438  28.755  30.315  1.00  0.00    -0.248 NA
ATOM     42  C   UNL A   1      42.762  26.630  29.406  1.00  0.00     0.031 C 
ATOM     43  C   UNL A   1      38.369  28.912  28.480  1.00  0.00     0.029 A 
ATOM     44  N   UNL A   1      39.879  30.026  29.696  1.00  0.00    -0.354 N 
ATOM     45  C   UNL A   1      43.677  28.268  30.716  1.00  0.00     0.074 A 
ATOM     46  C   UNL A   1      43.801  26.934  30.170  1.00  0.00     0.031 C 
ATOM     47  C   UNL A   1      37.833  30.103  28.795  1.00  0.00     0.029 A 
ATOM     48  C   UNL A   1      38.783  30.854  29.609  1.00  0.00     0.049 A 
ATOM     49  H   UNL A   1      40.699  30.269  30.182  1.00  0.00     0.167 HD
ATOM     50  C   UNL A   1      44.632  28.881  31.458  1.00  0.00     0.031 A 
ATOM     51  C   UNL A   1      38.562  32.076  30.130  1.00  0.00     0.031 A 
ATOM     52  C   UNL A   1      44.517  30.213  31.989  1.00  0.00     0.049 A 
ATOM     53  C   UNL A   1      39.639  32.738  30.945  1.00  0.00     0.074 A 
ATOM     54  C   UNL A   1      45.455  30.938  32.704  1.00  0.00     0.029 A 
ATOM     55  N   UNL A   1      43.399  31.023  31.863  1.00  0.00    -0.354 N 
ATOM     56  N   UNL A   1      40.827  32.282  31.264  1.00  0.00    -0.248 NA
ATOM     57  C   UNL A   1      39.349  34.083  31.461  1.00  0.00     0.031 C 
ATOM     58  C   UNL A   1      44.888  32.171  33.047  1.00  0.00     0.029 A 
ATOM     59  C   UNL A   1      43.616  32.233  32.502  1.00  0.00     0.049 A 
ATOM     60  H   UNL A   1      42.572  30.774  31.389  1.00  0.00     0.167 HD
ATOM     61  C   UNL A   1      41.435  33.294  31.997  1.00  0.00     0.074 A 
ATOM     62  C   UNL A   1      40.490  34.391  32.063  1.00  0.00     0.031 C 
ATOM     63  C   UNL A   1      42.668  33.314  32.562  1.00  0.00     0.031 A 
BRANCH  50  64
ATOM     64  C   UNL A   1      45.891  28.105  31.743  1.00  0.00    -0.014 A 
ATOM     65  C   UNL A   1      46.994  28.167  30.872  1.00  0.00     0.010 A 
ATOM     66  C   UNL A   1      45.986  27.330  32.914  1.00  0.00     0.010 A 
ATOM     67  C   UNL A   1      48.152  27.434  31.142  1.00  0.00     0.020 A 
ATOM     68  C   UNL A   1      47.153  26.615  33.201  1.00  0.00     0.020 A 
ATOM     69  C   UNL A   1      48.221  26.657  32.302  1.00  0.00     0.054 A 
BRANCH  69  70
ATOM     70  S   UNL A   1      49.740  25.723  32.636  1.00  0.00     0.124 S 
ATOM     71  O   UNL A   1      50.691  26.793  32.930  1.00  0.00    -0.237 OA
ATOM     72  O   UNL A   1      49.363  24.890  33.775  1.00  0.00    -0.237 OA
ATOM     73  O   UNL A   1      49.983  24.998  31.392  1.00  0.00    -0.744 OA
ENDBRANCH  69  70
ENDBRANCH  50  64
BRANCH  51  74
ATOM     74  C   UNL A   1      37.269  32.766  29.878  1.00  0.00    -0.014 A 
ATOM     75  C   UNL A   1      37.103  33.570  28.738  1.00  0.00     0.010 A 
ATOM     76  C   UNL A   1      36.191  32.609  30.769  1.00  0.00     0.010 A 
ATOM     77  C   UNL A   1      35.888  34.219  28.500  1.00  0.00     0.020 A 
ATOM     78  C   UNL A   1      34.967  33.237  30.521  1.00  0.00     0.020 A 
ATOM     79  C   UNL A   1      34.827  34.048  29.393  1.00  0.00     0.054 A 
BRANCH  79  80
ATOM     80  S   UNL A   1      33.242  34.854  29.037  1.00  0.00     0.124 S 
ATOM     81  O   UNL A   1      32.610  34.874  30.353  1.00  0.00    -0.237 OA
ATOM     82  O   UNL A   1      33.656  36.154  28.515  1.00  0.00    -0.237 OA
ATOM     83  O   UNL A   1      32.620  33.967  28.057  1.00  0.00    -0.744 OA
ENDBRANCH  79  80
ENDBRANCH  51  74
BRANCH  63  84
ATOM     84  C   UNL A   1      43.080  34.573  33.277  1.00  0.00    -0.014 A 
ATOM     85  C   UNL A   1      42.921  34.706  34.667  1.00  0.00     0.010 A 
ATOM     86  C   UNL A   1      43.679  35.618  32.551  1.00  0.00     0.010 A 
ATOM     87  C   UNL A   1      43.327  35.875  35.315  1.00  0.00     0.020 A 
ATOM     88  C   UNL A   1      44.109  36.779  33.199  1.00  0.00     0.020 A 
ATOM     89  C   UNL A   1      43.917  36.906  34.576  1.00  0.00     0.054 A 
BRANCH  89  90
ATOM     90  S   UNL A   1      44.476  38.398  35.444  1.00  0.00     0.124 S 
ATOM     91  O   UNL A   1      45.929  38.280  35.344  1.00  0.00    -0.237 OA
ATOM     92  O   UNL A   1      43.877  39.473  34.658  1.00  0.00    -0.237 OA
ATOM     93  O   UNL A   1      43.930  38.241  36.790  1.00  0.00    -0.744 OA
ENDBRANCH  89  90
ENDBRANCH  63  84
ENDBRANCH  37  38
ENDBRANCH  29  32
ENDBRANCH  27  28
ENDBRANCH   1  27
TORSDOF 18
ENDMDL
MODEL 2
REMARK VINA RESULT:     -11.0      2.837      9.194
REMARK SMILES O=C(CN(Cc1ccccc1Cl)S(=O)(=O)c1ccc(Cl)cc1)NCCCNC(=O)c1ccc(-c2c3nc(c(-c4ccc(S(=O)(=O)[O-])cc4)c4ccc([nH]4)c(-c4ccc(S(=O)(=O)[O-])cc4)c4nc(c(-c5ccc(S(=O)(=O)[O-])cc5)c5ccc2[nH]5)C=C4)C=C3)cc1
REMARK SMILES IDX 25 1 24 2 23 3 1 4 2 5 3 7 4 8 5 9 6 10 7 11 11 12 8 13
REMARK SMILES IDX 10 14 12 15 9 16 13 17 14 18 15 19 16 20 17 21 22 22 18 23
REMARK SMILES IDX 21 24 19 25 20 26 26 27 27 28 28 29 29 31 30 32 31 33 89 34
REMARK SMILES IDX 32 35 88 36 33 37 34 38 35 39 82 40 36 41 87 42 81 43 83 44
REMARK SMILES IDX 37 45 86 46 80 47 79 48 38 50 68 51 49 52 67 53 50 54 53 55
REMARK SMILES IDX 66 56 84 57 51 58 52 59 65 61 85 62 54 63 39 64 40 65 48 66
REMARK SMILES IDX 41 67 47 68 42 69 43 70 44 71 45 72 46 73 69 74 70 75 78 76
REMARK SMILES IDX 71 77 77 78 72 79 73 80 74 81 75 82 76 83 55 84 56 85 64 86
REMARK SMILES IDX 57 87 63 88 58 89 59 90 60 91 61 92 62 93
REMARK H PARENT 23 6 27 30 83 49 53 60
REMARK Flexibility Score: inf
ROOT
ATOM      1  C   UNL A   1      32.459  27.648  27.014  1.00  0.00     0.042 C 
ENDROOT
BRANCH   1   2
ATOM      2  C   UNL A   1      31.312  27.842  26.032  1.00  0.00     0.117 C 
BRANCH   2   3
ATOM      3  N   UNL A   1      31.128  26.717  25.136  1.00  0.00    -0.355 N 
ATOM      4  O   UNL A   1      31.415  27.914  23.198  1.00  0.00    -0.274 OA
ATOM      5  C   UNL A   1      31.308  26.835  23.775  1.00  0.00     0.235 C 
ATOM      6  H   UNL A   1      30.866  25.845  25.510  1.00  0.00     0.163 HD
BRANCH   5   7
ATOM      7  C   UNL A   1      31.271  25.526  23.009  1.00  0.00     0.202 C 
BRANCH   7   8
ATOM      8  N   UNL A   1      32.200  24.402  23.393  1.00  0.00    -0.184 NA
BRANCH   8   9
ATOM      9  C   UNL A   1      31.405  23.186  23.742  1.00  0.00     0.140 C 
BRANCH   9  10
ATOM     10  C   UNL A   1      32.096  21.977  24.362  1.00  0.00    -0.014 A 
ATOM     11  C   UNL A   1      32.390  20.835  23.595  1.00  0.00     0.006 A 
ATOM     12  C   UNL A   1      32.544  21.964  25.698  1.00  0.00     0.045 A 
ATOM     13  C   UNL A   1      33.035  19.717  24.131  1.00  0.00     0.000 A 
ATOM     14  C   UNL A   1      33.201  20.845  26.236  1.00  0.00     0.021 A 
ATOM     15  Cl  UNL A   1      32.342  23.314  26.760  1.00  0.00    -0.084 Cl
ATOM     16  C   UNL A   1      33.438  19.718  25.455  1.00  0.00     0.002 A 
ENDBRANCH   9  10
ENDBRANCH   8   9
BRANCH   8  17
ATOM     17  S   UNL A   1      33.652  24.327  22.504  1.00  0.00     0.243 S 
ATOM     18  O   UNL A   1      33.511  23.354  21.439  1.00  0.00    -0.207 OA
ATOM     19  O   UNL A   1      34.003  25.690  22.184  1.00  0.00    -0.207 OA
BRANCH  17  20
ATOM     20  C   UNL A   1      34.979  23.746  23.557  1.00  0.00     0.082 A 
ATOM     21  C   UNL A   1      35.922  22.810  23.123  1.00  0.00     0.023 A 
ATOM     22  C   UNL A   1      35.162  24.377  24.797  1.00  0.00     0.023 A 
ATOM     23  C   UNL A   1      36.987  22.446  23.954  1.00  0.00     0.022 A 
ATOM     24  C   UNL A   1      36.254  24.047  25.606  1.00  0.00     0.022 A 
ATOM     25  C   UNL A   1      37.153  23.071  25.188  1.00  0.00     0.041 A 
ATOM     26  Cl  UNL A   1      38.495  22.658  26.181  1.00  0.00    -0.084 Cl
ENDBRANCH  17  20
ENDBRANCH   8  17
ENDBRANCH   7   8
ENDBRANCH   5   7
ENDBRANCH   2   3
ENDBRANCH   1   2
BRANCH   1  27
ATOM     27  C   UNL A   1      33.666  28.549  26.771  1.00  0.00     0.118 C 
BRANCH  27  28
ATOM     28  N   UNL A   1      33.526  29.878  27.355  1.00  0.00    -0.352 N 
ATOM     29  C   UNL A   1      34.403  30.613  28.115  1.00  0.00     0.251 C 
ATOM     30  H   UNL A   1      32.663  30.317  27.177  1.00  0.00     0.163 HD
ATOM     31  O   UNL A   1      34.026  31.678  28.600  1.00  0.00    -0.269 OA
BRANCH  29  32
ATOM     32  C   UNL A   1      35.779  30.131  28.380  1.00  0.00     0.039 A 
ATOM     33  C   UNL A   1      36.704  30.142  27.331  1.00  0.00     0.014 A 
ATOM     34  C   UNL A   1      36.159  29.647  29.634  1.00  0.00     0.014 A 
ATOM     35  C   UNL A   1      38.023  29.738  27.558  1.00  0.00     0.010 A 
ATOM     36  C   UNL A   1      37.491  29.309  29.876  1.00  0.00     0.010 A 
ATOM     37  C   UNL A   1      38.439  29.353  28.842  1.00  0.00    -0.014 A 
BRANCH  37  38
ATOM     38  C   UNL A   1      39.859  29.011  29.124  1.00  0.00     0.031 A 
ATOM     39  C   UNL A   1      40.789  30.035  29.718  1.00  0.00     0.074 A 
ATOM     40  C   UNL A   1      40.330  27.794  28.784  1.00  0.00     0.049 A 
ATOM     41  N   UNL A   1      42.068  29.935  29.975  1.00  0.00    -0.248 NA
ATOM     42  C   UNL A   1      40.212  31.348  30.046  1.00  0.00     0.031 C 
ATOM     43  C   UNL A   1      39.546  26.724  28.163  1.00  0.00     0.029 A 
ATOM     44  N   UNL A   1      41.587  27.256  28.906  1.00  0.00    -0.354 N 
ATOM     45  C   UNL A   1      42.453  31.174  30.475  1.00  0.00     0.074 A 
ATOM     46  C   UNL A   1      41.281  32.021  30.447  1.00  0.00     0.031 C 
ATOM     47  C   UNL A   1      40.333  25.651  27.980  1.00  0.00     0.029 A 
ATOM     48  C   UNL A   1      41.684  25.967  28.436  1.00  0.00     0.049 A 
ATOM     49  H   UNL A   1      42.348  27.745  29.293  1.00  0.00     0.167 HD
ATOM     50  C   UNL A   1      43.668  31.567  30.931  1.00  0.00     0.031 A 
ATOM     51  C   UNL A   1      42.739  25.132  28.371  1.00  0.00     0.031 A 
ATOM     52  C   UNL A   1      44.831  30.721  30.973  1.00  0.00     0.049 A 
ATOM     53  C   UNL A   1      44.076  25.589  28.888  1.00  0.00     0.074 A 
ATOM     54  C   UNL A   1      46.090  31.014  31.470  1.00  0.00     0.029 A 
ATOM     55  N   UNL A   1      44.882  29.417  30.504  1.00  0.00    -0.354 N 
ATOM     56  N   UNL A   1      44.404  26.746  29.410  1.00  0.00    -0.248 NA
ATOM     57  C   UNL A   1      45.180  24.623  28.816  1.00  0.00     0.031 C 
ATOM     58  C   UNL A   1      46.913  29.901  31.263  1.00  0.00     0.029 A 
ATOM     59  C   UNL A   1      46.153  28.898  30.683  1.00  0.00     0.049 A 
ATOM     60  H   UNL A   1      44.124  28.932  30.103  1.00  0.00     0.167 HD
ATOM     61  C   UNL A   1      45.747  26.639  29.752  1.00  0.00     0.074 A 
ATOM     62  C   UNL A   1      46.166  25.300  29.390  1.00  0.00     0.031 C 
ATOM     63  C   UNL A   1      46.558  27.566  30.318  1.00  0.00     0.031 A 
BRANCH  50  64
ATOM     64  C   UNL A   1      43.798  32.985  31.418  1.00  0.00    -0.014 A 
ATOM     65  C   UNL A   1      44.131  34.028  30.534  1.00  0.00     0.010 A 
ATOM     66  C   UNL A   1      43.549  33.287  32.769  1.00  0.00     0.010 A 
ATOM     67  C   UNL A   1      44.258  35.339  31.001  1.00  0.00     0.020 A 
ATOM     68  C   UNL A   1      43.650  34.602  33.236  1.00  0.00     0.020 A 
ATOM     69  C   UNL A   1      44.023  35.616  32.351  1.00  0.00     0.054 A 
BRANCH  69  70
ATOM     70  S   UNL A   1      44.185  37.327  32.930  1.00  0.00     0.124 S 
ATOM     71  O   UNL A   1      44.147  38.073  31.675  1.00  0.00    -0.237 OA
ATOM     72  O   UNL A   1      43.015  37.488  33.791  1.00  0.00    -0.237 OA
ATOM     73  O   UNL A   1      45.470  37.339  33.624  1.00  0.00    -0.744 OA
ENDBRANCH  69  70
ENDBRANCH  50  64
BRANCH  51  74
ATOM     74  C   UNL A   1      42.569  23.765  27.810  1.00  0.00    -0.014 A 
ATOM     75  C   UNL A   1      42.130  22.710  28.628  1.00  0.00     0.010 A 
ATOM     76  C   UNL A   1      42.830  23.515  26.450  1.00  0.00     0.010 A 
ATOM     77  C   UNL A   1      41.970  21.425  28.103  1.00  0.00     0.020 A 
ATOM     78  C   UNL A   1      42.647  22.236  25.916  1.00  0.00     0.020 A 
ATOM     79  C   UNL A   1      42.229  21.196  26.749  1.00  0.00     0.054 A 
BRANCH  79  80
ATOM     80  S   UNL A   1      41.963  19.534  26.074  1.00  0.00     0.124 S 
ATOM     81  O   UNL A   1      42.893  19.510  24.950  1.00  0.00    -0.237 OA
ATOM     82  O   UNL A   1      42.311  18.673  27.202  1.00  0.00    -0.237 OA
ATOM     83  O   UNL A   1      40.547  19.535  25.715  1.00  0.00    -0.744 OA
ENDBRANCH  79  80
ENDBRANCH  51  74
BRANCH  63  84
ATOM     84  C   UNL A   1      47.977  27.156  30.610  1.00  0.00    -0.014 A 
ATOM     85  C   UNL A   1      49.032  27.528  29.759  1.00  0.00     0.010 A 
ATOM     86  C   UNL A   1      48.261  26.430  31.780  1.00  0.00     0.010 A 
ATOM     87  C   UNL A   1      50.345  27.154  30.057  1.00  0.00     0.020 A 
ATOM     88  C   UNL A   1      49.576  26.075  32.095  1.00  0.00     0.020 A 
ATOM     89  C   UNL A   1      50.608  26.427  31.223  1.00  0.00     0.054 A 
BRANCH  89  90
ATOM     90  S   UNL A   1      52.325  25.989  31.614  1.00  0.00     0.124 S 
ATOM     91  O   UNL A   1      52.163  24.705  32.292  1.00  0.00    -0.237 OA
ATOM     92  O   UNL A   1      52.951  25.929  30.295  1.00  0.00    -0.237 OA
ATOM     93  O   UNL A   1      52.779  27.088  32.461  1.00  0.00    -0.744 OA
ENDBRANCH  89  90
ENDBRANCH  63  84
ENDBRANCH  37  38
ENDBRANCH  29  32
ENDBRANCH  27  28
ENDBRANCH   1  27
TORSDOF 18
ENDMDL
MODEL 3
REMARK VINA RESULT:     -10.6      4.582     10.143
REMARK SMILES O=C(CN(Cc1ccccc1Cl)S(=O)(=O)c1ccc(Cl)cc1)NCCCNC(=O)c1ccc(-c2c3nc(c(-c4ccc(S(=O)(=O)[O-])cc4)c4ccc([nH]4)c(-c4ccc(S(=O)(=O)[O-])cc4)c4nc(c(-c5ccc(S(=O)(=O)[O-])cc5)c5ccc2[nH]5)C=C4)C=C3)cc1
REMARK SMILES IDX 25 1 24 2 23 3 1 4 2 5 3 7 4 8 5 9 6 10 7 11 11 12 8 13
REMARK SMILES IDX 10 14 12 15 9 16 13 17 14 18 15 19 16 20 17 21 22 22 18 23
REMARK SMILES IDX 21 24 19 25 20 26 26 27 27 28 28 29 29 31 30 32 31 33 89 34
REMARK SMILES IDX 32 35 88 36 33 37 34 38 35 39 82 40 36 41 87 42 81 43 83 44
REMARK SMILES IDX 37 45 86 46 80 47 79 48 38 50 68 51 49 52 67 53 50 54 53 55
REMARK SMILES IDX 66 56 84 57 51 58 52 59 65 61 85 62 54 63 39 64 40 65 48 66
REMARK SMILES IDX 41 67 47 68 42 69 43 70 44 71 45 72 46 73 69 74 70 75 78 76
REMARK SMILES IDX 71 77 77 78 72 79 73 80 74 81 75 82 76 83 55 84 56 85 64 86
REMARK SMILES IDX 57 87 63 88 58 89 59 90 60 91 61 92 62 93
REMARK H PARENT 23 6 27 30 83 49 53 60
REMARK Flexibility Score: inf
ROOT
ATOM      1  C   UNL A   1      34.393  31.015  27.439  1.00  0.00     0.042 C 
ENDROOT
BRANCH   1   2
ATOM      2  C   UNL A   1      33.213  30.229  26.885  1.00  0.00     0.117 C 
BRANCH   2   3
ATOM      3  N   UNL A   1      33.389  29.829  25.502  1.00  0.00    -0.355 N 
ATOM      4  O   UNL A   1      33.567  27.581  25.932  1.00  0.00    -0.274 OA
ATOM      5  C   UNL A   1      33.441  28.503  25.131  1.00  0.00     0.235 C 
ATOM      6  H   UNL A   1      33.473  30.524  24.810  1.00  0.00     0.163 HD
BRANCH   5   7
ATOM      7  C   UNL A   1      33.428  28.257  23.634  1.00  0.00     0.202 C 
BRANCH   7   8
ATOM      8  N   UNL A   1      32.204  27.669  22.978  1.00  0.00    -0.184 NA
BRANCH   8   9
ATOM      9  C   UNL A   1      31.242  28.760  22.634  1.00  0.00     0.140 C 
BRANCH   9  10
ATOM     10  C   UNL A   1      29.749  28.558  22.867  1.00  0.00    -0.014 A 
ATOM     11  C   UNL A   1      29.262  27.403  23.503  1.00  0.00     0.006 A 
ATOM     12  C   UNL A   1      28.793  29.539  22.534  1.00  0.00     0.045 A 
ATOM     13  C   UNL A   1      27.900  27.195  23.743  1.00  0.00     0.000 A 
ATOM     14  C   UNL A   1      27.425  29.337  22.783  1.00  0.00     0.021 A 
ATOM     15  Cl  UNL A   1      29.223  31.055  21.824  1.00  0.00    -0.084 Cl
ATOM     16  C   UNL A   1      26.978  28.161  23.379  1.00  0.00     0.002 A 
ENDBRANCH   9  10
ENDBRANCH   8   9
BRANCH   8  17
ATOM     17  S   UNL A   1      32.501  26.347  21.945  1.00  0.00     0.243 S 
ATOM     18  O   UNL A   1      31.476  26.298  20.922  1.00  0.00    -0.207 OA
ATOM     19  O   UNL A   1      33.890  26.436  21.561  1.00  0.00    -0.207 OA
BRANCH  17  20
ATOM     20  C   UNL A   1      32.378  24.817  22.868  1.00  0.00     0.082 A 
ATOM     21  C   UNL A   1      31.162  24.341  23.366  1.00  0.00     0.023 A 
ATOM     22  C   UNL A   1      33.517  24.000  22.946  1.00  0.00     0.023 A 
ATOM     23  C   UNL A   1      31.102  23.101  24.012  1.00  0.00     0.022 A 
ATOM     24  C   UNL A   1      33.445  22.740  23.549  1.00  0.00     0.022 A 
ATOM     25  C   UNL A   1      32.242  22.303  24.094  1.00  0.00     0.041 A 
ATOM     26  Cl  UNL A   1      32.149  20.757  24.842  1.00  0.00    -0.084 Cl
ENDBRANCH  17  20
ENDBRANCH   8  17
ENDBRANCH   7   8
ENDBRANCH   5   7
ENDBRANCH   2   3
ENDBRANCH   1   2
BRANCH   1  27
ATOM     27  C   UNL A   1      35.450  30.168  28.141  1.00  0.00     0.118 C 
BRANCH  27  28
ATOM     28  N   UNL A   1      35.484  30.360  29.585  1.00  0.00    -0.352 N 
ATOM     29  C   UNL A   1      36.476  30.092  30.496  1.00  0.00     0.251 C 
ATOM     30  H   UNL A   1      34.663  30.744  29.969  1.00  0.00     0.163 HD
ATOM     31  O   UNL A   1      36.242  30.232  31.695  1.00  0.00    -0.269 OA
BRANCH  29  32
ATOM     32  C   UNL A   1      37.808  29.611  30.060  1.00  0.00     0.039 A 
ATOM     33  C   UNL A   1      38.173  29.777  28.720  1.00  0.00     0.014 A 
ATOM     34  C   UNL A   1      38.687  28.978  30.943  1.00  0.00     0.014 A 
ATOM     35  C   UNL A   1      39.439  29.376  28.285  1.00  0.00     0.010 A 
ATOM     36  C   UNL A   1      39.974  28.642  30.525  1.00  0.00     0.010 A 
ATOM     37  C   UNL A   1      40.367  28.840  29.192  1.00  0.00    -0.014 A 
BRANCH  37  38
ATOM     38  C   UNL A   1      41.751  28.496  28.768  1.00  0.00     0.031 A 
ATOM     39  C   UNL A   1      42.820  29.555  28.714  1.00  0.00     0.074 A 
ATOM     40  C   UNL A   1      42.032  27.240  28.368  1.00  0.00     0.049 A 
ATOM     41  N   UNL A   1      44.061  29.453  28.314  1.00  0.00    -0.248 NA
ATOM     42  C   UNL A   1      42.438  30.909  29.146  1.00  0.00     0.031 C 
ATOM     43  C   UNL A   1      41.079  26.128  28.331  1.00  0.00     0.029 A 
ATOM     44  N   UNL A   1      43.202  26.688  27.907  1.00  0.00    -0.354 N 
ATOM     45  C   UNL A   1      44.602  30.729  28.426  1.00  0.00     0.074 A 
ATOM     46  C   UNL A   1      43.542  31.596  28.893  1.00  0.00     0.031 C 
ATOM     47  C   UNL A   1      41.707  25.023  27.895  1.00  0.00     0.029 A 
ATOM     48  C   UNL A   1      43.096  25.354  27.588  1.00  0.00     0.049 A 
ATOM     49  H   UNL A   1      44.038  27.198  27.815  1.00  0.00     0.167 HD
ATOM     50  C   UNL A   1      45.870  31.140  28.177  1.00  0.00     0.031 A 
ATOM     51  C   UNL A   1      44.007  24.493  27.097  1.00  0.00     0.031 A 
ATOM     52  C   UNL A   1      46.929  30.276  27.727  1.00  0.00     0.049 A 
ATOM     53  C   UNL A   1      45.409  24.971  26.834  1.00  0.00     0.074 A 
ATOM     54  C   UNL A   1      48.258  30.592  27.502  1.00  0.00     0.029 A 
ATOM     55  N   UNL A   1      46.784  28.930  27.433  1.00  0.00    -0.354 N 
ATOM     56  N   UNL A   1      45.914  26.169  27.002  1.00  0.00    -0.248 NA
ATOM     57  C   UNL A   1      46.365  23.977  26.326  1.00  0.00     0.031 C 
ATOM     58  C   UNL A   1      48.908  29.444  27.033  1.00  0.00     0.029 A 
ATOM     59  C   UNL A   1      47.994  28.403  27.012  1.00  0.00     0.049 A 
ATOM     60  H   UNL A   1      45.943  28.423  27.511  1.00  0.00     0.167 HD
ATOM     61  C   UNL A   1      47.253  26.067  26.644  1.00  0.00     0.074 A 
ATOM     62  C   UNL A   1      47.483  24.689  26.263  1.00  0.00     0.031 C 
ATOM     63  C   UNL A   1      48.209  27.030  26.635  1.00  0.00     0.031 A 
BRANCH  50  64
ATOM     64  C   UNL A   1      46.178  32.599  28.386  1.00  0.00    -0.014 A 
ATOM     65  C   UNL A   1      46.642  33.071  29.627  1.00  0.00     0.010 A 
ATOM     66  C   UNL A   1      46.034  33.505  27.319  1.00  0.00     0.010 A 
ATOM     67  C   UNL A   1      46.915  34.430  29.811  1.00  0.00     0.020 A 
ATOM     68  C   UNL A   1      46.330  34.861  27.492  1.00  0.00     0.020 A 
ATOM     69  C   UNL A   1      46.750  35.316  28.743  1.00  0.00     0.054 A 
BRANCH  69  70
ATOM     70  S   UNL A   1      47.120  37.073  29.004  1.00  0.00     0.124 S 
ATOM     71  O   UNL A   1      45.886  37.710  28.548  1.00  0.00    -0.237 OA
ATOM     72  O   UNL A   1      47.366  37.141  30.443  1.00  0.00    -0.237 OA
ATOM     73  O   UNL A   1      48.291  37.310  28.164  1.00  0.00    -0.744 OA
ENDBRANCH  69  70
ENDBRANCH  50  64
BRANCH  51  74
ATOM     74  C   UNL A   1      43.627  23.078  26.838  1.00  0.00    -0.014 A 
ATOM     75  C   UNL A   1      43.956  22.466  25.617  1.00  0.00     0.010 A 
ATOM     76  C   UNL A   1      42.948  22.331  27.819  1.00  0.00     0.010 A 
ATOM     77  C   UNL A   1      43.599  21.137  25.372  1.00  0.00     0.020 A 
ATOM     78  C   UNL A   1      42.612  20.994  27.586  1.00  0.00     0.020 A 
ATOM     79  C   UNL A   1      42.929  20.409  26.359  1.00  0.00     0.054 A 
BRANCH  79  80
ATOM     80  S   UNL A   1      42.524  18.670  26.043  1.00  0.00     0.124 S 
ATOM     81  O   UNL A   1      43.420  18.346  24.938  1.00  0.00    -0.237 OA
ATOM     82  O   UNL A   1      42.838  18.033  27.320  1.00  0.00    -0.237 OA
ATOM     83  O   UNL A   1      41.103  18.707  25.707  1.00  0.00    -0.744 OA
ENDBRANCH  79  80
ENDBRANCH  51  74
BRANCH  63  84
ATOM     84  C   UNL A   1      49.599  26.621  26.228  1.00  0.00    -0.014 A 
ATOM     85  C   UNL A   1      50.458  25.967  27.129  1.00  0.00     0.010 A 
ATOM     86  C   UNL A   1      50.032  26.853  24.911  1.00  0.00     0.010 A 
ATOM     87  C   UNL A   1      51.738  25.579  26.727  1.00  0.00     0.020 A 
ATOM     88  C   UNL A   1      51.303  26.444  24.498  1.00  0.00     0.020 A 
ATOM     89  C   UNL A   1      52.154  25.822  25.414  1.00  0.00     0.054 A 
BRANCH  89  90
ATOM     90  S   UNL A   1      53.804  25.271  24.901  1.00  0.00     0.124 S 
ATOM     91  O   UNL A   1      53.920  25.858  23.568  1.00  0.00    -0.237 OA
ATOM     92  O   UNL A   1      54.672  25.852  25.922  1.00  0.00    -0.237 OA
ATOM     93  O   UNL A   1      53.708  23.813  24.932  1.00  0.00    -0.744 OA
ENDBRANCH  89  90
ENDBRANCH  63  84
ENDBRANCH  37  38
ENDBRANCH  29  32
ENDBRANCH  27  28
ENDBRANCH   1  27
TORSDOF 18
ENDMDL
