MODEL 1
REMARK VINA RESULT:     -11.2      0.000      0.000
REMARK SMILES O=C(NCCCNC(=O)[C@H]1CC[C@H](CNC(=O)c2ccccc2O)O1)c1ccc(-c2c3nc(c(-c4ccc(S(=O)(=O)[O-])cc4)c4ccc([nH]4)c(-c4ccc(S(=O)(=O)[O-])cc4)c4nc(c(-c5ccc(S(=O)(=O)[O-])cc5)c5ccc2[nH]5)C=C4)C=C3)cc1
REMARK SMILES IDX 5 1 4 2 3 3 1 4 2 5 26 7 27 8 85 9 28 10 84 11 29 12 30 13
REMARK SMILES IDX 31 14 78 15 32 16 83 17 77 18 79 19 33 20 82 21 76 22 75 23
REMARK SMILES IDX 34 25 64 26 45 27 63 28 46 29 49 30 62 31 80 32 47 33 48 34
REMARK SMILES IDX 61 36 81 37 50 38 35 39 36 40 44 41 37 42 43 43 38 44 39 45
REMARK SMILES IDX 40 46 41 47 42 48 65 49 66 50 74 51 67 52 73 53 68 54 69 55
REMARK SMILES IDX 70 56 71 57 72 58 51 59 52 60 60 61 53 62 59 63 54 64 55 65
REMARK SMILES IDX 56 66 57 67 58 68 6 69 7 70 8 71 9 73 10 74 11 75 25 76
REMARK SMILES IDX 12 77 13 78 14 79 15 80 16 81 17 83 18 84 19 85 23 86 20 87
REMARK SMILES IDX 22 88 21 89 24 90
REMARK H PARENT 3 6 79 24 49 35 7 72 15 82 24 91
REMARK Flexibility Score: inf
ROOT
ATOM      1  C   UNL A   1      33.468  29.034  24.901  1.00  0.00     0.042 C 
ENDROOT
BRANCH   1   2
ATOM      2  C   UNL A   1      34.015  28.918  26.318  1.00  0.00     0.118 C 
BRANCH   2   3
ATOM      3  N   UNL A   1      33.827  30.141  27.088  1.00  0.00    -0.352 N 
ATOM      4  O   UNL A   1      34.185  31.623  28.740  1.00  0.00    -0.269 OA
ATOM      5  C   UNL A   1      34.619  30.693  28.061  1.00  0.00     0.251 C 
ATOM      6  H   UNL A   1      33.008  30.646  26.880  1.00  0.00     0.163 HD
BRANCH   5   7
ATOM      7  C   UNL A   1      35.984  30.175  28.297  1.00  0.00     0.039 A 
ATOM      8  C   UNL A   1      36.968  30.293  27.312  1.00  0.00     0.014 A 
ATOM      9  C   UNL A   1      36.298  29.614  29.538  1.00  0.00     0.014 A 
ATOM     10  C   UNL A   1      38.232  29.755  27.526  1.00  0.00     0.010 A 
ATOM     11  C   UNL A   1      37.593  29.150  29.784  1.00  0.00     0.010 A 
ATOM     12  C   UNL A   1      38.569  29.212  28.777  1.00  0.00    -0.014 A 
BRANCH  12  13
ATOM     13  C   UNL A   1      39.981  28.853  29.053  1.00  0.00     0.031 A 
ATOM     14  C   UNL A   1      40.548  27.525  28.639  1.00  0.00     0.074 A 
ATOM     15  C   UNL A   1      40.747  29.753  29.700  1.00  0.00     0.049 A 
ATOM     16  N   UNL A   1      41.758  27.062  28.825  1.00  0.00    -0.248 NA
ATOM     17  C   UNL A   1      39.652  26.595  27.935  1.00  0.00     0.031 C 
ATOM     18  C   UNL A   1      40.290  31.070  30.164  1.00  0.00     0.029 A 
ATOM     19  N   UNL A   1      42.063  29.711  30.082  1.00  0.00    -0.354 N 
ATOM     20  C   UNL A   1      41.766  25.782  28.285  1.00  0.00     0.074 A 
ATOM     21  C   UNL A   1      40.436  25.535  27.769  1.00  0.00     0.031 C 
ATOM     22  C   UNL A   1      41.313  31.715  30.741  1.00  0.00     0.029 A 
ATOM     23  C   UNL A   1      42.476  30.837  30.755  1.00  0.00     0.049 A 
ATOM     24  H   UNL A   1      42.655  28.947  29.893  1.00  0.00     0.167 HD
ATOM     25  C   UNL A   1      42.790  24.899  28.231  1.00  0.00     0.031 A 
ATOM     26  C   UNL A   1      43.646  31.122  31.355  1.00  0.00     0.031 A 
ATOM     27  C   UNL A   1      44.112  25.163  28.743  1.00  0.00     0.049 A 
ATOM     28  C   UNL A   1      44.747  30.102  31.313  1.00  0.00     0.074 A 
ATOM     29  C   UNL A   1      45.236  24.357  28.669  1.00  0.00     0.029 A 
ATOM     30  N   UNL A   1      44.484  26.303  29.438  1.00  0.00    -0.354 N 
ATOM     31  N   UNL A   1      44.760  28.933  30.718  1.00  0.00    -0.248 NA
ATOM     32  C   UNL A   1      45.988  30.433  32.025  1.00  0.00     0.031 C 
ATOM     33  C   UNL A   1      46.265  24.977  29.383  1.00  0.00     0.029 A 
ATOM     34  C   UNL A   1      45.804  26.198  29.846  1.00  0.00     0.049 A 
ATOM     35  H   UNL A   1      43.897  27.073  29.617  1.00  0.00     0.167 HD
ATOM     36  C   UNL A   1      46.013  28.393  30.979  1.00  0.00     0.074 A 
ATOM     37  C   UNL A   1      46.740  29.376  31.755  1.00  0.00     0.031 C 
ATOM     38  C   UNL A   1      46.511  27.184  30.621  1.00  0.00     0.031 A 
BRANCH  25  39
ATOM     39  C   UNL A   1      42.542  23.542  27.625  1.00  0.00    -0.014 A 
ATOM     40  C   UNL A   1      42.893  23.260  26.294  1.00  0.00     0.010 A 
ATOM     41  C   UNL A   1      42.067  22.500  28.444  1.00  0.00     0.010 A 
ATOM     42  C   UNL A   1      42.767  21.961  25.791  1.00  0.00     0.020 A 
ATOM     43  C   UNL A   1      41.959  21.197  27.951  1.00  0.00     0.020 A 
ATOM     44  C   UNL A   1      42.307  20.936  26.625  1.00  0.00     0.054 A 
BRANCH  44  45
ATOM     45  S   UNL A   1      42.223  19.248  25.964  1.00  0.00     0.124 S 
ATOM     46  O   UNL A   1      40.792  19.090  25.722  1.00  0.00    -0.237 OA
ATOM     47  O   UNL A   1      43.056  19.333  24.767  1.00  0.00    -0.237 OA
ATOM     48  O   UNL A   1      42.766  18.424  27.041  1.00  0.00    -0.744 OA
ENDBRANCH  44  45
ENDBRANCH  25  39
BRANCH  26  49
ATOM     49  C   UNL A   1      43.811  32.397  32.105  1.00  0.00    -0.014 A 
ATOM     50  C   UNL A   1      43.469  32.487  33.465  1.00  0.00     0.010 A 
ATOM     51  C   UNL A   1      44.300  33.541  31.446  1.00  0.00     0.010 A 
ATOM     52  C   UNL A   1      43.577  33.706  34.141  1.00  0.00     0.020 A 
ATOM     53  C   UNL A   1      44.443  34.751  32.126  1.00  0.00     0.020 A 
ATOM     54  C   UNL A   1      44.059  34.831  33.465  1.00  0.00     0.054 A 
BRANCH  54  55
ATOM     55  S   UNL A   1      44.196  36.401  34.362  1.00  0.00     0.124 S 
ATOM     56  O   UNL A   1      45.461  36.926  33.858  1.00  0.00    -0.237 OA
ATOM     57  O   UNL A   1      42.997  37.116  33.932  1.00  0.00    -0.237 OA
ATOM     58  O   UNL A   1      44.200  35.994  35.766  1.00  0.00    -0.744 OA
ENDBRANCH  54  55
ENDBRANCH  26  49
BRANCH  38  59
ATOM     59  C   UNL A   1      47.913  26.861  31.059  1.00  0.00    -0.014 A 
ATOM     60  C   UNL A   1      49.017  27.219  30.264  1.00  0.00     0.010 A 
ATOM     61  C   UNL A   1      48.133  26.246  32.304  1.00  0.00     0.010 A 
ATOM     62  C   UNL A   1      50.316  26.946  30.697  1.00  0.00     0.020 A 
ATOM     63  C   UNL A   1      49.433  25.999  32.755  1.00  0.00     0.020 A 
ATOM     64  C   UNL A   1      50.515  26.341  31.943  1.00  0.00     0.054 A 
BRANCH  64  65
ATOM     65  S   UNL A   1      52.215  26.055  32.507  1.00  0.00     0.124 S 
ATOM     66  O   UNL A   1      52.969  27.008  31.695  1.00  0.00    -0.237 OA
ATOM     67  O   UNL A   1      52.136  26.367  33.931  1.00  0.00    -0.237 OA
ATOM     68  O   UNL A   1      52.452  24.647  32.194  1.00  0.00    -0.744 OA
ENDBRANCH  64  65
ENDBRANCH  38  59
ENDBRANCH  12  13
ENDBRANCH   5   7
ENDBRANCH   2   3
ENDBRANCH   1   2
BRANCH   1  69
ATOM     69  C   UNL A   1      32.102  29.705  24.827  1.00  0.00     0.117 C 
BRANCH  69  70
ATOM     70  N   UNL A   1      31.428  29.453  23.563  1.00  0.00    -0.354 N 
ATOM     71  C   UNL A   1      31.031  28.248  23.046  1.00  0.00     0.249 C 
ATOM     72  H   UNL A   1      31.233  30.245  23.013  1.00  0.00     0.163 HD
ATOM     73  O   UNL A   1      30.491  28.230  21.940  1.00  0.00    -0.272 OA
BRANCH  71  74
ATOM     74  C   UNL A   1      31.235  26.989  23.904  1.00  0.00     0.207 C 
ATOM     75  C   UNL A   1      30.092  26.699  24.862  1.00  0.00     0.045 C 
ATOM     76  O   UNL A   1      31.367  25.842  23.051  1.00  0.00    -0.363 OA
ATOM     77  C   UNL A   1      29.244  25.718  24.089  1.00  0.00     0.037 C 
ATOM     78  C   UNL A   1      30.272  24.936  23.287  1.00  0.00     0.138 C 
BRANCH  78  79
ATOM     79  C   UNL A   1      30.849  23.713  24.010  1.00  0.00     0.148 C 
BRANCH  79  80
ATOM     80  N   UNL A   1      30.391  23.568  25.380  1.00  0.00    -0.349 N 
ATOM     81  C   UNL A   1      31.075  23.083  26.468  1.00  0.00     0.255 C 
ATOM     82  H   UNL A   1      29.466  23.859  25.552  1.00  0.00     0.163 HD
ATOM     83  O   UNL A   1      30.502  22.995  27.552  1.00  0.00    -0.269 OA
BRANCH  81  84
ATOM     84  C   UNL A   1      32.462  22.585  26.331  1.00  0.00     0.081 A 
ATOM     85  C   UNL A   1      33.490  23.462  26.700  1.00  0.00     0.018 A 
ATOM     86  C   UNL A   1      32.780  21.314  25.837  1.00  0.00     0.128 A 
ATOM     87  C   UNL A   1      34.822  23.051  26.627  1.00  0.00     0.001 A 
ATOM     88  C   UNL A   1      34.112  20.899  25.777  1.00  0.00     0.047 A 
ATOM     89  C   UNL A   1      35.131  21.767  26.179  1.00  0.00     0.004 A 
BRANCH  86  90
ATOM     90  O   UNL A   1      31.795  20.463  25.414  1.00  0.00    -0.507 OA
ATOM     91  H   UNL A   1      31.022  20.805  25.010  1.00  0.00     0.293 HD
ENDBRANCH  86  90
ENDBRANCH  81  84
ENDBRANCH  79  80
ENDBRANCH  78  79
ENDBRANCH  71  74
ENDBRANCH  69  70
ENDBRANCH   1  69
TORSDOF 17
ENDMDL
MODEL 2
REMARK VINA RESULT:     -11.1      4.561     10.453
REMARK SMILES O=C(NCCCNC(=O)[C@H]1CC[C@H](CNC(=O)c2ccccc2O)O1)c1ccc(-c2c3nc(c(-c4ccc(S(=O)(=O)[O-])cc4)c4ccc([nH]4)c(-c4ccc(S(=O)(=O)[O-])cc4)c4nc(c(-c5ccc(S(=O)(=O)[O-])cc5)c5ccc2[nH]5)C=C4)C=C3)cc1
REMARK SMILES IDX 5 1 4 2 3 3 1 4 2 5 26 7 27 8 85 9 28 10 84 11 29 12 30 13
REMARK SMILES IDX 31 14 78 15 32 16 83 17 77 18 79 19 33 20 82 21 76 22 75 23
REMARK SMILES IDX 34 25 64 26 45 27 63 28 46 29 49 30 62 31 80 32 47 33 48 34
REMARK SMILES IDX 61 36 81 37 50 38 35 39 36 40 44 41 37 42 43 43 38 44 39 45
REMARK SMILES IDX 40 46 41 47 42 48 65 49 66 50 74 51 67 52 73 53 68 54 69 55
REMARK SMILES IDX 70 56 71 57 72 58 51 59 52 60 60 61 53 62 59 63 54 64 55 65
REMARK SMILES IDX 56 66 57 67 58 68 6 69 7 70 8 71 9 73 10 74 11 75 25 76
REMARK SMILES IDX 12 77 13 78 14 79 15 80 16 81 17 83 18 84 19 85 23 86 20 87
REMARK SMILES IDX 22 88 21 89 24 90
REMARK H PARENT 3 6 79 24 49 35 7 72 15 82 24 91
REMARK Flexibility Score: inf
ROOT
ATOM      1  C   UNL A   1      41.003  20.289  27.280  1.00  0.00     0.042 C 
ENDROOT
BRANCH   1   2
ATOM      2  C   UNL A   1      40.769  21.786  27.124  1.00  0.00     0.118 C 
BRANCH   2   3
ATOM      3  N   UNL A   1      39.653  22.085  26.237  1.00  0.00    -0.352 N 
ATOM      4  O   UNL A   1      37.833  23.176  25.494  1.00  0.00    -0.269 OA
ATOM      5  C   UNL A   1      38.856  23.199  26.177  1.00  0.00     0.251 C 
ATOM      6  H   UNL A   1      39.438  21.382  25.582  1.00  0.00     0.163 HD
BRANCH   5   7
ATOM      7  C   UNL A   1      39.219  24.418  26.930  1.00  0.00     0.039 A 
ATOM      8  C   UNL A   1      38.780  24.600  28.244  1.00  0.00     0.014 A 
ATOM      9  C   UNL A   1      40.056  25.367  26.334  1.00  0.00     0.014 A 
ATOM     10  C   UNL A   1      39.085  25.775  28.922  1.00  0.00     0.010 A 
ATOM     11  C   UNL A   1      40.432  26.508  27.047  1.00  0.00     0.010 A 
ATOM     12  C   UNL A   1      39.945  26.723  28.345  1.00  0.00    -0.014 A 
BRANCH  12  13
ATOM     13  C   UNL A   1      40.434  27.853  29.171  1.00  0.00     0.031 A 
ATOM     14  C   UNL A   1      41.748  27.786  29.895  1.00  0.00     0.074 A 
ATOM     15  C   UNL A   1      39.655  28.950  29.265  1.00  0.00     0.049 A 
ATOM     16  N   UNL A   1      42.301  28.687  30.668  1.00  0.00    -0.248 NA
ATOM     17  C   UNL A   1      42.544  26.558  29.744  1.00  0.00     0.031 C 
ATOM     18  C   UNL A   1      38.348  29.113  28.615  1.00  0.00     0.029 A 
ATOM     19  N   UNL A   1      39.838  30.132  29.935  1.00  0.00    -0.354 N 
ATOM     20  C   UNL A   1      43.493  28.131  31.113  1.00  0.00     0.074 A 
ATOM     21  C   UNL A   1      43.583  26.808  30.531  1.00  0.00     0.031 C 
ATOM     22  C   UNL A   1      37.864  30.331  28.897  1.00  0.00     0.029 A 
ATOM     23  C   UNL A   1      38.785  31.006  29.801  1.00  0.00     0.049 A 
ATOM     24  H   UNL A   1      40.645  30.335  30.460  1.00  0.00     0.167 HD
ATOM     25  C   UNL A   1      44.420  28.677  31.934  1.00  0.00     0.031 A 
ATOM     26  C   UNL A   1      38.559  32.204  30.373  1.00  0.00     0.031 A 
ATOM     27  C   UNL A   1      44.319  30.000  32.499  1.00  0.00     0.049 A 
ATOM     28  C   UNL A   1      39.590  32.761  31.312  1.00  0.00     0.074 A 
ATOM     29  C   UNL A   1      45.243  30.669  33.284  1.00  0.00     0.029 A 
ATOM     30  N   UNL A   1      43.228  30.844  32.361  1.00  0.00    -0.354 N 
ATOM     31  N   UNL A   1      40.752  32.256  31.649  1.00  0.00    -0.248 NA
ATOM     32  C   UNL A   1      39.279  34.045  31.954  1.00  0.00     0.031 C 
ATOM     33  C   UNL A   1      44.680  31.885  33.681  1.00  0.00     0.029 A 
ATOM     34  C   UNL A   1      43.433  32.004  33.090  1.00  0.00     0.049 A 
ATOM     35  H   UNL A   1      42.426  30.648  31.825  1.00  0.00     0.167 HD
ATOM     36  C   UNL A   1      41.314  33.164  32.536  1.00  0.00     0.074 A 
ATOM     37  C   UNL A   1      40.381  34.265  32.657  1.00  0.00     0.031 C 
ATOM     38  C   UNL A   1      42.491  33.088  33.203  1.00  0.00     0.031 A 
BRANCH  25  39
ATOM     39  C   UNL A   1      45.625  27.855  32.310  1.00  0.00    -0.014 A 
ATOM     40  C   UNL A   1      46.813  27.914  31.562  1.00  0.00     0.010 A 
ATOM     41  C   UNL A   1      45.604  27.112  33.506  1.00  0.00     0.010 A 
ATOM     42  C   UNL A   1      47.957  27.237  32.000  1.00  0.00     0.020 A 
ATOM     43  C   UNL A   1      46.750  26.452  33.957  1.00  0.00     0.020 A 
ATOM     44  C   UNL A   1      47.920  26.516  33.198  1.00  0.00     0.054 A 
BRANCH  44  45
ATOM     45  S   UNL A   1      49.439  25.710  33.776  1.00  0.00     0.124 S 
ATOM     46  O   UNL A   1      49.718  24.777  32.687  1.00  0.00    -0.237 OA
ATOM     47  O   UNL A   1      50.369  26.831  33.894  1.00  0.00    -0.237 OA
ATOM     48  O   UNL A   1      49.048  25.091  35.039  1.00  0.00    -0.744 OA
ENDBRANCH  44  45
ENDBRANCH  25  39
BRANCH  26  49
ATOM     49  C   UNL A   1      37.278  32.920  30.128  1.00  0.00    -0.014 A 
ATOM     50  C   UNL A   1      36.151  32.685  30.934  1.00  0.00     0.010 A 
ATOM     51  C   UNL A   1      37.178  33.837  29.065  1.00  0.00     0.010 A 
ATOM     52  C   UNL A   1      34.939  33.323  30.656  1.00  0.00     0.020 A 
ATOM     53  C   UNL A   1      35.981  34.504  28.806  1.00  0.00     0.020 A 
ATOM     54  C   UNL A   1      34.861  34.226  29.591  1.00  0.00     0.054 A 
BRANCH  54  55
ATOM     55  S   UNL A   1      33.280  35.048  29.251  1.00  0.00     0.124 S 
ATOM     56  O   UNL A   1      32.661  34.129  28.302  1.00  0.00    -0.237 OA
ATOM     57  O   UNL A   1      32.664  35.105  30.574  1.00  0.00    -0.237 OA
ATOM     58  O   UNL A   1      33.680  36.342  28.702  1.00  0.00    -0.744 OA
ENDBRANCH  54  55
ENDBRANCH  26  49
BRANCH  38  59
ATOM     59  C   UNL A   1      42.840  34.230  34.118  1.00  0.00    -0.014 A 
ATOM     60  C   UNL A   1      42.416  34.235  35.459  1.00  0.00     0.010 A 
ATOM     61  C   UNL A   1      43.647  35.281  33.648  1.00  0.00     0.010 A 
ATOM     62  C   UNL A   1      42.775  35.282  36.308  1.00  0.00     0.020 A 
ATOM     63  C   UNL A   1      44.034  36.316  34.503  1.00  0.00     0.020 A 
ATOM     64  C   UNL A   1      43.586  36.315  35.825  1.00  0.00     0.054 A 
BRANCH  64  65
ATOM     65  S   UNL A   1      44.088  37.631  36.968  1.00  0.00     0.124 S 
ATOM     66  O   UNL A   1      45.422  37.191  37.371  1.00  0.00    -0.237 OA
ATOM     67  O   UNL A   1      44.048  38.821  36.122  1.00  0.00    -0.237 OA
ATOM     68  O   UNL A   1      43.073  37.585  38.018  1.00  0.00    -0.744 OA
ENDBRANCH  64  65
ENDBRANCH  38  59
ENDBRANCH  12  13
ENDBRANCH   5   7
ENDBRANCH   2   3
ENDBRANCH   1   2
BRANCH   1  69
ATOM     69  C   UNL A   1      42.476  19.901  27.314  1.00  0.00     0.117 C 
BRANCH  69  70
ATOM     70  N   UNL A   1      42.956  19.433  26.024  1.00  0.00    -0.354 N 
ATOM     71  C   UNL A   1      43.842  20.050  25.181  1.00  0.00     0.249 C 
ATOM     72  H   UNL A   1      42.601  18.567  25.719  1.00  0.00     0.163 HD
ATOM     73  O   UNL A   1      44.114  19.507  24.109  1.00  0.00    -0.272 OA
BRANCH  71  74
ATOM     74  C   UNL A   1      44.492  21.362  25.647  1.00  0.00     0.207 C 
ATOM     75  C   UNL A   1      45.613  21.855  24.747  1.00  0.00     0.045 C 
ATOM     76  O   UNL A   1      43.503  22.401  25.690  1.00  0.00    -0.363 OA
ATOM     77  C   UNL A   1      44.909  22.832  23.836  1.00  0.00     0.037 C 
ATOM     78  C   UNL A   1      43.839  23.428  24.736  1.00  0.00     0.138 C 
BRANCH  78  79
ATOM     79  C   UNL A   1      44.290  24.655  25.538  1.00  0.00     0.148 C 
BRANCH  79  80
ATOM     80  N   UNL A   1      45.354  25.413  24.905  1.00  0.00    -0.349 N 
ATOM     81  C   UNL A   1      45.616  26.759  24.989  1.00  0.00     0.255 C 
ATOM     82  H   UNL A   1      45.970  24.892  24.341  1.00  0.00     0.163 HD
ATOM     83  O   UNL A   1      46.547  27.234  24.340  1.00  0.00    -0.269 OA
BRANCH  81  84
ATOM     84  C   UNL A   1      44.743  27.655  25.778  1.00  0.00     0.081 A 
ATOM     85  C   UNL A   1      45.272  28.169  26.969  1.00  0.00     0.018 A 
ATOM     86  C   UNL A   1      43.433  27.979  25.407  1.00  0.00     0.128 A 
ATOM     87  C   UNL A   1      44.518  29.045  27.751  1.00  0.00     0.001 A 
ATOM     88  C   UNL A   1      42.683  28.866  26.184  1.00  0.00     0.047 A 
ATOM     89  C   UNL A   1      43.231  29.402  27.351  1.00  0.00     0.004 A 
BRANCH  86  90
ATOM     90  O   UNL A   1      42.872  27.440  24.281  1.00  0.00    -0.507 OA
ATOM     91  H   UNL A   1      43.417  27.041  23.632  1.00  0.00     0.293 HD
ENDBRANCH  86  90
ENDBRANCH  81  84
ENDBRANCH  79  80
ENDBRANCH  78  79
ENDBRANCH  71  74
ENDBRANCH  69  70
ENDBRANCH   1  69
TORSDOF 17
ENDMDL
MODEL 3
REMARK VINA RESULT:     -11.1      4.525     11.456
REMARK SMILES O=C(NCCCNC(=O)[C@H]1CC[C@H](CNC(=O)c2ccccc2O)O1)c1ccc(-c2c3nc(c(-c4ccc(S(=O)(=O)[O-])cc4)c4ccc([nH]4)c(-c4ccc(S(=O)(=O)[O-])cc4)c4nc(c(-c5ccc(S(=O)(=O)[O-])cc5)c5ccc2[nH]5)C=C4)C=C3)cc1
REMARK SMILES IDX 5 1 4 2 3 3 1 4 2 5 26 7 27 8 85 9 28 10 84 11 29 12 30 13
REMARK SMILES IDX 31 14 78 15 32 16 83 17 77 18 79 19 33 20 82 21 76 22 75 23
REMARK SMILES IDX 34 25 64 26 45 27 63 28 46 29 49 30 62 31 80 32 47 33 48 34
REMARK SMILES IDX 61 36 81 37 50 38 35 39 36 40 44 41 37 42 43 43 38 44 39 45
REMARK SMILES IDX 40 46 41 47 42 48 65 49 66 50 74 51 67 52 73 53 68 54 69 55
REMARK SMILES IDX 70 56 71 57 72 58 51 59 52 60 60 61 53 62 59 63 54 64 55 65
REMARK SMILES IDX 56 66 57 67 58 68 6 69 7 70 8 71 9 73 10 74 11 75 25 76
REMARK SMILES IDX 12 77 13 78 14 79 15 80 16 81 17 83 18 84 19 85 23 86 20 87
REMARK SMILES IDX 22 88 21 89 24 90
REMARK H PARENT 3 6 79 24 49 35 7 72 15 82 24 91
REMARK Flexibility Score: inf
ROOT
ATOM      1  C   UNL A   1      42.336  21.946  26.241  1.00  0.00     0.042 C 
ENDROOT
BRANCH   1   2
ATOM      2  C   UNL A   1      41.048  21.509  26.927  1.00  0.00     0.118 C 
BRANCH   2   3
ATOM      3  N   UNL A   1      39.873  21.723  26.092  1.00  0.00    -0.352 N 
ATOM      4  O   UNL A   1      37.945  22.674  25.435  1.00  0.00    -0.269 OA
ATOM      5  C   UNL A   1      38.993  22.774  26.071  1.00  0.00     0.251 C 
ATOM      6  H   UNL A   1      39.681  21.004  25.447  1.00  0.00     0.163 HD
BRANCH   5   7
ATOM      7  C   UNL A   1      39.299  24.019  26.807  1.00  0.00     0.039 A 
ATOM      8  C   UNL A   1      38.861  24.193  28.123  1.00  0.00     0.014 A 
ATOM      9  C   UNL A   1      40.082  25.002  26.194  1.00  0.00     0.014 A 
ATOM     10  C   UNL A   1      39.111  25.389  28.785  1.00  0.00     0.010 A 
ATOM     11  C   UNL A   1      40.404  26.169  26.891  1.00  0.00     0.010 A 
ATOM     12  C   UNL A   1      39.917  26.373  28.191  1.00  0.00    -0.014 A 
BRANCH  12  13
ATOM     13  C   UNL A   1      40.353  27.536  29.001  1.00  0.00     0.031 A 
ATOM     14  C   UNL A   1      39.465  28.731  29.201  1.00  0.00     0.074 A 
ATOM     15  C   UNL A   1      41.583  27.498  29.550  1.00  0.00     0.049 A 
ATOM     16  N   UNL A   1      39.713  29.829  29.869  1.00  0.00    -0.248 NA
ATOM     17  C   UNL A   1      38.135  28.700  28.574  1.00  0.00     0.031 C 
ATOM     18  C   UNL A   1      42.537  26.391  29.403  1.00  0.00     0.029 A 
ATOM     19  N   UNL A   1      42.249  28.401  30.339  1.00  0.00    -0.354 N 
ATOM     20  C   UNL A   1      38.586  30.629  29.725  1.00  0.00     0.074 A 
ATOM     21  C   UNL A   1      37.653  29.894  28.898  1.00  0.00     0.031 C 
ATOM     22  C   UNL A   1      43.648  26.669  30.099  1.00  0.00     0.029 A 
ATOM     23  C   UNL A   1      43.519  27.999  30.680  1.00  0.00     0.049 A 
ATOM     24  H   UNL A   1      41.855  29.254  30.631  1.00  0.00     0.167 HD
ATOM     25  C   UNL A   1      38.361  31.863  30.235  1.00  0.00     0.031 A 
ATOM     26  C   UNL A   1      44.493  28.641  31.352  1.00  0.00     0.031 A 
ATOM     27  C   UNL A   1      39.299  32.577  31.063  1.00  0.00     0.049 A 
ATOM     28  C   UNL A   1      44.222  30.025  31.867  1.00  0.00     0.074 A 
ATOM     29  C   UNL A   1      39.130  33.802  31.687  1.00  0.00     0.029 A 
ATOM     30  N   UNL A   1      40.582  32.149  31.367  1.00  0.00    -0.354 N 
ATOM     31  N   UNL A   1      43.116  30.727  31.795  1.00  0.00    -0.248 NA
ATOM     32  C   UNL A   1      45.330  30.709  32.548  1.00  0.00     0.031 C 
ATOM     33  C   UNL A   1      40.336  34.148  32.305  1.00  0.00     0.029 A 
ATOM     34  C   UNL A   1      41.234  33.110  32.123  1.00  0.00     0.049 A 
ATOM     35  H   UNL A   1      40.973  31.290  31.086  1.00  0.00     0.167 HD
ATOM     36  C   UNL A   1      43.393  31.931  32.428  1.00  0.00     0.074 A 
ATOM     37  C   UNL A   1      44.758  31.850  32.907  1.00  0.00     0.031 C 
ATOM     38  C   UNL A   1      42.594  33.014  32.587  1.00  0.00     0.031 A 
BRANCH  25  39
ATOM     39  C   UNL A   1      37.064  32.553  29.903  1.00  0.00    -0.014 A 
ATOM     40  C   UNL A   1      35.937  32.433  30.734  1.00  0.00     0.010 A 
ATOM     41  C   UNL A   1      37.017  33.440  28.810  1.00  0.00     0.010 A 
ATOM     42  C   UNL A   1      34.784  33.180  30.473  1.00  0.00     0.020 A 
ATOM     43  C   UNL A   1      35.875  34.204  28.559  1.00  0.00     0.020 A 
ATOM     44  C   UNL A   1      34.763  34.066  29.391  1.00  0.00     0.054 A 
BRANCH  44  45
ATOM     45  S   UNL A   1      33.279  35.075  29.121  1.00  0.00     0.124 S 
ATOM     46  O   UNL A   1      32.683  35.096  30.455  1.00  0.00    -0.237 OA
ATOM     47  O   UNL A   1      33.837  36.346  28.664  1.00  0.00    -0.237 OA
ATOM     48  O   UNL A   1      32.527  34.330  28.116  1.00  0.00    -0.744 OA
ENDBRANCH  44  45
ENDBRANCH  25  39
BRANCH  26  49
ATOM     49  C   UNL A   1      45.831  28.011  31.513  1.00  0.00    -0.014 A 
ATOM     50  C   UNL A   1      46.091  27.123  32.570  1.00  0.00     0.010 A 
ATOM     51  C   UNL A   1      46.864  28.315  30.606  1.00  0.00     0.010 A 
ATOM     52  C   UNL A   1      47.370  26.582  32.740  1.00  0.00     0.020 A 
ATOM     53  C   UNL A   1      48.131  27.750  30.750  1.00  0.00     0.020 A 
ATOM     54  C   UNL A   1      48.382  26.904  31.831  1.00  0.00     0.054 A 
BRANCH  54  55
ATOM     55  S   UNL A   1      50.032  26.188  32.066  1.00  0.00     0.124 S 
ATOM     56  O   UNL A   1      50.886  27.368  31.992  1.00  0.00    -0.237 OA
ATOM     57  O   UNL A   1      49.922  25.566  33.383  1.00  0.00    -0.237 OA
ATOM     58  O   UNL A   1      50.159  25.250  30.951  1.00  0.00    -0.744 OA
ENDBRANCH  54  55
ENDBRANCH  26  49
BRANCH  38  59
ATOM     59  C   UNL A   1      43.174  34.196  33.314  1.00  0.00    -0.014 A 
ATOM     60  C   UNL A   1      43.788  35.247  32.609  1.00  0.00     0.010 A 
ATOM     61  C   UNL A   1      43.053  34.286  34.712  1.00  0.00     0.010 A 
ATOM     62  C   UNL A   1      44.291  36.356  33.292  1.00  0.00     0.020 A 
ATOM     63  C   UNL A   1      43.527  35.408  35.397  1.00  0.00     0.020 A 
ATOM     64  C   UNL A   1      44.153  36.431  34.682  1.00  0.00     0.054 A 
BRANCH  64  65
ATOM     65  S   UNL A   1      44.759  37.911  35.536  1.00  0.00     0.124 S 
ATOM     66  O   UNL A   1      46.206  37.706  35.509  1.00  0.00    -0.237 OA
ATOM     67  O   UNL A   1      44.262  38.994  34.691  1.00  0.00    -0.237 OA
ATOM     68  O   UNL A   1      44.143  37.826  36.858  1.00  0.00    -0.744 OA
ENDBRANCH  64  65
ENDBRANCH  38  59
ENDBRANCH  12  13
ENDBRANCH   5   7
ENDBRANCH   2   3
ENDBRANCH   1   2
BRANCH   1  69
ATOM     69  C   UNL A   1      43.376  22.512  27.199  1.00  0.00     0.117 C 
BRANCH  69  70
ATOM     70  N   UNL A   1      44.720  22.470  26.647  1.00  0.00    -0.354 N 
ATOM     71  C   UNL A   1      45.675  23.452  26.678  1.00  0.00     0.249 C 
ATOM     72  H   UNL A   1      44.976  21.633  26.196  1.00  0.00     0.163 HD
ATOM     73  O   UNL A   1      46.758  23.242  26.131  1.00  0.00    -0.272 OA
BRANCH  71  74
ATOM     74  C   UNL A   1      45.358  24.747  27.445  1.00  0.00     0.207 C 
ATOM     75  C   UNL A   1      46.477  25.218  28.357  1.00  0.00     0.045 C 
ATOM     76  O   UNL A   1      45.102  25.808  26.514  1.00  0.00    -0.363 OA
ATOM     77  C   UNL A   1      47.214  26.217  27.498  1.00  0.00     0.037 C 
ATOM     78  C   UNL A   1      46.105  26.832  26.662  1.00  0.00     0.138 C 
BRANCH  78  79
ATOM     79  C   UNL A   1      45.418  28.044  27.305  1.00  0.00     0.148 C 
BRANCH  79  80
ATOM     80  N   UNL A   1      44.052  28.250  26.859  1.00  0.00    -0.349 N 
ATOM     81  C   UNL A   1      43.326  29.416  26.829  1.00  0.00     0.255 C 
ATOM     82  H   UNL A   1      43.585  27.448  26.533  1.00  0.00     0.163 HD
ATOM     83  O   UNL A   1      42.155  29.389  26.454  1.00  0.00    -0.269 OA
BRANCH  81  84
ATOM     84  C   UNL A   1      43.906  30.685  27.323  1.00  0.00     0.081 A 
ATOM     85  C   UNL A   1      45.049  31.158  26.665  1.00  0.00     0.018 A 
ATOM     86  C   UNL A   1      43.389  31.399  28.410  1.00  0.00     0.128 A 
ATOM     87  C   UNL A   1      45.634  32.364  27.056  1.00  0.00     0.001 A 
ATOM     88  C   UNL A   1      43.967  32.611  28.792  1.00  0.00     0.047 A 
ATOM     89  C   UNL A   1      45.085  33.095  28.108  1.00  0.00     0.004 A 
BRANCH  86  90
ATOM     90  O   UNL A   1      42.310  30.924  29.107  1.00  0.00    -0.507 OA
ATOM     91  H   UNL A   1      41.618  31.506  29.352  1.00  0.00     0.293 HD
ENDBRANCH  86  90
ENDBRANCH  81  84
ENDBRANCH  79  80
ENDBRANCH  78  79
ENDBRANCH  71  74
ENDBRANCH  69  70
ENDBRANCH   1  69
TORSDOF 17
ENDMDL
