MODEL 1
REMARK VINA RESULT:     -12.9      0.000      0.000
REMARK SMILES Cc1ccc(-c2cc(Cl)cc3c2O[C@H](C(F)(F)F)C(C(=O)NCCCNC(=O)c2ccc(-c4c5nc(c(-c6ccc(S(=O)(=O)[O-])cc6)c6ccc([nH]6)c(-c6ccc(S(=O)(=O)[O-])cc6)c6nc(c(-c7ccc(S(=O)(=O)[O-])cc7)c7ccc4[nH]7)C=C6)C=C5)cc2)=C3)cc1F
REMARK SMILES IDX 25 1 24 2 23 3 22 4 20 5 21 6 19 8 6 9 7 10 12 11 8 12 11 13
REMARK SMILES IDX 13 14 9 15 10 16 89 17 14 18 5 19 1 20 2 21 3 22 91 23 4 24
REMARK SMILES IDX 90 25 92 26 15 27 16 28 17 29 18 30 26 31 27 32 28 34 29 35
REMARK SMILES IDX 30 36 88 37 31 38 87 39 32 40 33 41 34 42 81 43 35 44 86 45
REMARK SMILES IDX 80 46 82 47 36 48 85 49 79 50 78 51 37 53 67 54 48 55 66 56
REMARK SMILES IDX 49 57 52 58 65 59 83 60 50 61 51 62 64 64 84 65 53 66 38 67
REMARK SMILES IDX 39 68 47 69 40 70 46 71 41 72 42 73 43 74 44 75 45 76 68 77
REMARK SMILES IDX 69 78 77 79 70 80 76 81 71 82 72 83 73 84 74 85 75 86 54 87
REMARK SMILES IDX 55 88 63 89 56 90 62 91 57 92 58 93 59 94 60 95 61 96
REMARK H PARENT 22 7 26 33 82 52 52 63
REMARK Flexibility Score: inf
ROOT
ATOM      1  C   UNL A   1      33.308  28.416  27.288  1.00  0.00     0.118 C 
ENDROOT
BRANCH   1   2
ATOM      2  C   UNL A   1      33.760  28.010  25.893  1.00  0.00     0.042 C 
BRANCH   2   3
ATOM      3  C   UNL A   1      32.589  27.669  24.985  1.00  0.00     0.118 C 
BRANCH   3   4
ATOM      4  N   UNL A   1      31.588  26.855  25.661  1.00  0.00    -0.352 N 
ATOM      5  C   UNL A   1      31.444  25.560  26.027  1.00  0.00     0.251 C 
ATOM      6  O   UNL A   1      30.401  25.290  26.631  1.00  0.00    -0.270 OA
ATOM      7  H   UNL A   1      30.804  27.391  25.922  1.00  0.00     0.163 HD
BRANCH   5   8
ATOM      8  C   UNL A   1      32.436  24.480  25.757  1.00  0.00     0.067 C 
ATOM      9  C   UNL A   1      35.260  21.409  25.209  1.00  0.00     0.026 A 
ATOM     10  C   UNL A   1      36.621  21.711  25.340  1.00  0.00     0.033 A 
ATOM     11  C   UNL A   1      34.329  22.432  25.473  1.00  0.00     0.135 A 
ATOM     12  C   UNL A   1      37.026  22.994  25.716  1.00  0.00     0.042 A 
ATOM     13  C   UNL A   1      34.729  23.721  25.841  1.00  0.00     0.019 A 
ATOM     14  O   UNL A   1      33.001  22.096  25.419  1.00  0.00    -0.475 OA
ATOM     15  Cl  UNL A   1      38.705  23.343  25.872  1.00  0.00    -0.084 Cl
ATOM     16  C   UNL A   1      36.090  24.000  25.967  1.00  0.00     0.032 A 
ATOM     17  C   UNL A   1      33.711  24.735  26.109  1.00  0.00     0.025 C 
ATOM     18  C   UNL A   1      32.086  23.174  25.110  1.00  0.00     0.314 C 
BRANCH   9  19
ATOM     19  C   UNL A   1      34.809  20.071  24.793  1.00  0.00    -0.012 A 
ATOM     20  C   UNL A   1      33.348  16.092  23.925  1.00  0.00     0.047 C 
ATOM     21  C   UNL A   1      33.877  17.466  24.195  1.00  0.00    -0.015 A 
ATOM     22  C   UNL A   1      35.219  17.681  24.527  1.00  0.00     0.007 A 
ATOM     23  C   UNL A   1      33.019  18.565  24.147  1.00  0.00     0.126 A 
ATOM     24  C   UNL A   1      35.679  18.971  24.820  1.00  0.00     0.009 A 
ATOM     25  C   UNL A   1      33.471  19.849  24.432  1.00  0.00     0.048 A 
ATOM     26  F   UNL A   1      31.726  18.388  23.837  1.00  0.00    -0.207 F 
ENDBRANCH   9  19
BRANCH  18  27
ATOM     27  C   UNL A   1      31.920  23.289  23.581  1.00  0.00     0.429 C 
ATOM     28  F   UNL A   1      30.612  23.433  23.254  1.00  0.00    -0.167 F 
ATOM     29  F   UNL A   1      32.567  24.360  23.065  1.00  0.00    -0.167 F 
ATOM     30  F   UNL A   1      32.383  22.202  22.922  1.00  0.00    -0.167 F 
ENDBRANCH  18  27
ENDBRANCH   5   8
ENDBRANCH   3   4
ENDBRANCH   2   3
ENDBRANCH   1   2
BRANCH   1  31
ATOM     31  N   UNL A   1      33.332  29.866  27.476  1.00  0.00    -0.352 N 
ATOM     32  C   UNL A   1      34.298  30.690  28.001  1.00  0.00     0.251 C 
ATOM     33  H   UNL A   1      32.518  30.331  27.176  1.00  0.00     0.163 HD
ATOM     34  O   UNL A   1      34.011  31.852  28.280  1.00  0.00    -0.269 OA
BRANCH  32  35
ATOM     35  C   UNL A   1      35.664  30.183  28.242  1.00  0.00     0.039 A 
ATOM     36  C   UNL A   1      36.003  29.637  29.477  1.00  0.00     0.014 A 
ATOM     37  C   UNL A   1      36.619  30.238  27.221  1.00  0.00     0.014 A 
ATOM     38  C   UNL A   1      37.328  29.354  29.764  1.00  0.00     0.010 A 
ATOM     39  C   UNL A   1      37.931  29.822  27.471  1.00  0.00     0.010 A 
ATOM     40  C   UNL A   1      38.311  29.425  28.762  1.00  0.00    -0.014 A 
BRANCH  40  41
ATOM     41  C   UNL A   1      39.705  29.043  29.110  1.00  0.00     0.031 A 
ATOM     42  C   UNL A   1      40.574  29.943  29.947  1.00  0.00     0.074 A 
ATOM     43  C   UNL A   1      40.152  27.827  28.734  1.00  0.00     0.049 A 
ATOM     44  N   UNL A   1      41.776  29.713  30.409  1.00  0.00    -0.248 NA
ATOM     45  C   UNL A   1      40.041  31.266  30.313  1.00  0.00     0.031 C 
ATOM     46  C   UNL A   1      39.399  26.874  27.911  1.00  0.00     0.029 A 
ATOM     47  N   UNL A   1      41.314  27.158  29.027  1.00  0.00    -0.354 N 
ATOM     48  C   UNL A   1      42.149  30.860  31.098  1.00  0.00     0.074 A 
ATOM     49  C   UNL A   1      41.060  31.803  30.973  1.00  0.00     0.031 C 
ATOM     50  C   UNL A   1      40.078  25.722  27.836  1.00  0.00     0.029 A 
ATOM     51  C   UNL A   1      41.351  25.876  28.529  1.00  0.00     0.049 A 
ATOM     52  H   UNL A   1      42.050  27.559  29.545  1.00  0.00     0.167 HD
ATOM     53  C   UNL A   1      43.290  31.096  31.787  1.00  0.00     0.031 A 
ATOM     54  C   UNL A   1      42.303  24.926  28.604  1.00  0.00     0.031 A 
ATOM     55  C   UNL A   1      44.355  30.137  31.936  1.00  0.00     0.049 A 
ATOM     56  C   UNL A   1      43.557  25.218  29.374  1.00  0.00     0.074 A 
ATOM     57  C   UNL A   1      45.531  30.276  32.653  1.00  0.00     0.029 A 
ATOM     58  N   UNL A   1      44.377  28.870  31.374  1.00  0.00    -0.354 N 
ATOM     59  N   UNL A   1      43.872  26.301  30.045  1.00  0.00    -0.248 NA
ATOM     60  C   UNL A   1      44.582  24.168  29.404  1.00  0.00     0.031 C 
ATOM     61  C   UNL A   1      46.294  29.122  32.466  1.00  0.00     0.029 A 
ATOM     62  C   UNL A   1      45.561  28.230  31.700  1.00  0.00     0.049 A 
ATOM     63  H   UNL A   1      43.657  28.482  30.825  1.00  0.00     0.167 HD
ATOM     64  C   UNL A   1      45.137  26.066  30.568  1.00  0.00     0.074 A 
ATOM     65  C   UNL A   1      45.507  24.719  30.179  1.00  0.00     0.031 C 
ATOM     66  C   UNL A   1      45.928  26.897  31.289  1.00  0.00     0.031 A 
BRANCH  53  67
ATOM     67  C   UNL A   1      43.472  32.432  32.461  1.00  0.00    -0.014 A 
ATOM     68  C   UNL A   1      43.030  32.607  33.786  1.00  0.00     0.010 A 
ATOM     69  C   UNL A   1      43.903  33.554  31.731  1.00  0.00     0.010 A 
ATOM     70  C   UNL A   1      42.956  33.884  34.349  1.00  0.00     0.020 A 
ATOM     71  C   UNL A   1      43.857  34.831  32.300  1.00  0.00     0.020 A 
ATOM     72  C   UNL A   1      43.350  34.991  33.593  1.00  0.00     0.054 A 
BRANCH  72  73
ATOM     73  S   UNL A   1      43.152  36.648  34.302  1.00  0.00     0.124 S 
ATOM     74  O   UNL A   1      41.771  36.618  34.775  1.00  0.00    -0.237 OA
ATOM     75  O   UNL A   1      44.177  36.673  35.344  1.00  0.00    -0.237 OA
ATOM     76  O   UNL A   1      43.406  37.538  33.172  1.00  0.00    -0.744 OA
ENDBRANCH  72  73
ENDBRANCH  53  67
BRANCH  54  77
ATOM     77  C   UNL A   1      42.087  23.623  27.914  1.00  0.00    -0.014 A 
ATOM     78  C   UNL A   1      41.493  22.550  28.608  1.00  0.00     0.010 A 
ATOM     79  C   UNL A   1      42.535  23.415  26.598  1.00  0.00     0.010 A 
ATOM     80  C   UNL A   1      41.410  21.284  28.027  1.00  0.00     0.020 A 
ATOM     81  C   UNL A   1      42.415  22.157  25.997  1.00  0.00     0.020 A 
ATOM     82  C   UNL A   1      41.883  21.093  26.728  1.00  0.00     0.054 A 
BRANCH  82  83
ATOM     83  S   UNL A   1      41.797  19.430  26.009  1.00  0.00     0.124 S 
ATOM     84  O   UNL A   1      42.268  18.601  27.115  1.00  0.00    -0.237 OA
ATOM     85  O   UNL A   1      40.379  19.295  25.681  1.00  0.00    -0.237 OA
ATOM     86  O   UNL A   1      42.694  19.509  24.859  1.00  0.00    -0.744 OA
ENDBRANCH  82  83
ENDBRANCH  54  77
BRANCH  66  87
ATOM     87  C   UNL A   1      47.292  26.397  31.686  1.00  0.00    -0.014 A 
ATOM     88  C   UNL A   1      48.372  26.513  30.792  1.00  0.00     0.010 A 
ATOM     89  C   UNL A   1      47.482  25.724  32.906  1.00  0.00     0.010 A 
ATOM     90  C   UNL A   1      49.612  25.948  31.103  1.00  0.00     0.020 A 
ATOM     91  C   UNL A   1      48.729  25.190  33.236  1.00  0.00     0.020 A 
ATOM     92  C   UNL A   1      49.781  25.286  32.322  1.00  0.00     0.054 A 
BRANCH  92  93
ATOM     93  S   UNL A   1      51.399  24.565  32.712  1.00  0.00     0.124 S 
ATOM     94  O   UNL A   1      52.312  25.462  32.010  1.00  0.00    -0.237 OA
ATOM     95  O   UNL A   1      51.439  24.639  34.171  1.00  0.00    -0.237 OA
ATOM     96  O   UNL A   1      51.310  23.212  32.168  1.00  0.00    -0.744 OA
ENDBRANCH  92  93
ENDBRANCH  66  87
ENDBRANCH  40  41
ENDBRANCH  32  35
ENDBRANCH   1  31
TORSDOF 15
ENDMDL
MODEL 2
REMARK VINA RESULT:     -12.9      0.926      7.969
REMARK SMILES Cc1ccc(-c2cc(Cl)cc3c2O[C@H](C(F)(F)F)C(C(=O)NCCCNC(=O)c2ccc(-c4c5nc(c(-c6ccc(S(=O)(=O)[O-])cc6)c6ccc([nH]6)c(-c6ccc(S(=O)(=O)[O-])cc6)c6nc(c(-c7ccc(S(=O)(=O)[O-])cc7)c7ccc4[nH]7)C=C6)C=C5)cc2)=C3)cc1F
REMARK SMILES IDX 25 1 24 2 23 3 22 4 20 5 21 6 19 8 6 9 7 10 12 11 8 12 11 13
REMARK SMILES IDX 13 14 9 15 10 16 89 17 14 18 5 19 1 20 2 21 3 22 91 23 4 24
REMARK SMILES IDX 90 25 92 26 15 27 16 28 17 29 18 30 26 31 27 32 28 34 29 35
REMARK SMILES IDX 30 36 88 37 31 38 87 39 32 40 33 41 34 42 81 43 35 44 86 45
REMARK SMILES IDX 80 46 82 47 36 48 85 49 79 50 78 51 37 53 67 54 48 55 66 56
REMARK SMILES IDX 49 57 52 58 65 59 83 60 50 61 51 62 64 64 84 65 53 66 38 67
REMARK SMILES IDX 39 68 47 69 40 70 46 71 41 72 42 73 43 74 44 75 45 76 68 77
REMARK SMILES IDX 69 78 77 79 70 80 76 81 71 82 72 83 73 84 74 85 75 86 54 87
REMARK SMILES IDX 55 88 63 89 56 90 62 91 57 92 58 93 59 94 60 95 61 96
REMARK H PARENT 22 7 26 33 82 52 52 63
REMARK Flexibility Score: inf
ROOT
ATOM      1  C   UNL A   1      33.353  28.619  27.285  1.00  0.00     0.118 C 
ENDROOT
BRANCH   1   2
ATOM      2  C   UNL A   1      31.948  28.144  27.622  1.00  0.00     0.042 C 
BRANCH   2   3
ATOM      3  C   UNL A   1      31.506  26.984  26.744  1.00  0.00     0.118 C 
BRANCH   3   4
ATOM      4  N   UNL A   1      31.867  27.185  25.347  1.00  0.00    -0.352 N 
ATOM      5  C   UNL A   1      32.571  26.523  24.399  1.00  0.00     0.251 C 
ATOM      6  O   UNL A   1      32.605  27.062  23.288  1.00  0.00    -0.270 OA
ATOM      7  H   UNL A   1      31.500  28.030  24.998  1.00  0.00     0.163 HD
BRANCH   5   8
ATOM      8  C   UNL A   1      33.277  25.227  24.608  1.00  0.00     0.067 C 
ATOM      9  C   UNL A   1      35.263  21.606  25.411  1.00  0.00     0.026 A 
ATOM     10  C   UNL A   1      36.635  21.635  25.692  1.00  0.00     0.033 A 
ATOM     11  C   UNL A   1      34.602  22.834  25.222  1.00  0.00     0.135 A 
ATOM     12  C   UNL A   1      37.313  22.854  25.774  1.00  0.00     0.042 A 
ATOM     13  C   UNL A   1      35.278  24.058  25.294  1.00  0.00     0.019 A 
ATOM     14  O   UNL A   1      33.246  22.790  25.028  1.00  0.00    -0.475 OA
ATOM     15  Cl  UNL A   1      38.999  22.867  26.123  1.00  0.00    -0.084 Cl
ATOM     16  C   UNL A   1      36.643  24.065  25.577  1.00  0.00     0.032 A 
ATOM     17  C   UNL A   1      34.530  25.298  25.097  1.00  0.00     0.025 C 
ATOM     18  C   UNL A   1      32.675  23.892  24.285  1.00  0.00     0.314 C 
BRANCH   9  19
ATOM     19  C   UNL A   1      34.532  20.333  25.297  1.00  0.00    -0.012 A 
ATOM     20  C   UNL A   1      32.287  16.699  24.605  1.00  0.00     0.047 C 
ATOM     21  C   UNL A   1      33.062  17.950  24.882  1.00  0.00    -0.015 A 
ATOM     22  C   UNL A   1      32.492  19.026  25.573  1.00  0.00     0.007 A 
ATOM     23  C   UNL A   1      34.372  18.074  24.423  1.00  0.00     0.126 A 
ATOM     24  C   UNL A   1      33.222  20.203  25.780  1.00  0.00     0.009 A 
ATOM     25  C   UNL A   1      35.104  19.239  24.629  1.00  0.00     0.048 A 
ATOM     26  F   UNL A   1      34.942  17.063  23.752  1.00  0.00    -0.207 F 
ENDBRANCH   9  19
BRANCH  18  27
ATOM     27  C   UNL A   1      32.706  23.571  22.777  1.00  0.00     0.429 C 
ATOM     28  F   UNL A   1      33.933  23.827  22.261  1.00  0.00    -0.167 F 
ATOM     29  F   UNL A   1      32.440  22.269  22.515  1.00  0.00    -0.167 F 
ATOM     30  F   UNL A   1      31.811  24.298  22.070  1.00  0.00    -0.167 F 
ENDBRANCH  18  27
ENDBRANCH   5   8
ENDBRANCH   3   4
ENDBRANCH   2   3
ENDBRANCH   1   2
BRANCH   1  31
ATOM     31  N   UNL A   1      33.492  30.070  27.415  1.00  0.00    -0.352 N 
ATOM     32  C   UNL A   1      34.499  30.834  27.953  1.00  0.00     0.251 C 
ATOM     33  H   UNL A   1      32.734  30.586  27.057  1.00  0.00     0.163 HD
ATOM     34  O   UNL A   1      34.298  32.027  28.170  1.00  0.00    -0.269 OA
BRANCH  32  35
ATOM     35  C   UNL A   1      35.805  30.227  28.280  1.00  0.00     0.039 A 
ATOM     36  C   UNL A   1      36.022  29.663  29.534  1.00  0.00     0.014 A 
ATOM     37  C   UNL A   1      36.825  30.207  27.323  1.00  0.00     0.014 A 
ATOM     38  C   UNL A   1      37.301  29.283  29.906  1.00  0.00     0.010 A 
ATOM     39  C   UNL A   1      38.083  29.696  27.657  1.00  0.00     0.010 A 
ATOM     40  C   UNL A   1      38.349  29.277  28.969  1.00  0.00    -0.014 A 
BRANCH  40  41
ATOM     41  C   UNL A   1      39.685  28.794  29.405  1.00  0.00     0.031 A 
ATOM     42  C   UNL A   1      40.222  27.464  28.949  1.00  0.00     0.074 A 
ATOM     43  C   UNL A   1      40.453  29.615  30.153  1.00  0.00     0.049 A 
ATOM     44  N   UNL A   1      41.402  26.944  29.170  1.00  0.00    -0.248 NA
ATOM     45  C   UNL A   1      39.333  26.603  28.151  1.00  0.00     0.031 C 
ATOM     46  C   UNL A   1      40.031  30.925  30.662  1.00  0.00     0.029 A 
ATOM     47  N   UNL A   1      41.754  29.504  30.574  1.00  0.00    -0.354 N 
ATOM     48  C   UNL A   1      41.392  25.696  28.559  1.00  0.00     0.074 A 
ATOM     49  C   UNL A   1      40.079  25.517  27.982  1.00  0.00     0.031 C 
ATOM     50  C   UNL A   1      41.073  31.526  31.251  1.00  0.00     0.029 A 
ATOM     51  C   UNL A   1      42.213  30.617  31.241  1.00  0.00     0.049 A 
ATOM     52  H   UNL A   1      42.306  28.704  30.414  1.00  0.00     0.167 HD
ATOM     53  C   UNL A   1      42.395  24.791  28.475  1.00  0.00     0.031 A 
ATOM     54  C   UNL A   1      43.411  30.883  31.798  1.00  0.00     0.031 A 
ATOM     55  C   UNL A   1      43.712  24.994  29.024  1.00  0.00     0.049 A 
ATOM     56  C   UNL A   1      44.502  29.859  31.688  1.00  0.00     0.074 A 
ATOM     57  C   UNL A   1      44.804  24.146  28.950  1.00  0.00     0.029 A 
ATOM     58  N   UNL A   1      44.121  26.111  29.735  1.00  0.00    -0.354 N 
ATOM     59  N   UNL A   1      44.477  28.698  31.076  1.00  0.00    -0.248 NA
ATOM     60  C   UNL A   1      45.780  30.174  32.336  1.00  0.00     0.031 C 
ATOM     61  C   UNL A   1      45.850  24.719  29.675  1.00  0.00     0.029 A 
ATOM     62  C   UNL A   1      45.438  25.959  30.135  1.00  0.00     0.049 A 
ATOM     63  H   UNL A   1      43.558  26.896  29.928  1.00  0.00     0.167 HD
ATOM     64  C   UNL A   1      45.733  28.141  31.275  1.00  0.00     0.074 A 
ATOM     65  C   UNL A   1      46.509  29.113  32.019  1.00  0.00     0.031 C 
ATOM     66  C   UNL A   1      46.195  26.925  30.893  1.00  0.00     0.031 A 
BRANCH  53  67
ATOM     67  C   UNL A   1      42.146  23.491  27.753  1.00  0.00    -0.014 A 
ATOM     68  C   UNL A   1      41.571  22.410  28.449  1.00  0.00     0.010 A 
ATOM     69  C   UNL A   1      42.646  23.280  26.457  1.00  0.00     0.010 A 
ATOM     70  C   UNL A   1      41.558  21.130  27.889  1.00  0.00     0.020 A 
ATOM     71  C   UNL A   1      42.609  22.006  25.881  1.00  0.00     0.020 A 
ATOM     72  C   UNL A   1      42.097  20.933  26.615  1.00  0.00     0.054 A 
BRANCH  72  73
ATOM     73  S   UNL A   1      42.163  19.248  25.946  1.00  0.00     0.124 S 
ATOM     74  O   UNL A   1      43.017  19.416  24.774  1.00  0.00    -0.237 OA
ATOM     75  O   UNL A   1      42.746  18.489  27.050  1.00  0.00    -0.237 OA
ATOM     76  O   UNL A   1      40.764  18.939  25.660  1.00  0.00    -0.744 OA
ENDBRANCH  72  73
ENDBRANCH  53  67
BRANCH  54  77
ATOM     77  C   UNL A   1      43.611  32.176  32.511  1.00  0.00    -0.014 A 
ATOM     78  C   UNL A   1      43.279  32.283  33.876  1.00  0.00     0.010 A 
ATOM     79  C   UNL A   1      44.058  33.320  31.829  1.00  0.00     0.010 A 
ATOM     80  C   UNL A   1      43.327  33.518  34.526  1.00  0.00     0.020 A 
ATOM     81  C   UNL A   1      44.147  34.551  32.488  1.00  0.00     0.020 A 
ATOM     82  C   UNL A   1      43.750  34.647  33.824  1.00  0.00     0.054 A 
BRANCH  82  83
ATOM     83  S   UNL A   1      43.769  36.246  34.680  1.00  0.00     0.124 S 
ATOM     84  O   UNL A   1      45.053  36.796  34.255  1.00  0.00    -0.237 OA
ATOM     85  O   UNL A   1      42.587  36.913  34.139  1.00  0.00    -0.237 OA
ATOM     86  O   UNL A   1      43.681  35.878  36.091  1.00  0.00    -0.744 OA
ENDBRANCH  82  83
ENDBRANCH  54  77
BRANCH  66  87
ATOM     87  C   UNL A   1      47.597  26.551  31.294  1.00  0.00    -0.014 A 
ATOM     88  C   UNL A   1      48.659  26.719  30.387  1.00  0.00     0.010 A 
ATOM     89  C   UNL A   1      47.849  25.942  32.537  1.00  0.00     0.010 A 
ATOM     90  C   UNL A   1      49.942  26.267  30.706  1.00  0.00     0.020 A 
ATOM     91  C   UNL A   1      49.137  25.522  32.874  1.00  0.00     0.020 A 
ATOM     92  C   UNL A   1      50.172  25.668  31.947  1.00  0.00     0.054 A 
BRANCH  92  93
ATOM     93  S   UNL A   1      51.845  25.095  32.348  1.00  0.00     0.124 S 
ATOM     94  O   UNL A   1      52.028  25.605  33.703  1.00  0.00    -0.237 OA
ATOM     95  O   UNL A   1      51.723  23.643  32.231  1.00  0.00    -0.237 OA
ATOM     96  O   UNL A   1      52.677  25.724  31.325  1.00  0.00    -0.744 OA
ENDBRANCH  92  93
ENDBRANCH  66  87
ENDBRANCH  40  41
ENDBRANCH  32  35
ENDBRANCH   1  31
TORSDOF 15
ENDMDL
MODEL 3
REMARK VINA RESULT:     -12.6      4.962     10.784
REMARK SMILES Cc1ccc(-c2cc(Cl)cc3c2O[C@H](C(F)(F)F)C(C(=O)NCCCNC(=O)c2ccc(-c4c5nc(c(-c6ccc(S(=O)(=O)[O-])cc6)c6ccc([nH]6)c(-c6ccc(S(=O)(=O)[O-])cc6)c6nc(c(-c7ccc(S(=O)(=O)[O-])cc7)c7ccc4[nH]7)C=C6)C=C5)cc2)=C3)cc1F
REMARK SMILES IDX 25 1 24 2 23 3 22 4 20 5 21 6 19 8 6 9 7 10 12 11 8 12 11 13
REMARK SMILES IDX 13 14 9 15 10 16 89 17 14 18 5 19 1 20 2 21 3 22 91 23 4 24
REMARK SMILES IDX 90 25 92 26 15 27 16 28 17 29 18 30 26 31 27 32 28 34 29 35
REMARK SMILES IDX 30 36 88 37 31 38 87 39 32 40 33 41 34 42 81 43 35 44 86 45
REMARK SMILES IDX 80 46 82 47 36 48 85 49 79 50 78 51 37 53 67 54 48 55 66 56
REMARK SMILES IDX 49 57 52 58 65 59 83 60 50 61 51 62 64 64 84 65 53 66 38 67
REMARK SMILES IDX 39 68 47 69 40 70 46 71 41 72 42 73 43 74 44 75 45 76 68 77
REMARK SMILES IDX 69 78 77 79 70 80 76 81 71 82 72 83 73 84 74 85 75 86 54 87
REMARK SMILES IDX 55 88 63 89 56 90 62 91 57 92 58 93 59 94 60 95 61 96
REMARK H PARENT 22 7 26 33 82 52 52 63
REMARK Flexibility Score: inf
ROOT
ATOM      1  C   UNL A   1      40.375  21.455  26.949  1.00  0.00     0.118 C 
ENDROOT
BRANCH   1   2
ATOM      2  C   UNL A   1      41.589  20.836  26.272  1.00  0.00     0.042 C 
BRANCH   2   3
ATOM      3  C   UNL A   1      42.596  21.884  25.825  1.00  0.00     0.118 C 
BRANCH   3   4
ATOM      4  N   UNL A   1      43.945  21.344  25.727  1.00  0.00    -0.352 N 
ATOM      5  C   UNL A   1      45.208  21.829  25.691  1.00  0.00     0.251 C 
ATOM      6  O   UNL A   1      46.103  20.979  25.627  1.00  0.00    -0.270 OA
ATOM      7  H   UNL A   1      43.935  20.360  25.671  1.00  0.00     0.163 HD
BRANCH   5   8
ATOM      8  C   UNL A   1      45.569  23.274  25.729  1.00  0.00     0.067 C 
ATOM      9  C   UNL A   1      46.491  27.379  25.643  1.00  0.00     0.026 A 
ATOM     10  C   UNL A   1      47.571  27.813  24.864  1.00  0.00     0.033 A 
ATOM     11  C   UNL A   1      46.151  26.014  25.596  1.00  0.00     0.135 A 
ATOM     12  C   UNL A   1      48.282  26.906  24.075  1.00  0.00     0.042 A 
ATOM     13  C   UNL A   1      46.865  25.099  24.815  1.00  0.00     0.019 A 
ATOM     14  O   UNL A   1      45.042  25.622  26.301  1.00  0.00    -0.475 OA
ATOM     15  Cl  UNL A   1      49.605  27.462  23.125  1.00  0.00    -0.084 Cl
ATOM     16  C   UNL A   1      47.937  25.552  24.046  1.00  0.00     0.032 A 
ATOM     17  C   UNL A   1      46.455  23.696  24.805  1.00  0.00     0.025 C 
ATOM     18  C   UNL A   1      45.021  24.242  26.734  1.00  0.00     0.314 C 
BRANCH   9  19
ATOM     19  C   UNL A   1      45.740  28.312  26.500  1.00  0.00    -0.012 A 
ATOM     20  C   UNL A   1      43.576  31.317  28.737  1.00  0.00     0.047 C 
ATOM     21  C   UNL A   1      44.331  30.258  27.996  1.00  0.00    -0.015 A 
ATOM     22  C   UNL A   1      45.687  30.019  28.240  1.00  0.00     0.007 A 
ATOM     23  C   UNL A   1      43.689  29.502  27.015  1.00  0.00     0.126 A 
ATOM     24  C   UNL A   1      46.383  29.055  27.501  1.00  0.00     0.009 A 
ATOM     25  C   UNL A   1      44.373  28.539  26.280  1.00  0.00     0.048 A 
ATOM     26  F   UNL A   1      42.390  29.713  26.754  1.00  0.00    -0.207 F 
ENDBRANCH   9  19
BRANCH  18  27
ATOM     27  C   UNL A   1      45.701  24.121  28.113  1.00  0.00     0.429 C 
ATOM     28  F   UNL A   1      45.580  25.280  28.806  1.00  0.00    -0.167 F 
ATOM     29  F   UNL A   1      45.152  23.152  28.883  1.00  0.00    -0.167 F 
ATOM     30  F   UNL A   1      47.021  23.841  28.022  1.00  0.00    -0.167 F 
ENDBRANCH  18  27
ENDBRANCH   5   8
ENDBRANCH   3   4
ENDBRANCH   2   3
ENDBRANCH   1   2
BRANCH   1  31
ATOM     31  N   UNL A   1      39.419  21.995  25.982  1.00  0.00    -0.352 N 
ATOM     32  C   UNL A   1      38.851  23.241  25.877  1.00  0.00     0.251 C 
ATOM     33  H   UNL A   1      39.135  21.357  25.288  1.00  0.00     0.163 HD
ATOM     34  O   UNL A   1      37.892  23.404  25.125  1.00  0.00    -0.269 OA
BRANCH  32  35
ATOM     35  C   UNL A   1      39.375  24.372  26.670  1.00  0.00     0.039 A 
ATOM     36  C   UNL A   1      39.042  24.500  28.016  1.00  0.00     0.014 A 
ATOM     37  C   UNL A   1      40.221  25.311  26.071  1.00  0.00     0.014 A 
ATOM     38  C   UNL A   1      39.365  25.662  28.697  1.00  0.00     0.010 A 
ATOM     39  C   UNL A   1      40.660  26.419  26.803  1.00  0.00     0.010 A 
ATOM     40  C   UNL A   1      40.193  26.632  28.108  1.00  0.00    -0.014 A 
BRANCH  40  41
ATOM     41  C   UNL A   1      40.563  27.828  28.911  1.00  0.00     0.031 A 
ATOM     42  C   UNL A   1      39.599  28.967  29.103  1.00  0.00     0.074 A 
ATOM     43  C   UNL A   1      41.755  27.834  29.544  1.00  0.00     0.049 A 
ATOM     44  N   UNL A   1      39.739  30.035  29.846  1.00  0.00    -0.248 NA
ATOM     45  C   UNL A   1      38.320  28.915  28.373  1.00  0.00     0.031 C 
ATOM     46  C   UNL A   1      42.775  26.786  29.422  1.00  0.00     0.029 A 
ATOM     47  N   UNL A   1      42.296  28.713  30.447  1.00  0.00    -0.354 N 
ATOM     48  C   UNL A   1      38.585  30.786  29.660  1.00  0.00     0.074 A 
ATOM     49  C   UNL A   1      37.762  30.072  28.711  1.00  0.00     0.031 C 
ATOM     50  C   UNL A   1      43.773  27.040  30.278  1.00  0.00     0.029 A 
ATOM     51  C   UNL A   1      43.513  28.309  30.948  1.00  0.00     0.049 A 
ATOM     52  H   UNL A   1      41.855  29.553  30.712  1.00  0.00     0.167 HD
ATOM     53  C   UNL A   1      38.239  31.957  30.244  1.00  0.00     0.031 A 
ATOM     54  C   UNL A   1      44.341  28.891  31.837  1.00  0.00     0.031 A 
ATOM     55  C   UNL A   1      39.051  32.645  31.216  1.00  0.00     0.049 A 
ATOM     56  C   UNL A   1      43.929  30.189  32.466  1.00  0.00     0.074 A 
ATOM     57  C   UNL A   1      38.759  33.818  31.892  1.00  0.00     0.029 A 
ATOM     58  N   UNL A   1      40.297  32.229  31.657  1.00  0.00    -0.354 N 
ATOM     59  N   UNL A   1      42.816  30.863  32.298  1.00  0.00    -0.248 NA
ATOM     60  C   UNL A   1      44.875  30.806  33.404  1.00  0.00     0.031 C 
ATOM     61  C   UNL A   1      39.857  34.147  32.687  1.00  0.00     0.029 A 
ATOM     62  C   UNL A   1      40.802  33.140  32.570  1.00  0.00     0.049 A 
ATOM     63  H   UNL A   1      40.755  31.408  31.365  1.00  0.00     0.167 HD
ATOM     64  C   UNL A   1      42.933  31.990  33.101  1.00  0.00     0.074 A 
ATOM     65  C   UNL A   1      44.201  31.880  33.794  1.00  0.00     0.031 C 
ATOM     66  C   UNL A   1      42.075  33.031  33.238  1.00  0.00     0.031 A 
BRANCH  53  67
ATOM     67  C   UNL A   1      36.919  32.591  29.881  1.00  0.00    -0.014 A 
ATOM     68  C   UNL A   1      36.870  33.548  28.849  1.00  0.00     0.010 A 
ATOM     69  C   UNL A   1      35.779  32.384  30.676  1.00  0.00     0.010 A 
ATOM     70  C   UNL A   1      35.727  34.329  28.658  1.00  0.00     0.020 A 
ATOM     71  C   UNL A   1      34.623  33.144  30.470  1.00  0.00     0.020 A 
ATOM     72  C   UNL A   1      34.617  34.135  29.485  1.00  0.00     0.054 A 
BRANCH  72  73
ATOM     73  S   UNL A   1      33.181  35.226  29.288  1.00  0.00     0.124 S 
ATOM     74  O   UNL A   1      32.623  35.246  30.637  1.00  0.00    -0.237 OA
ATOM     75  O   UNL A   1      33.790  36.476  28.837  1.00  0.00    -0.237 OA
ATOM     76  O   UNL A   1      32.368  34.543  28.285  1.00  0.00    -0.744 OA
ENDBRANCH  72  73
ENDBRANCH  53  67
BRANCH  54  77
ATOM     77  C   UNL A   1      45.640  28.236  32.159  1.00  0.00    -0.014 A 
ATOM     78  C   UNL A   1      46.768  28.477  31.349  1.00  0.00     0.010 A 
ATOM     79  C   UNL A   1      45.748  27.317  33.216  1.00  0.00     0.010 A 
ATOM     80  C   UNL A   1      47.954  27.769  31.549  1.00  0.00     0.020 A 
ATOM     81  C   UNL A   1      46.948  26.635  33.445  1.00  0.00     0.020 A 
ATOM     82  C   UNL A   1      48.032  26.843  32.590  1.00  0.00     0.054 A 
BRANCH  82  83
ATOM     83  S   UNL A   1      49.571  25.907  32.806  1.00  0.00     0.124 S 
ATOM     84  O   UNL A   1      49.926  25.594  31.424  1.00  0.00    -0.237 OA
ATOM     85  O   UNL A   1      50.441  26.872  33.476  1.00  0.00    -0.237 OA
ATOM     86  O   UNL A   1      49.165  24.767  33.623  1.00  0.00    -0.744 OA
ENDBRANCH  82  83
ENDBRANCH  54  77
BRANCH  66  87
ATOM     87  C   UNL A   1      42.483  34.159  34.148  1.00  0.00    -0.014 A 
ATOM     88  C   UNL A   1      43.254  35.225  33.648  1.00  0.00     0.010 A 
ATOM     89  C   UNL A   1      42.185  34.116  35.521  1.00  0.00     0.010 A 
ATOM     90  C   UNL A   1      43.736  36.215  34.507  1.00  0.00     0.020 A 
ATOM     91  C   UNL A   1      42.635  35.123  36.378  1.00  0.00     0.020 A 
ATOM     92  C   UNL A   1      43.426  36.156  35.868  1.00  0.00     0.054 A 
BRANCH  92  93
ATOM     93  S   UNL A   1      44.053  37.454  36.969  1.00  0.00     0.124 S 
ATOM     94  O   UNL A   1      44.153  38.598  36.068  1.00  0.00    -0.237 OA
ATOM     95  O   UNL A   1      43.010  37.542  37.989  1.00  0.00    -0.237 OA
ATOM     96  O   UNL A   1      45.328  36.916  37.439  1.00  0.00    -0.744 OA
ENDBRANCH  92  93
ENDBRANCH  66  87
ENDBRANCH  40  41
ENDBRANCH  32  35
ENDBRANCH   1  31
TORSDOF 15
ENDMDL
