MODEL 1
REMARK VINA RESULT:     -13.5      0.000      0.000
REMARK SMILES Cc1nc2cc(S(=O)(=O)N3CCC(C(=O)NCCCNC(=O)c4ccc(-c5c6nc(c(-c7ccc(S(=O)(=O)[O-])cc7)c7ccc([nH]7)c(-c7ccc(S(=O)(=O)[O-])cc7)c7nc(c(-c8ccc(S(=O)(=O)[O-])cc8)c8ccc5[nH]8)C=C7)C=C6)cc4)CC3)ccc2n1C1CCCC1
REMARK SMILES IDX 18 1 17 2 16 3 14 4 15 5 13 7 10 8 11 9 84 10 12 11 83 12
REMARK SMILES IDX 7 13 8 14 9 15 6 16 1 17 2 18 3 19 88 20 4 21 87 22 5 23
REMARK SMILES IDX 86 24 85 25 89 26 90 27 93 28 91 29 92 30 19 31 20 32 21 33
REMARK SMILES IDX 22 35 23 36 24 37 82 38 25 39 81 40 26 41 27 42 28 43 75 44
REMARK SMILES IDX 29 45 80 46 74 47 76 48 30 49 79 50 73 51 72 52 31 54 61 55
REMARK SMILES IDX 42 56 60 57 43 58 46 59 59 60 77 61 44 62 45 63 58 65 78 66
REMARK SMILES IDX 47 67 32 68 33 69 41 70 34 71 40 72 35 73 36 74 37 75 38 76
REMARK SMILES IDX 39 77 62 78 63 79 71 80 64 81 70 82 65 83 66 84 67 85 68 86
REMARK SMILES IDX 69 87 48 88 49 89 57 90 50 91 56 92 51 93 52 94 53 95 54 96
REMARK SMILES IDX 55 97
REMARK H PARENT 16 6 20 34 76 53 46 64
REMARK Flexibility Score: inf
ROOT
ATOM      1  C   UNL A   1      40.766  20.420  26.192  1.00  0.00     0.042 C 
ENDROOT
BRANCH   1   2
ATOM      2  C   UNL A   1      39.358  20.905  25.861  1.00  0.00     0.117 C 
BRANCH   2   3
ATOM      3  N   UNL A   1      39.109  22.259  26.351  1.00  0.00    -0.356 N 
ATOM      4  C   UNL A   1      38.068  23.111  26.153  1.00  0.00     0.223 C 
ATOM      5  O   UNL A   1      38.121  24.227  26.676  1.00  0.00    -0.275 OA
ATOM      6  H   UNL A   1      39.822  22.617  26.926  1.00  0.00     0.163 HD
BRANCH   4   7
ATOM      7  C   UNL A   1      36.861  22.701  25.331  1.00  0.00     0.081 C 
ATOM      8  N   UNL A   1      34.461  23.405  23.889  1.00  0.00    -0.198 NA
ATOM      9  C   UNL A   1      34.322  22.833  25.246  1.00  0.00     0.103 C 
ATOM     10  C   UNL A   1      35.696  23.171  23.111  1.00  0.00     0.103 C 
ATOM     11  C   UNL A   1      35.569  22.999  26.083  1.00  0.00     0.030 C 
ATOM     12  C   UNL A   1      36.958  23.301  23.932  1.00  0.00     0.030 C 
BRANCH   8  13
ATOM     13  S   UNL A   1      33.011  23.398  22.952  1.00  0.00     0.243 S 
ATOM     14  O   UNL A   1      32.101  22.468  23.571  1.00  0.00    -0.207 OA
ATOM     15  O   UNL A   1      33.401  23.337  21.557  1.00  0.00    -0.207 OA
BRANCH  13  16
ATOM     16  C   UNL A   1      32.287  25.016  23.173  1.00  0.00     0.085 A 
ATOM     17  C   UNL A   1      31.716  30.346  25.812  1.00  0.00     0.088 C 
ATOM     18  C   UNL A   1      31.757  29.085  25.035  1.00  0.00     0.106 A 
ATOM     19  N   UNL A   1      32.588  28.087  25.265  1.00  0.00    -0.233 NA
ATOM     20  N   UNL A   1      30.925  28.797  23.974  1.00  0.00    -0.325 N 
ATOM     21  C   UNL A   1      32.268  27.106  24.364  1.00  0.00     0.090 A 
ATOM     22  C   UNL A   1      31.218  27.521  23.553  1.00  0.00     0.068 A 
ATOM     23  C   UNL A   1      32.825  25.830  24.183  1.00  0.00     0.052 A 
ATOM     24  C   UNL A   1      30.666  26.716  22.562  1.00  0.00     0.030 A 
ATOM     25  C   UNL A   1      31.227  25.462  22.384  1.00  0.00     0.024 A 
BRANCH  20  26
ATOM     26  C   UNL A   1      29.903  29.656  23.403  1.00  0.00     0.089 C 
ATOM     27  C   UNL A   1      30.142  30.047  21.940  1.00  0.00     0.025 C 
ATOM     28  C   UNL A   1      28.501  29.038  23.415  1.00  0.00     0.025 C 
ATOM     29  C   UNL A   1      28.771  30.462  21.431  1.00  0.00     0.002 C 
ATOM     30  C   UNL A   1      27.747  29.695  22.263  1.00  0.00     0.002 C 
ENDBRANCH  20  26
ENDBRANCH  13  16
ENDBRANCH   8  13
ENDBRANCH   4   7
ENDBRANCH   2   3
ENDBRANCH   1   2
BRANCH   1  31
ATOM     31  C   UNL A   1      41.660  21.514  26.764  1.00  0.00     0.118 C 
BRANCH  31  32
ATOM     32  N   UNL A   1      42.380  22.262  25.757  1.00  0.00    -0.352 N 
ATOM     33  C   UNL A   1      42.648  23.584  25.555  1.00  0.00     0.251 C 
ATOM     34  H   UNL A   1      42.764  21.685  25.057  1.00  0.00     0.163 HD
ATOM     35  O   UNL A   1      43.411  23.837  24.619  1.00  0.00    -0.269 OA
BRANCH  33  36
ATOM     36  C   UNL A   1      42.027  24.707  26.305  1.00  0.00     0.039 A 
ATOM     37  C   UNL A   1      41.182  25.684  25.773  1.00  0.00     0.014 A 
ATOM     38  C   UNL A   1      42.439  24.827  27.645  1.00  0.00     0.014 A 
ATOM     39  C   UNL A   1      40.904  26.837  26.498  1.00  0.00     0.010 A 
ATOM     40  C   UNL A   1      42.135  25.957  28.385  1.00  0.00     0.010 A 
ATOM     41  C   UNL A   1      41.442  26.996  27.775  1.00  0.00    -0.014 A 
BRANCH  41  42
ATOM     42  C   UNL A   1      41.232  28.257  28.471  1.00  0.00     0.031 A 
ATOM     43  C   UNL A   1      42.288  29.287  28.247  1.00  0.00     0.074 A 
ATOM     44  C   UNL A   1      40.103  28.493  29.173  1.00  0.00     0.049 A 
ATOM     45  N   UNL A   1      43.022  29.888  29.123  1.00  0.00    -0.248 NA
ATOM     46  C   UNL A   1      42.650  29.602  26.854  1.00  0.00     0.031 C 
ATOM     47  C   UNL A   1      38.886  27.677  29.259  1.00  0.00     0.029 A 
ATOM     48  N   UNL A   1      39.764  29.598  29.885  1.00  0.00    -0.354 N 
ATOM     49  C   UNL A   1      43.840  30.771  28.418  1.00  0.00     0.074 A 
ATOM     50  C   UNL A   1      43.647  30.473  27.022  1.00  0.00     0.031 C 
ATOM     51  C   UNL A   1      37.872  28.429  29.749  1.00  0.00     0.029 A 
ATOM     52  C   UNL A   1      38.406  29.714  30.164  1.00  0.00     0.049 A 
ATOM     53  H   UNL A   1      40.426  30.264  30.181  1.00  0.00     0.167 HD
ATOM     54  C   UNL A   1      44.517  31.787  29.025  1.00  0.00     0.031 A 
ATOM     55  C   UNL A   1      37.769  30.814  30.646  1.00  0.00     0.031 A 
ATOM     56  C   UNL A   1      44.609  31.588  30.443  1.00  0.00     0.049 A 
ATOM     57  C   UNL A   1      38.814  31.661  31.278  1.00  0.00     0.074 A 
ATOM     58  C   UNL A   1      45.265  30.678  31.246  1.00  0.00     0.029 A 
ATOM     59  N   UNL A   1      43.649  32.171  31.234  1.00  0.00    -0.354 N 
ATOM     60  N   UNL A   1      39.494  31.296  32.329  1.00  0.00    -0.248 NA
ATOM     61  C   UNL A   1      39.430  32.691  30.454  1.00  0.00     0.031 C 
ATOM     62  C   UNL A   1      44.351  30.403  32.300  1.00  0.00     0.029 A 
ATOM     63  C   UNL A   1      43.229  31.219  32.127  1.00  0.00     0.049 A 
ATOM     64  H   UNL A   1      43.323  33.099  31.170  1.00  0.00     0.167 HD
ATOM     65  C   UNL A   1      40.789  31.727  32.079  1.00  0.00     0.074 A 
ATOM     66  C   UNL A   1      40.673  32.637  30.938  1.00  0.00     0.031 C 
ATOM     67  C   UNL A   1      41.873  31.104  32.627  1.00  0.00     0.031 A 
BRANCH  54  68
ATOM     68  C   UNL A   1      44.869  33.098  28.372  1.00  0.00    -0.014 A 
ATOM     69  C   UNL A   1      43.944  34.148  28.208  1.00  0.00     0.010 A 
ATOM     70  C   UNL A   1      46.226  33.402  28.129  1.00  0.00     0.010 A 
ATOM     71  C   UNL A   1      44.340  35.430  27.818  1.00  0.00     0.020 A 
ATOM     72  C   UNL A   1      46.640  34.694  27.776  1.00  0.00     0.020 A 
ATOM     73  C   UNL A   1      45.690  35.700  27.619  1.00  0.00     0.054 A 
BRANCH  73  74
ATOM     74  S   UNL A   1      46.174  37.399  27.224  1.00  0.00     0.124 S 
ATOM     75  O   UNL A   1      47.057  37.200  26.077  1.00  0.00    -0.237 OA
ATOM     76  O   UNL A   1      44.890  38.029  26.928  1.00  0.00    -0.237 OA
ATOM     77  O   UNL A   1      46.829  37.864  28.443  1.00  0.00    -0.744 OA
ENDBRANCH  73  74
ENDBRANCH  54  68
BRANCH  55  78
ATOM     78  C   UNL A   1      36.495  31.397  30.136  1.00  0.00    -0.014 A 
ATOM     79  C   UNL A   1      36.372  31.718  28.768  1.00  0.00     0.010 A 
ATOM     80  C   UNL A   1      35.543  31.943  31.022  1.00  0.00     0.010 A 
ATOM     81  C   UNL A   1      35.398  32.614  28.312  1.00  0.00     0.020 A 
ATOM     82  C   UNL A   1      34.558  32.842  30.569  1.00  0.00     0.020 A 
ATOM     83  C   UNL A   1      34.519  33.202  29.221  1.00  0.00     0.054 A 
BRANCH  83  84
ATOM     84  S   UNL A   1      33.407  34.509  28.620  1.00  0.00     0.124 S 
ATOM     85  O   UNL A   1      34.348  35.465  28.041  1.00  0.00    -0.237 OA
ATOM     86  O   UNL A   1      32.569  33.796  27.659  1.00  0.00    -0.237 OA
ATOM     87  O   UNL A   1      32.719  34.963  29.825  1.00  0.00    -0.744 OA
ENDBRANCH  83  84
ENDBRANCH  55  78
BRANCH  67  88
ATOM     88  C   UNL A   1      41.659  30.021  33.666  1.00  0.00    -0.014 A 
ATOM     89  C   UNL A   1      41.995  30.340  34.994  1.00  0.00     0.010 A 
ATOM     90  C   UNL A   1      41.415  28.670  33.340  1.00  0.00     0.010 A 
ATOM     91  C   UNL A   1      42.156  29.340  35.953  1.00  0.00     0.020 A 
ATOM     92  C   UNL A   1      41.550  27.662  34.309  1.00  0.00     0.020 A 
ATOM     93  C   UNL A   1      41.955  28.005  35.602  1.00  0.00     0.054 A 
BRANCH  93  94
ATOM     94  S   UNL A   1      42.289  26.739  36.857  1.00  0.00     0.124 S 
ATOM     95  O   UNL A   1      43.403  27.332  37.595  1.00  0.00    -0.237 OA
ATOM     96  O   UNL A   1      41.024  26.673  37.589  1.00  0.00    -0.237 OA
ATOM     97  O   UNL A   1      42.614  25.551  36.074  1.00  0.00    -0.744 OA
ENDBRANCH  93  94
ENDBRANCH  67  88
ENDBRANCH  41  42
ENDBRANCH  33  36
ENDBRANCH  31  32
ENDBRANCH   1  31
TORSDOF 16
ENDMDL
MODEL 2
REMARK VINA RESULT:     -12.9      2.943      9.697
REMARK SMILES Cc1nc2cc(S(=O)(=O)N3CCC(C(=O)NCCCNC(=O)c4ccc(-c5c6nc(c(-c7ccc(S(=O)(=O)[O-])cc7)c7ccc([nH]7)c(-c7ccc(S(=O)(=O)[O-])cc7)c7nc(c(-c8ccc(S(=O)(=O)[O-])cc8)c8ccc5[nH]8)C=C7)C=C6)cc4)CC3)ccc2n1C1CCCC1
REMARK SMILES IDX 18 1 17 2 16 3 14 4 15 5 13 7 10 8 11 9 84 10 12 11 83 12
REMARK SMILES IDX 7 13 8 14 9 15 6 16 1 17 2 18 3 19 88 20 4 21 87 22 5 23
REMARK SMILES IDX 86 24 85 25 89 26 90 27 93 28 91 29 92 30 19 31 20 32 21 33
REMARK SMILES IDX 22 35 23 36 24 37 82 38 25 39 81 40 26 41 27 42 28 43 75 44
REMARK SMILES IDX 29 45 80 46 74 47 76 48 30 49 79 50 73 51 72 52 31 54 61 55
REMARK SMILES IDX 42 56 60 57 43 58 46 59 59 60 77 61 44 62 45 63 58 65 78 66
REMARK SMILES IDX 47 67 32 68 33 69 41 70 34 71 40 72 35 73 36 74 37 75 38 76
REMARK SMILES IDX 39 77 62 78 63 79 71 80 64 81 70 82 65 83 66 84 67 85 68 86
REMARK SMILES IDX 69 87 48 88 49 89 57 90 50 91 56 92 51 93 52 94 53 95 54 96
REMARK SMILES IDX 55 97
REMARK H PARENT 16 6 20 34 76 53 46 64
REMARK Flexibility Score: inf
ROOT
ATOM      1  C   UNL A   1      35.880  30.850  27.671  1.00  0.00     0.042 C 
ENDROOT
BRANCH   1   2
ATOM      2  C   UNL A   1      34.858  29.755  27.964  1.00  0.00     0.117 C 
BRANCH   2   3
ATOM      3  N   UNL A   1      33.486  30.204  27.741  1.00  0.00    -0.356 N 
ATOM      4  C   UNL A   1      32.533  29.788  26.866  1.00  0.00     0.223 C 
ATOM      5  O   UNL A   1      31.443  30.363  26.872  1.00  0.00    -0.275 OA
ATOM      6  H   UNL A   1      33.201  30.939  28.330  1.00  0.00     0.163 HD
BRANCH   4   7
ATOM      7  C   UNL A   1      32.787  28.631  25.917  1.00  0.00     0.081 C 
ATOM      8  N   UNL A   1      32.434  27.389  23.335  1.00  0.00    -0.198 NA
ATOM      9  C   UNL A   1      31.619  26.898  24.468  1.00  0.00     0.103 C 
ATOM     10  C   UNL A   1      33.699  28.110  23.593  1.00  0.00     0.103 C 
ATOM     11  C   UNL A   1      31.485  27.914  25.578  1.00  0.00     0.030 C 
ATOM     12  C   UNL A   1      33.602  29.111  24.720  1.00  0.00     0.030 C 
BRANCH   8  13
ATOM     13  S   UNL A   1      32.474  26.338  21.966  1.00  0.00     0.243 S 
ATOM     14  O   UNL A   1      33.684  26.623  21.238  1.00  0.00    -0.207 OA
ATOM     15  O   UNL A   1      31.153  26.356  21.372  1.00  0.00    -0.207 OA
BRANCH  13  16
ATOM     16  C   UNL A   1      32.675  24.691  22.628  1.00  0.00     0.085 A 
ATOM     17  C   UNL A   1      35.788  20.204  25.052  1.00  0.00     0.088 C 
ATOM     18  C   UNL A   1      34.876  21.227  24.488  1.00  0.00     0.106 A 
ATOM     19  N   UNL A   1      35.237  22.449  24.146  1.00  0.00    -0.233 NA
ATOM     20  N   UNL A   1      33.535  21.025  24.246  1.00  0.00    -0.325 N 
ATOM     21  C   UNL A   1      34.120  23.049  23.630  1.00  0.00     0.090 A 
ATOM     22  C   UNL A   1      33.042  22.172  23.668  1.00  0.00     0.068 A 
ATOM     23  C   UNL A   1      33.949  24.339  23.103  1.00  0.00     0.052 A 
ATOM     24  C   UNL A   1      31.781  22.505  23.184  1.00  0.00     0.030 A 
ATOM     25  C   UNL A   1      31.619  23.782  22.673  1.00  0.00     0.024 A 
BRANCH  20  26
ATOM     26  C   UNL A   1      32.766  19.825  24.519  1.00  0.00     0.089 C 
ATOM     27  C   UNL A   1      33.073  18.644  23.590  1.00  0.00     0.025 C 
ATOM     28  C   UNL A   1      32.970  19.269  25.932  1.00  0.00     0.025 C 
ATOM     29  C   UNL A   1      32.587  17.424  24.356  1.00  0.00     0.002 C 
ATOM     30  C   UNL A   1      32.679  17.775  25.839  1.00  0.00     0.002 C 
ENDBRANCH  20  26
ENDBRANCH  13  16
ENDBRANCH   8  13
ENDBRANCH   4   7
ENDBRANCH   2   3
ENDBRANCH   1   2
BRANCH   1  31
ATOM     31  C   UNL A   1      35.392  32.244  28.049  1.00  0.00     0.118 C 
BRANCH  31  32
ATOM     32  N   UNL A   1      34.956  32.354  29.424  1.00  0.00    -0.352 N 
ATOM     33  C   UNL A   1      35.532  32.097  30.633  1.00  0.00     0.251 C 
ATOM     34  H   UNL A   1      34.034  32.690  29.505  1.00  0.00     0.163 HD
ATOM     35  O   UNL A   1      34.870  32.430  31.620  1.00  0.00    -0.269 OA
BRANCH  33  36
ATOM     36  C   UNL A   1      36.819  31.382  30.834  1.00  0.00     0.039 A 
ATOM     37  C   UNL A   1      38.095  31.932  30.694  1.00  0.00     0.014 A 
ATOM     38  C   UNL A   1      36.701  30.002  31.079  1.00  0.00     0.014 A 
ATOM     39  C   UNL A   1      39.209  31.102  30.620  1.00  0.00     0.010 A 
ATOM     40  C   UNL A   1      37.811  29.175  31.043  1.00  0.00     0.010 A 
ATOM     41  C   UNL A   1      39.048  29.721  30.725  1.00  0.00    -0.014 A 
BRANCH  41  42
ATOM     42  C   UNL A   1      40.210  28.865  30.533  1.00  0.00     0.031 A 
ATOM     43  C   UNL A   1      40.961  28.529  31.779  1.00  0.00     0.074 A 
ATOM     44  C   UNL A   1      40.503  28.336  29.326  1.00  0.00     0.049 A 
ATOM     45  N   UNL A   1      42.206  28.741  32.047  1.00  0.00    -0.248 NA
ATOM     46  C   UNL A   1      40.193  27.990  32.915  1.00  0.00     0.031 C 
ATOM     47  C   UNL A   1      39.712  28.374  28.090  1.00  0.00     0.029 A 
ATOM     48  N   UNL A   1      41.548  27.541  28.980  1.00  0.00    -0.354 N 
ATOM     49  C   UNL A   1      42.429  28.231  33.326  1.00  0.00     0.074 A 
ATOM     50  C   UNL A   1      41.135  27.883  33.854  1.00  0.00     0.031 C 
ATOM     51  C   UNL A   1      40.168  27.428  27.234  1.00  0.00     0.029 A 
ATOM     52  C   UNL A   1      41.375  26.842  27.789  1.00  0.00     0.049 A 
ATOM     53  H   UNL A   1      42.362  27.465  29.527  1.00  0.00     0.167 HD
ATOM     54  C   UNL A   1      43.680  27.996  33.814  1.00  0.00     0.031 A 
ATOM     55  C   UNL A   1      42.143  25.817  27.333  1.00  0.00     0.031 A 
ATOM     56  C   UNL A   1      44.683  28.688  33.054  1.00  0.00     0.049 A 
ATOM     57  C   UNL A   1      43.441  25.913  28.050  1.00  0.00     0.074 A 
ATOM     58  C   UNL A   1      45.007  30.016  32.877  1.00  0.00     0.029 A 
ATOM     59  N   UNL A   1      45.292  28.006  32.029  1.00  0.00    -0.354 N 
ATOM     60  N   UNL A   1      44.266  26.914  27.908  1.00  0.00    -0.248 NA
ATOM     61  C   UNL A   1      43.588  25.143  29.276  1.00  0.00     0.031 C 
ATOM     62  C   UNL A   1      45.356  30.121  31.501  1.00  0.00     0.029 A 
ATOM     63  C   UNL A   1      45.306  28.841  30.941  1.00  0.00     0.049 A 
ATOM     64  H   UNL A   1      45.650  27.089  32.068  1.00  0.00     0.167 HD
ATOM     65  C   UNL A   1      44.743  27.161  29.187  1.00  0.00     0.074 A 
ATOM     66  C   UNL A   1      44.338  25.996  29.976  1.00  0.00     0.031 C 
ATOM     67  C   UNL A   1      45.174  28.400  29.567  1.00  0.00     0.031 A 
BRANCH  54  68
ATOM     68  C   UNL A   1      44.027  26.927  34.818  1.00  0.00    -0.014 A 
ATOM     69  C   UNL A   1      43.728  25.564  34.623  1.00  0.00     0.010 A 
ATOM     70  C   UNL A   1      44.898  27.242  35.883  1.00  0.00     0.010 A 
ATOM     71  C   UNL A   1      44.258  24.565  35.445  1.00  0.00     0.020 A 
ATOM     72  C   UNL A   1      45.467  26.246  36.689  1.00  0.00     0.020 A 
ATOM     73  C   UNL A   1      45.138  24.911  36.464  1.00  0.00     0.054 A 
BRANCH  73  74
ATOM     74  S   UNL A   1      45.890  23.580  37.434  1.00  0.00     0.124 S 
ATOM     75  O   UNL A   1      45.418  22.392  36.728  1.00  0.00    -0.237 OA
ATOM     76  O   UNL A   1      47.316  23.865  37.304  1.00  0.00    -0.237 OA
ATOM     77  O   UNL A   1      45.336  23.773  38.772  1.00  0.00    -0.744 OA
ENDBRANCH  73  74
ENDBRANCH  54  68
BRANCH  55  78
ATOM     78  C   UNL A   1      41.655  24.524  26.772  1.00  0.00    -0.014 A 
ATOM     79  C   UNL A   1      40.493  23.927  27.303  1.00  0.00     0.010 A 
ATOM     80  C   UNL A   1      42.492  23.723  25.968  1.00  0.00     0.010 A 
ATOM     81  C   UNL A   1      40.220  22.566  27.116  1.00  0.00     0.020 A 
ATOM     82  C   UNL A   1      42.221  22.355  25.772  1.00  0.00     0.020 A 
ATOM     83  C   UNL A   1      41.107  21.777  26.383  1.00  0.00     0.054 A 
BRANCH  83  84
ATOM     84  S   UNL A   1      40.823  19.982  26.336  1.00  0.00     0.124 S 
ATOM     85  O   UNL A   1      41.923  19.523  25.491  1.00  0.00    -0.237 OA
ATOM     86  O   UNL A   1      40.919  19.608  27.745  1.00  0.00    -0.237 OA
ATOM     87  O   UNL A   1      39.491  19.855  25.751  1.00  0.00    -0.744 OA
ENDBRANCH  83  84
ENDBRANCH  55  78
BRANCH  67  88
ATOM     88  C   UNL A   1      45.295  29.495  28.525  1.00  0.00    -0.014 A 
ATOM     89  C   UNL A   1      46.589  29.975  28.255  1.00  0.00     0.010 A 
ATOM     90  C   UNL A   1      44.191  30.224  28.034  1.00  0.00     0.010 A 
ATOM     91  C   UNL A   1      46.780  31.182  27.582  1.00  0.00     0.020 A 
ATOM     92  C   UNL A   1      44.380  31.427  27.332  1.00  0.00     0.020 A 
ATOM     93  C   UNL A   1      45.676  31.913  27.143  1.00  0.00     0.054 A 
BRANCH  93  94
ATOM     94  S   UNL A   1      45.980  33.528  26.377  1.00  0.00     0.124 S 
ATOM     95  O   UNL A   1      45.044  33.511  25.255  1.00  0.00    -0.237 OA
ATOM     96  O   UNL A   1      45.644  34.460  27.453  1.00  0.00    -0.237 OA
ATOM     97  O   UNL A   1      47.394  33.481  26.018  1.00  0.00    -0.744 OA
ENDBRANCH  93  94
ENDBRANCH  67  88
ENDBRANCH  41  42
ENDBRANCH  33  36
ENDBRANCH  31  32
ENDBRANCH   1  31
TORSDOF 16
ENDMDL
MODEL 3
REMARK VINA RESULT:     -12.7      2.526      9.921
REMARK SMILES Cc1nc2cc(S(=O)(=O)N3CCC(C(=O)NCCCNC(=O)c4ccc(-c5c6nc(c(-c7ccc(S(=O)(=O)[O-])cc7)c7ccc([nH]7)c(-c7ccc(S(=O)(=O)[O-])cc7)c7nc(c(-c8ccc(S(=O)(=O)[O-])cc8)c8ccc5[nH]8)C=C7)C=C6)cc4)CC3)ccc2n1C1CCCC1
REMARK SMILES IDX 18 1 17 2 16 3 14 4 15 5 13 7 10 8 11 9 84 10 12 11 83 12
REMARK SMILES IDX 7 13 8 14 9 15 6 16 1 17 2 18 3 19 88 20 4 21 87 22 5 23
REMARK SMILES IDX 86 24 85 25 89 26 90 27 93 28 91 29 92 30 19 31 20 32 21 33
REMARK SMILES IDX 22 35 23 36 24 37 82 38 25 39 81 40 26 41 27 42 28 43 75 44
REMARK SMILES IDX 29 45 80 46 74 47 76 48 30 49 79 50 73 51 72 52 31 54 61 55
REMARK SMILES IDX 42 56 60 57 43 58 46 59 59 60 77 61 44 62 45 63 58 65 78 66
REMARK SMILES IDX 47 67 32 68 33 69 41 70 34 71 40 72 35 73 36 74 37 75 38 76
REMARK SMILES IDX 39 77 62 78 63 79 71 80 64 81 70 82 65 83 66 84 67 85 68 86
REMARK SMILES IDX 69 87 48 88 49 89 57 90 50 91 56 92 51 93 52 94 53 95 54 96
REMARK SMILES IDX 55 97
REMARK H PARENT 16 6 20 34 76 53 46 64
REMARK Flexibility Score: inf
ROOT
ATOM      1  C   UNL A   1      32.440  30.154  25.924  1.00  0.00     0.042 C 
ENDROOT
BRANCH   1   2
ATOM      2  C   UNL A   1      32.437  29.202  24.732  1.00  0.00     0.117 C 
BRANCH   2   3
ATOM      3  N   UNL A   1      31.549  29.656  23.663  1.00  0.00    -0.356 N 
ATOM      4  C   UNL A   1      30.734  28.971  22.817  1.00  0.00     0.223 C 
ATOM      5  O   UNL A   1      30.096  29.609  21.977  1.00  0.00    -0.275 OA
ATOM      6  H   UNL A   1      31.540  30.632  23.532  1.00  0.00     0.163 HD
BRANCH   4   7
ATOM      7  C   UNL A   1      30.589  27.464  22.913  1.00  0.00     0.081 C 
ATOM      8  N   UNL A   1      31.484  24.926  23.957  1.00  0.00    -0.198 NA
ATOM      9  C   UNL A   1      31.839  25.277  22.564  1.00  0.00     0.103 C 
ATOM     10  C   UNL A   1      30.333  25.580  24.614  1.00  0.00     0.103 C 
ATOM     11  C   UNL A   1      31.800  26.765  22.306  1.00  0.00     0.030 C 
ATOM     12  C   UNL A   1      30.251  27.065  24.346  1.00  0.00     0.030 C 
BRANCH   8  13
ATOM     13  S   UNL A   1      31.682  23.258  24.353  1.00  0.00     0.243 S 
ATOM     14  O   UNL A   1      31.426  22.495  23.157  1.00  0.00    -0.207 OA
ATOM     15  O   UNL A   1      31.005  23.031  25.614  1.00  0.00    -0.207 OA
BRANCH  13  16
ATOM     16  C   UNL A   1      33.421  23.049  24.705  1.00  0.00     0.085 A 
ATOM     17  C   UNL A   1      38.473  19.899  25.221  1.00  0.00     0.088 C 
ATOM     18  C   UNL A   1      37.316  20.820  25.107  1.00  0.00     0.106 A 
ATOM     19  N   UNL A   1      36.103  20.460  24.737  1.00  0.00    -0.233 NA
ATOM     20  N   UNL A   1      37.367  22.170  25.379  1.00  0.00    -0.325 N 
ATOM     21  C   UNL A   1      35.329  21.588  24.807  1.00  0.00     0.090 A 
ATOM     22  C   UNL A   1      36.096  22.671  25.222  1.00  0.00     0.068 A 
ATOM     23  C   UNL A   1      33.963  21.764  24.538  1.00  0.00     0.052 A 
ATOM     24  C   UNL A   1      35.565  23.944  25.407  1.00  0.00     0.030 A 
ATOM     25  C   UNL A   1      34.219  24.111  25.132  1.00  0.00     0.024 A 
BRANCH  20  26
ATOM     26  C   UNL A   1      38.529  22.940  25.783  1.00  0.00     0.089 C 
ATOM     27  C   UNL A   1      38.220  24.131  26.696  1.00  0.00     0.025 C 
ATOM     28  C   UNL A   1      39.574  22.124  26.551  1.00  0.00     0.025 C 
ATOM     29  C   UNL A   1      39.543  24.435  27.383  1.00  0.00     0.002 C 
ATOM     30  C   UNL A   1      40.321  23.123  27.428  1.00  0.00     0.002 C 
ENDBRANCH  20  26
ENDBRANCH  13  16
ENDBRANCH   8  13
ENDBRANCH   4   7
ENDBRANCH   2   3
ENDBRANCH   1   2
BRANCH   1  31
ATOM     31  C   UNL A   1      33.375  29.712  27.043  1.00  0.00     0.118 C 
BRANCH  31  32
ATOM     32  N   UNL A   1      33.668  30.756  28.001  1.00  0.00    -0.352 N 
ATOM     33  C   UNL A   1      34.812  31.278  28.528  1.00  0.00     0.251 C 
ATOM     34  H   UNL A   1      32.855  31.187  28.354  1.00  0.00     0.163 HD
ATOM     35  O   UNL A   1      34.664  32.265  29.255  1.00  0.00    -0.269 OA
BRANCH  33  36
ATOM     36  C   UNL A   1      36.172  30.699  28.365  1.00  0.00     0.039 A 
ATOM     37  C   UNL A   1      36.467  29.375  28.032  1.00  0.00     0.014 A 
ATOM     38  C   UNL A   1      37.231  31.566  28.689  1.00  0.00     0.014 A 
ATOM     39  C   UNL A   1      37.758  28.885  28.194  1.00  0.00     0.010 A 
ATOM     40  C   UNL A   1      38.525  31.093  28.817  1.00  0.00     0.010 A 
ATOM     41  C   UNL A   1      38.764  29.734  28.654  1.00  0.00    -0.014 A 
BRANCH  41  42
ATOM     42  C   UNL A   1      40.082  29.175  28.924  1.00  0.00     0.031 A 
ATOM     43  C   UNL A   1      40.496  29.196  30.357  1.00  0.00     0.074 A 
ATOM     44  C   UNL A   1      40.809  28.586  27.950  1.00  0.00     0.049 A 
ATOM     45  N   UNL A   1      41.542  29.743  30.882  1.00  0.00    -0.248 NA
ATOM     46  C   UNL A   1      39.562  28.632  31.347  1.00  0.00     0.031 C 
ATOM     47  C   UNL A   1      40.415  28.270  26.572  1.00  0.00     0.029 A 
ATOM     48  N   UNL A   1      42.049  28.038  28.033  1.00  0.00    -0.354 N 
ATOM     49  C   UNL A   1      41.488  29.470  32.250  1.00  0.00     0.074 A 
ATOM     50  C   UNL A   1      40.196  28.882  32.494  1.00  0.00     0.031 C 
ATOM     51  C   UNL A   1      41.280  27.366  26.052  1.00  0.00     0.029 A 
ATOM     52  C   UNL A   1      42.370  27.173  26.992  1.00  0.00     0.049 A 
ATOM     53  H   UNL A   1      42.670  28.236  28.771  1.00  0.00     0.167 HD
ATOM     54  C   UNL A   1      42.568  29.616  33.069  1.00  0.00     0.031 A 
ATOM     55  C   UNL A   1      43.428  26.321  26.945  1.00  0.00     0.031 A 
ATOM     56  C   UNL A   1      43.583  30.433  32.467  1.00  0.00     0.049 A 
ATOM     57  C   UNL A   1      44.419  26.826  27.930  1.00  0.00     0.074 A 
ATOM     58  C   UNL A   1      43.667  31.767  32.127  1.00  0.00     0.029 A 
ATOM     59  N   UNL A   1      44.586  29.798  31.774  1.00  0.00    -0.354 N 
ATOM     60  N   UNL A   1      45.028  27.973  27.812  1.00  0.00    -0.248 NA
ATOM     61  C   UNL A   1      44.362  26.277  29.278  1.00  0.00     0.031 C 
ATOM     62  C   UNL A   1      44.366  31.779  30.888  1.00  0.00     0.029 A 
ATOM     63  C   UNL A   1      44.740  30.466  30.586  1.00  0.00     0.049 A 
ATOM     64  H   UNL A   1      45.096  29.011  32.074  1.00  0.00     0.167 HD
ATOM     65  C   UNL A   1      45.058  28.491  29.099  1.00  0.00     0.074 A 
ATOM     66  C   UNL A   1      44.690  27.372  29.968  1.00  0.00     0.031 C 
ATOM     67  C   UNL A   1      45.100  29.836  29.331  1.00  0.00     0.031 A 
BRANCH  54  68
ATOM     68  C   UNL A   1      42.823  28.803  34.312  1.00  0.00    -0.014 A 
ATOM     69  C   UNL A   1      42.847  27.395  34.316  1.00  0.00     0.010 A 
ATOM     70  C   UNL A   1      43.298  29.452  35.472  1.00  0.00     0.010 A 
ATOM     71  C   UNL A   1      43.311  26.666  35.415  1.00  0.00     0.020 A 
ATOM     72  C   UNL A   1      43.803  28.732  36.564  1.00  0.00     0.020 A 
ATOM     73  C   UNL A   1      43.802  27.340  36.528  1.00  0.00     0.054 A 
BRANCH  73  74
ATOM     74  S   UNL A   1      44.497  26.362  37.883  1.00  0.00     0.124 S 
ATOM     75  O   UNL A   1      43.770  25.103  37.747  1.00  0.00    -0.237 OA
ATOM     76  O   UNL A   1      45.915  26.311  37.537  1.00  0.00    -0.237 OA
ATOM     77  O   UNL A   1      44.174  27.145  39.074  1.00  0.00    -0.744 OA
ENDBRANCH  73  74
ENDBRANCH  54  68
BRANCH  55  78
ATOM     78  C   UNL A   1      43.396  24.887  26.535  1.00  0.00    -0.014 A 
ATOM     79  C   UNL A   1      43.967  23.908  27.375  1.00  0.00     0.010 A 
ATOM     80  C   UNL A   1      43.118  24.521  25.202  1.00  0.00     0.010 A 
ATOM     81  C   UNL A   1      44.328  22.646  26.887  1.00  0.00     0.020 A 
ATOM     82  C   UNL A   1      43.474  23.252  24.705  1.00  0.00     0.020 A 
ATOM     83  C   UNL A   1      44.115  22.338  25.543  1.00  0.00     0.054 A 
BRANCH  83  84
ATOM     84  S   UNL A   1      44.781  20.771  24.905  1.00  0.00     0.124 S 
ATOM     85  O   UNL A   1      43.896  19.790  25.526  1.00  0.00    -0.237 OA
ATOM     86  O   UNL A   1      44.628  20.927  23.460  1.00  0.00    -0.237 OA
ATOM     87  O   UNL A   1      46.161  20.759  25.383  1.00  0.00    -0.744 OA
ENDBRANCH  83  84
ENDBRANCH  55  78
BRANCH  67  88
ATOM     88  C   UNL A   1      45.289  30.785  28.164  1.00  0.00    -0.014 A 
ATOM     89  C   UNL A   1      46.488  31.519  28.130  1.00  0.00     0.010 A 
ATOM     90  C   UNL A   1      44.243  31.163  27.295  1.00  0.00     0.010 A 
ATOM     91  C   UNL A   1      46.619  32.641  27.310  1.00  0.00     0.020 A 
ATOM     92  C   UNL A   1      44.381  32.277  26.448  1.00  0.00     0.020 A 
ATOM     93  C   UNL A   1      45.559  33.027  26.490  1.00  0.00     0.054 A 
BRANCH  93  94
ATOM     94  S   UNL A   1      45.743  34.556  25.533  1.00  0.00     0.124 S 
ATOM     95  O   UNL A   1      45.212  35.557  26.457  1.00  0.00    -0.237 OA
ATOM     96  O   UNL A   1      47.186  34.621  25.308  1.00  0.00    -0.237 OA
ATOM     97  O   UNL A   1      44.940  34.316  24.338  1.00  0.00    -0.744 OA
ENDBRANCH  93  94
ENDBRANCH  67  88
ENDBRANCH  41  42
ENDBRANCH  33  36
ENDBRANCH  31  32
ENDBRANCH   1  31
TORSDOF 16
ENDMDL
