MODEL 1
REMARK VINA RESULT:     -12.4      0.000      0.000
REMARK SMILES O=C(CSc1nnc(Cc2ccncc2)n1-c1ccccc1Cl)NCCCNC(=O)c1ccc(-c2c3nc(c(-c4ccc(S(=O)(=O)[O-])cc4)c4ccc([nH]4)c(-c4ccc(S(=O)(=O)[O-])cc4)c4nc(c(-c5ccc(S(=O)(=O)[O-])cc5)c5ccc2[nH]5)C=C4)C=C3)cc1
REMARK SMILES IDX 25 1 24 2 1 3 2 4 3 6 4 7 5 8 6 9 16 10 7 11 8 12 17 13
REMARK SMILES IDX 18 14 22 15 19 16 21 17 23 18 20 19 9 20 10 21 11 22 15 23
REMARK SMILES IDX 12 24 14 25 13 26 26 27 27 28 28 29 29 30 30 32 31 33 32 34
REMARK SMILES IDX 90 35 33 36 89 37 34 38 35 39 36 40 83 41 37 42 88 43 82 44
REMARK SMILES IDX 84 45 38 46 87 47 81 48 80 49 39 51 69 52 50 53 68 54 51 55
REMARK SMILES IDX 54 56 67 57 85 58 52 59 53 60 66 62 86 63 55 64 40 65 41 66
REMARK SMILES IDX 49 67 42 68 48 69 43 70 44 71 45 72 46 73 47 74 70 75 71 76
REMARK SMILES IDX 79 77 72 78 78 79 73 80 74 81 75 82 76 83 77 84 56 85 57 86
REMARK SMILES IDX 65 87 58 88 64 89 59 90 60 91 61 92 62 93 63 94
REMARK H PARENT 24 5 28 31 84 50 54 61
REMARK Flexibility Score: inf
ROOT
ATOM      1  C   UNL A   1      31.273  27.810  26.628  1.00  0.00     0.117 C 
ENDROOT
BRANCH   1   2
ATOM      2  N   UNL A   1      31.339  26.413  27.032  1.00  0.00    -0.355 N 
ATOM      3  O   UNL A   1      30.513  25.608  25.052  1.00  0.00    -0.274 OA
ATOM      4  C   UNL A   1      30.984  25.390  26.167  1.00  0.00     0.230 C 
ATOM      5  H   UNL A   1      31.642  26.189  27.943  1.00  0.00     0.163 HD
BRANCH   4   6
ATOM      6  C   UNL A   1      31.176  23.976  26.696  1.00  0.00     0.178 C 
BRANCH   6   7
ATOM      7  S   UNL A   1      31.121  22.749  25.366  1.00  0.00    -0.076 SA
BRANCH   7   8
ATOM      8  C   UNL A   1      32.765  22.191  25.310  1.00  0.00     0.196 A 
ATOM      9  N   UNL A   1      33.210  21.087  25.863  1.00  0.00    -0.123 NA
ATOM     10  N   UNL A   1      33.767  22.785  24.562  1.00  0.00    -0.272 N 
ATOM     11  N   UNL A   1      34.522  20.927  25.488  1.00  0.00    -0.134 NA
ATOM     12  C   UNL A   1      34.854  21.932  24.697  1.00  0.00     0.142 A 
BRANCH  10  13
ATOM     13  C   UNL A   1      33.650  23.886  23.683  1.00  0.00     0.068 A 
ATOM     14  C   UNL A   1      33.247  23.634  22.363  1.00  0.00     0.028 A 
ATOM     15  C   UNL A   1      33.879  25.202  24.106  1.00  0.00     0.065 A 
ATOM     16  C   UNL A   1      33.061  24.693  21.475  1.00  0.00     0.002 A 
ATOM     17  C   UNL A   1      33.654  26.257  23.217  1.00  0.00     0.023 A 
ATOM     18  Cl  UNL A   1      34.572  25.594  25.638  1.00  0.00    -0.082 Cl
ATOM     19  C   UNL A   1      33.246  26.003  21.906  1.00  0.00     0.002 A 
ENDBRANCH  10  13
BRANCH  12  20
ATOM     20  C   UNL A   1      36.195  22.121  24.067  1.00  0.00     0.113 C 
BRANCH  20  21
ATOM     21  C   UNL A   1      37.305  22.438  25.039  1.00  0.00    -0.037 A 
ATOM     22  C   UNL A   1      38.281  21.483  25.337  1.00  0.00     0.024 A 
ATOM     23  C   UNL A   1      37.410  23.701  25.632  1.00  0.00     0.024 A 
ATOM     24  C   UNL A   1      39.326  21.837  26.175  1.00  0.00     0.111 A 
ATOM     25  C   UNL A   1      38.495  23.960  26.458  1.00  0.00     0.111 A 
ATOM     26  N   UNL A   1      39.464  23.061  26.731  1.00  0.00    -0.265 NA
ENDBRANCH  20  21
ENDBRANCH  12  20
ENDBRANCH   7   8
ENDBRANCH   6   7
ENDBRANCH   4   6
ENDBRANCH   1   2
BRANCH   1  27
ATOM     27  C   UNL A   1      32.578  28.387  26.077  1.00  0.00     0.042 C 
BRANCH  27  28
ATOM     28  C   UNL A   1      33.463  29.010  27.145  1.00  0.00     0.118 C 
BRANCH  28  29
ATOM     29  N   UNL A   1      33.487  30.479  27.132  1.00  0.00    -0.352 N 
ATOM     30  C   UNL A   1      34.415  31.342  27.709  1.00  0.00     0.251 C 
ATOM     31  H   UNL A   1      32.745  30.913  26.652  1.00  0.00     0.163 HD
ATOM     32  O   UNL A   1      34.176  32.528  27.829  1.00  0.00    -0.269 OA
BRANCH  30  33
ATOM     33  C   UNL A   1      35.713  30.784  28.146  1.00  0.00     0.039 A 
ATOM     34  C   UNL A   1      36.108  29.464  27.891  1.00  0.00     0.014 A 
ATOM     35  C   UNL A   1      36.562  31.654  28.810  1.00  0.00     0.014 A 
ATOM     36  C   UNL A   1      37.404  29.067  28.237  1.00  0.00     0.010 A 
ATOM     37  C   UNL A   1      37.883  31.345  28.926  1.00  0.00     0.010 A 
ATOM     38  C   UNL A   1      38.287  30.027  28.742  1.00  0.00    -0.014 A 
BRANCH  38  39
ATOM     39  C   UNL A   1      39.678  29.761  29.086  1.00  0.00     0.031 A 
ATOM     40  C   UNL A   1      39.969  29.679  30.544  1.00  0.00     0.074 A 
ATOM     41  C   UNL A   1      40.491  29.213  28.153  1.00  0.00     0.049 A 
ATOM     42  N   UNL A   1      40.774  30.410  31.242  1.00  0.00    -0.248 NA
ATOM     43  C   UNL A   1      39.165  28.746  31.356  1.00  0.00     0.031 C 
ATOM     44  C   UNL A   1      40.153  28.882  26.756  1.00  0.00     0.029 A 
ATOM     45  N   UNL A   1      41.713  28.637  28.298  1.00  0.00    -0.354 N 
ATOM     46  C   UNL A   1      40.743  29.884  32.532  1.00  0.00     0.074 A 
ATOM     47  C   UNL A   1      39.577  29.041  32.590  1.00  0.00     0.031 C 
ATOM     48  C   UNL A   1      41.012  27.950  26.292  1.00  0.00     0.029 A 
ATOM     49  C   UNL A   1      42.048  27.740  27.284  1.00  0.00     0.049 A 
ATOM     50  H   UNL A   1      42.310  28.836  29.055  1.00  0.00     0.167 HD
ATOM     51  C   UNL A   1      41.819  29.948  33.369  1.00  0.00     0.031 A 
ATOM     52  C   UNL A   1      43.070  26.846  27.288  1.00  0.00     0.031 A 
ATOM     53  C   UNL A   1      42.844  30.812  32.844  1.00  0.00     0.049 A 
ATOM     54  C   UNL A   1      44.010  27.273  28.356  1.00  0.00     0.074 A 
ATOM     55  C   UNL A   1      42.900  32.142  32.476  1.00  0.00     0.029 A 
ATOM     56  N   UNL A   1      43.916  30.200  32.233  1.00  0.00    -0.354 N 
ATOM     57  N   UNL A   1      44.682  28.391  28.312  1.00  0.00    -0.248 NA
ATOM     58  C   UNL A   1      43.845  26.703  29.684  1.00  0.00     0.031 C 
ATOM     59  C   UNL A   1      43.695  32.159  31.293  1.00  0.00     0.029 A 
ATOM     60  C   UNL A   1      44.151  30.860  31.054  1.00  0.00     0.049 A 
ATOM     61  H   UNL A   1      44.422  29.430  32.579  1.00  0.00     0.167 HD
ATOM     62  C   UNL A   1      44.637  28.885  29.607  1.00  0.00     0.074 A 
ATOM     63  C   UNL A   1      44.209  27.752  30.428  1.00  0.00     0.031 C 
ATOM     64  C   UNL A   1      44.658  30.230  29.851  1.00  0.00     0.031 A 
BRANCH  51  65
ATOM     65  C   UNL A   1      42.126  28.930  34.445  1.00  0.00    -0.014 A 
ATOM     66  C   UNL A   1      42.487  29.390  35.729  1.00  0.00     0.010 A 
ATOM     67  C   UNL A   1      42.330  27.562  34.181  1.00  0.00     0.010 A 
ATOM     68  C   UNL A   1      43.089  28.539  36.667  1.00  0.00     0.020 A 
ATOM     69  C   UNL A   1      42.882  26.693  35.125  1.00  0.00     0.020 A 
ATOM     70  C   UNL A   1      43.294  27.197  36.350  1.00  0.00     0.054 A 
BRANCH  70  71
ATOM     71  S   UNL A   1      44.177  26.130  37.514  1.00  0.00     0.124 S 
ATOM     72  O   UNL A   1      45.566  26.355  37.131  1.00  0.00    -0.237 OA
ATOM     73  O   UNL A   1      43.774  26.682  38.805  1.00  0.00    -0.237 OA
ATOM     74  O   UNL A   1      43.653  24.797  37.220  1.00  0.00    -0.744 OA
ENDBRANCH  70  71
ENDBRANCH  51  65
BRANCH  52  75
ATOM     75  C   UNL A   1      43.150  25.518  26.622  1.00  0.00    -0.014 A 
ATOM     76  C   UNL A   1      43.560  25.399  25.281  1.00  0.00     0.010 A 
ATOM     77  C   UNL A   1      43.072  24.334  27.385  1.00  0.00     0.010 A 
ATOM     78  C   UNL A   1      43.939  24.154  24.743  1.00  0.00     0.020 A 
ATOM     79  C   UNL A   1      43.438  23.090  26.855  1.00  0.00     0.020 A 
ATOM     80  C   UNL A   1      43.898  23.009  25.543  1.00  0.00     0.054 A 
BRANCH  80  81
ATOM     81  S   UNL A   1      44.574  21.444  24.909  1.00  0.00     0.124 S 
ATOM     82  O   UNL A   1      44.695  21.711  23.479  1.00  0.00    -0.237 OA
ATOM     83  O   UNL A   1      45.833  21.324  25.639  1.00  0.00    -0.237 OA
ATOM     84  O   UNL A   1      43.557  20.459  25.274  1.00  0.00    -0.744 OA
ENDBRANCH  80  81
ENDBRANCH  52  75
BRANCH  64  85
ATOM     85  C   UNL A   1      44.992  31.164  28.709  1.00  0.00    -0.014 A 
ATOM     86  C   UNL A   1      44.070  31.540  27.711  1.00  0.00     0.010 A 
ATOM     87  C   UNL A   1      46.229  31.828  28.758  1.00  0.00     0.010 A 
ATOM     88  C   UNL A   1      44.386  32.541  26.780  1.00  0.00     0.020 A 
ATOM     89  C   UNL A   1      46.544  32.839  27.846  1.00  0.00     0.020 A 
ATOM     90  C   UNL A   1      45.622  33.187  26.857  1.00  0.00     0.054 A 
BRANCH  90  91
ATOM     91  S   UNL A   1      46.004  34.526  25.693  1.00  0.00     0.124 S 
ATOM     92  O   UNL A   1      45.108  34.239  24.576  1.00  0.00    -0.237 OA
ATOM     93  O   UNL A   1      45.686  35.727  26.464  1.00  0.00    -0.237 OA
ATOM     94  O   UNL A   1      47.427  34.344  25.408  1.00  0.00    -0.744 OA
ENDBRANCH  90  91
ENDBRANCH  64  85
ENDBRANCH  38  39
ENDBRANCH  30  33
ENDBRANCH  28  29
ENDBRANCH  27  28
ENDBRANCH   1  27
TORSDOF 18
ENDMDL
MODEL 2
REMARK VINA RESULT:     -12.1      2.652      9.397
REMARK SMILES O=C(CSc1nnc(Cc2ccncc2)n1-c1ccccc1Cl)NCCCNC(=O)c1ccc(-c2c3nc(c(-c4ccc(S(=O)(=O)[O-])cc4)c4ccc([nH]4)c(-c4ccc(S(=O)(=O)[O-])cc4)c4nc(c(-c5ccc(S(=O)(=O)[O-])cc5)c5ccc2[nH]5)C=C4)C=C3)cc1
REMARK SMILES IDX 25 1 24 2 1 3 2 4 3 6 4 7 5 8 6 9 16 10 7 11 8 12 17 13
REMARK SMILES IDX 18 14 22 15 19 16 21 17 23 18 20 19 9 20 10 21 11 22 15 23
REMARK SMILES IDX 12 24 14 25 13 26 26 27 27 28 28 29 29 30 30 32 31 33 32 34
REMARK SMILES IDX 90 35 33 36 89 37 34 38 35 39 36 40 83 41 37 42 88 43 82 44
REMARK SMILES IDX 84 45 38 46 87 47 81 48 80 49 39 51 69 52 50 53 68 54 51 55
REMARK SMILES IDX 54 56 67 57 85 58 52 59 53 60 66 62 86 63 55 64 40 65 41 66
REMARK SMILES IDX 49 67 42 68 48 69 43 70 44 71 45 72 46 73 47 74 70 75 71 76
REMARK SMILES IDX 79 77 72 78 78 79 73 80 74 81 75 82 76 83 77 84 56 85 57 86
REMARK SMILES IDX 65 87 58 88 64 89 59 90 60 91 61 92 62 93 63 94
REMARK H PARENT 24 5 28 31 84 50 54 61
REMARK Flexibility Score: inf
ROOT
ATOM      1  C   UNL A   1      37.595  23.219  25.230  1.00  0.00     0.117 C 
ENDROOT
BRANCH   1   2
ATOM      2  N   UNL A   1      36.169  23.197  24.940  1.00  0.00    -0.355 N 
ATOM      3  O   UNL A   1      36.443  23.048  22.671  1.00  0.00    -0.274 OA
ATOM      4  C   UNL A   1      35.694  23.064  23.645  1.00  0.00     0.230 C 
ATOM      5  H   UNL A   1      35.525  23.280  25.683  1.00  0.00     0.163 HD
BRANCH   4   6
ATOM      6  C   UNL A   1      34.181  22.978  23.498  1.00  0.00     0.178 C 
BRANCH   6   7
ATOM      7  S   UNL A   1      33.333  24.134  24.602  1.00  0.00    -0.076 SA
BRANCH   7   8
ATOM      8  C   UNL A   1      32.720  25.322  23.493  1.00  0.00     0.196 A 
ATOM      9  N   UNL A   1      32.304  25.077  22.273  1.00  0.00    -0.123 NA
ATOM     10  N   UNL A   1      32.480  26.646  23.819  1.00  0.00    -0.272 N 
ATOM     11  N   UNL A   1      31.776  26.240  21.766  1.00  0.00    -0.134 NA
ATOM     12  C   UNL A   1      31.864  27.176  22.693  1.00  0.00     0.142 A 
BRANCH  10  13
ATOM     13  C   UNL A   1      32.624  27.263  25.083  1.00  0.00     0.068 A 
ATOM     14  C   UNL A   1      33.759  28.060  25.300  1.00  0.00     0.028 A 
ATOM     15  C   UNL A   1      31.655  27.136  26.087  1.00  0.00     0.065 A 
ATOM     16  C   UNL A   1      33.916  28.736  26.509  1.00  0.00     0.002 A 
ATOM     17  C   UNL A   1      31.807  27.848  27.280  1.00  0.00     0.023 A 
ATOM     18  Cl  UNL A   1      30.338  26.024  25.993  1.00  0.00    -0.082 Cl
ATOM     19  C   UNL A   1      32.933  28.646  27.490  1.00  0.00     0.002 A 
ENDBRANCH  10  13
BRANCH  12  20
ATOM     20  C   UNL A   1      31.391  28.584  22.539  1.00  0.00     0.113 C 
BRANCH  20  21
ATOM     21  C   UNL A   1      29.902  28.766  22.713  1.00  0.00    -0.037 A 
ATOM     22  C   UNL A   1      29.267  29.912  22.227  1.00  0.00     0.024 A 
ATOM     23  C   UNL A   1      29.118  27.781  23.323  1.00  0.00     0.024 A 
ATOM     24  C   UNL A   1      27.889  30.008  22.337  1.00  0.00     0.111 A 
ATOM     25  C   UNL A   1      27.745  27.969  23.385  1.00  0.00     0.111 A 
ATOM     26  N   UNL A   1      27.110  29.054  22.893  1.00  0.00    -0.265 NA
ENDBRANCH  20  21
ENDBRANCH  12  20
ENDBRANCH   7   8
ENDBRANCH   6   7
ENDBRANCH   4   6
ENDBRANCH   1   2
BRANCH   1  27
ATOM     27  C   UNL A   1      38.187  21.881  25.673  1.00  0.00     0.042 C 
BRANCH  27  28
ATOM     28  C   UNL A   1      39.395  22.025  26.586  1.00  0.00     0.118 C 
BRANCH  28  29
ATOM     29  N   UNL A   1      40.658  21.552  26.001  1.00  0.00    -0.352 N 
ATOM     30  C   UNL A   1      41.821  22.270  25.741  1.00  0.00     0.251 C 
ATOM     31  H   UNL A   1      40.684  20.598  25.759  1.00  0.00     0.163 HD
ATOM     32  O   UNL A   1      42.695  21.809  25.031  1.00  0.00    -0.269 OA
BRANCH  30  33
ATOM     33  C   UNL A   1      41.982  23.597  26.372  1.00  0.00     0.039 A 
ATOM     34  C   UNL A   1      41.480  24.780  25.813  1.00  0.00     0.014 A 
ATOM     35  C   UNL A   1      42.640  23.622  27.590  1.00  0.00     0.014 A 
ATOM     36  C   UNL A   1      41.576  25.968  26.545  1.00  0.00     0.010 A 
ATOM     37  C   UNL A   1      42.520  24.713  28.396  1.00  0.00     0.010 A 
ATOM     38  C   UNL A   1      42.086  25.915  27.846  1.00  0.00    -0.014 A 
BRANCH  38  39
ATOM     39  C   UNL A   1      42.186  27.065  28.736  1.00  0.00     0.031 A 
ATOM     40  C   UNL A   1      43.357  27.953  28.499  1.00  0.00     0.074 A 
ATOM     41  C   UNL A   1      41.078  27.484  29.392  1.00  0.00     0.049 A 
ATOM     42  N   UNL A   1      44.312  28.253  29.316  1.00  0.00    -0.248 NA
ATOM     43  C   UNL A   1      43.559  28.478  27.136  1.00  0.00     0.031 C 
ATOM     44  C   UNL A   1      39.736  26.871  29.363  1.00  0.00     0.029 A 
ATOM     45  N   UNL A   1      40.848  28.651  30.046  1.00  0.00    -0.354 N 
ATOM     46  C   UNL A   1      45.112  29.174  28.644  1.00  0.00     0.074 A 
ATOM     47  C   UNL A   1      44.742  29.083  27.255  1.00  0.00     0.031 C 
ATOM     48  C   UNL A   1      38.814  27.788  29.722  1.00  0.00     0.029 A 
ATOM     49  C   UNL A   1      39.500  28.988  30.162  1.00  0.00     0.049 A 
ATOM     50  H   UNL A   1      41.572  29.213  30.407  1.00  0.00     0.167 HD
ATOM     51  C   UNL A   1      45.814  30.143  29.300  1.00  0.00     0.031 A 
ATOM     52  C   UNL A   1      38.985  30.188  30.536  1.00  0.00     0.031 A 
ATOM     53  C   UNL A   1      45.807  29.924  30.723  1.00  0.00     0.049 A 
ATOM     54  C   UNL A   1      40.082  30.938  31.198  1.00  0.00     0.074 A 
ATOM     55  C   UNL A   1      46.217  28.898  31.551  1.00  0.00     0.029 A 
ATOM     56  N   UNL A   1      44.928  30.685  31.462  1.00  0.00    -0.354 N 
ATOM     57  N   UNL A   1      40.629  30.562  32.322  1.00  0.00    -0.248 NA
ATOM     58  C   UNL A   1      40.895  31.828  30.384  1.00  0.00     0.031 C 
ATOM     59  C   UNL A   1      45.206  28.814  32.553  1.00  0.00     0.029 A 
ATOM     60  C   UNL A   1      44.287  29.843  32.335  1.00  0.00     0.049 A 
ATOM     61  H   UNL A   1      44.785  31.655  31.378  1.00  0.00     0.167 HD
ATOM     62  C   UNL A   1      41.987  30.793  32.154  1.00  0.00     0.074 A 
ATOM     63  C   UNL A   1      42.076  31.676  30.991  1.00  0.00     0.031 C 
ATOM     64  C   UNL A   1      42.919  30.015  32.780  1.00  0.00     0.031 A 
BRANCH  51  65
ATOM     65  C   UNL A   1      46.157  31.495  28.716  1.00  0.00    -0.014 A 
ATOM     66  C   UNL A   1      45.105  32.364  28.354  1.00  0.00     0.010 A 
ATOM     67  C   UNL A   1      47.447  31.841  28.268  1.00  0.00     0.010 A 
ATOM     68  C   UNL A   1      45.327  33.473  27.526  1.00  0.00     0.020 A 
ATOM     69  C   UNL A   1      47.688  32.971  27.484  1.00  0.00     0.020 A 
ATOM     70  C   UNL A   1      46.619  33.759  27.086  1.00  0.00     0.054 A 
BRANCH  70  71
ATOM     71  S   UNL A   1      46.883  35.120  25.923  1.00  0.00     0.124 S 
ATOM     72  O   UNL A   1      45.558  35.272  25.335  1.00  0.00    -0.237 OA
ATOM     73  O   UNL A   1      47.317  36.200  26.805  1.00  0.00    -0.237 OA
ATOM     74  O   UNL A   1      47.914  34.604  25.024  1.00  0.00    -0.744 OA
ENDBRANCH  70  71
ENDBRANCH  51  65
BRANCH  52  75
ATOM     75  C   UNL A   1      37.704  30.822  30.124  1.00  0.00    -0.014 A 
ATOM     76  C   UNL A   1      36.704  31.124  31.068  1.00  0.00     0.010 A 
ATOM     77  C   UNL A   1      37.565  31.372  28.832  1.00  0.00     0.010 A 
ATOM     78  C   UNL A   1      35.643  31.993  30.751  1.00  0.00     0.020 A 
ATOM     79  C   UNL A   1      36.507  32.230  28.506  1.00  0.00     0.020 A 
ATOM     80  C   UNL A   1      35.564  32.560  29.476  1.00  0.00     0.054 A 
BRANCH  80  81
ATOM     81  S   UNL A   1      34.311  33.832  29.132  1.00  0.00     0.124 S 
ATOM     82  O   UNL A   1      35.102  34.892  28.515  1.00  0.00    -0.237 OA
ATOM     83  O   UNL A   1      33.385  33.134  28.246  1.00  0.00    -0.237 OA
ATOM     84  O   UNL A   1      33.773  34.149  30.455  1.00  0.00    -0.744 OA
ENDBRANCH  80  81
ENDBRANCH  52  75
BRANCH  64  85
ATOM     85  C   UNL A   1      42.455  29.065  33.862  1.00  0.00    -0.014 A 
ATOM     86  C   UNL A   1      41.779  27.855  33.602  1.00  0.00     0.010 A 
ATOM     87  C   UNL A   1      42.884  29.320  35.175  1.00  0.00     0.010 A 
ATOM     88  C   UNL A   1      41.528  26.935  34.632  1.00  0.00     0.020 A 
ATOM     89  C   UNL A   1      42.655  28.400  36.202  1.00  0.00     0.020 A 
ATOM     90  C   UNL A   1      41.972  27.215  35.927  1.00  0.00     0.054 A 
BRANCH  90  91
ATOM     91  S   UNL A   1      41.705  25.996  37.244  1.00  0.00     0.124 S 
ATOM     92  O   UNL A   1      42.736  26.348  38.216  1.00  0.00    -0.237 OA
ATOM     93  O   UNL A   1      40.329  26.264  37.661  1.00  0.00    -0.237 OA
ATOM     94  O   UNL A   1      41.897  24.710  36.574  1.00  0.00    -0.744 OA
ENDBRANCH  90  91
ENDBRANCH  64  85
ENDBRANCH  38  39
ENDBRANCH  30  33
ENDBRANCH  28  29
ENDBRANCH  27  28
ENDBRANCH   1  27
TORSDOF 18
ENDMDL
MODEL 3
REMARK VINA RESULT:     -11.9      1.042      1.851
REMARK SMILES O=C(CSc1nnc(Cc2ccncc2)n1-c1ccccc1Cl)NCCCNC(=O)c1ccc(-c2c3nc(c(-c4ccc(S(=O)(=O)[O-])cc4)c4ccc([nH]4)c(-c4ccc(S(=O)(=O)[O-])cc4)c4nc(c(-c5ccc(S(=O)(=O)[O-])cc5)c5ccc2[nH]5)C=C4)C=C3)cc1
REMARK SMILES IDX 25 1 24 2 1 3 2 4 3 6 4 7 5 8 6 9 16 10 7 11 8 12 17 13
REMARK SMILES IDX 18 14 22 15 19 16 21 17 23 18 20 19 9 20 10 21 11 22 15 23
REMARK SMILES IDX 12 24 14 25 13 26 26 27 27 28 28 29 29 30 30 32 31 33 32 34
REMARK SMILES IDX 90 35 33 36 89 37 34 38 35 39 36 40 83 41 37 42 88 43 82 44
REMARK SMILES IDX 84 45 38 46 87 47 81 48 80 49 39 51 69 52 50 53 68 54 51 55
REMARK SMILES IDX 54 56 67 57 85 58 52 59 53 60 66 62 86 63 55 64 40 65 41 66
REMARK SMILES IDX 49 67 42 68 48 69 43 70 44 71 45 72 46 73 47 74 70 75 71 76
REMARK SMILES IDX 79 77 72 78 78 79 73 80 74 81 75 82 76 83 77 84 56 85 57 86
REMARK SMILES IDX 65 87 58 88 64 89 59 90 60 91 61 92 62 93 63 94
REMARK H PARENT 24 5 28 31 84 50 54 61
REMARK Flexibility Score: inf
ROOT
ATOM      1  C   UNL A   1      31.445  27.594  27.029  1.00  0.00     0.117 C 
ENDROOT
BRANCH   1   2
ATOM      2  N   UNL A   1      31.449  26.168  26.736  1.00  0.00    -0.355 N 
ATOM      3  O   UNL A   1      29.771  26.294  25.181  1.00  0.00    -0.274 OA
ATOM      4  C   UNL A   1      30.616  25.624  25.772  1.00  0.00     0.230 C 
ATOM      5  H   UNL A   1      32.059  25.576  27.235  1.00  0.00     0.163 HD
BRANCH   4   6
ATOM      6  C   UNL A   1      30.783  24.132  25.514  1.00  0.00     0.178 C 
BRANCH   6   7
ATOM      7  S   UNL A   1      30.731  23.747  23.747  1.00  0.00    -0.076 SA
BRANCH   7   8
ATOM      8  C   UNL A   1      32.408  23.832  23.301  1.00  0.00     0.196 A 
ATOM      9  N   UNL A   1      33.051  24.928  22.976  1.00  0.00    -0.123 NA
ATOM     10  N   UNL A   1      33.289  22.766  23.365  1.00  0.00    -0.272 N 
ATOM     11  N   UNL A   1      34.378  24.608  22.820  1.00  0.00    -0.134 NA
ATOM     12  C   UNL A   1      34.527  23.319  23.068  1.00  0.00     0.142 A 
BRANCH  10  13
ATOM     13  C   UNL A   1      33.029  21.460  23.840  1.00  0.00     0.068 A 
ATOM     14  C   UNL A   1      32.508  20.522  22.935  1.00  0.00     0.028 A 
ATOM     15  C   UNL A   1      33.319  21.076  25.156  1.00  0.00     0.065 A 
ATOM     16  C   UNL A   1      32.291  19.206  23.340  1.00  0.00     0.002 A 
ATOM     17  C   UNL A   1      33.131  19.745  25.539  1.00  0.00     0.023 A 
ATOM     18  Cl  UNL A   1      33.764  22.198  26.390  1.00  0.00    -0.082 Cl
ATOM     19  C   UNL A   1      32.619  18.813  24.634  1.00  0.00     0.002 A 
ENDBRANCH  10  13
BRANCH  12  20
ATOM     20  C   UNL A   1      35.823  22.579  23.016  1.00  0.00     0.113 C 
BRANCH  20  21
ATOM     21  C   UNL A   1      36.669  22.710  24.259  1.00  0.00    -0.037 A 
ATOM     22  C   UNL A   1      37.514  21.669  24.655  1.00  0.00     0.024 A 
ATOM     23  C   UNL A   1      36.663  23.884  25.019  1.00  0.00     0.024 A 
ATOM     24  C   UNL A   1      38.331  21.856  25.757  1.00  0.00     0.111 A 
ATOM     25  C   UNL A   1      37.519  23.976  26.108  1.00  0.00     0.111 A 
ATOM     26  N   UNL A   1      38.364  22.994  26.486  1.00  0.00    -0.265 NA
ENDBRANCH  20  21
ENDBRANCH  12  20
ENDBRANCH   7   8
ENDBRANCH   6   7
ENDBRANCH   4   6
ENDBRANCH   1   2
BRANCH   1  27
ATOM     27  C   UNL A   1      32.580  28.391  26.387  1.00  0.00     0.042 C 
BRANCH  27  28
ATOM     28  C   UNL A   1      33.523  29.025  27.398  1.00  0.00     0.118 C 
BRANCH  28  29
ATOM     29  N   UNL A   1      33.588  30.492  27.332  1.00  0.00    -0.352 N 
ATOM     30  C   UNL A   1      34.581  31.343  27.806  1.00  0.00     0.251 C 
ATOM     31  H   UNL A   1      32.824  30.932  26.893  1.00  0.00     0.163 HD
ATOM     32  O   UNL A   1      34.385  32.540  27.902  1.00  0.00    -0.269 OA
BRANCH  30  33
ATOM     33  C   UNL A   1      35.891  30.761  28.165  1.00  0.00     0.039 A 
ATOM     34  C   UNL A   1      36.326  29.508  27.713  1.00  0.00     0.014 A 
ATOM     35  C   UNL A   1      36.712  31.541  28.962  1.00  0.00     0.014 A 
ATOM     36  C   UNL A   1      37.631  29.097  28.006  1.00  0.00     0.010 A 
ATOM     37  C   UNL A   1      38.041  31.254  29.041  1.00  0.00     0.010 A 
ATOM     38  C   UNL A   1      38.484  29.992  28.660  1.00  0.00    -0.014 A 
BRANCH  38  39
ATOM     39  C   UNL A   1      39.880  29.715  28.973  1.00  0.00     0.031 A 
ATOM     40  C   UNL A   1      40.191  29.567  30.421  1.00  0.00     0.074 A 
ATOM     41  C   UNL A   1      40.681  29.211  28.003  1.00  0.00     0.049 A 
ATOM     42  N   UNL A   1      41.005  30.267  31.139  1.00  0.00    -0.248 NA
ATOM     43  C   UNL A   1      39.401  28.596  31.200  1.00  0.00     0.031 C 
ATOM     44  C   UNL A   1      40.323  28.944  26.598  1.00  0.00     0.029 A 
ATOM     45  N   UNL A   1      41.905  28.633  28.105  1.00  0.00    -0.354 N 
ATOM     46  C   UNL A   1      40.994  29.683  32.404  1.00  0.00     0.074 A 
ATOM     47  C   UNL A   1      39.830  28.835  32.440  1.00  0.00     0.031 C 
ATOM     48  C   UNL A   1      41.177  28.036  26.079  1.00  0.00     0.029 A 
ATOM     49  C   UNL A   1      42.228  27.784  27.047  1.00  0.00     0.049 A 
ATOM     50  H   UNL A   1      42.513  28.798  28.861  1.00  0.00     0.167 HD
ATOM     51  C   UNL A   1      42.081  29.711  33.228  1.00  0.00     0.031 A 
ATOM     52  C   UNL A   1      43.252  26.894  26.995  1.00  0.00     0.031 A 
ATOM     53  C   UNL A   1      43.097  30.601  32.728  1.00  0.00     0.049 A 
ATOM     54  C   UNL A   1      44.206  27.274  28.067  1.00  0.00     0.074 A 
ATOM     55  C   UNL A   1      43.145  31.946  32.421  1.00  0.00     0.029 A 
ATOM     56  N   UNL A   1      44.162  30.021  32.075  1.00  0.00    -0.354 N 
ATOM     57  N   UNL A   1      44.874  28.394  28.065  1.00  0.00    -0.248 NA
ATOM     58  C   UNL A   1      44.061  26.643  29.370  1.00  0.00     0.031 C 
ATOM     59  C   UNL A   1      43.923  32.019  31.229  1.00  0.00     0.029 A 
ATOM     60  C   UNL A   1      44.378  30.734  30.924  1.00  0.00     0.049 A 
ATOM     61  H   UNL A   1      44.674  29.237  32.379  1.00  0.00     0.167 HD
ATOM     62  C   UNL A   1      44.847  28.829  29.382  1.00  0.00     0.074 A 
ATOM     63  C   UNL A   1      44.433  27.659  30.156  1.00  0.00     0.031 C 
ATOM     64  C   UNL A   1      44.869  30.161  29.687  1.00  0.00     0.031 A 
BRANCH  51  65
ATOM     65  C   UNL A   1      42.407  28.646  34.252  1.00  0.00    -0.014 A 
ATOM     66  C   UNL A   1      42.372  28.988  35.621  1.00  0.00     0.010 A 
ATOM     67  C   UNL A   1      42.994  27.409  33.923  1.00  0.00     0.010 A 
ATOM     68  C   UNL A   1      42.962  28.170  36.594  1.00  0.00     0.020 A 
ATOM     69  C   UNL A   1      43.541  26.562  34.888  1.00  0.00     0.020 A 
ATOM     70  C   UNL A   1      43.556  26.966  36.215  1.00  0.00     0.054 A 
BRANCH  70  71
ATOM     71  S   UNL A   1      44.419  25.970  37.453  1.00  0.00     0.124 S 
ATOM     72  O   UNL A   1      43.844  26.474  38.696  1.00  0.00    -0.237 OA
ATOM     73  O   UNL A   1      44.035  24.611  37.079  1.00  0.00    -0.237 OA
ATOM     74  O   UNL A   1      45.826  26.298  37.234  1.00  0.00    -0.744 OA
ENDBRANCH  70  71
ENDBRANCH  51  65
BRANCH  52  75
ATOM     75  C   UNL A   1      43.325  25.598  26.268  1.00  0.00    -0.014 A 
ATOM     76  C   UNL A   1      44.299  25.372  25.277  1.00  0.00     0.010 A 
ATOM     77  C   UNL A   1      42.598  24.480  26.730  1.00  0.00     0.010 A 
ATOM     78  C   UNL A   1      44.579  24.072  24.814  1.00  0.00     0.020 A 
ATOM     79  C   UNL A   1      42.863  23.185  26.268  1.00  0.00     0.020 A 
ATOM     80  C   UNL A   1      43.874  22.982  25.331  1.00  0.00     0.054 A 
BRANCH  80  81
ATOM     81  S   UNL A   1      44.372  21.292  24.880  1.00  0.00     0.124 S 
ATOM     82  O   UNL A   1      45.632  21.135  25.601  1.00  0.00    -0.237 OA
ATOM     83  O   UNL A   1      43.256  20.490  25.372  1.00  0.00    -0.237 OA
ATOM     84  O   UNL A   1      44.492  21.348  23.423  1.00  0.00    -0.744 OA
ENDBRANCH  80  81
ENDBRANCH  52  75
BRANCH  64  85
ATOM     85  C   UNL A   1      45.185  31.147  28.584  1.00  0.00    -0.014 A 
ATOM     86  C   UNL A   1      44.206  31.735  27.757  1.00  0.00     0.010 A 
ATOM     87  C   UNL A   1      46.501  31.634  28.509  1.00  0.00     0.010 A 
ATOM     88  C   UNL A   1      44.540  32.770  26.870  1.00  0.00     0.020 A 
ATOM     89  C   UNL A   1      46.838  32.677  27.643  1.00  0.00     0.020 A 
ATOM     90  C   UNL A   1      45.857  33.236  26.822  1.00  0.00     0.054 A 
BRANCH  90  91
ATOM     91  S   UNL A   1      46.274  34.617  25.722  1.00  0.00     0.124 S 
ATOM     92  O   UNL A   1      45.402  34.383  24.575  1.00  0.00    -0.237 OA
ATOM     93  O   UNL A   1      45.947  35.789  26.533  1.00  0.00    -0.237 OA
ATOM     94  O   UNL A   1      47.702  34.436  25.462  1.00  0.00    -0.744 OA
ENDBRANCH  90  91
ENDBRANCH  64  85
ENDBRANCH  38  39
ENDBRANCH  30  33
ENDBRANCH  28  29
ENDBRANCH  27  28
ENDBRANCH   1  27
TORSDOF 18
ENDMDL
