MODEL 1
REMARK VINA RESULT:     -10.9      0.000      0.000
REMARK SMILES CC[C@](C)([NH2+]CC(=O)Nc1c(Cl)ccc(C)c1Cl)C(=O)NCCCNC(=O)c1ccc(-c2c3nc(c(-c4ccc(S(=O)(=O)[O-])cc4)c4ccc([nH]4)c(-c4ccc(S(=O)(=O)[O-])cc4)c4nc(c(-c5ccc(S(=O)(=O)[O-])cc5)c5ccc2[nH]5)C=C4)C=C3)cc1
REMARK SMILES IDX 22 1 21 2 19 3 20 4 3 6 4 7 2 8 1 9 5 10 6 13 7 14 8 15 9 16
REMARK SMILES IDX 10 18 11 19 17 20 12 21 13 22 15 23 18 24 14 25 16 26 23 27
REMARK SMILES IDX 24 28 25 29 26 30 27 32 28 33 29 34 87 35 30 36 86 37 31 38
REMARK SMILES IDX 32 39 33 40 80 41 34 42 85 43 79 44 81 45 35 46 84 47 78 48
REMARK SMILES IDX 77 49 36 51 66 52 47 53 65 54 48 55 51 56 64 57 82 58 49 59
REMARK SMILES IDX 50 60 63 62 83 63 52 64 37 65 38 66 46 67 39 68 45 69 40 70
REMARK SMILES IDX 41 71 42 72 43 73 44 74 67 75 68 76 76 77 69 78 75 79 70 80
REMARK SMILES IDX 71 81 72 82 73 83 74 84 53 85 54 86 62 87 55 88 61 89 56 90
REMARK SMILES IDX 57 91 58 92 59 93 60 94
REMARK H PARENT 21 5 5 11 5 12 9 17 25 31 81 50 51 61
REMARK Flexibility Score: inf
ROOT
ATOM      1  C   UNL A   1      32.614  29.281  24.608  1.00  0.00     0.118 C 
ENDROOT
BRANCH   1   2
ATOM      2  N   UNL A   1      31.636  28.867  23.576  1.00  0.00    -0.351 N 
ATOM      3  C   UNL A   1      30.478  28.117  23.496  1.00  0.00     0.281 C 
ATOM      4  O   UNL A   1      29.624  28.659  22.768  1.00  0.00    -0.268 OA
ATOM      5  H   UNL A   1      31.882  29.229  22.694  1.00  0.00     0.163 HD
BRANCH   3   6
ATOM      6  C   UNL A   1      30.247  26.584  23.963  1.00  0.00     0.172 C 
ATOM      7  C   UNL A   1      28.657  26.622  23.937  1.00  0.00     0.090 C 
BRANCH   6   8
ATOM      8  C   UNL A   1      30.412  25.878  25.380  1.00  0.00     0.075 C 
ATOM      9  C   UNL A   1      30.801  24.420  25.653  1.00  0.00     0.011 C 
ENDBRANCH   6   8
BRANCH   6  10
ATOM     10  N   UNL A   1      30.695  25.686  22.930  1.00  0.00    -0.326 N 
ATOM     11  H   UNL A   1      30.067  25.805  22.136  1.00  0.00     0.347 HD
ATOM     12  H   UNL A   1      30.690  24.772  23.384  1.00  0.00     0.347 HD
BRANCH  10  13
ATOM     13  C   UNL A   1      32.057  25.812  22.419  1.00  0.00     0.363 C 
BRANCH  13  14
ATOM     14  C   UNL A   1      32.936  24.671  21.833  1.00  0.00     0.279 C 
ATOM     15  O   UNL A   1      33.244  24.850  20.630  1.00  0.00    -0.268 OA
ATOM     16  N   UNL A   1      33.590  23.572  22.320  1.00  0.00    -0.319 N 
ATOM     17  H   UNL A   1      33.978  23.080  21.560  1.00  0.00     0.170 HD
BRANCH  16  18
ATOM     18  C   UNL A   1      33.919  22.870  23.525  1.00  0.00     0.079 A 
ATOM     19  C   UNL A   1      34.551  23.372  24.678  1.00  0.00     0.066 A 
ATOM     20  C   UNL A   1      33.261  21.633  23.740  1.00  0.00     0.069 A 
ATOM     21  Cl  UNL A   1      34.567  25.027  25.163  1.00  0.00    -0.082 Cl
ATOM     22  C   UNL A   1      34.922  22.540  25.750  1.00  0.00     0.023 A 
ATOM     23  C   UNL A   1      33.444  20.867  24.920  1.00  0.00    -0.030 A 
ATOM     24  Cl  UNL A   1      32.147  21.049  22.536  1.00  0.00    -0.082 Cl
ATOM     25  C   UNL A   1      34.381  21.279  25.864  1.00  0.00     0.006 A 
ATOM     26  C   UNL A   1      32.588  19.680  25.253  1.00  0.00     0.046 C 
ENDBRANCH  16  18
ENDBRANCH  13  14
ENDBRANCH  10  13
ENDBRANCH   6  10
ENDBRANCH   3   6
ENDBRANCH   1   2
BRANCH   1  27
ATOM     27  C   UNL A   1      32.305  28.830  26.037  1.00  0.00     0.042 C 
BRANCH  27  28
ATOM     28  C   UNL A   1      33.478  29.009  27.008  1.00  0.00     0.118 C 
BRANCH  28  29
ATOM     29  N   UNL A   1      33.508  30.287  27.723  1.00  0.00    -0.352 N 
ATOM     30  C   UNL A   1      34.531  30.893  28.426  1.00  0.00     0.251 C 
ATOM     31  H   UNL A   1      32.666  30.795  27.697  1.00  0.00     0.163 HD
ATOM     32  O   UNL A   1      34.332  31.974  28.984  1.00  0.00    -0.269 OA
BRANCH  30  33
ATOM     33  C   UNL A   1      35.852  30.237  28.556  1.00  0.00     0.039 A 
ATOM     34  C   UNL A   1      36.753  30.286  27.487  1.00  0.00     0.014 A 
ATOM     35  C   UNL A   1      36.223  29.609  29.744  1.00  0.00     0.014 A 
ATOM     36  C   UNL A   1      38.062  29.820  27.657  1.00  0.00     0.010 A 
ATOM     37  C   UNL A   1      37.551  29.248  29.947  1.00  0.00     0.010 A 
ATOM     38  C   UNL A   1      38.492  29.359  28.912  1.00  0.00    -0.014 A 
BRANCH  38  39
ATOM     39  C   UNL A   1      39.910  28.997  29.182  1.00  0.00     0.031 A 
ATOM     40  C   UNL A   1      40.855  30.030  29.741  1.00  0.00     0.074 A 
ATOM     41  C   UNL A   1      40.377  27.782  28.822  1.00  0.00     0.049 A 
ATOM     42  N   UNL A   1      42.151  29.963  29.904  1.00  0.00    -0.248 NA
ATOM     43  C   UNL A   1      40.270  31.325  30.128  1.00  0.00     0.031 C 
ATOM     44  C   UNL A   1      39.583  26.709  28.218  1.00  0.00     0.029 A 
ATOM     45  N   UNL A   1      41.641  27.250  28.898  1.00  0.00    -0.354 N 
ATOM     46  C   UNL A   1      42.538  31.214  30.373  1.00  0.00     0.074 A 
ATOM     47  C   UNL A   1      41.349  32.036  30.415  1.00  0.00     0.031 C 
ATOM     48  C   UNL A   1      40.368  25.640  28.009  1.00  0.00     0.029 A 
ATOM     49  C   UNL A   1      41.731  25.964  28.416  1.00  0.00     0.049 A 
ATOM     50  H   UNL A   1      42.411  27.742  29.264  1.00  0.00     0.167 HD
ATOM     51  C   UNL A   1      43.766  31.636  30.757  1.00  0.00     0.031 A 
ATOM     52  C   UNL A   1      42.792  25.139  28.305  1.00  0.00     0.031 A 
ATOM     53  C   UNL A   1      44.938  30.805  30.752  1.00  0.00     0.049 A 
ATOM     54  C   UNL A   1      44.143  25.623  28.758  1.00  0.00     0.074 A 
ATOM     55  C   UNL A   1      46.214  31.111  31.194  1.00  0.00     0.029 A 
ATOM     56  N   UNL A   1      44.977  29.497  30.289  1.00  0.00    -0.354 N 
ATOM     57  N   UNL A   1      44.474  26.789  29.257  1.00  0.00    -0.248 NA
ATOM     58  C   UNL A   1      45.261  24.676  28.638  1.00  0.00     0.031 C 
ATOM     59  C   UNL A   1      47.033  30.002  30.958  1.00  0.00     0.029 A 
ATOM     60  C   UNL A   1      46.258  28.990  30.417  1.00  0.00     0.049 A 
ATOM     61  H   UNL A   1      44.206  29.004  29.925  1.00  0.00     0.167 HD
ATOM     62  C   UNL A   1      45.835  26.710  29.530  1.00  0.00     0.074 A 
ATOM     63  C   UNL A   1      46.260  25.376  29.158  1.00  0.00     0.031 C 
ATOM     64  C   UNL A   1      46.660  27.658  30.039  1.00  0.00     0.031 A 
BRANCH  51  65
ATOM     65  C   UNL A   1      43.896  33.065  31.222  1.00  0.00    -0.014 A 
ATOM     66  C   UNL A   1      43.739  33.404  32.578  1.00  0.00     0.010 A 
ATOM     67  C   UNL A   1      44.201  34.078  30.295  1.00  0.00     0.010 A 
ATOM     68  C   UNL A   1      43.832  34.735  32.991  1.00  0.00     0.020 A 
ATOM     69  C   UNL A   1      44.325  35.407  30.708  1.00  0.00     0.020 A 
ATOM     70  C   UNL A   1      44.120  35.730  32.052  1.00  0.00     0.054 A 
BRANCH  70  71
ATOM     71  S   UNL A   1      44.247  37.448  32.619  1.00  0.00     0.124 S 
ATOM     72  O   UNL A   1      43.185  37.513  33.620  1.00  0.00    -0.237 OA
ATOM     73  O   UNL A   1      45.609  37.513  33.143  1.00  0.00    -0.237 OA
ATOM     74  O   UNL A   1      44.010  38.231  31.408  1.00  0.00    -0.744 OA
ENDBRANCH  70  71
ENDBRANCH  51  65
BRANCH  52  75
ATOM     75  C   UNL A   1      42.616  23.765  27.757  1.00  0.00    -0.014 A 
ATOM     76  C   UNL A   1      42.370  22.682  28.620  1.00  0.00     0.010 A 
ATOM     77  C   UNL A   1      42.680  23.531  26.371  1.00  0.00     0.010 A 
ATOM     78  C   UNL A   1      42.209  21.390  28.111  1.00  0.00     0.020 A 
ATOM     79  C   UNL A   1      42.493  22.244  25.856  1.00  0.00     0.020 A 
ATOM     80  C   UNL A   1      42.269  21.179  26.731  1.00  0.00     0.054 A 
BRANCH  80  81
ATOM     81  S   UNL A   1      42.003  19.503  26.089  1.00  0.00     0.124 S 
ATOM     82  O   UNL A   1      42.820  19.507  24.880  1.00  0.00    -0.237 OA
ATOM     83  O   UNL A   1      42.492  18.664  27.181  1.00  0.00    -0.237 OA
ATOM     84  O   UNL A   1      40.559  19.446  25.870  1.00  0.00    -0.744 OA
ENDBRANCH  80  81
ENDBRANCH  52  75
BRANCH  64  85
ATOM     85  C   UNL A   1      48.101  27.280  30.248  1.00  0.00    -0.014 A 
ATOM     86  C   UNL A   1      49.058  27.490  29.239  1.00  0.00     0.010 A 
ATOM     87  C   UNL A   1      48.513  26.769  31.492  1.00  0.00     0.010 A 
ATOM     88  C   UNL A   1      50.399  27.168  29.463  1.00  0.00     0.020 A 
ATOM     89  C   UNL A   1      49.858  26.472  31.728  1.00  0.00     0.020 A 
ATOM     90  C   UNL A   1      50.790  26.661  30.707  1.00  0.00     0.054 A 
BRANCH  90  91
ATOM     91  S   UNL A   1      52.545  26.301  30.989  1.00  0.00     0.124 S 
ATOM     92  O   UNL A   1      53.057  26.200  29.625  1.00  0.00    -0.237 OA
ATOM     93  O   UNL A   1      52.995  27.468  31.745  1.00  0.00    -0.237 OA
ATOM     94  O   UNL A   1      52.525  25.049  31.742  1.00  0.00    -0.744 OA
ENDBRANCH  90  91
ENDBRANCH  64  85
ENDBRANCH  38  39
ENDBRANCH  30  33
ENDBRANCH  28  29
ENDBRANCH  27  28
ENDBRANCH   1  27
TORSDOF 18
ENDMDL
MODEL 2
REMARK VINA RESULT:     -10.7      1.410      2.219
REMARK SMILES CC[C@](C)([NH2+]CC(=O)Nc1c(Cl)ccc(C)c1Cl)C(=O)NCCCNC(=O)c1ccc(-c2c3nc(c(-c4ccc(S(=O)(=O)[O-])cc4)c4ccc([nH]4)c(-c4ccc(S(=O)(=O)[O-])cc4)c4nc(c(-c5ccc(S(=O)(=O)[O-])cc5)c5ccc2[nH]5)C=C4)C=C3)cc1
REMARK SMILES IDX 22 1 21 2 19 3 20 4 3 6 4 7 2 8 1 9 5 10 6 13 7 14 8 15 9 16
REMARK SMILES IDX 10 18 11 19 17 20 12 21 13 22 15 23 18 24 14 25 16 26 23 27
REMARK SMILES IDX 24 28 25 29 26 30 27 32 28 33 29 34 87 35 30 36 86 37 31 38
REMARK SMILES IDX 32 39 33 40 80 41 34 42 85 43 79 44 81 45 35 46 84 47 78 48
REMARK SMILES IDX 77 49 36 51 66 52 47 53 65 54 48 55 51 56 64 57 82 58 49 59
REMARK SMILES IDX 50 60 63 62 83 63 52 64 37 65 38 66 46 67 39 68 45 69 40 70
REMARK SMILES IDX 41 71 42 72 43 73 44 74 67 75 68 76 76 77 69 78 75 79 70 80
REMARK SMILES IDX 71 81 72 82 73 83 74 84 53 85 54 86 62 87 55 88 61 89 56 90
REMARK SMILES IDX 57 91 58 92 59 93 60 94
REMARK H PARENT 21 5 5 11 5 12 9 17 25 31 81 50 51 61
REMARK Flexibility Score: inf
ROOT
ATOM      1  C   UNL A   1      33.980  28.348  23.683  1.00  0.00     0.118 C 
ENDROOT
BRANCH   1   2
ATOM      2  N   UNL A   1      33.121  27.532  22.795  1.00  0.00    -0.351 N 
ATOM      3  C   UNL A   1      32.238  26.474  22.904  1.00  0.00     0.281 C 
ATOM      4  O   UNL A   1      31.226  26.641  22.197  1.00  0.00    -0.268 OA
ATOM      5  H   UNL A   1      33.202  27.827  21.860  1.00  0.00     0.163 HD
BRANCH   3   6
ATOM      6  C   UNL A   1      32.501  25.019  23.562  1.00  0.00     0.172 C 
ATOM      7  C   UNL A   1      34.034  24.906  23.154  1.00  0.00     0.090 C 
BRANCH   6   8
ATOM      8  C   UNL A   1      32.060  23.560  23.104  1.00  0.00     0.075 C 
ATOM      9  C   UNL A   1      32.938  22.482  22.456  1.00  0.00     0.011 C 
ENDBRANCH   6   8
BRANCH   6  10
ATOM     10  N   UNL A   1      32.420  25.110  24.998  1.00  0.00    -0.326 N 
ATOM     11  H   UNL A   1      32.279  26.093  25.228  1.00  0.00     0.347 HD
ATOM     12  H   UNL A   1      33.291  24.685  25.318  1.00  0.00     0.347 HD
BRANCH  10  13
ATOM     13  C   UNL A   1      31.387  24.355  25.702  1.00  0.00     0.363 C 
BRANCH  13  14
ATOM     14  C   UNL A   1      31.612  23.183  26.698  1.00  0.00     0.279 C 
ATOM     15  O   UNL A   1      30.699  23.073  27.551  1.00  0.00    -0.268 OA
ATOM     16  N   UNL A   1      32.485  22.135  26.817  1.00  0.00    -0.319 N 
ATOM     17  H   UNL A   1      32.296  21.669  27.663  1.00  0.00     0.170 HD
BRANCH  16  18
ATOM     18  C   UNL A   1      33.572  21.464  26.167  1.00  0.00     0.079 A 
ATOM     19  C   UNL A   1      33.529  20.297  25.382  1.00  0.00     0.066 A 
ATOM     20  C   UNL A   1      34.769  22.206  26.003  1.00  0.00     0.069 A 
ATOM     21  Cl  UNL A   1      32.140  19.717  24.539  1.00  0.00    -0.082 Cl
ATOM     22  C   UNL A   1      34.694  19.677  24.899  1.00  0.00     0.023 A 
ATOM     23  C   UNL A   1      35.899  21.687  25.320  1.00  0.00    -0.030 A 
ATOM     24  Cl  UNL A   1      34.846  23.834  26.617  1.00  0.00    -0.082 Cl
ATOM     25  C   UNL A   1      35.886  20.366  24.881  1.00  0.00     0.006 A 
ATOM     26  C   UNL A   1      37.078  22.539  24.948  1.00  0.00     0.046 C 
ENDBRANCH  16  18
ENDBRANCH  13  14
ENDBRANCH  10  13
ENDBRANCH   6  10
ENDBRANCH   3   6
ENDBRANCH   1   2
BRANCH   1  27
ATOM     27  C   UNL A   1      33.248  29.189  24.731  1.00  0.00     0.042 C 
BRANCH  27  28
ATOM     28  C   UNL A   1      33.849  29.084  26.138  1.00  0.00     0.118 C 
BRANCH  28  29
ATOM     29  N   UNL A   1      33.789  30.309  26.936  1.00  0.00    -0.352 N 
ATOM     30  C   UNL A   1      34.706  30.845  27.820  1.00  0.00     0.251 C 
ATOM     31  H   UNL A   1      32.966  30.836  26.824  1.00  0.00     0.163 HD
ATOM     32  O   UNL A   1      34.440  31.890  28.417  1.00  0.00    -0.269 OA
BRANCH  30  33
ATOM     33  C   UNL A   1      35.986  30.153  28.093  1.00  0.00     0.039 A 
ATOM     34  C   UNL A   1      36.989  30.149  27.116  1.00  0.00     0.014 A 
ATOM     35  C   UNL A   1      36.219  29.545  29.325  1.00  0.00     0.014 A 
ATOM     36  C   UNL A   1      38.258  29.649  27.424  1.00  0.00     0.010 A 
ATOM     37  C   UNL A   1      37.509  29.149  29.665  1.00  0.00     0.010 A 
ATOM     38  C   UNL A   1      38.549  29.206  28.725  1.00  0.00    -0.014 A 
BRANCH  38  39
ATOM     39  C   UNL A   1      39.922  28.809  29.141  1.00  0.00     0.031 A 
ATOM     40  C   UNL A   1      40.815  29.807  29.834  1.00  0.00     0.074 A 
ATOM     41  C   UNL A   1      40.407  27.597  28.799  1.00  0.00     0.049 A 
ATOM     42  N   UNL A   1      42.083  29.710  30.139  1.00  0.00    -0.248 NA
ATOM     43  C   UNL A   1      40.211  31.102  30.192  1.00  0.00     0.031 C 
ATOM     44  C   UNL A   1      39.668  26.557  28.076  1.00  0.00     0.029 A 
ATOM     45  N   UNL A   1      41.646  27.037  29.000  1.00  0.00    -0.354 N 
ATOM     46  C   UNL A   1      42.434  30.940  30.686  1.00  0.00     0.074 A 
ATOM     47  C   UNL A   1      41.262  31.783  30.620  1.00  0.00     0.031 C 
ATOM     48  C   UNL A   1      40.455  25.479  27.925  1.00  0.00     0.029 A 
ATOM     49  C   UNL A   1      41.768  25.765  28.491  1.00  0.00     0.049 A 
ATOM     50  H   UNL A   1      42.378  27.504  29.464  1.00  0.00     0.167 HD
ATOM     51  C   UNL A   1      43.619  31.327  31.218  1.00  0.00     0.031 A 
ATOM     52  C   UNL A   1      42.822  24.923  28.474  1.00  0.00     0.031 A 
ATOM     53  C   UNL A   1      44.770  30.473  31.319  1.00  0.00     0.049 A 
ATOM     54  C   UNL A   1      44.120  25.367  29.090  1.00  0.00     0.074 A 
ATOM     55  C   UNL A   1      45.993  30.741  31.910  1.00  0.00     0.029 A 
ATOM     56  N   UNL A   1      44.840  29.179  30.823  1.00  0.00    -0.354 N 
ATOM     57  N   UNL A   1      44.412  26.512  29.659  1.00  0.00    -0.248 NA
ATOM     58  C   UNL A   1      45.230  24.403  29.067  1.00  0.00     0.031 C 
ATOM     59  C   UNL A   1      46.815  29.625  31.733  1.00  0.00     0.029 A 
ATOM     60  C   UNL A   1      46.089  28.643  31.078  1.00  0.00     0.049 A 
ATOM     61  H   UNL A   1      44.107  28.711  30.360  1.00  0.00     0.167 HD
ATOM     62  C   UNL A   1      45.732  26.399  30.080  1.00  0.00     0.074 A 
ATOM     63  C   UNL A   1      46.175  25.068  29.717  1.00  0.00     0.031 C 
ATOM     64  C   UNL A   1      46.510  27.315  30.707  1.00  0.00     0.031 A 
BRANCH  51  65
ATOM     65  C   UNL A   1      43.718  32.738  31.738  1.00  0.00    -0.014 A 
ATOM     66  C   UNL A   1      43.259  33.072  33.025  1.00  0.00     0.010 A 
ATOM     67  C   UNL A   1      44.299  33.740  30.938  1.00  0.00     0.010 A 
ATOM     68  C   UNL A   1      43.330  34.390  33.483  1.00  0.00     0.020 A 
ATOM     69  C   UNL A   1      44.400  35.054  31.405  1.00  0.00     0.020 A 
ATOM     70  C   UNL A   1      43.896  35.374  32.667  1.00  0.00     0.054 A 
BRANCH  70  71
ATOM     71  S   UNL A   1      43.986  37.074  33.294  1.00  0.00     0.124 S 
ATOM     72  O   UNL A   1      45.278  37.074  33.976  1.00  0.00    -0.237 OA
ATOM     73  O   UNL A   1      43.922  37.870  32.071  1.00  0.00    -0.237 OA
ATOM     74  O   UNL A   1      42.821  37.184  34.167  1.00  0.00    -0.744 OA
ENDBRANCH  70  71
ENDBRANCH  51  65
BRANCH  52  75
ATOM     75  C   UNL A   1      42.687  23.569  27.868  1.00  0.00    -0.014 A 
ATOM     76  C   UNL A   1      41.976  22.558  28.540  1.00  0.00     0.010 A 
ATOM     77  C   UNL A   1      43.255  23.283  26.612  1.00  0.00     0.010 A 
ATOM     78  C   UNL A   1      41.849  21.284  27.977  1.00  0.00     0.020 A 
ATOM     79  C   UNL A   1      43.108  22.019  26.034  1.00  0.00     0.020 A 
ATOM     80  C   UNL A   1      42.415  21.023  26.726  1.00  0.00     0.054 A 
BRANCH  80  81
ATOM     81  S   UNL A   1      42.193  19.379  25.990  1.00  0.00     0.124 S 
ATOM     82  O   UNL A   1      42.960  19.492  24.754  1.00  0.00    -0.237 OA
ATOM     83  O   UNL A   1      42.759  18.497  27.009  1.00  0.00    -0.237 OA
ATOM     84  O   UNL A   1      40.745  19.273  25.822  1.00  0.00    -0.744 OA
ENDBRANCH  80  81
ENDBRANCH  52  75
BRANCH  64  85
ATOM     85  C   UNL A   1      47.912  26.904  31.064  1.00  0.00    -0.014 A 
ATOM     86  C   UNL A   1      48.986  27.155  30.190  1.00  0.00     0.010 A 
ATOM     87  C   UNL A   1      48.168  26.316  32.316  1.00  0.00     0.010 A 
ATOM     88  C   UNL A   1      50.287  26.799  30.553  1.00  0.00     0.020 A 
ATOM     89  C   UNL A   1      49.471  25.985  32.694  1.00  0.00     0.020 A 
ATOM     90  C   UNL A   1      50.521  26.218  31.804  1.00  0.00     0.054 A 
BRANCH  90  91
ATOM     91  S   UNL A   1      52.226  25.815  32.272  1.00  0.00     0.124 S 
ATOM     92  O   UNL A   1      52.216  24.355  32.231  1.00  0.00    -0.237 OA
ATOM     93  O   UNL A   1      53.010  26.467  31.226  1.00  0.00    -0.237 OA
ATOM     94  O   UNL A   1      52.367  26.400  33.603  1.00  0.00    -0.744 OA
ENDBRANCH  90  91
ENDBRANCH  64  85
ENDBRANCH  38  39
ENDBRANCH  30  33
ENDBRANCH  28  29
ENDBRANCH  27  28
ENDBRANCH   1  27
TORSDOF 18
ENDMDL
MODEL 3
REMARK VINA RESULT:     -10.6      2.582      3.318
REMARK SMILES CC[C@](C)([NH2+]CC(=O)Nc1c(Cl)ccc(C)c1Cl)C(=O)NCCCNC(=O)c1ccc(-c2c3nc(c(-c4ccc(S(=O)(=O)[O-])cc4)c4ccc([nH]4)c(-c4ccc(S(=O)(=O)[O-])cc4)c4nc(c(-c5ccc(S(=O)(=O)[O-])cc5)c5ccc2[nH]5)C=C4)C=C3)cc1
REMARK SMILES IDX 22 1 21 2 19 3 20 4 3 6 4 7 2 8 1 9 5 10 6 13 7 14 8 15 9 16
REMARK SMILES IDX 10 18 11 19 17 20 12 21 13 22 15 23 18 24 14 25 16 26 23 27
REMARK SMILES IDX 24 28 25 29 26 30 27 32 28 33 29 34 87 35 30 36 86 37 31 38
REMARK SMILES IDX 32 39 33 40 80 41 34 42 85 43 79 44 81 45 35 46 84 47 78 48
REMARK SMILES IDX 77 49 36 51 66 52 47 53 65 54 48 55 51 56 64 57 82 58 49 59
REMARK SMILES IDX 50 60 63 62 83 63 52 64 37 65 38 66 46 67 39 68 45 69 40 70
REMARK SMILES IDX 41 71 42 72 43 73 44 74 67 75 68 76 76 77 69 78 75 79 70 80
REMARK SMILES IDX 71 81 72 82 73 83 74 84 53 85 54 86 62 87 55 88 61 89 56 90
REMARK SMILES IDX 57 91 58 92 59 93 60 94
REMARK H PARENT 21 5 5 11 5 12 9 17 25 31 81 50 51 61
REMARK Flexibility Score: inf
ROOT
ATOM      1  C   UNL A   1      32.499  29.993  26.957  1.00  0.00     0.118 C 
ENDROOT
BRANCH   1   2
ATOM      2  N   UNL A   1      31.974  30.013  25.572  1.00  0.00    -0.351 N 
ATOM      3  C   UNL A   1      31.213  29.207  24.747  1.00  0.00     0.281 C 
ATOM      4  O   UNL A   1      30.388  29.867  24.087  1.00  0.00    -0.268 OA
ATOM      5  H   UNL A   1      32.244  30.837  25.106  1.00  0.00     0.163 HD
BRANCH   3   6
ATOM      6  C   UNL A   1      31.469  27.657  24.354  1.00  0.00     0.172 C 
ATOM      7  C   UNL A   1      32.929  27.858  23.757  1.00  0.00     0.090 C 
BRANCH   6   8
ATOM      8  C   UNL A   1      30.887  26.759  23.176  1.00  0.00     0.075 C 
ATOM      9  C   UNL A   1      31.669  26.117  22.023  1.00  0.00     0.011 C 
ENDBRANCH   6   8
BRANCH   6  10
ATOM     10  N   UNL A   1      31.574  26.861  25.550  1.00  0.00    -0.326 N 
ATOM     11  H   UNL A   1      31.229  27.432  26.321  1.00  0.00     0.347 HD
ATOM     12  H   UNL A   1      32.559  26.597  25.581  1.00  0.00     0.347 HD
BRANCH  10  13
ATOM     13  C   UNL A   1      30.871  25.583  25.618  1.00  0.00     0.363 C 
BRANCH  13  14
ATOM     14  C   UNL A   1      31.371  24.286  26.315  1.00  0.00     0.279 C 
ATOM     15  O   UNL A   1      30.539  23.800  27.117  1.00  0.00    -0.268 OA
ATOM     16  N   UNL A   1      32.440  23.440  26.186  1.00  0.00    -0.319 N 
ATOM     17  H   UNL A   1      32.387  22.764  26.901  1.00  0.00     0.170 HD
BRANCH  16  18
ATOM     18  C   UNL A   1      33.607  23.171  25.399  1.00  0.00     0.079 A 
ATOM     19  C   UNL A   1      34.524  24.094  24.861  1.00  0.00     0.066 A 
ATOM     20  C   UNL A   1      34.100  21.843  25.426  1.00  0.00     0.069 A 
ATOM     21  Cl  UNL A   1      34.808  25.682  25.471  1.00  0.00    -0.082 Cl
ATOM     22  C   UNL A   1      35.566  23.699  24.005  1.00  0.00     0.023 A 
ATOM     23  C   UNL A   1      35.283  21.455  24.747  1.00  0.00    -0.030 A 
ATOM     24  Cl  UNL A   1      33.252  20.647  26.367  1.00  0.00    -0.082 Cl
ATOM     25  C   UNL A   1      35.938  22.376  23.934  1.00  0.00     0.006 A 
ATOM     26  C   UNL A   1      35.930  20.116  24.953  1.00  0.00     0.046 C 
ENDBRANCH  16  18
ENDBRANCH  13  14
ENDBRANCH  10  13
ENDBRANCH   6  10
ENDBRANCH   3   6
ENDBRANCH   1   2
BRANCH   1  27
ATOM     27  C   UNL A   1      33.680  29.053  27.208  1.00  0.00     0.042 C 
BRANCH  27  28
ATOM     28  C   UNL A   1      35.009  29.781  27.446  1.00  0.00     0.118 C 
BRANCH  28  29
ATOM     29  N   UNL A   1      35.136  30.438  28.748  1.00  0.00    -0.352 N 
ATOM     30  C   UNL A   1      36.208  30.496  29.618  1.00  0.00     0.251 C 
ATOM     31  H   UNL A   1      34.331  30.914  29.052  1.00  0.00     0.163 HD
ATOM     32  O   UNL A   1      36.091  31.089  30.692  1.00  0.00    -0.269 OA
BRANCH  30  33
ATOM     33  C   UNL A   1      37.483  29.816  29.294  1.00  0.00     0.039 A 
ATOM     34  C   UNL A   1      37.938  29.801  27.970  1.00  0.00     0.014 A 
ATOM     35  C   UNL A   1      38.252  29.228  30.296  1.00  0.00     0.014 A 
ATOM     36  C   UNL A   1      39.217  29.313  27.680  1.00  0.00     0.010 A 
ATOM     37  C   UNL A   1      39.562  28.845  30.025  1.00  0.00     0.010 A 
ATOM     38  C   UNL A   1      40.067  28.892  28.716  1.00  0.00    -0.014 A 
BRANCH  38  39
ATOM     39  C   UNL A   1      41.485  28.509  28.474  1.00  0.00     0.031 A 
ATOM     40  C   UNL A   1      42.560  29.566  28.483  1.00  0.00     0.074 A 
ATOM     41  C   UNL A   1      41.792  27.239  28.136  1.00  0.00     0.049 A 
ATOM     42  N   UNL A   1      43.821  29.466  28.149  1.00  0.00    -0.248 NA
ATOM     43  C   UNL A   1      42.153  30.924  28.880  1.00  0.00     0.031 C 
ATOM     44  C   UNL A   1      40.840  26.130  28.034  1.00  0.00     0.029 A 
ATOM     45  N   UNL A   1      42.996  26.668  27.799  1.00  0.00    -0.354 N 
ATOM     46  C   UNL A   1      44.343  30.750  28.258  1.00  0.00     0.074 A 
ATOM     47  C   UNL A   1      43.251  31.621  28.634  1.00  0.00     0.031 C 
ATOM     48  C   UNL A   1      41.498  25.010  27.693  1.00  0.00     0.029 A 
ATOM     49  C   UNL A   1      42.909  25.327  27.503  1.00  0.00     0.049 A 
ATOM     50  H   UNL A   1      43.841  27.171  27.772  1.00  0.00     0.167 HD
ATOM     51  C   UNL A   1      45.620  31.167  28.084  1.00  0.00     0.031 A 
ATOM     52  C   UNL A   1      43.856  24.450  27.112  1.00  0.00     0.031 A 
ATOM     53  C   UNL A   1      46.711  30.293  27.749  1.00  0.00     0.049 A 
ATOM     54  C   UNL A   1      45.272  24.931  26.946  1.00  0.00     0.074 A 
ATOM     55  C   UNL A   1      48.055  30.600  27.626  1.00  0.00     0.029 A 
ATOM     56  N   UNL A   1      46.584  28.935  27.492  1.00  0.00    -0.354 N 
ATOM     57  N   UNL A   1      45.756  26.138  27.115  1.00  0.00    -0.248 NA
ATOM     58  C   UNL A   1      46.270  23.930  26.543  1.00  0.00     0.031 C 
ATOM     59  C   UNL A   1      48.734  29.436  27.253  1.00  0.00     0.029 A 
ATOM     60  C   UNL A   1      47.822  28.395  27.193  1.00  0.00     0.049 A 
ATOM     61  H   UNL A   1      45.739  28.431  27.520  1.00  0.00     0.167 HD
ATOM     62  C   UNL A   1      47.118  26.038  26.858  1.00  0.00     0.074 A 
ATOM     63  C   UNL A   1      47.384  24.650  26.541  1.00  0.00     0.031 C 
ATOM     64  C   UNL A   1      48.064  27.009  26.879  1.00  0.00     0.031 A 
BRANCH  51  65
ATOM     65  C   UNL A   1      45.902  32.637  28.262  1.00  0.00    -0.014 A 
ATOM     66  C   UNL A   1      46.245  33.163  29.521  1.00  0.00     0.010 A 
ATOM     67  C   UNL A   1      45.845  33.501  27.152  1.00  0.00     0.010 A 
ATOM     68  C   UNL A   1      46.473  34.533  29.677  1.00  0.00     0.020 A 
ATOM     69  C   UNL A   1      46.103  34.866  27.299  1.00  0.00     0.020 A 
ATOM     70  C   UNL A   1      46.397  35.377  28.566  1.00  0.00     0.054 A 
BRANCH  70  71
ATOM     71  S   UNL A   1      46.711  37.148  28.797  1.00  0.00     0.124 S 
ATOM     72  O   UNL A   1      47.445  37.484  27.579  1.00  0.00    -0.237 OA
ATOM     73  O   UNL A   1      45.363  37.704  28.892  1.00  0.00    -0.237 OA
ATOM     74  O   UNL A   1      47.493  37.203  30.030  1.00  0.00    -0.744 OA
ENDBRANCH  70  71
ENDBRANCH  51  65
BRANCH  52  75
ATOM     75  C   UNL A   1      43.500  23.024  26.868  1.00  0.00    -0.014 A 
ATOM     76  C   UNL A   1      43.026  22.220  27.920  1.00  0.00     0.010 A 
ATOM     77  C   UNL A   1      43.618  22.464  25.582  1.00  0.00     0.010 A 
ATOM     78  C   UNL A   1      42.694  20.881  27.697  1.00  0.00     0.020 A 
ATOM     79  C   UNL A   1      43.263  21.132  25.349  1.00  0.00     0.020 A 
ATOM     80  C   UNL A   1      42.812  20.345  26.412  1.00  0.00     0.054 A 
BRANCH  80  81
ATOM     81  S   UNL A   1      42.325  18.619  26.134  1.00  0.00     0.124 S 
ATOM     82  O   UNL A   1      43.263  18.201  25.097  1.00  0.00    -0.237 OA
ATOM     83  O   UNL A   1      42.527  18.017  27.450  1.00  0.00    -0.237 OA
ATOM     84  O   UNL A   1      40.930  18.722  25.713  1.00  0.00    -0.744 OA
ENDBRANCH  80  81
ENDBRANCH  52  75
BRANCH  64  85
ATOM     85  C   UNL A   1      49.480  26.601  26.575  1.00  0.00    -0.014 A 
ATOM     86  C   UNL A   1      50.320  26.094  27.582  1.00  0.00     0.010 A 
ATOM     87  C   UNL A   1      49.954  26.666  25.252  1.00  0.00     0.010 A 
ATOM     88  C   UNL A   1      51.620  25.685  27.275  1.00  0.00     0.020 A 
ATOM     89  C   UNL A   1      51.244  26.232  24.937  1.00  0.00     0.020 A 
ATOM     90  C   UNL A   1      52.073  25.756  25.953  1.00  0.00     0.054 A 
BRANCH  90  91
ATOM     91  S   UNL A   1      53.747  25.169  25.573  1.00  0.00     0.124 S 
ATOM     92  O   UNL A   1      54.482  25.548  26.776  1.00  0.00    -0.237 OA
ATOM     93  O   UNL A   1      53.549  23.735  25.383  1.00  0.00    -0.237 OA
ATOM     94  O   UNL A   1      54.105  25.907  24.364  1.00  0.00    -0.744 OA
ENDBRANCH  90  91
ENDBRANCH  64  85
ENDBRANCH  38  39
ENDBRANCH  30  33
ENDBRANCH  28  29
ENDBRANCH  27  28
ENDBRANCH   1  27
TORSDOF 18
ENDMDL
