MODEL 1
REMARK VINA RESULT:     -11.6      0.000      0.000
REMARK SMILES C[C@@H]1CCCN(c2cc(Br)ccc2/C=C/C(=O)NCCCNC(=O)c2ccc(-c3c4nc(c(-c5ccc(S(=O)(=O)[O-])cc5)c5ccc([nH]5)c(-c5ccc(S(=O)(=O)[O-])cc5)c5nc(c(-c6ccc(S(=O)(=O)[O-])cc6)c6ccc3[nH]6)C=C5)C=C4)cc2)C1
REMARK SMILES IDX 20 1 19 2 18 3 16 4 17 5 15 7 14 8 13 9 7 10 8 11 9 12 12 13
REMARK SMILES IDX 10 14 11 15 6 16 1 17 2 18 3 19 85 20 4 21 5 22 21 23 22 24
REMARK SMILES IDX 23 25 24 27 25 28 26 29 84 30 27 31 83 32 28 33 29 34 30 35
REMARK SMILES IDX 77 36 31 37 82 38 76 39 78 40 32 41 81 42 75 43 74 44 33 46
REMARK SMILES IDX 63 47 44 48 62 49 45 50 48 51 61 52 79 53 46 54 47 55 60 57
REMARK SMILES IDX 80 58 49 59 34 60 35 61 43 62 36 63 42 64 37 65 38 66 39 67
REMARK SMILES IDX 40 68 41 69 64 70 65 71 73 72 66 73 72 74 67 75 68 76 69 77
REMARK SMILES IDX 70 78 71 79 50 80 51 81 59 82 52 83 58 84 53 85 54 86 55 87
REMARK SMILES IDX 56 88 57 89
REMARK H PARENT 18 6 22 26 78 45 48 56
REMARK Flexibility Score: inf
ROOT
ATOM      1  C   UNL A   1      35.152  23.001  25.385  1.00  0.00     0.042 C 
ENDROOT
BRANCH   1   2
ATOM      2  C   UNL A   1      33.961  23.951  25.285  1.00  0.00     0.118 C 
BRANCH   2   3
ATOM      3  N   UNL A   1      32.980  23.699  26.321  1.00  0.00    -0.352 N 
ATOM      4  C   UNL A   1      31.688  24.114  26.412  1.00  0.00     0.244 C 
ATOM      5  O   UNL A   1      30.960  23.664  27.293  1.00  0.00    -0.270 OA
ATOM      6  H   UNL A   1      33.296  23.144  27.072  1.00  0.00     0.163 HD
BRANCH   4   7
ATOM      7  C   UNL A   1      31.118  25.030  25.400  1.00  0.00     0.072 C 
ATOM      8  C   UNL A   1      31.039  26.362  25.547  1.00  0.00     0.016 C 
BRANCH   8   9
ATOM      9  C   UNL A   1      30.392  27.261  24.570  1.00  0.00    -0.002 A 
ATOM     10  C   UNL A   1      31.002  28.478  24.168  1.00  0.00     0.045 A 
ATOM     11  C   UNL A   1      30.291  29.330  23.304  1.00  0.00     0.042 A 
ATOM     12  C   UNL A   1      29.014  28.998  22.852  1.00  0.00     0.020 A 
ATOM     13  C   UNL A   1      29.092  26.959  24.120  1.00  0.00     0.011 A 
ATOM     14  Br  UNL A   1      28.097  30.168  21.684  1.00  0.00    -0.051 Br
ATOM     15  C   UNL A   1      28.409  27.818  23.260  1.00  0.00     0.016 A 
BRANCH  10  16
ATOM     16  N   UNL A   1      32.268  28.857  24.583  1.00  0.00    -0.371 N 
ATOM     17  C   UNL A   1      33.484  30.790  27.624  1.00  0.00     0.009 C 
ATOM     18  C   UNL A   1      33.152  29.569  26.767  1.00  0.00     0.005 C 
ATOM     19  C   UNL A   1      34.430  28.773  26.454  1.00  0.00     0.007 C 
ATOM     20  C   UNL A   1      32.445  29.997  25.472  1.00  0.00     0.119 C 
ATOM     21  C   UNL A   1      34.122  27.582  25.547  1.00  0.00     0.022 C 
ATOM     22  C   UNL A   1      33.427  28.029  24.264  1.00  0.00     0.116 C 
ENDBRANCH  10  16
ENDBRANCH   8   9
ENDBRANCH   4   7
ENDBRANCH   2   3
ENDBRANCH   1   2
BRANCH   1  23
ATOM     23  C   UNL A   1      36.471  23.702  25.689  1.00  0.00     0.118 C 
BRANCH  23  24
ATOM     24  N   UNL A   1      37.561  22.751  25.850  1.00  0.00    -0.352 N 
ATOM     25  C   UNL A   1      38.857  22.934  26.261  1.00  0.00     0.251 C 
ATOM     26  H   UNL A   1      37.330  21.819  25.629  1.00  0.00     0.163 HD
ATOM     27  O   UNL A   1      39.662  22.021  26.092  1.00  0.00    -0.269 OA
BRANCH  25  28
ATOM     28  C   UNL A   1      39.299  24.201  26.889  1.00  0.00     0.039 A 
ATOM     29  C   UNL A   1      38.947  24.438  28.222  1.00  0.00     0.014 A 
ATOM     30  C   UNL A   1      39.984  25.184  26.170  1.00  0.00     0.014 A 
ATOM     31  C   UNL A   1      39.313  25.637  28.838  1.00  0.00     0.010 A 
ATOM     32  C   UNL A   1      40.412  26.349  26.806  1.00  0.00     0.010 A 
ATOM     33  C   UNL A   1      40.068  26.594  28.142  1.00  0.00    -0.014 A 
BRANCH  33  34
ATOM     34  C   UNL A   1      40.499  27.846  28.814  1.00  0.00     0.031 A 
ATOM     35  C   UNL A   1      41.907  28.004  29.322  1.00  0.00     0.074 A 
ATOM     36  C   UNL A   1      39.608  28.841  28.986  1.00  0.00     0.049 A 
ATOM     37  N   UNL A   1      42.472  29.049  29.873  1.00  0.00    -0.248 NA
ATOM     38  C   UNL A   1      42.788  26.830  29.217  1.00  0.00     0.031 C 
ATOM     39  C   UNL A   1      38.201  28.792  28.582  1.00  0.00     0.029 A 
ATOM     40  N   UNL A   1      39.757  30.091  29.527  1.00  0.00    -0.354 N 
ATOM     41  C   UNL A   1      43.767  28.656  30.192  1.00  0.00     0.074 A 
ATOM     42  C   UNL A   1      43.887  27.263  29.817  1.00  0.00     0.031 C 
ATOM     43  C   UNL A   1      37.630  29.978  28.842  1.00  0.00     0.029 A 
ATOM     44  C   UNL A   1      38.620  30.860  29.453  1.00  0.00     0.049 A 
ATOM     45  H   UNL A   1      40.597  30.408  29.932  1.00  0.00     0.167 HD
ATOM     46  C   UNL A   1      44.772  29.391  30.730  1.00  0.00     0.031 A 
ATOM     47  C   UNL A   1      38.403  32.138  29.813  1.00  0.00     0.031 A 
ATOM     48  C   UNL A   1      44.650  30.776  31.103  1.00  0.00     0.049 A 
ATOM     49  C   UNL A   1      39.532  32.941  30.390  1.00  0.00     0.074 A 
ATOM     50  C   UNL A   1      45.622  31.626  31.603  1.00  0.00     0.029 A 
ATOM     51  N   UNL A   1      43.479  31.515  31.022  1.00  0.00    -0.354 N 
ATOM     52  N   UNL A   1      40.771  32.573  30.619  1.00  0.00    -0.248 NA
ATOM     53  C   UNL A   1      39.237  34.336  30.739  1.00  0.00     0.031 C 
ATOM     54  C   UNL A   1      45.027  32.867  31.865  1.00  0.00     0.029 A 
ATOM     55  C   UNL A   1      43.697  32.804  31.482  1.00  0.00     0.049 A 
ATOM     56  H   UNL A   1      42.620  31.174  30.686  1.00  0.00     0.167 HD
ATOM     57  C   UNL A   1      41.410  33.699  31.125  1.00  0.00     0.074 A 
ATOM     58  C   UNL A   1      40.424  34.763  31.148  1.00  0.00     0.031 C 
ATOM     59  C   UNL A   1      42.697  33.842  31.528  1.00  0.00     0.031 A 
BRANCH  46  60
ATOM     60  C   UNL A   1      46.085  28.686  30.959  1.00  0.00    -0.014 A 
ATOM     61  C   UNL A   1      47.064  28.626  29.951  1.00  0.00     0.010 A 
ATOM     62  C   UNL A   1      46.335  28.059  32.192  1.00  0.00     0.010 A 
ATOM     63  C   UNL A   1      48.238  27.892  30.146  1.00  0.00     0.020 A 
ATOM     64  C   UNL A   1      47.521  27.348  32.402  1.00  0.00     0.020 A 
ATOM     65  C   UNL A   1      48.452  27.245  31.366  1.00  0.00     0.054 A 
BRANCH  65  66
ATOM     66  S   UNL A   1      49.966  26.270  31.585  1.00  0.00     0.124 S 
ATOM     67  O   UNL A   1      50.997  27.303  31.536  1.00  0.00    -0.237 OA
ATOM     68  O   UNL A   1      49.765  25.646  32.890  1.00  0.00    -0.237 OA
ATOM     69  O   UNL A   1      49.952  25.350  30.449  1.00  0.00    -0.744 OA
ENDBRANCH  65  66
ENDBRANCH  46  60
BRANCH  47  70
ATOM     70  C   UNL A   1      37.069  32.748  29.568  1.00  0.00    -0.014 A 
ATOM     71  C   UNL A   1      36.122  32.804  30.605  1.00  0.00     0.010 A 
ATOM     72  C   UNL A   1      36.764  33.327  28.325  1.00  0.00     0.010 A 
ATOM     73  C   UNL A   1      34.891  33.435  30.405  1.00  0.00     0.020 A 
ATOM     74  C   UNL A   1      35.542  33.978  28.128  1.00  0.00     0.020 A 
ATOM     75  C   UNL A   1      34.613  34.025  29.169  1.00  0.00     0.054 A 
BRANCH  75  76
ATOM     76  S   UNL A   1      33.050  34.926  28.962  1.00  0.00     0.124 S 
ATOM     77  O   UNL A   1      32.506  34.906  30.316  1.00  0.00    -0.237 OA
ATOM     78  O   UNL A   1      33.498  36.230  28.479  1.00  0.00    -0.237 OA
ATOM     79  O   UNL A   1      32.323  34.124  27.980  1.00  0.00    -0.744 OA
ENDBRANCH  75  76
ENDBRANCH  47  70
BRANCH  59  80
ATOM     80  C   UNL A   1      43.105  35.205  32.020  1.00  0.00    -0.014 A 
ATOM     81  C   UNL A   1      42.883  35.592  33.353  1.00  0.00     0.010 A 
ATOM     82  C   UNL A   1      43.712  36.112  31.133  1.00  0.00     0.010 A 
ATOM     83  C   UNL A   1      43.211  36.882  33.778  1.00  0.00     0.020 A 
ATOM     84  C   UNL A   1      44.065  37.395  31.560  1.00  0.00     0.020 A 
ATOM     85  C   UNL A   1      43.790  37.779  32.875  1.00  0.00     0.054 A 
BRANCH  85  86
ATOM     86  S   UNL A   1      44.203  39.451  33.442  1.00  0.00     0.124 S 
ATOM     87  O   UNL A   1      42.882  40.021  33.692  1.00  0.00    -0.237 OA
ATOM     88  O   UNL A   1      45.014  39.200  34.631  1.00  0.00    -0.237 OA
ATOM     89  O   UNL A   1      44.928  40.029  32.313  1.00  0.00    -0.744 OA
ENDBRANCH  85  86
ENDBRANCH  59  80
ENDBRANCH  33  34
ENDBRANCH  25  28
ENDBRANCH  23  24
ENDBRANCH   1  23
TORSDOF 15
ENDMDL
MODEL 2
REMARK VINA RESULT:     -11.5      3.156      9.584
REMARK SMILES C[C@@H]1CCCN(c2cc(Br)ccc2/C=C/C(=O)NCCCNC(=O)c2ccc(-c3c4nc(c(-c5ccc(S(=O)(=O)[O-])cc5)c5ccc([nH]5)c(-c5ccc(S(=O)(=O)[O-])cc5)c5nc(c(-c6ccc(S(=O)(=O)[O-])cc6)c6ccc3[nH]6)C=C5)C=C4)cc2)C1
REMARK SMILES IDX 20 1 19 2 18 3 16 4 17 5 15 7 14 8 13 9 7 10 8 11 9 12 12 13
REMARK SMILES IDX 10 14 11 15 6 16 1 17 2 18 3 19 85 20 4 21 5 22 21 23 22 24
REMARK SMILES IDX 23 25 24 27 25 28 26 29 84 30 27 31 83 32 28 33 29 34 30 35
REMARK SMILES IDX 77 36 31 37 82 38 76 39 78 40 32 41 81 42 75 43 74 44 33 46
REMARK SMILES IDX 63 47 44 48 62 49 45 50 48 51 61 52 79 53 46 54 47 55 60 57
REMARK SMILES IDX 80 58 49 59 34 60 35 61 43 62 36 63 42 64 37 65 38 66 39 67
REMARK SMILES IDX 40 68 41 69 64 70 65 71 73 72 66 73 72 74 67 75 68 76 69 77
REMARK SMILES IDX 70 78 71 79 50 80 51 81 59 82 52 83 58 84 53 85 54 86 55 87
REMARK SMILES IDX 56 88 57 89
REMARK H PARENT 18 6 22 26 78 45 48 56
REMARK Flexibility Score: inf
ROOT
ATOM      1  C   UNL A   1      33.963  27.729  25.499  1.00  0.00     0.042 C 
ENDROOT
BRANCH   1   2
ATOM      2  C   UNL A   1      32.977  26.900  24.679  1.00  0.00     0.118 C 
BRANCH   2   3
ATOM      3  N   UNL A   1      33.332  26.873  23.274  1.00  0.00    -0.352 N 
ATOM      4  C   UNL A   1      33.281  25.844  22.386  1.00  0.00     0.244 C 
ATOM      5  O   UNL A   1      33.472  26.055  21.191  1.00  0.00    -0.270 OA
ATOM      6  H   UNL A   1      33.658  27.728  22.907  1.00  0.00     0.163 HD
BRANCH   4   7
ATOM      7  C   UNL A   1      32.900  24.485  22.830  1.00  0.00     0.072 C 
ATOM      8  C   UNL A   1      33.776  23.535  23.190  1.00  0.00     0.016 C 
BRANCH   8   9
ATOM      9  C   UNL A   1      33.393  22.154  23.550  1.00  0.00    -0.002 A 
ATOM     10  C   UNL A   1      33.984  21.487  24.654  1.00  0.00     0.045 A 
ATOM     11  C   UNL A   1      33.640  20.143  24.886  1.00  0.00     0.042 A 
ATOM     12  C   UNL A   1      32.745  19.473  24.054  1.00  0.00     0.020 A 
ATOM     13  C   UNL A   1      32.510  21.449  22.709  1.00  0.00     0.011 A 
ATOM     14  Br  UNL A   1      32.302  17.669  24.407  1.00  0.00    -0.051 Br
ATOM     15  C   UNL A   1      32.180  20.119  22.963  1.00  0.00     0.016 A 
BRANCH  10  16
ATOM     16  N   UNL A   1      34.877  22.104  25.514  1.00  0.00    -0.371 N 
ATOM     17  C   UNL A   1      38.676  22.094  25.687  1.00  0.00     0.009 C 
ATOM     18  C   UNL A   1      37.280  22.604  25.331  1.00  0.00     0.005 C 
ATOM     19  C   UNL A   1      37.005  23.943  26.034  1.00  0.00     0.007 C 
ATOM     20  C   UNL A   1      36.215  21.561  25.706  1.00  0.00     0.119 C 
ATOM     21  C   UNL A   1      35.590  24.435  25.735  1.00  0.00     0.022 C 
ATOM     22  C   UNL A   1      34.547  23.389  26.122  1.00  0.00     0.116 C 
ENDBRANCH  10  16
ENDBRANCH   8   9
ENDBRANCH   4   7
ENDBRANCH   2   3
ENDBRANCH   1   2
BRANCH   1  23
ATOM     23  C   UNL A   1      33.455  28.083  26.892  1.00  0.00     0.118 C 
BRANCH  23  24
ATOM     24  N   UNL A   1      33.356  29.524  27.078  1.00  0.00    -0.352 N 
ATOM     25  C   UNL A   1      34.205  30.409  27.692  1.00  0.00     0.251 C 
ATOM     26  H   UNL A   1      32.544  29.932  26.698  1.00  0.00     0.163 HD
ATOM     27  O   UNL A   1      33.798  31.543  27.934  1.00  0.00    -0.269 OA
BRANCH  25  28
ATOM     28  C   UNL A   1      35.584  30.023  28.071  1.00  0.00     0.039 A 
ATOM     29  C   UNL A   1      36.584  30.091  27.095  1.00  0.00     0.014 A 
ATOM     30  C   UNL A   1      35.891  29.529  29.342  1.00  0.00     0.014 A 
ATOM     31  C   UNL A   1      37.889  29.701  27.403  1.00  0.00     0.010 A 
ATOM     32  C   UNL A   1      37.209  29.208  29.670  1.00  0.00     0.010 A 
ATOM     33  C   UNL A   1      38.217  29.276  28.700  1.00  0.00    -0.014 A 
BRANCH  33  34
ATOM     34  C   UNL A   1      39.616  28.910  29.040  1.00  0.00     0.031 A 
ATOM     35  C   UNL A   1      40.498  29.858  29.806  1.00  0.00     0.074 A 
ATOM     36  C   UNL A   1      40.099  27.719  28.637  1.00  0.00     0.049 A 
ATOM     37  N   UNL A   1      41.718  29.677  30.244  1.00  0.00    -0.248 NA
ATOM     38  C   UNL A   1      39.946  31.190  30.100  1.00  0.00     0.031 C 
ATOM     39  C   UNL A   1      39.361  26.732  27.847  1.00  0.00     0.029 A 
ATOM     40  N   UNL A   1      41.320  27.131  28.851  1.00  0.00    -0.354 N 
ATOM     41  C   UNL A   1      42.086  30.871  30.851  1.00  0.00     0.074 A 
ATOM     42  C   UNL A   1      40.976  31.785  30.682  1.00  0.00     0.031 C 
ATOM     43  C   UNL A   1      40.124  25.639  27.688  1.00  0.00     0.029 A 
ATOM     44  C   UNL A   1      41.411  25.859  28.340  1.00  0.00     0.049 A 
ATOM     45  H   UNL A   1      42.059  27.577  29.323  1.00  0.00     0.167 HD
ATOM     46  C   UNL A   1      43.233  31.177  31.508  1.00  0.00     0.031 A 
ATOM     47  C   UNL A   1      42.409  24.958  28.407  1.00  0.00     0.031 A 
ATOM     48  C   UNL A   1      44.336  30.266  31.673  1.00  0.00     0.049 A 
ATOM     49  C   UNL A   1      43.664  25.307  29.154  1.00  0.00     0.074 A 
ATOM     50  C   UNL A   1      45.519  30.457  32.368  1.00  0.00     0.029 A 
ATOM     51  N   UNL A   1      44.394  28.991  31.131  1.00  0.00    -0.354 N 
ATOM     52  N   UNL A   1      43.965  26.418  29.783  1.00  0.00    -0.248 NA
ATOM     53  C   UNL A   1      44.704  24.273  29.212  1.00  0.00     0.031 C 
ATOM     54  C   UNL A   1      46.310  29.312  32.209  1.00  0.00     0.029 A 
ATOM     55  C   UNL A   1      45.600  28.391  31.457  1.00  0.00     0.049 A 
ATOM     56  H   UNL A   1      43.683  28.573  30.595  1.00  0.00     0.167 HD
ATOM     57  C   UNL A   1      45.226  26.211  30.329  1.00  0.00     0.074 A 
ATOM     58  C   UNL A   1      45.619  24.861  29.971  1.00  0.00     0.031 C 
ATOM     59  C   UNL A   1      45.989  27.058  31.066  1.00  0.00     0.031 A 
BRANCH  46  60
ATOM     60  C   UNL A   1      43.344  32.569  32.074  1.00  0.00    -0.014 A 
ATOM     61  C   UNL A   1      43.899  33.620  31.319  1.00  0.00     0.010 A 
ATOM     62  C   UNL A   1      42.906  32.828  33.385  1.00  0.00     0.010 A 
ATOM     63  C   UNL A   1      44.078  34.884  31.889  1.00  0.00     0.020 A 
ATOM     64  C   UNL A   1      43.058  34.099  33.949  1.00  0.00     0.020 A 
ATOM     65  C   UNL A   1      43.670  35.111  33.206  1.00  0.00     0.054 A 
BRANCH  65  66
ATOM     66  S   UNL A   1      43.945  36.749  33.936  1.00  0.00     0.124 S 
ATOM     67  O   UNL A   1      45.229  36.566  34.606  1.00  0.00    -0.237 OA
ATOM     68  O   UNL A   1      43.965  37.625  32.769  1.00  0.00    -0.237 OA
ATOM     69  O   UNL A   1      42.798  36.926  34.825  1.00  0.00    -0.744 OA
ENDBRANCH  65  66
ENDBRANCH  46  60
BRANCH  47  70
ATOM     70  C   UNL A   1      42.220  23.614  27.802  1.00  0.00    -0.014 A 
ATOM     71  C   UNL A   1      42.727  23.343  26.520  1.00  0.00     0.010 A 
ATOM     72  C   UNL A   1      41.592  22.585  28.525  1.00  0.00     0.010 A 
ATOM     73  C   UNL A   1      42.615  22.064  25.970  1.00  0.00     0.020 A 
ATOM     74  C   UNL A   1      41.496  21.298  27.986  1.00  0.00     0.020 A 
ATOM     75  C   UNL A   1      42.006  21.047  26.711  1.00  0.00     0.054 A 
BRANCH  75  76
ATOM     76  S   UNL A   1      41.960  19.369  26.018  1.00  0.00     0.124 S 
ATOM     77  O   UNL A   1      42.454  18.567  27.131  1.00  0.00    -0.237 OA
ATOM     78  O   UNL A   1      40.544  19.200  25.695  1.00  0.00    -0.237 OA
ATOM     79  O   UNL A   1      42.847  19.455  24.861  1.00  0.00    -0.744 OA
ENDBRANCH  75  76
ENDBRANCH  47  70
BRANCH  59  80
ATOM     80  C   UNL A   1      47.320  26.535  31.535  1.00  0.00    -0.014 A 
ATOM     81  C   UNL A   1      48.480  26.701  30.758  1.00  0.00     0.010 A 
ATOM     82  C   UNL A   1      47.410  25.864  32.767  1.00  0.00     0.010 A 
ATOM     83  C   UNL A   1      49.696  26.157  31.178  1.00  0.00     0.020 A 
ATOM     84  C   UNL A   1      48.629  25.340  33.205  1.00  0.00     0.020 A 
ATOM     85  C   UNL A   1      49.760  25.469  32.394  1.00  0.00     0.054 A 
BRANCH  85  86
ATOM     86  S   UNL A   1      51.345  24.764  32.921  1.00  0.00     0.124 S 
ATOM     87  O   UNL A   1      52.255  25.266  31.896  1.00  0.00    -0.237 OA
ATOM     88  O   UNL A   1      51.526  25.332  34.255  1.00  0.00    -0.237 OA
ATOM     89  O   UNL A   1      51.107  23.322  32.893  1.00  0.00    -0.744 OA
ENDBRANCH  85  86
ENDBRANCH  59  80
ENDBRANCH  33  34
ENDBRANCH  25  28
ENDBRANCH  23  24
ENDBRANCH   1  23
TORSDOF 15
ENDMDL
MODEL 3
REMARK VINA RESULT:     -11.0      3.993      5.973
REMARK SMILES C[C@@H]1CCCN(c2cc(Br)ccc2/C=C/C(=O)NCCCNC(=O)c2ccc(-c3c4nc(c(-c5ccc(S(=O)(=O)[O-])cc5)c5ccc([nH]5)c(-c5ccc(S(=O)(=O)[O-])cc5)c5nc(c(-c6ccc(S(=O)(=O)[O-])cc6)c6ccc3[nH]6)C=C5)C=C4)cc2)C1
REMARK SMILES IDX 20 1 19 2 18 3 16 4 17 5 15 7 14 8 13 9 7 10 8 11 9 12 12 13
REMARK SMILES IDX 10 14 11 15 6 16 1 17 2 18 3 19 85 20 4 21 5 22 21 23 22 24
REMARK SMILES IDX 23 25 24 27 25 28 26 29 84 30 27 31 83 32 28 33 29 34 30 35
REMARK SMILES IDX 77 36 31 37 82 38 76 39 78 40 32 41 81 42 75 43 74 44 33 46
REMARK SMILES IDX 63 47 44 48 62 49 45 50 48 51 61 52 79 53 46 54 47 55 60 57
REMARK SMILES IDX 80 58 49 59 34 60 35 61 43 62 36 63 42 64 37 65 38 66 39 67
REMARK SMILES IDX 40 68 41 69 64 70 65 71 73 72 66 73 72 74 67 75 68 76 69 77
REMARK SMILES IDX 70 78 71 79 50 80 51 81 59 82 52 83 58 84 53 85 54 86 55 87
REMARK SMILES IDX 56 88 57 89
REMARK H PARENT 18 6 22 26 78 45 48 56
REMARK Flexibility Score: inf
ROOT
ATOM      1  C   UNL A   1      38.235  20.029  24.986  1.00  0.00     0.042 C 
ENDROOT
BRANCH   1   2
ATOM      2  C   UNL A   1      37.470  21.315  24.680  1.00  0.00     0.118 C 
BRANCH   2   3
ATOM      3  N   UNL A   1      38.197  22.492  25.112  1.00  0.00    -0.352 N 
ATOM      4  C   UNL A   1      37.739  23.616  25.727  1.00  0.00     0.244 C 
ATOM      5  O   UNL A   1      38.536  24.443  26.162  1.00  0.00    -0.270 OA
ATOM      6  H   UNL A   1      39.166  22.476  24.934  1.00  0.00     0.163 HD
BRANCH   4   7
ATOM      7  C   UNL A   1      36.292  23.808  25.965  1.00  0.00     0.072 C 
ATOM      8  C   UNL A   1      35.435  24.294  25.054  1.00  0.00     0.016 C 
BRANCH   8   9
ATOM      9  C   UNL A   1      34.008  24.563  25.327  1.00  0.00    -0.002 A 
ATOM     10  C   UNL A   1      32.992  23.674  24.893  1.00  0.00     0.045 A 
ATOM     11  C   UNL A   1      31.649  24.035  25.106  1.00  0.00     0.042 A 
ATOM     12  C   UNL A   1      31.315  25.239  25.723  1.00  0.00     0.020 A 
ATOM     13  C   UNL A   1      33.646  25.786  25.926  1.00  0.00     0.011 A 
ATOM     14  Br  UNL A   1      29.498  25.683  25.999  1.00  0.00    -0.051 Br
ATOM     15  C   UNL A   1      32.308  26.120  26.131  1.00  0.00     0.016 A 
BRANCH  10  16
ATOM     16  N   UNL A   1      33.266  22.463  24.277  1.00  0.00    -0.371 N 
ATOM     17  C   UNL A   1      32.888  18.862  25.440  1.00  0.00     0.009 C 
ATOM     18  C   UNL A   1      32.515  20.164  24.731  1.00  0.00     0.005 C 
ATOM     19  C   UNL A   1      32.440  19.941  23.212  1.00  0.00     0.007 C 
ATOM     20  C   UNL A   1      33.526  21.270  25.071  1.00  0.00     0.119 C 
ATOM     21  C   UNL A   1      32.127  21.248  22.484  1.00  0.00     0.022 C 
ATOM     22  C   UNL A   1      33.146  22.330  22.829  1.00  0.00     0.116 C 
ENDBRANCH  10  16
ENDBRANCH   8   9
ENDBRANCH   4   7
ENDBRANCH   2   3
ENDBRANCH   1   2
BRANCH   1  23
ATOM     23  C   UNL A   1      39.150  20.136  26.201  1.00  0.00     0.118 C 
BRANCH  23  24
ATOM     24  N   UNL A   1      40.294  19.241  26.094  1.00  0.00    -0.352 N 
ATOM     25  C   UNL A   1      41.639  19.506  26.066  1.00  0.00     0.251 C 
ATOM     26  H   UNL A   1      40.063  18.286  26.032  1.00  0.00     0.163 HD
ATOM     27  O   UNL A   1      42.409  18.608  25.731  1.00  0.00    -0.269 OA
BRANCH  25  28
ATOM     28  C   UNL A   1      42.173  20.842  26.421  1.00  0.00     0.039 A 
ATOM     29  C   UNL A   1      42.406  21.758  25.390  1.00  0.00     0.014 A 
ATOM     30  C   UNL A   1      42.516  21.177  27.734  1.00  0.00     0.014 A 
ATOM     31  C   UNL A   1      42.944  23.015  25.680  1.00  0.00     0.010 A 
ATOM     32  C   UNL A   1      42.985  22.457  28.032  1.00  0.00     0.010 A 
ATOM     33  C   UNL A   1      43.218  23.383  27.006  1.00  0.00    -0.014 A 
BRANCH  33  34
ATOM     34  C   UNL A   1      43.742  24.736  27.318  1.00  0.00     0.031 A 
ATOM     35  C   UNL A   1      45.182  25.086  27.056  1.00  0.00     0.074 A 
ATOM     36  C   UNL A   1      42.916  25.652  27.861  1.00  0.00     0.049 A 
ATOM     37  N   UNL A   1      45.792  26.235  27.206  1.00  0.00    -0.248 NA
ATOM     38  C   UNL A   1      46.056  23.999  26.584  1.00  0.00     0.031 C 
ATOM     39  C   UNL A   1      41.513  25.422  28.208  1.00  0.00     0.029 A 
ATOM     40  N   UNL A   1      43.134  26.963  28.199  1.00  0.00    -0.354 N 
ATOM     41  C   UNL A   1      47.119  26.008  26.862  1.00  0.00     0.074 A 
ATOM     42  C   UNL A   1      47.235  24.601  26.542  1.00  0.00     0.031 C 
ATOM     43  C   UNL A   1      40.981  26.568  28.660  1.00  0.00     0.029 A 
ATOM     44  C   UNL A   1      42.009  27.603  28.659  1.00  0.00     0.049 A 
ATOM     45  H   UNL A   1      44.011  27.403  28.120  1.00  0.00     0.167 HD
ATOM     46  C   UNL A   1      48.146  26.892  26.797  1.00  0.00     0.031 A 
ATOM     47  C   UNL A   1      41.818  28.886  29.020  1.00  0.00     0.031 A 
ATOM     48  C   UNL A   1      48.029  28.291  27.117  1.00  0.00     0.049 A 
ATOM     49  C   UNL A   1      42.962  29.853  28.925  1.00  0.00     0.074 A 
ATOM     50  C   UNL A   1      48.993  29.281  27.031  1.00  0.00     0.029 A 
ATOM     51  N   UNL A   1      46.875  28.898  27.591  1.00  0.00    -0.354 N 
ATOM     52  N   UNL A   1      44.193  29.636  28.529  1.00  0.00    -0.248 NA
ATOM     53  C   UNL A   1      42.682  31.243  29.308  1.00  0.00     0.031 C 
ATOM     54  C   UNL A   1      48.433  30.479  27.494  1.00  0.00     0.029 A 
ATOM     55  C   UNL A   1      47.108  30.245  27.822  1.00  0.00     0.049 A 
ATOM     56  H   UNL A   1      46.018  28.440  27.740  1.00  0.00     0.167 HD
ATOM     57  C   UNL A   1      44.834  30.868  28.600  1.00  0.00     0.074 A 
ATOM     58  C   UNL A   1      43.846  31.826  29.057  1.00  0.00     0.031 C 
ATOM     59  C   UNL A   1      46.122  31.179  28.307  1.00  0.00     0.031 A 
BRANCH  46  60
ATOM     60  C   UNL A   1      49.489  26.348  26.381  1.00  0.00    -0.014 A 
ATOM     61  C   UNL A   1      50.267  25.578  27.265  1.00  0.00     0.010 A 
ATOM     62  C   UNL A   1      49.988  26.625  25.096  1.00  0.00     0.010 A 
ATOM     63  C   UNL A   1      51.549  25.156  26.897  1.00  0.00     0.020 A 
ATOM     64  C   UNL A   1      51.257  26.181  24.714  1.00  0.00     0.020 A 
ATOM     65  C   UNL A   1      52.041  25.474  25.629  1.00  0.00     0.054 A 
BRANCH  65  66
ATOM     66  S   UNL A   1      53.720  24.947  25.185  1.00  0.00     0.124 S 
ATOM     67  O   UNL A   1      53.941  25.672  23.937  1.00  0.00    -0.237 OA
ATOM     68  O   UNL A   1      54.514  25.401  26.323  1.00  0.00    -0.237 OA
ATOM     69  O   UNL A   1      53.601  23.497  25.050  1.00  0.00    -0.744 OA
ENDBRANCH  65  66
ENDBRANCH  46  60
BRANCH  47  70
ATOM     70  C   UNL A   1      40.463  29.332  29.438  1.00  0.00    -0.014 A 
ATOM     71  C   UNL A   1      40.176  29.527  30.800  1.00  0.00     0.010 A 
ATOM     72  C   UNL A   1      39.477  29.622  28.479  1.00  0.00     0.010 A 
ATOM     73  C   UNL A   1      38.928  30.011  31.198  1.00  0.00     0.020 A 
ATOM     74  C   UNL A   1      38.233  30.125  28.873  1.00  0.00     0.020 A 
ATOM     75  C   UNL A   1      37.966  30.315  30.230  1.00  0.00     0.054 A 
BRANCH  75  76
ATOM     76  S   UNL A   1      36.387  31.035  30.762  1.00  0.00     0.124 S 
ATOM     77  O   UNL A   1      35.928  30.065  31.749  1.00  0.00    -0.237 OA
ATOM     78  O   UNL A   1      36.796  32.335  31.292  1.00  0.00    -0.237 OA
ATOM     79  O   UNL A   1      35.608  31.094  29.527  1.00  0.00    -0.744 OA
ENDBRANCH  75  76
ENDBRANCH  47  70
BRANCH  59  80
ATOM     80  C   UNL A   1      46.523  32.621  28.469  1.00  0.00    -0.014 A 
ATOM     81  C   UNL A   1      46.380  33.537  27.411  1.00  0.00     0.010 A 
ATOM     82  C   UNL A   1      47.055  33.063  29.693  1.00  0.00     0.010 A 
ATOM     83  C   UNL A   1      46.814  34.857  27.557  1.00  0.00     0.020 A 
ATOM     84  C   UNL A   1      47.466  34.389  29.852  1.00  0.00     0.020 A 
ATOM     85  C   UNL A   1      47.365  35.271  28.774  1.00  0.00     0.054 A 
BRANCH  85  86
ATOM     86  S   UNL A   1      47.929  36.987  28.943  1.00  0.00     0.124 S 
ATOM     87  O   UNL A   1      49.374  36.820  29.063  1.00  0.00    -0.237 OA
ATOM     88  O   UNL A   1      47.468  37.604  27.702  1.00  0.00    -0.237 OA
ATOM     89  O   UNL A   1      47.252  37.453  30.151  1.00  0.00    -0.744 OA
ENDBRANCH  85  86
ENDBRANCH  59  80
ENDBRANCH  33  34
ENDBRANCH  25  28
ENDBRANCH  23  24
ENDBRANCH   1  23
TORSDOF 15
ENDMDL
