MODEL 1
REMARK VINA RESULT:     -10.2      0.000      0.000
REMARK SMILES C#CCN(CC(=O)NCCCNC(=O)c1ccc(-c2c3nc(c(-c4ccc(S(=O)(=O)[O-])cc4)c4ccc([nH]4)c(-c4ccc(S(=O)(=O)[O-])cc4)c4nc(c(-c5ccc(S(=O)(=O)[O-])cc5)c5ccc2[nH]5)C=C4)C=C3)cc1)C(=O)NCc1ccnc(C)n1
REMARK SMILES IDX 9 1 8 2 6 3 7 4 5 6 4 7 3 8 2 9 1 10 75 11 76 12 77 13 78 15
REMARK SMILES IDX 79 16 80 17 85 18 81 19 83 20 82 21 84 22 10 23 11 24 12 25
REMARK SMILES IDX 13 26 14 28 15 29 16 30 74 31 17 32 73 33 18 34 19 35 20 36
REMARK SMILES IDX 67 37 21 38 72 39 66 40 68 41 22 42 71 43 65 44 64 45 23 47
REMARK SMILES IDX 53 48 34 49 52 50 35 51 38 52 51 53 69 54 36 55 37 56 50 58
REMARK SMILES IDX 70 59 39 60 24 61 25 62 33 63 26 64 32 65 27 66 28 67 29 68
REMARK SMILES IDX 30 69 31 70 54 71 55 72 63 73 56 74 62 75 57 76 58 77 59 78
REMARK SMILES IDX 60 79 61 80 40 81 41 82 49 83 42 84 48 85 43 86 44 87 45 88
REMARK SMILES IDX 46 89 47 90
REMARK H PARENT 8 5 77 14 12 27 68 46 38 57
REMARK Flexibility Score: inf
ROOT
ATOM      1  C   UNL A   1      32.956  25.863  25.748  1.00  0.00     0.117 C 
ENDROOT
BRANCH   1   2
ATOM      2  N   UNL A   1      31.963  24.890  26.151  1.00  0.00    -0.354 N 
ATOM      3  C   UNL A   1      32.120  23.721  26.838  1.00  0.00     0.239 C 
ATOM      4  O   UNL A   1      31.137  23.283  27.450  1.00  0.00    -0.273 OA
ATOM      5  H   UNL A   1      31.038  25.102  25.890  1.00  0.00     0.163 HD
BRANCH   3   6
ATOM      6  C   UNL A   1      33.492  23.053  27.021  1.00  0.00     0.222 C 
BRANCH   6   7
ATOM      7  N   UNL A   1      34.128  22.566  25.803  1.00  0.00    -0.304 N 
BRANCH   7   8
ATOM      8  C   UNL A   1      35.582  22.653  25.756  1.00  0.00     0.211 C 
BRANCH   8   9
ATOM      9  C   UNL A   1      36.250  21.351  25.348  1.00  0.00    -0.085 C 
ATOM     10  C   UNL A   1      36.824  20.233  24.997  1.00  0.00     0.006 C 
ENDBRANCH   8   9
ENDBRANCH   7   8
BRANCH   7  11
ATOM     11  C   UNL A   1      33.515  22.064  24.693  1.00  0.00     0.318 C 
ATOM     12  O   UNL A   1      33.558  22.664  23.612  1.00  0.00    -0.249 OA
ATOM     13  N   UNL A   1      32.816  20.926  24.659  1.00  0.00    -0.332 N 
ATOM     14  H   UNL A   1      32.411  20.797  23.770  1.00  0.00     0.165 HD
BRANCH  13  15
ATOM     15  C   UNL A   1      32.472  19.821  25.536  1.00  0.00     0.174 C 
BRANCH  15  16
ATOM     16  C   UNL A   1      32.815  18.468  24.941  1.00  0.00     0.063 A 
ATOM     17  C   UNL A   1      33.597  18.404  23.802  1.00  0.00     0.046 A 
ATOM     18  N   UNL A   1      32.389  17.352  25.579  1.00  0.00    -0.236 NA
ATOM     19  C   UNL A   1      33.905  17.145  23.344  1.00  0.00     0.115 A 
ATOM     20  C   UNL A   1      32.759  16.167  25.057  1.00  0.00     0.125 A 
ATOM     21  N   UNL A   1      33.506  16.016  23.950  1.00  0.00    -0.242 NA
ATOM     22  C   UNL A   1      32.333  14.927  25.778  1.00  0.00     0.089 C 
ENDBRANCH  15  16
ENDBRANCH  13  15
ENDBRANCH   7  11
ENDBRANCH   6   7
ENDBRANCH   3   6
ENDBRANCH   1   2
BRANCH   1  23
ATOM     23  C   UNL A   1      32.731  27.267  26.301  1.00  0.00     0.042 C 
BRANCH  23  24
ATOM     24  C   UNL A   1      33.987  28.112  26.464  1.00  0.00     0.118 C 
BRANCH  24  25
ATOM     25  N   UNL A   1      33.722  29.430  27.020  1.00  0.00    -0.352 N 
ATOM     26  C   UNL A   1      34.478  30.228  27.835  1.00  0.00     0.251 C 
ATOM     27  H   UNL A   1      32.852  29.812  26.766  1.00  0.00     0.163 HD
ATOM     28  O   UNL A   1      33.954  31.231  28.327  1.00  0.00    -0.269 OA
BRANCH  26  29
ATOM     29  C   UNL A   1      35.891  29.915  28.143  1.00  0.00     0.039 A 
ATOM     30  C   UNL A   1      36.208  29.453  29.425  1.00  0.00     0.014 A 
ATOM     31  C   UNL A   1      36.913  30.132  27.214  1.00  0.00     0.014 A 
ATOM     32  C   UNL A   1      37.534  29.165  29.757  1.00  0.00     0.010 A 
ATOM     33  C   UNL A   1      38.226  29.776  27.523  1.00  0.00     0.010 A 
ATOM     34  C   UNL A   1      38.554  29.298  28.800  1.00  0.00    -0.014 A 
BRANCH  34  35
ATOM     35  C   UNL A   1      39.959  28.940  29.127  1.00  0.00     0.031 A 
ATOM     36  C   UNL A   1      40.863  29.932  29.809  1.00  0.00     0.074 A 
ATOM     37  C   UNL A   1      40.434  27.730  28.772  1.00  0.00     0.049 A 
ATOM     38  N   UNL A   1      42.118  29.800  30.157  1.00  0.00    -0.248 NA
ATOM     39  C   UNL A   1      40.289  31.250  30.125  1.00  0.00     0.031 C 
ATOM     40  C   UNL A   1      39.672  26.694  28.071  1.00  0.00     0.029 A 
ATOM     41  N   UNL A   1      41.672  27.165  28.952  1.00  0.00    -0.354 N 
ATOM     42  C   UNL A   1      42.488  31.018  30.717  1.00  0.00     0.074 A 
ATOM     43  C   UNL A   1      41.338  31.891  30.620  1.00  0.00     0.031 C 
ATOM     44  C   UNL A   1      40.448  25.610  27.908  1.00  0.00     0.029 A 
ATOM     45  C   UNL A   1      41.772  25.885  28.459  1.00  0.00     0.049 A 
ATOM     46  H   UNL A   1      42.418  27.632  29.392  1.00  0.00     0.167 HD
ATOM     47  C   UNL A   1      43.669  31.373  31.278  1.00  0.00     0.031 A 
ATOM     48  C   UNL A   1      42.809  25.026  28.450  1.00  0.00     0.031 A 
ATOM     49  C   UNL A   1      44.810  30.500  31.378  1.00  0.00     0.049 A 
ATOM     50  C   UNL A   1      44.111  25.443  29.078  1.00  0.00     0.074 A 
ATOM     51  C   UNL A   1      46.036  30.751  31.971  1.00  0.00     0.029 A 
ATOM     52  N   UNL A   1      44.867  29.210  30.875  1.00  0.00    -0.354 N 
ATOM     53  N   UNL A   1      44.421  26.579  29.657  1.00  0.00    -0.248 NA
ATOM     54  C   UNL A   1      45.197  24.454  29.069  1.00  0.00     0.031 C 
ATOM     55  C   UNL A   1      46.850  29.627  31.785  1.00  0.00     0.029 A 
ATOM     56  C   UNL A   1      46.112  28.657  31.127  1.00  0.00     0.049 A 
ATOM     57  H   UNL A   1      44.131  28.753  30.407  1.00  0.00     0.167 HD
ATOM     58  C   UNL A   1      45.729  26.431  30.105  1.00  0.00     0.074 A 
ATOM     59  C   UNL A   1      46.144  25.090  29.744  1.00  0.00     0.031 C 
ATOM     60  C   UNL A   1      46.513  27.323  30.759  1.00  0.00     0.031 A 
BRANCH  47  61
ATOM     61  C   UNL A   1      43.787  32.773  31.823  1.00  0.00    -0.014 A 
ATOM     62  C   UNL A   1      43.399  33.074  33.142  1.00  0.00     0.010 A 
ATOM     63  C   UNL A   1      44.323  33.796  31.020  1.00  0.00     0.010 A 
ATOM     64  C   UNL A   1      43.500  34.379  33.631  1.00  0.00     0.020 A 
ATOM     65  C   UNL A   1      44.454  35.097  31.516  1.00  0.00     0.020 A 
ATOM     66  C   UNL A   1      44.023  35.384  32.812  1.00  0.00     0.054 A 
BRANCH  66  67
ATOM     67  S   UNL A   1      44.157  37.067  33.478  1.00  0.00     0.124 S 
ATOM     68  O   UNL A   1      43.208  37.027  34.588  1.00  0.00    -0.237 OA
ATOM     69  O   UNL A   1      45.564  37.150  33.860  1.00  0.00    -0.237 OA
ATOM     70  O   UNL A   1      43.768  37.916  32.355  1.00  0.00    -0.744 OA
ENDBRANCH  66  67
ENDBRANCH  47  61
BRANCH  48  71
ATOM     71  C   UNL A   1      42.649  23.674  27.849  1.00  0.00    -0.014 A 
ATOM     72  C   UNL A   1      43.026  23.439  26.516  1.00  0.00     0.010 A 
ATOM     73  C   UNL A   1      42.137  22.610  28.614  1.00  0.00     0.010 A 
ATOM     74  C   UNL A   1      42.874  22.169  25.950  1.00  0.00     0.020 A 
ATOM     75  C   UNL A   1      42.010  21.332  28.060  1.00  0.00     0.020 A 
ATOM     76  C   UNL A   1      42.369  21.123  26.727  1.00  0.00     0.054 A 
BRANCH  76  77
ATOM     77  S   UNL A   1      42.230  19.472  25.987  1.00  0.00     0.124 S 
ATOM     78  O   UNL A   1      40.808  19.399  25.672  1.00  0.00    -0.237 OA
ATOM     79  O   UNL A   1      43.130  19.564  24.840  1.00  0.00    -0.237 OA
ATOM     80  O   UNL A   1      42.685  18.582  27.053  1.00  0.00    -0.744 OA
ENDBRANCH  76  77
ENDBRANCH  48  71
BRANCH  60  81
ATOM     81  C   UNL A   1      47.890  26.863  31.162  1.00  0.00    -0.014 A 
ATOM     82  C   UNL A   1      48.102  26.143  32.351  1.00  0.00     0.010 A 
ATOM     83  C   UNL A   1      48.983  27.129  30.317  1.00  0.00     0.010 A 
ATOM     84  C   UNL A   1      49.390  25.735  32.709  1.00  0.00     0.020 A 
ATOM     85  C   UNL A   1      50.267  26.699  30.658  1.00  0.00     0.020 A 
ATOM     86  C   UNL A   1      50.466  26.021  31.861  1.00  0.00     0.054 A 
BRANCH  86  87
ATOM     87  S   UNL A   1      52.126  25.461  32.335  1.00  0.00     0.124 S 
ATOM     88  O   UNL A   1      52.428  26.333  33.467  1.00  0.00    -0.237 OA
ATOM     89  O   UNL A   1      51.909  24.055  32.665  1.00  0.00    -0.237 OA
ATOM     90  O   UNL A   1      52.926  25.697  31.136  1.00  0.00    -0.744 OA
ENDBRANCH  86  87
ENDBRANCH  60  81
ENDBRANCH  34  35
ENDBRANCH  26  29
ENDBRANCH  24  25
ENDBRANCH  23  24
ENDBRANCH   1  23
TORSDOF 19
ENDMDL
MODEL 2
REMARK VINA RESULT:     -10.2      2.953      9.263
REMARK SMILES C#CCN(CC(=O)NCCCNC(=O)c1ccc(-c2c3nc(c(-c4ccc(S(=O)(=O)[O-])cc4)c4ccc([nH]4)c(-c4ccc(S(=O)(=O)[O-])cc4)c4nc(c(-c5ccc(S(=O)(=O)[O-])cc5)c5ccc2[nH]5)C=C4)C=C3)cc1)C(=O)NCc1ccnc(C)n1
REMARK SMILES IDX 9 1 8 2 6 3 7 4 5 6 4 7 3 8 2 9 1 10 75 11 76 12 77 13 78 15
REMARK SMILES IDX 79 16 80 17 85 18 81 19 83 20 82 21 84 22 10 23 11 24 12 25
REMARK SMILES IDX 13 26 14 28 15 29 16 30 74 31 17 32 73 33 18 34 19 35 20 36
REMARK SMILES IDX 67 37 21 38 72 39 66 40 68 41 22 42 71 43 65 44 64 45 23 47
REMARK SMILES IDX 53 48 34 49 52 50 35 51 38 52 51 53 69 54 36 55 37 56 50 58
REMARK SMILES IDX 70 59 39 60 24 61 25 62 33 63 26 64 32 65 27 66 28 67 29 68
REMARK SMILES IDX 30 69 31 70 54 71 55 72 63 73 56 74 62 75 57 76 58 77 59 78
REMARK SMILES IDX 60 79 61 80 40 81 41 82 49 83 42 84 48 85 43 86 44 87 45 88
REMARK SMILES IDX 46 89 47 90
REMARK H PARENT 8 5 77 14 12 27 68 46 38 57
REMARK Flexibility Score: inf
ROOT
ATOM      1  C   UNL A   1      34.560  24.918  25.523  1.00  0.00     0.117 C 
ENDROOT
BRANCH   1   2
ATOM      2  N   UNL A   1      33.970  25.576  24.377  1.00  0.00    -0.354 N 
ATOM      3  C   UNL A   1      33.652  26.891  24.197  1.00  0.00     0.239 C 
ATOM      4  O   UNL A   1      33.583  27.308  23.034  1.00  0.00    -0.273 OA
ATOM      5  H   UNL A   1      33.769  24.988  23.613  1.00  0.00     0.163 HD
BRANCH   3   6
ATOM      6  C   UNL A   1      33.561  27.881  25.369  1.00  0.00     0.222 C 
BRANCH   6   7
ATOM      7  N   UNL A   1      32.214  28.216  25.816  1.00  0.00    -0.304 N 
BRANCH   7   8
ATOM      8  C   UNL A   1      31.612  29.399  25.214  1.00  0.00     0.211 C 
BRANCH   8   9
ATOM      9  C   UNL A   1      30.712  29.080  24.031  1.00  0.00    -0.085 C 
ATOM     10  C   UNL A   1      29.939  28.806  23.017  1.00  0.00     0.006 C 
ENDBRANCH   8   9
ENDBRANCH   7   8
BRANCH   7  11
ATOM     11  C   UNL A   1      31.467  27.564  26.751  1.00  0.00     0.318 C 
ATOM     12  O   UNL A   1      31.467  27.924  27.934  1.00  0.00    -0.249 OA
ATOM     13  N   UNL A   1      30.700  26.499  26.504  1.00  0.00    -0.332 N 
ATOM     14  H   UNL A   1      30.305  26.157  27.340  1.00  0.00     0.165 HD
BRANCH  13  15
ATOM     15  C   UNL A   1      30.271  25.691  25.376  1.00  0.00     0.174 C 
BRANCH  15  16
ATOM     16  C   UNL A   1      30.961  24.341  25.322  1.00  0.00     0.063 A 
ATOM     17  C   UNL A   1      31.178  23.640  26.495  1.00  0.00     0.046 A 
ATOM     18  N   UNL A   1      31.298  23.831  24.113  1.00  0.00    -0.236 NA
ATOM     19  C   UNL A   1      31.769  22.405  26.367  1.00  0.00     0.115 A 
ATOM     20  C   UNL A   1      31.856  22.606  24.097  1.00  0.00     0.125 A 
ATOM     21  N   UNL A   1      32.112  21.864  25.188  1.00  0.00    -0.242 NA
ATOM     22  C   UNL A   1      32.189  22.014  22.764  1.00  0.00     0.089 C 
ENDBRANCH  15  16
ENDBRANCH  13  15
ENDBRANCH   7  11
ENDBRANCH   6   7
ENDBRANCH   3   6
ENDBRANCH   1   2
BRANCH   1  23
ATOM     23  C   UNL A   1      35.333  23.644  25.197  1.00  0.00     0.042 C 
BRANCH  23  24
ATOM     24  C   UNL A   1      36.794  23.848  24.820  1.00  0.00     0.118 C 
BRANCH  24  25
ATOM     25  N   UNL A   1      37.661  22.778  25.291  1.00  0.00    -0.352 N 
ATOM     26  C   UNL A   1      38.807  22.815  26.037  1.00  0.00     0.251 C 
ATOM     27  H   UNL A   1      37.374  21.875  25.027  1.00  0.00     0.163 HD
ATOM     28  O   UNL A   1      39.470  21.781  26.150  1.00  0.00    -0.269 OA
BRANCH  26  29
ATOM     29  C   UNL A   1      39.268  24.056  26.698  1.00  0.00     0.039 A 
ATOM     30  C   UNL A   1      38.864  24.300  28.015  1.00  0.00     0.014 A 
ATOM     31  C   UNL A   1      40.034  25.011  26.022  1.00  0.00     0.014 A 
ATOM     32  C   UNL A   1      39.265  25.470  28.666  1.00  0.00     0.010 A 
ATOM     33  C   UNL A   1      40.493  26.144  26.695  1.00  0.00     0.010 A 
ATOM     34  C   UNL A   1      40.106  26.391  28.020  1.00  0.00    -0.014 A 
BRANCH  34  35
ATOM     35  C   UNL A   1      40.584  27.610  28.723  1.00  0.00     0.031 A 
ATOM     36  C   UNL A   1      41.973  27.665  29.304  1.00  0.00     0.074 A 
ATOM     37  C   UNL A   1      39.750  28.658  28.875  1.00  0.00     0.049 A 
ATOM     38  N   UNL A   1      42.553  28.636  29.961  1.00  0.00    -0.248 NA
ATOM     39  C   UNL A   1      42.811  26.465  29.140  1.00  0.00     0.031 C 
ATOM     40  C   UNL A   1      38.367  28.716  28.394  1.00  0.00     0.029 A 
ATOM     41  N   UNL A   1      39.943  29.877  29.476  1.00  0.00    -0.354 N 
ATOM     42  C   UNL A   1      43.816  28.162  30.304  1.00  0.00     0.074 A 
ATOM     43  C   UNL A   1      43.898  26.801  29.821  1.00  0.00     0.031 C 
ATOM     44  C   UNL A   1      37.848  29.918  28.691  1.00  0.00     0.029 A 
ATOM     45  C   UNL A   1      38.844  30.703  29.413  1.00  0.00     0.049 A 
ATOM     46  H   UNL A   1      40.787  30.136  29.910  1.00  0.00     0.167 HD
ATOM     47  C   UNL A   1      44.821  28.806  30.943  1.00  0.00     0.031 A 
ATOM     48  C   UNL A   1      38.657  31.951  29.883  1.00  0.00     0.031 A 
ATOM     49  C   UNL A   1      44.739  30.163  31.417  1.00  0.00     0.049 A 
ATOM     50  C   UNL A   1      39.788  32.645  30.591  1.00  0.00     0.074 A 
ATOM     51  C   UNL A   1      45.719  30.920  32.036  1.00  0.00     0.029 A 
ATOM     52  N   UNL A   1      43.613  30.967  31.327  1.00  0.00    -0.354 N 
ATOM     53  N   UNL A   1      40.995  32.201  30.850  1.00  0.00    -0.248 NA
ATOM     54  C   UNL A   1      39.537  34.017  31.052  1.00  0.00     0.031 C 
ATOM     55  C   UNL A   1      45.171  32.166  32.360  1.00  0.00     0.029 A 
ATOM     56  C   UNL A   1      43.867  32.205  31.894  1.00  0.00     0.049 A 
ATOM     57  H   UNL A   1      42.758  30.697  30.920  1.00  0.00     0.167 HD
ATOM     58  C   UNL A   1      41.656  33.248  31.481  1.00  0.00     0.074 A 
ATOM     59  C   UNL A   1      40.720  34.353  31.548  1.00  0.00     0.031 C 
ATOM     60  C   UNL A   1      42.925  33.294  31.958  1.00  0.00     0.031 A 
BRANCH  47  61
ATOM     61  C   UNL A   1      46.100  28.043  31.172  1.00  0.00    -0.014 A 
ATOM     62  C   UNL A   1      46.394  27.477  32.427  1.00  0.00     0.010 A 
ATOM     63  C   UNL A   1      47.006  27.857  30.112  1.00  0.00     0.010 A 
ATOM     64  C   UNL A   1      47.590  26.783  32.630  1.00  0.00     0.020 A 
ATOM     65  C   UNL A   1      48.190  27.137  30.304  1.00  0.00     0.020 A 
ATOM     66  C   UNL A   1      48.483  26.621  31.567  1.00  0.00     0.054 A 
BRANCH  66  67
ATOM     67  S   UNL A   1      50.021  25.703  31.855  1.00  0.00     0.124 S 
ATOM     68  O   UNL A   1      50.385  25.295  30.500  1.00  0.00    -0.237 OA
ATOM     69  O   UNL A   1      50.887  26.709  32.461  1.00  0.00    -0.237 OA
ATOM     70  O   UNL A   1      49.615  24.617  32.744  1.00  0.00    -0.744 OA
ENDBRANCH  66  67
ENDBRANCH  47  61
BRANCH  48  71
ATOM     71  C   UNL A   1      37.352  32.636  29.673  1.00  0.00    -0.014 A 
ATOM     72  C   UNL A   1      36.432  32.753  30.729  1.00  0.00     0.010 A 
ATOM     73  C   UNL A   1      37.032  33.190  28.421  1.00  0.00     0.010 A 
ATOM     74  C   UNL A   1      35.205  33.394  30.532  1.00  0.00     0.020 A 
ATOM     75  C   UNL A   1      35.817  33.857  28.228  1.00  0.00     0.020 A 
ATOM     76  C   UNL A   1      34.907  33.944  29.282  1.00  0.00     0.054 A 
BRANCH  76  77
ATOM     77  S   UNL A   1      33.332  34.818  29.065  1.00  0.00     0.124 S 
ATOM     78  O   UNL A   1      32.775  34.779  30.412  1.00  0.00    -0.237 OA
ATOM     79  O   UNL A   1      33.763  36.133  28.595  1.00  0.00    -0.237 OA
ATOM     80  O   UNL A   1      32.629  34.012  28.070  1.00  0.00    -0.744 OA
ENDBRANCH  76  77
ENDBRANCH  48  71
BRANCH  60  81
ATOM     81  C   UNL A   1      43.388  34.594  32.560  1.00  0.00    -0.014 A 
ATOM     82  C   UNL A   1      43.320  34.824  33.945  1.00  0.00     0.010 A 
ATOM     83  C   UNL A   1      43.931  35.589  31.726  1.00  0.00     0.010 A 
ATOM     84  C   UNL A   1      43.747  36.043  34.480  1.00  0.00     0.020 A 
ATOM     85  C   UNL A   1      44.384  36.797  32.260  1.00  0.00     0.020 A 
ATOM     86  C   UNL A   1      44.272  37.024  33.633  1.00  0.00     0.054 A 
BRANCH  86  87
ATOM     87  S   UNL A   1      44.841  38.589  34.352  1.00  0.00     0.124 S 
ATOM     88  O   UNL A   1      46.281  38.370  34.455  1.00  0.00    -0.237 OA
ATOM     89  O   UNL A   1      44.424  39.571  33.355  1.00  0.00    -0.237 OA
ATOM     90  O   UNL A   1      44.129  38.664  35.626  1.00  0.00    -0.744 OA
ENDBRANCH  86  87
ENDBRANCH  60  81
ENDBRANCH  34  35
ENDBRANCH  26  29
ENDBRANCH  24  25
ENDBRANCH  23  24
ENDBRANCH   1  23
TORSDOF 19
ENDMDL
MODEL 3
REMARK VINA RESULT:      -9.8      2.712      4.488
REMARK SMILES C#CCN(CC(=O)NCCCNC(=O)c1ccc(-c2c3nc(c(-c4ccc(S(=O)(=O)[O-])cc4)c4ccc([nH]4)c(-c4ccc(S(=O)(=O)[O-])cc4)c4nc(c(-c5ccc(S(=O)(=O)[O-])cc5)c5ccc2[nH]5)C=C4)C=C3)cc1)C(=O)NCc1ccnc(C)n1
REMARK SMILES IDX 9 1 8 2 6 3 7 4 5 6 4 7 3 8 2 9 1 10 75 11 76 12 77 13 78 15
REMARK SMILES IDX 79 16 80 17 85 18 81 19 83 20 82 21 84 22 10 23 11 24 12 25
REMARK SMILES IDX 13 26 14 28 15 29 16 30 74 31 17 32 73 33 18 34 19 35 20 36
REMARK SMILES IDX 67 37 21 38 72 39 66 40 68 41 22 42 71 43 65 44 64 45 23 47
REMARK SMILES IDX 53 48 34 49 52 50 35 51 38 52 51 53 69 54 36 55 37 56 50 58
REMARK SMILES IDX 70 59 39 60 24 61 25 62 33 63 26 64 32 65 27 66 28 67 29 68
REMARK SMILES IDX 30 69 31 70 54 71 55 72 63 73 56 74 62 75 57 76 58 77 59 78
REMARK SMILES IDX 60 79 61 80 40 81 41 82 49 83 42 84 48 85 43 86 44 87 45 88
REMARK SMILES IDX 46 89 47 90
REMARK H PARENT 8 5 77 14 12 27 68 46 38 57
REMARK Flexibility Score: inf
ROOT
ATOM      1  C   UNL A   1      33.066  26.401  26.022  1.00  0.00     0.117 C 
ENDROOT
BRANCH   1   2
ATOM      2  N   UNL A   1      31.978  25.531  26.417  1.00  0.00    -0.354 N 
ATOM      3  C   UNL A   1      31.964  24.178  26.587  1.00  0.00     0.239 C 
ATOM      4  O   UNL A   1      31.098  23.705  27.333  1.00  0.00    -0.273 OA
ATOM      5  H   UNL A   1      31.120  25.984  26.587  1.00  0.00     0.163 HD
BRANCH   3   6
ATOM      6  C   UNL A   1      33.079  23.270  26.041  1.00  0.00     0.222 C 
BRANCH   6   7
ATOM      7  N   UNL A   1      32.859  22.726  24.707  1.00  0.00    -0.304 N 
BRANCH   7   8
ATOM      8  C   UNL A   1      32.100  21.484  24.634  1.00  0.00     0.211 C 
BRANCH   8   9
ATOM      9  C   UNL A   1      32.979  20.245  24.584  1.00  0.00    -0.085 C 
ATOM     10  C   UNL A   1      33.732  19.181  24.541  1.00  0.00     0.006 C 
ENDBRANCH   8   9
ENDBRANCH   7   8
BRANCH   7  11
ATOM     11  C   UNL A   1      33.305  23.234  23.522  1.00  0.00     0.318 C 
ATOM     12  O   UNL A   1      34.420  22.936  23.079  1.00  0.00    -0.249 OA
ATOM     13  N   UNL A   1      32.622  24.088  22.755  1.00  0.00    -0.332 N 
ATOM     14  H   UNL A   1      33.166  24.369  21.983  1.00  0.00     0.165 HD
BRANCH  13  15
ATOM     15  C   UNL A   1      31.319  24.729  22.714  1.00  0.00     0.174 C 
BRANCH  15  16
ATOM     16  C   UNL A   1      31.395  26.231  22.912  1.00  0.00     0.063 A 
ATOM     17  C   UNL A   1      30.324  26.898  23.478  1.00  0.00     0.046 A 
ATOM     18  N   UNL A   1      32.539  26.873  22.576  1.00  0.00    -0.236 NA
ATOM     19  C   UNL A   1      30.479  28.252  23.666  1.00  0.00     0.115 A 
ATOM     20  C   UNL A   1      32.595  28.197  22.817  1.00  0.00     0.125 A 
ATOM     21  N   UNL A   1      31.598  28.922  23.352  1.00  0.00    -0.242 NA
ATOM     22  C   UNL A   1      33.871  28.908  22.493  1.00  0.00     0.089 C 
ENDBRANCH  15  16
ENDBRANCH  13  15
ENDBRANCH   7  11
ENDBRANCH   6   7
ENDBRANCH   3   6
ENDBRANCH   1   2
BRANCH   1  23
ATOM     23  C   UNL A   1      33.055  27.774  26.688  1.00  0.00     0.042 C 
BRANCH  23  24
ATOM     24  C   UNL A   1      34.076  28.766  26.148  1.00  0.00     0.118 C 
BRANCH  24  25
ATOM     25  N   UNL A   1      33.818  30.136  26.566  1.00  0.00    -0.352 N 
ATOM     26  C   UNL A   1      34.417  30.911  27.521  1.00  0.00     0.251 C 
ATOM     27  H   UNL A   1      33.088  30.581  26.077  1.00  0.00     0.163 HD
ATOM     28  O   UNL A   1      33.893  31.987  27.821  1.00  0.00    -0.269 OA
BRANCH  26  29
ATOM     29  C   UNL A   1      35.661  30.488  28.202  1.00  0.00     0.039 A 
ATOM     30  C   UNL A   1      36.887  30.858  27.641  1.00  0.00     0.014 A 
ATOM     31  C   UNL A   1      35.639  29.679  29.342  1.00  0.00     0.014 A 
ATOM     32  C   UNL A   1      38.083  30.461  28.246  1.00  0.00     0.010 A 
ATOM     33  C   UNL A   1      36.831  29.344  29.985  1.00  0.00     0.010 A 
ATOM     34  C   UNL A   1      38.066  29.722  29.440  1.00  0.00    -0.014 A 
BRANCH  34  35
ATOM     35  C   UNL A   1      39.332  29.344  30.121  1.00  0.00     0.031 A 
ATOM     36  C   UNL A   1      39.785  30.077  31.356  1.00  0.00     0.074 A 
ATOM     37  C   UNL A   1      40.096  28.363  29.602  1.00  0.00     0.049 A 
ATOM     38  N   UNL A   1      40.865  29.895  32.072  1.00  0.00    -0.248 NA
ATOM     39  C   UNL A   1      38.922  31.168  31.838  1.00  0.00     0.031 C 
ATOM     40  C   UNL A   1      39.789  27.603  28.388  1.00  0.00     0.029 A 
ATOM     41  N   UNL A   1      41.289  27.835  30.030  1.00  0.00    -0.354 N 
ATOM     42  C   UNL A   1      40.821  30.855  33.078  1.00  0.00     0.074 A 
ATOM     43  C   UNL A   1      39.631  31.646  32.851  1.00  0.00     0.031 C 
ATOM     44  C   UNL A   1      40.751  26.688  28.186  1.00  0.00     0.029 A 
ATOM     45  C   UNL A   1      41.760  26.818  29.233  1.00  0.00     0.049 A 
ATOM     46  H   UNL A   1      41.763  28.155  30.831  1.00  0.00     0.167 HD
ATOM     47  C   UNL A   1      41.681  31.049  34.107  1.00  0.00     0.031 A 
ATOM     48  C   UNL A   1      42.877  26.072  29.330  1.00  0.00     0.031 A 
ATOM     49  C   UNL A   1      42.861  30.257  34.334  1.00  0.00     0.049 A 
ATOM     50  C   UNL A   1      43.816  26.307  30.481  1.00  0.00     0.074 A 
ATOM     51  C   UNL A   1      43.770  30.345  35.374  1.00  0.00     0.029 A 
ATOM     52  N   UNL A   1      43.298  29.231  33.509  1.00  0.00    -0.354 N 
ATOM     53  N   UNL A   1      43.725  27.180  31.456  1.00  0.00    -0.248 NA
ATOM     54  C   UNL A   1      45.001  25.442  30.555  1.00  0.00     0.031 C 
ATOM     55  C   UNL A   1      44.781  29.402  35.153  1.00  0.00     0.029 A 
ATOM     56  C   UNL A   1      44.472  28.690  34.006  1.00  0.00     0.049 A 
ATOM     57  H   UNL A   1      42.840  28.932  32.690  1.00  0.00     0.167 HD
ATOM     58  C   UNL A   1      44.825  26.950  32.274  1.00  0.00     0.074 A 
ATOM     59  C   UNL A   1      45.558  25.846  31.688  1.00  0.00     0.031 C 
ATOM     60  C   UNL A   1      45.193  27.593  33.410  1.00  0.00     0.031 A 
BRANCH  47  61
ATOM     61  C   UNL A   1      41.375  32.171  35.065  1.00  0.00    -0.014 A 
ATOM     62  C   UNL A   1      40.578  31.955  36.205  1.00  0.00     0.010 A 
ATOM     63  C   UNL A   1      41.917  33.450  34.845  1.00  0.00     0.010 A 
ATOM     64  C   UNL A   1      40.290  33.008  37.079  1.00  0.00     0.020 A 
ATOM     65  C   UNL A   1      41.656  34.498  35.733  1.00  0.00     0.020 A 
ATOM     66  C   UNL A   1      40.828  34.274  36.834  1.00  0.00     0.054 A 
BRANCH  66  67
ATOM     67  S   UNL A   1      40.451  35.618  37.994  1.00  0.00     0.124 S 
ATOM     68  O   UNL A   1      39.910  36.641  37.101  1.00  0.00    -0.237 OA
ATOM     69  O   UNL A   1      39.485  35.001  38.898  1.00  0.00    -0.237 OA
ATOM     70  O   UNL A   1      41.745  35.935  38.591  1.00  0.00    -0.744 OA
ENDBRANCH  66  67
ENDBRANCH  47  61
BRANCH  48  71
ATOM     71  C   UNL A   1      43.153  25.012  28.322  1.00  0.00    -0.014 A 
ATOM     72  C   UNL A   1      43.944  25.292  27.195  1.00  0.00     0.010 A 
ATOM     73  C   UNL A   1      42.642  23.714  28.496  1.00  0.00     0.010 A 
ATOM     74  C   UNL A   1      44.202  24.297  26.246  1.00  0.00     0.020 A 
ATOM     75  C   UNL A   1      42.922  22.709  27.564  1.00  0.00     0.020 A 
ATOM     76  C   UNL A   1      43.691  23.011  26.438  1.00  0.00     0.054 A 
BRANCH  76  77
ATOM     77  S   UNL A   1      44.083  21.723  25.222  1.00  0.00     0.124 S 
ATOM     78  O   UNL A   1      43.080  20.707  25.522  1.00  0.00    -0.237 OA
ATOM     79  O   UNL A   1      43.913  22.426  23.952  1.00  0.00    -0.237 OA
ATOM     80  O   UNL A   1      45.461  21.359  25.542  1.00  0.00    -0.744 OA
ENDBRANCH  76  77
ENDBRANCH  48  71
BRANCH  60  81
ATOM     81  C   UNL A   1      46.425  27.092  34.117  1.00  0.00    -0.014 A 
ATOM     82  C   UNL A   1      46.353  26.064  35.072  1.00  0.00     0.010 A 
ATOM     83  C   UNL A   1      47.680  27.640  33.792  1.00  0.00     0.010 A 
ATOM     84  C   UNL A   1      47.510  25.622  35.722  1.00  0.00     0.020 A 
ATOM     85  C   UNL A   1      48.841  27.182  34.419  1.00  0.00     0.020 A 
ATOM     86  C   UNL A   1      48.746  26.188  35.394  1.00  0.00     0.054 A 
BRANCH  86  87
ATOM     87  S   UNL A   1      50.236  25.583  36.233  1.00  0.00     0.124 S 
ATOM     88  O   UNL A   1      50.987  26.817  36.446  1.00  0.00    -0.237 OA
ATOM     89  O   UNL A   1      49.696  24.961  37.439  1.00  0.00    -0.237 OA
ATOM     90  O   UNL A   1      50.822  24.653  35.271  1.00  0.00    -0.744 OA
ENDBRANCH  86  87
ENDBRANCH  60  81
ENDBRANCH  34  35
ENDBRANCH  26  29
ENDBRANCH  24  25
ENDBRANCH  23  24
ENDBRANCH   1  23
TORSDOF 19
ENDMDL
