MODEL 1
REMARK VINA RESULT:     -11.4      0.000      0.000
REMARK SMILES O=C(C[C@@H]1C[N@@H+]([C@@H]2CCOc3ccccc32)CCO1)NCCCNC(=O)c1ccc(-c2c3nc(c(-c4ccc(S(=O)(=O)[O-])cc4)c4ccc([nH]4)c(-c4ccc(S(=O)(=O)[O-])cc4)c4nc(c(-c5ccc(S(=O)(=O)[O-])cc5)c5ccc2[nH]5)C=C4)C=C3)cc1
REMARK SMILES IDX 22 1 21 2 20 3 1 4 2 5 3 7 4 8 5 9 19 10 6 11 18 12 17 13
REMARK SMILES IDX 7 15 8 16 16 17 9 18 11 19 15 20 10 21 12 22 14 23 13 24
REMARK SMILES IDX 23 25 24 26 25 27 26 29 27 30 28 31 86 32 29 33 85 34 30 35
REMARK SMILES IDX 31 36 32 37 79 38 33 39 84 40 78 41 80 42 34 43 83 44 77 45
REMARK SMILES IDX 76 46 35 48 65 49 46 50 64 51 47 52 50 53 63 54 81 55 48 56
REMARK SMILES IDX 49 57 62 59 82 60 51 61 36 62 37 63 45 64 38 65 44 66 39 67
REMARK SMILES IDX 40 68 41 69 42 70 43 71 66 72 67 73 75 74 68 75 74 76 69 77
REMARK SMILES IDX 70 78 71 79 72 80 73 81 52 82 53 83 61 84 54 85 60 86 55 87
REMARK SMILES IDX 56 88 57 89 58 90 59 91
REMARK H PARENT 20 6 6 14 24 28 80 47 50 58
REMARK Flexibility Score: inf
ROOT
ATOM      1  C   UNL A   1      33.538  28.297  25.764  1.00  0.00     0.042 C 
ENDROOT
BRANCH   1   2
ATOM      2  C   UNL A   1      32.908  27.005  25.257  1.00  0.00     0.117 C 
BRANCH   2   3
ATOM      3  N   UNL A   1      33.228  25.857  26.082  1.00  0.00    -0.356 N 
ATOM      4  O   UNL A   1      31.052  25.168  26.380  1.00  0.00    -0.275 OA
ATOM      5  C   UNL A   1      32.254  24.983  26.528  1.00  0.00     0.222 C 
ATOM      6  H   UNL A   1      34.167  25.695  26.333  1.00  0.00     0.163 HD
BRANCH   5   7
ATOM      7  C   UNL A   1      32.815  23.729  27.162  1.00  0.00     0.138 C 
BRANCH   7   8
ATOM      8  C   UNL A   1      33.763  22.942  26.245  1.00  0.00     0.182 C 
ATOM      9  C   UNL A   1      33.915  21.447  26.597  1.00  0.00     0.295 C 
ATOM     10  O   UNL A   1      35.060  23.567  26.230  1.00  0.00    -0.366 OA
ATOM     11  N   UNL A   1      34.821  20.678  25.723  1.00  0.00    -0.324 N 
ATOM     12  C   UNL A   1      35.921  22.929  25.275  1.00  0.00     0.222 C 
ATOM     13  C   UNL A   1      36.076  21.416  25.531  1.00  0.00     0.291 C 
ATOM     14  H   UNL A   1      35.051  19.820  26.225  1.00  0.00     0.348 HD
BRANCH  11  15
ATOM     15  C   UNL A   1      34.227  20.050  24.524  1.00  0.00     0.222 C 
ATOM     16  C   UNL A   1      32.872  20.620  24.073  1.00  0.00     0.112 C 
ATOM     17  C   UNL A   1      34.204  18.529  24.600  1.00  0.00     0.051 A 
ATOM     18  C   UNL A   1      32.129  19.613  23.217  1.00  0.00     0.236 C 
ATOM     19  C   UNL A   1      33.017  17.820  24.378  1.00  0.00     0.128 A 
ATOM     20  C   UNL A   1      35.370  17.803  24.898  1.00  0.00     0.014 A 
ATOM     21  O   UNL A   1      31.858  18.433  23.981  1.00  0.00    -0.493 OA
ATOM     22  C   UNL A   1      32.961  16.439  24.556  1.00  0.00     0.047 A 
ATOM     23  C   UNL A   1      35.327  16.415  25.026  1.00  0.00     0.001 A 
ATOM     24  C   UNL A   1      34.120  15.734  24.877  1.00  0.00     0.004 A 
ENDBRANCH  11  15
ENDBRANCH   7   8
ENDBRANCH   5   7
ENDBRANCH   2   3
ENDBRANCH   1   2
BRANCH   1  25
ATOM     25  C   UNL A   1      33.365  28.560  27.258  1.00  0.00     0.118 C 
BRANCH  25  26
ATOM     26  N   UNL A   1      33.417  29.971  27.610  1.00  0.00    -0.352 N 
ATOM     27  C   UNL A   1      34.447  30.712  28.142  1.00  0.00     0.251 C 
ATOM     28  H   UNL A   1      32.587  30.473  27.441  1.00  0.00     0.163 HD
ATOM     29  O   UNL A   1      34.261  31.887  28.449  1.00  0.00    -0.269 OA
BRANCH  27  30
ATOM     30  C   UNL A   1      35.771  30.094  28.376  1.00  0.00     0.039 A 
ATOM     31  C   UNL A   1      36.699  30.084  27.331  1.00  0.00     0.014 A 
ATOM     32  C   UNL A   1      36.108  29.544  29.616  1.00  0.00     0.014 A 
ATOM     33  C   UNL A   1      37.997  29.618  27.559  1.00  0.00     0.010 A 
ATOM     34  C   UNL A   1      37.420  29.140  29.860  1.00  0.00     0.010 A 
ATOM     35  C   UNL A   1      38.384  29.197  28.841  1.00  0.00    -0.014 A 
BRANCH  35  36
ATOM     36  C   UNL A   1      39.802  28.878  29.151  1.00  0.00     0.031 A 
ATOM     37  C   UNL A   1      40.713  29.918  29.741  1.00  0.00     0.074 A 
ATOM     38  C   UNL A   1      40.292  27.666  28.820  1.00  0.00     0.049 A 
ATOM     39  N   UNL A   1      41.994  29.839  29.998  1.00  0.00    -0.248 NA
ATOM     40  C   UNL A   1      40.113  31.222  30.064  1.00  0.00     0.031 C 
ATOM     41  C   UNL A   1      39.523  26.580  28.205  1.00  0.00     0.029 A 
ATOM     42  N   UNL A   1      41.556  27.145  28.942  1.00  0.00    -0.354 N 
ATOM     43  C   UNL A   1      42.357  31.083  30.501  1.00  0.00     0.074 A 
ATOM     44  C   UNL A   1      41.169  31.910  30.475  1.00  0.00     0.031 C 
ATOM     45  C   UNL A   1      40.324  25.519  28.022  1.00  0.00     0.029 A 
ATOM     46  C   UNL A   1      41.673  25.860  28.465  1.00  0.00     0.049 A 
ATOM     47  H   UNL A   1      42.308  27.644  29.335  1.00  0.00     0.167 HD
ATOM     48  C   UNL A   1      43.566  31.495  30.954  1.00  0.00     0.031 A 
ATOM     49  C   UNL A   1      42.744  25.048  28.378  1.00  0.00     0.031 A 
ATOM     50  C   UNL A   1      44.746  30.670  30.983  1.00  0.00     0.049 A 
ATOM     51  C   UNL A   1      44.079  25.536  28.868  1.00  0.00     0.074 A 
ATOM     52  C   UNL A   1      46.001  30.983  31.476  1.00  0.00     0.029 A 
ATOM     53  N   UNL A   1      44.821  29.375  30.493  1.00  0.00    -0.354 N 
ATOM     54  N   UNL A   1      44.386  26.695  29.397  1.00  0.00    -0.248 NA
ATOM     55  C   UNL A   1      45.209  24.604  28.752  1.00  0.00     0.031 C 
ATOM     56  C   UNL A   1      46.848  29.894  31.240  1.00  0.00     0.029 A 
ATOM     57  C   UNL A   1      46.107  28.885  30.647  1.00  0.00     0.049 A 
ATOM     58  H   UNL A   1      44.071  28.878  30.095  1.00  0.00     0.167 HD
ATOM     59  C   UNL A   1      45.743  26.626  29.694  1.00  0.00     0.074 A 
ATOM     60  C   UNL A   1      46.191  25.306  29.302  1.00  0.00     0.031 C 
ATOM     61  C   UNL A   1      46.543  27.573  30.243  1.00  0.00     0.031 A 
BRANCH  48  62
ATOM     62  C   UNL A   1      43.674  32.912  31.450  1.00  0.00    -0.014 A 
ATOM     63  C   UNL A   1      44.051  33.956  30.586  1.00  0.00     0.010 A 
ATOM     64  C   UNL A   1      43.357  33.212  32.787  1.00  0.00     0.010 A 
ATOM     65  C   UNL A   1      44.153  35.266  31.059  1.00  0.00     0.020 A 
ATOM     66  C   UNL A   1      43.433  34.526  33.259  1.00  0.00     0.020 A 
ATOM     67  C   UNL A   1      43.848  35.542  32.396  1.00  0.00     0.054 A 
BRANCH  67  68
ATOM     68  S   UNL A   1      43.976  37.254  32.983  1.00  0.00     0.124 S 
ATOM     69  O   UNL A   1      42.887  37.320  33.953  1.00  0.00    -0.237 OA
ATOM     70  O   UNL A   1      45.323  37.301  33.547  1.00  0.00    -0.237 OA
ATOM     71  O   UNL A   1      43.783  38.050  31.773  1.00  0.00    -0.744 OA
ENDBRANCH  67  68
ENDBRANCH  48  62
BRANCH  49  72
ATOM     72  C   UNL A   1      42.596  23.684  27.803  1.00  0.00    -0.014 A 
ATOM     73  C   UNL A   1      42.729  23.477  26.419  1.00  0.00     0.010 A 
ATOM     74  C   UNL A   1      42.337  22.582  28.639  1.00  0.00     0.010 A 
ATOM     75  C   UNL A   1      42.591  22.195  25.879  1.00  0.00     0.020 A 
ATOM     76  C   UNL A   1      42.224  21.295  28.106  1.00  0.00     0.020 A 
ATOM     77  C   UNL A   1      42.341  21.111  26.726  1.00  0.00     0.054 A 
BRANCH  77  78
ATOM     78  S   UNL A   1      42.222  19.449  26.010  1.00  0.00     0.124 S 
ATOM     79  O   UNL A   1      40.803  19.363  25.680  1.00  0.00    -0.237 OA
ATOM     80  O   UNL A   1      43.134  19.527  24.872  1.00  0.00    -0.237 OA
ATOM     81  O   UNL A   1      42.667  18.578  27.096  1.00  0.00    -0.744 OA
ENDBRANCH  77  78
ENDBRANCH  49  72
BRANCH  61  82
ATOM     82  C   UNL A   1      47.986  27.209  30.468  1.00  0.00    -0.014 A 
ATOM     83  C   UNL A   1      48.961  27.470  29.489  1.00  0.00     0.010 A 
ATOM     84  C   UNL A   1      48.380  26.645  31.696  1.00  0.00     0.010 A 
ATOM     85  C   UNL A   1      50.301  27.148  29.723  1.00  0.00     0.020 A 
ATOM     86  C   UNL A   1      49.722  26.346  31.942  1.00  0.00     0.020 A 
ATOM     87  C   UNL A   1      50.673  26.587  30.948  1.00  0.00     0.054 A 
BRANCH  87  88
ATOM     88  S   UNL A   1      52.425  26.223  31.247  1.00  0.00     0.124 S 
ATOM     89  O   UNL A   1      52.357  24.908  31.880  1.00  0.00    -0.237 OA
ATOM     90  O   UNL A   1      52.992  26.246  29.902  1.00  0.00    -0.237 OA
ATOM     91  O   UNL A   1      52.861  27.312  32.119  1.00  0.00    -0.744 OA
ENDBRANCH  87  88
ENDBRANCH  61  82
ENDBRANCH  35  36
ENDBRANCH  27  30
ENDBRANCH  25  26
ENDBRANCH   1  25
TORSDOF 15
ENDMDL
MODEL 2
REMARK VINA RESULT:     -11.2      3.365     10.213
REMARK SMILES O=C(C[C@@H]1C[N@@H+]([C@@H]2CCOc3ccccc32)CCO1)NCCCNC(=O)c1ccc(-c2c3nc(c(-c4ccc(S(=O)(=O)[O-])cc4)c4ccc([nH]4)c(-c4ccc(S(=O)(=O)[O-])cc4)c4nc(c(-c5ccc(S(=O)(=O)[O-])cc5)c5ccc2[nH]5)C=C4)C=C3)cc1
REMARK SMILES IDX 22 1 21 2 20 3 1 4 2 5 3 7 4 8 5 9 19 10 6 11 18 12 17 13
REMARK SMILES IDX 7 15 8 16 16 17 9 18 11 19 15 20 10 21 12 22 14 23 13 24
REMARK SMILES IDX 23 25 24 26 25 27 26 29 27 30 28 31 86 32 29 33 85 34 30 35
REMARK SMILES IDX 31 36 32 37 79 38 33 39 84 40 78 41 80 42 34 43 83 44 77 45
REMARK SMILES IDX 76 46 35 48 65 49 46 50 64 51 47 52 50 53 63 54 81 55 48 56
REMARK SMILES IDX 49 57 62 59 82 60 51 61 36 62 37 63 45 64 38 65 44 66 39 67
REMARK SMILES IDX 40 68 41 69 42 70 43 71 66 72 67 73 75 74 68 75 74 76 69 77
REMARK SMILES IDX 70 78 71 79 72 80 73 81 52 82 53 83 61 84 54 85 60 86 55 87
REMARK SMILES IDX 56 88 57 89 58 90 59 91
REMARK H PARENT 20 6 6 14 24 28 80 47 50 58
REMARK Flexibility Score: inf
ROOT
ATOM      1  C   UNL A   1      35.855  22.880  24.246  1.00  0.00     0.042 C 
ENDROOT
BRANCH   1   2
ATOM      2  C   UNL A   1      34.496  23.552  24.399  1.00  0.00     0.117 C 
BRANCH   2   3
ATOM      3  N   UNL A   1      34.459  24.889  23.837  1.00  0.00    -0.356 N 
ATOM      4  O   UNL A   1      32.991  24.385  22.136  1.00  0.00    -0.275 OA
ATOM      5  C   UNL A   1      33.641  25.209  22.770  1.00  0.00     0.222 C 
ATOM      6  H   UNL A   1      35.032  25.587  24.227  1.00  0.00     0.163 HD
BRANCH   5   7
ATOM      7  C   UNL A   1      33.567  26.694  22.494  1.00  0.00     0.138 C 
BRANCH   7   8
ATOM      8  C   UNL A   1      32.717  27.472  23.510  1.00  0.00     0.182 C 
ATOM      9  C   UNL A   1      32.289  28.884  23.056  1.00  0.00     0.295 C 
ATOM     10  O   UNL A   1      33.415  27.561  24.766  1.00  0.00    -0.366 OA
ATOM     11  N   UNL A   1      31.471  29.641  24.022  1.00  0.00    -0.324 N 
ATOM     12  C   UNL A   1      32.584  28.163  25.769  1.00  0.00     0.222 C 
ATOM     13  C   UNL A   1      32.072  29.558  25.359  1.00  0.00     0.291 C 
ATOM     14  H   UNL A   1      31.511  30.619  23.735  1.00  0.00     0.348 HD
BRANCH  11  15
ATOM     15  C   UNL A   1      30.005  29.473  23.938  1.00  0.00     0.222 C 
ATOM     16  C   UNL A   1      29.517  28.125  23.382  1.00  0.00     0.112 C 
ATOM     17  C   UNL A   1      29.310  30.648  23.264  1.00  0.00     0.051 A 
ATOM     18  C   UNL A   1      28.101  28.248  22.854  1.00  0.00     0.236 C 
ATOM     19  C   UNL A   1      28.429  30.441  22.196  1.00  0.00     0.128 A 
ATOM     20  C   UNL A   1      29.540  31.967  23.693  1.00  0.00     0.014 A 
ATOM     21  O   UNL A   1      28.065  29.189  21.777  1.00  0.00    -0.493 OA
ATOM     22  C   UNL A   1      27.877  31.515  21.500  1.00  0.00     0.047 A 
ATOM     23  C   UNL A   1      28.948  33.042  23.031  1.00  0.00     0.001 A 
ATOM     24  C   UNL A   1      28.134  32.819  21.921  1.00  0.00     0.004 A 
ENDBRANCH  11  15
ENDBRANCH   7   8
ENDBRANCH   5   7
ENDBRANCH   2   3
ENDBRANCH   1   2
BRANCH   1  25
ATOM     25  C   UNL A   1      37.009  23.579  24.961  1.00  0.00     0.118 C 
BRANCH  25  26
ATOM     26  N   UNL A   1      38.075  22.674  25.367  1.00  0.00    -0.352 N 
ATOM     27  C   UNL A   1      39.192  22.913  26.134  1.00  0.00     0.251 C 
ATOM     28  H   UNL A   1      37.983  21.749  25.042  1.00  0.00     0.163 HD
ATOM     29  O   UNL A   1      40.025  22.024  26.295  1.00  0.00    -0.269 OA
BRANCH  27  30
ATOM     30  C   UNL A   1      39.412  24.243  26.744  1.00  0.00     0.039 A 
ATOM     31  C   UNL A   1      38.909  24.484  28.025  1.00  0.00     0.014 A 
ATOM     32  C   UNL A   1      40.120  25.242  26.071  1.00  0.00     0.014 A 
ATOM     33  C   UNL A   1      39.206  25.686  28.673  1.00  0.00     0.010 A 
ATOM     34  C   UNL A   1      40.470  26.413  26.742  1.00  0.00     0.010 A 
ATOM     35  C   UNL A   1      40.037  26.636  28.059  1.00  0.00    -0.014 A 
BRANCH  35  36
ATOM     36  C   UNL A   1      40.518  27.831  28.800  1.00  0.00     0.031 A 
ATOM     37  C   UNL A   1      41.871  27.836  29.456  1.00  0.00     0.074 A 
ATOM     38  C   UNL A   1      39.694  28.888  28.951  1.00  0.00     0.049 A 
ATOM     39  N   UNL A   1      42.417  28.758  30.209  1.00  0.00    -0.248 NA
ATOM     40  C   UNL A   1      42.710  26.643  29.260  1.00  0.00     0.031 C 
ATOM     41  C   UNL A   1      38.342  28.994  28.398  1.00  0.00     0.029 A 
ATOM     42  N   UNL A   1      39.868  30.071  29.625  1.00  0.00    -0.354 N 
ATOM     43  C   UNL A   1      43.656  28.253  30.587  1.00  0.00     0.074 A 
ATOM     44  C   UNL A   1      43.764  26.929  30.013  1.00  0.00     0.031 C 
ATOM     45  C   UNL A   1      37.817  30.181  28.738  1.00  0.00     0.029 A 
ATOM     46  C   UNL A   1      38.775  30.905  29.567  1.00  0.00     0.049 A 
ATOM     47  H   UNL A   1      40.696  30.302  30.104  1.00  0.00     0.167 HD
ATOM     48  C   UNL A   1      44.621  28.845  31.333  1.00  0.00     0.031 A 
ATOM     49  C   UNL A   1      38.557  32.110  30.129  1.00  0.00     0.031 A 
ATOM     50  C   UNL A   1      44.514  30.164  31.900  1.00  0.00     0.049 A 
ATOM     51  C   UNL A   1      39.635  32.735  30.971  1.00  0.00     0.074 A 
ATOM     52  C   UNL A   1      45.461  30.868  32.623  1.00  0.00     0.029 A 
ATOM     53  N   UNL A   1      43.392  30.975  31.816  1.00  0.00    -0.354 N 
ATOM     54  N   UNL A   1      40.824  32.267  31.263  1.00  0.00    -0.248 NA
ATOM     55  C   UNL A   1      39.341  34.052  31.553  1.00  0.00     0.031 C 
ATOM     56  C   UNL A   1      44.895  32.084  33.018  1.00  0.00     0.029 A 
ATOM     57  C   UNL A   1      43.614  32.160  32.498  1.00  0.00     0.049 A 
ATOM     58  H   UNL A   1      42.561  30.742  31.343  1.00  0.00     0.167 HD
ATOM     59  C   UNL A   1      41.429  33.241  32.050  1.00  0.00     0.074 A 
ATOM     60  C   UNL A   1      40.481  34.329  32.172  1.00  0.00     0.031 C 
ATOM     61  C   UNL A   1      42.659  33.232  32.620  1.00  0.00     0.031 A 
BRANCH  48  62
ATOM     62  C   UNL A   1      45.879  28.059  31.587  1.00  0.00    -0.014 A 
ATOM     63  C   UNL A   1      47.042  28.288  30.829  1.00  0.00     0.010 A 
ATOM     64  C   UNL A   1      45.913  27.106  32.620  1.00  0.00     0.010 A 
ATOM     65  C   UNL A   1      48.202  27.548  31.071  1.00  0.00     0.020 A 
ATOM     66  C   UNL A   1      47.079  26.381  32.883  1.00  0.00     0.020 A 
ATOM     67  C   UNL A   1      48.212  26.594  32.093  1.00  0.00     0.054 A 
BRANCH  67  68
ATOM     68  S   UNL A   1      49.735  25.656  32.395  1.00  0.00     0.124 S 
ATOM     69  O   UNL A   1      49.355  24.827  33.535  1.00  0.00    -0.237 OA
ATOM     70  O   UNL A   1      49.926  24.941  31.135  1.00  0.00    -0.237 OA
ATOM     71  O   UNL A   1      50.727  26.689  32.678  1.00  0.00    -0.744 OA
ENDBRANCH  67  68
ENDBRANCH  48  62
BRANCH  49  72
ATOM     72  C   UNL A   1      37.261  32.806  29.911  1.00  0.00    -0.014 A 
ATOM     73  C   UNL A   1      36.244  32.736  30.880  1.00  0.00     0.010 A 
ATOM     74  C   UNL A   1      37.042  33.556  28.741  1.00  0.00     0.010 A 
ATOM     75  C   UNL A   1      35.026  33.392  30.675  1.00  0.00     0.020 A 
ATOM     76  C   UNL A   1      35.836  34.235  28.545  1.00  0.00     0.020 A 
ATOM     77  C   UNL A   1      34.830  34.138  29.510  1.00  0.00     0.054 A 
BRANCH  77  78
ATOM     78  S   UNL A   1      33.264  35.027  29.292  1.00  0.00     0.124 S 
ATOM     79  O   UNL A   1      32.595  34.217  28.279  1.00  0.00    -0.237 OA
ATOM     80  O   UNL A   1      32.681  34.976  30.630  1.00  0.00    -0.237 OA
ATOM     81  O   UNL A   1      33.685  36.356  28.854  1.00  0.00    -0.744 OA
ENDBRANCH  77  78
ENDBRANCH  49  72
BRANCH  61  82
ATOM     82  C   UNL A   1      43.059  34.445  33.415  1.00  0.00    -0.014 A 
ATOM     83  C   UNL A   1      42.878  34.492  34.809  1.00  0.00     0.010 A 
ATOM     84  C   UNL A   1      43.671  35.534  32.766  1.00  0.00     0.010 A 
ATOM     85  C   UNL A   1      43.277  35.616  35.536  1.00  0.00     0.020 A 
ATOM     86  C   UNL A   1      44.095  36.648  33.493  1.00  0.00     0.020 A 
ATOM     87  C   UNL A   1      43.882  36.689  34.873  1.00  0.00     0.054 A 
BRANCH  87  88
ATOM     88  S   UNL A   1      44.436  38.117  35.845  1.00  0.00     0.124 S 
ATOM     89  O   UNL A   1      45.883  37.918  35.878  1.00  0.00    -0.237 OA
ATOM     90  O   UNL A   1      43.975  39.248  35.045  1.00  0.00    -0.237 OA
ATOM     91  O   UNL A   1      43.755  37.949  37.126  1.00  0.00    -0.744 OA
ENDBRANCH  87  88
ENDBRANCH  61  82
ENDBRANCH  35  36
ENDBRANCH  27  30
ENDBRANCH  25  26
ENDBRANCH   1  25
TORSDOF 15
ENDMDL
MODEL 3
REMARK VINA RESULT:     -11.2      1.306      2.209
REMARK SMILES O=C(C[C@@H]1C[N@@H+]([C@@H]2CCOc3ccccc32)CCO1)NCCCNC(=O)c1ccc(-c2c3nc(c(-c4ccc(S(=O)(=O)[O-])cc4)c4ccc([nH]4)c(-c4ccc(S(=O)(=O)[O-])cc4)c4nc(c(-c5ccc(S(=O)(=O)[O-])cc5)c5ccc2[nH]5)C=C4)C=C3)cc1
REMARK SMILES IDX 22 1 21 2 20 3 1 4 2 5 3 7 4 8 5 9 19 10 6 11 18 12 17 13
REMARK SMILES IDX 7 15 8 16 16 17 9 18 11 19 15 20 10 21 12 22 14 23 13 24
REMARK SMILES IDX 23 25 24 26 25 27 26 29 27 30 28 31 86 32 29 33 85 34 30 35
REMARK SMILES IDX 31 36 32 37 79 38 33 39 84 40 78 41 80 42 34 43 83 44 77 45
REMARK SMILES IDX 76 46 35 48 65 49 46 50 64 51 47 52 50 53 63 54 81 55 48 56
REMARK SMILES IDX 49 57 62 59 82 60 51 61 36 62 37 63 45 64 38 65 44 66 39 67
REMARK SMILES IDX 40 68 41 69 42 70 43 71 66 72 67 73 75 74 68 75 74 76 69 77
REMARK SMILES IDX 70 78 71 79 72 80 73 81 52 82 53 83 61 84 54 85 60 86 55 87
REMARK SMILES IDX 56 88 57 89 58 90 59 91
REMARK H PARENT 20 6 6 14 24 28 80 47 50 58
REMARK Flexibility Score: inf
ROOT
ATOM      1  C   UNL A   1      31.995  28.260  26.599  1.00  0.00     0.042 C 
ENDROOT
BRANCH   1   2
ATOM      2  C   UNL A   1      31.769  28.506  25.112  1.00  0.00     0.117 C 
BRANCH   2   3
ATOM      3  N   UNL A   1      32.234  27.413  24.280  1.00  0.00    -0.356 N 
ATOM      4  O   UNL A   1      33.390  28.730  22.788  1.00  0.00    -0.275 OA
ATOM      5  C   UNL A   1      33.076  27.621  23.204  1.00  0.00     0.222 C 
ATOM      6  H   UNL A   1      31.941  26.496  24.488  1.00  0.00     0.163 HD
BRANCH   5   7
ATOM      7  C   UNL A   1      33.634  26.342  22.620  1.00  0.00     0.138 C 
BRANCH   7   8
ATOM      8  C   UNL A   1      32.953  25.071  23.149  1.00  0.00     0.182 C 
ATOM      9  C   UNL A   1      33.588  23.747  22.672  1.00  0.00     0.295 C 
ATOM     10  O   UNL A   1      31.555  25.086  22.805  1.00  0.00    -0.366 OA
ATOM     11  N   UNL A   1      32.945  22.518  23.173  1.00  0.00    -0.324 N 
ATOM     12  C   UNL A   1      30.871  23.976  23.406  1.00  0.00     0.222 C 
ATOM     13  C   UNL A   1      31.488  22.617  23.017  1.00  0.00     0.291 C 
ATOM     14  H   UNL A   1      33.260  21.757  22.571  1.00  0.00     0.348 HD
BRANCH  11  15
ATOM     15  C   UNL A   1      33.442  21.973  24.453  1.00  0.00     0.222 C 
ATOM     16  C   UNL A   1      34.667  22.684  25.052  1.00  0.00     0.112 C 
ATOM     17  C   UNL A   1      33.624  20.461  24.424  1.00  0.00     0.051 A 
ATOM     18  C   UNL A   1      35.393  21.771  26.021  1.00  0.00     0.236 C 
ATOM     19  C   UNL A   1      34.838  19.880  24.811  1.00  0.00     0.128 A 
ATOM     20  C   UNL A   1      32.582  19.616  24.005  1.00  0.00     0.014 A 
ATOM     21  O   UNL A   1      35.872  20.613  25.330  1.00  0.00    -0.493 OA
ATOM     22  C   UNL A   1      35.052  18.508  24.680  1.00  0.00     0.047 A 
ATOM     23  C   UNL A   1      32.777  18.237  23.923  1.00  0.00     0.001 A 
ATOM     24  C   UNL A   1      34.017  17.685  24.238  1.00  0.00     0.004 A 
ENDBRANCH  11  15
ENDBRANCH   7   8
ENDBRANCH   5   7
ENDBRANCH   2   3
ENDBRANCH   1   2
BRANCH   1  25
ATOM     25  C   UNL A   1      33.358  28.697  27.129  1.00  0.00     0.118 C 
BRANCH  25  26
ATOM     26  N   UNL A   1      33.400  30.091  27.548  1.00  0.00    -0.352 N 
ATOM     27  C   UNL A   1      34.411  30.802  28.151  1.00  0.00     0.251 C 
ATOM     28  H   UNL A   1      32.578  30.603  27.374  1.00  0.00     0.163 HD
ATOM     29  O   UNL A   1      34.217  31.962  28.506  1.00  0.00    -0.269 OA
BRANCH  27  30
ATOM     30  C   UNL A   1      35.725  30.169  28.403  1.00  0.00     0.039 A 
ATOM     31  C   UNL A   1      36.682  30.183  27.385  1.00  0.00     0.014 A 
ATOM     32  C   UNL A   1      36.024  29.579  29.635  1.00  0.00     0.014 A 
ATOM     33  C   UNL A   1      37.970  29.703  27.635  1.00  0.00     0.010 A 
ATOM     34  C   UNL A   1      37.326  29.160  29.903  1.00  0.00     0.010 A 
ATOM     35  C   UNL A   1      38.319  29.241  28.914  1.00  0.00    -0.014 A 
BRANCH  35  36
ATOM     36  C   UNL A   1      39.726  28.904  29.253  1.00  0.00     0.031 A 
ATOM     37  C   UNL A   1      40.631  29.926  29.881  1.00  0.00     0.074 A 
ATOM     38  C   UNL A   1      40.212  27.692  28.916  1.00  0.00     0.049 A 
ATOM     39  N   UNL A   1      41.905  29.831  30.169  1.00  0.00    -0.248 NA
ATOM     40  C   UNL A   1      40.036  31.231  30.210  1.00  0.00     0.031 C 
ATOM     41  C   UNL A   1      39.449  26.623  28.266  1.00  0.00     0.029 A 
ATOM     42  N   UNL A   1      41.468  27.158  29.061  1.00  0.00    -0.354 N 
ATOM     43  C   UNL A   1      42.267  31.064  30.699  1.00  0.00     0.074 A 
ATOM     44  C   UNL A   1      41.088  31.903  30.656  1.00  0.00     0.031 C 
ATOM     45  C   UNL A   1      40.245  25.558  28.087  1.00  0.00     0.029 A 
ATOM     46  C   UNL A   1      41.585  25.878  28.568  1.00  0.00     0.049 A 
ATOM     47  H   UNL A   1      42.215  27.643  29.480  1.00  0.00     0.167 HD
ATOM     48  C   UNL A   1      43.469  31.458  31.188  1.00  0.00     0.031 A 
ATOM     49  C   UNL A   1      42.650  25.058  28.496  1.00  0.00     0.031 A 
ATOM     50  C   UNL A   1      44.640  30.621  31.233  1.00  0.00     0.049 A 
ATOM     51  C   UNL A   1      43.977  25.526  29.025  1.00  0.00     0.074 A 
ATOM     52  C   UNL A   1      45.885  30.914  31.761  1.00  0.00     0.029 A 
ATOM     53  N   UNL A   1      44.715  29.333  30.726  1.00  0.00    -0.354 N 
ATOM     54  N   UNL A   1      44.282  26.673  29.579  1.00  0.00    -0.248 NA
ATOM     55  C   UNL A   1      45.101  24.585  28.922  1.00  0.00     0.031 C 
ATOM     56  C   UNL A   1      46.727  29.821  31.530  1.00  0.00     0.029 A 
ATOM     57  C   UNL A   1      45.992  28.828  30.904  1.00  0.00     0.049 A 
ATOM     58  H   UNL A   1      43.970  28.849  30.302  1.00  0.00     0.167 HD
ATOM     59  C   UNL A   1      45.630  26.587  29.909  1.00  0.00     0.074 A 
ATOM     60  C   UNL A   1      46.076  25.269  29.507  1.00  0.00     0.031 C 
ATOM     61  C   UNL A   1      46.426  27.517  30.491  1.00  0.00     0.031 A 
BRANCH  48  62
ATOM     62  C   UNL A   1      43.577  32.866  31.708  1.00  0.00    -0.014 A 
ATOM     63  C   UNL A   1      43.239  33.177  33.037  1.00  0.00     0.010 A 
ATOM     64  C   UNL A   1      44.060  33.886  30.869  1.00  0.00     0.010 A 
ATOM     65  C   UNL A   1      43.339  34.489  33.506  1.00  0.00     0.020 A 
ATOM     66  C   UNL A   1      44.186  35.196  31.341  1.00  0.00     0.020 A 
ATOM     67  C   UNL A   1      43.807  35.492  32.652  1.00  0.00     0.054 A 
BRANCH  67  68
ATOM     68  S   UNL A   1      43.939  37.186  33.289  1.00  0.00     0.124 S 
ATOM     69  O   UNL A   1      42.793  37.256  34.191  1.00  0.00    -0.237 OA
ATOM     70  O   UNL A   1      45.249  37.184  33.938  1.00  0.00    -0.237 OA
ATOM     71  O   UNL A   1      43.842  38.015  32.091  1.00  0.00    -0.744 OA
ENDBRANCH  67  68
ENDBRANCH  48  62
BRANCH  49  72
ATOM     72  C   UNL A   1      42.504  23.704  27.897  1.00  0.00    -0.014 A 
ATOM     73  C   UNL A   1      43.095  23.407  26.656  1.00  0.00     0.010 A 
ATOM     74  C   UNL A   1      41.785  22.699  28.571  1.00  0.00     0.010 A 
ATOM     75  C   UNL A   1      42.958  22.134  26.094  1.00  0.00     0.020 A 
ATOM     76  C   UNL A   1      41.669  21.418  28.025  1.00  0.00     0.020 A 
ATOM     77  C   UNL A   1      42.247  21.147  26.783  1.00  0.00     0.054 A 
BRANCH  77  78
ATOM     78  S   UNL A   1      42.130  19.487  26.061  1.00  0.00     0.124 S 
ATOM     79  O   UNL A   1      42.683  18.655  27.125  1.00  0.00    -0.237 OA
ATOM     80  O   UNL A   1      40.696  19.343  25.826  1.00  0.00    -0.237 OA
ATOM     81  O   UNL A   1      42.945  19.583  24.852  1.00  0.00    -0.744 OA
ENDBRANCH  77  78
ENDBRANCH  49  72
BRANCH  61  82
ATOM     82  C   UNL A   1      47.860  27.137  30.745  1.00  0.00    -0.014 A 
ATOM     83  C   UNL A   1      48.214  26.340  31.848  1.00  0.00     0.010 A 
ATOM     84  C   UNL A   1      48.859  27.541  29.841  1.00  0.00     0.010 A 
ATOM     85  C   UNL A   1      49.546  25.975  32.056  1.00  0.00     0.020 A 
ATOM     86  C   UNL A   1      50.188  27.157  30.033  1.00  0.00     0.020 A 
ATOM     87  C   UNL A   1      50.526  26.387  31.148  1.00  0.00     0.054 A 
BRANCH  87  88
ATOM     88  S   UNL A   1      52.242  25.861  31.413  1.00  0.00     0.124 S 
ATOM     89  O   UNL A   1      52.713  26.844  32.386  1.00  0.00    -0.237 OA
ATOM     90  O   UNL A   1      52.087  24.501  31.919  1.00  0.00    -0.237 OA
ATOM     91  O   UNL A   1      52.844  25.961  30.086  1.00  0.00    -0.744 OA
ENDBRANCH  87  88
ENDBRANCH  61  82
ENDBRANCH  35  36
ENDBRANCH  27  30
ENDBRANCH  25  26
ENDBRANCH   1  25
TORSDOF 15
ENDMDL
