MODEL 1
REMARK VINA RESULT:      -9.7      0.000      0.000
REMARK SMILES O=Cc1ccc(-c2ccc(C(=O)NCCCNC(=O)c3ccc(-c4c5nc(c(-c6ccc(S(=O)(=O)[O-])cc6)c6ccc([nH]6)c(-c6ccc(S(=O)(=O)[O-])cc6)c6nc(c(-c7ccc(S(=O)(=O)[O-])cc7)c7ccc4[nH]7)C=C6)C=C5)cc3)cn2)cc1
REMARK SMILES IDX 15 1 14 2 13 3 11 4 12 5 10 7 7 8 8 9 81 10 9 11 80 12 6 13
REMARK SMILES IDX 3 14 4 15 83 16 5 17 82 18 2 19 1 20 16 21 17 22 18 23 19 25
REMARK SMILES IDX 20 26 21 27 79 28 22 29 78 30 23 31 24 32 25 33 72 34 26 35
REMARK SMILES IDX 77 36 71 37 73 38 27 39 76 40 70 41 69 42 28 44 58 45 39 46
REMARK SMILES IDX 57 47 40 48 43 49 56 50 74 51 41 52 42 53 55 55 75 56 44 57
REMARK SMILES IDX 29 58 30 59 38 60 31 61 37 62 32 63 33 64 34 65 35 66 36 67
REMARK SMILES IDX 59 68 60 69 68 70 61 71 67 72 62 73 63 74 64 75 65 76 66 77
REMARK SMILES IDX 45 78 46 79 54 80 47 81 53 82 48 83 49 84 50 85 51 86 52 87
REMARK H PARENT 13 6 17 24 73 43 43 54
REMARK Flexibility Score: inf
ROOT
ATOM      1  C   UNL A   1      40.856  20.014  26.518  1.00  0.00     0.042 C 
ENDROOT
BRANCH   1   2
ATOM      2  C   UNL A   1      42.276  19.692  26.983  1.00  0.00     0.118 C 
BRANCH   2   3
ATOM      3  N   UNL A   1      43.165  19.474  25.855  1.00  0.00    -0.352 N 
ATOM      4  C   UNL A   1      43.977  20.314  25.139  1.00  0.00     0.252 C 
ATOM      5  O   UNL A   1      44.689  19.809  24.270  1.00  0.00    -0.269 OA
ATOM      6  H   UNL A   1      43.188  18.540  25.544  1.00  0.00     0.163 HD
BRANCH   4   7
ATOM      7  C   UNL A   1      44.075  21.774  25.380  1.00  0.00     0.058 A 
ATOM      8  C   UNL A   1      44.540  24.445  25.947  1.00  0.00     0.070 A 
ATOM      9  C   UNL A   1      43.350  24.075  25.328  1.00  0.00     0.030 A 
ATOM     10  N   UNL A   1      45.500  23.547  26.261  1.00  0.00    -0.255 NA
ATOM     11  C   UNL A   1      43.130  22.730  25.020  1.00  0.00     0.018 A 
ATOM     12  C   UNL A   1      45.245  22.242  25.974  1.00  0.00     0.125 A 
BRANCH   8  13
ATOM     13  C   UNL A   1      44.839  25.845  26.249  1.00  0.00     0.000 A 
ATOM     14  C   UNL A   1      45.345  28.525  26.916  1.00  0.00     0.014 A 
ATOM     15  C   UNL A   1      44.158  28.187  26.265  1.00  0.00     0.012 A 
ATOM     16  C   UNL A   1      46.290  27.543  27.221  1.00  0.00     0.012 A 
ATOM     17  C   UNL A   1      43.915  26.853  25.925  1.00  0.00     0.011 A 
ATOM     18  C   UNL A   1      46.034  26.209  26.891  1.00  0.00     0.011 A 
BRANCH  14  19
ATOM     19  C   UNL A   1      45.591  29.933  27.287  1.00  0.00     0.260 C 
ATOM     20  O   UNL A   1      44.679  30.730  27.473  1.00  0.00    -0.298 OA
ENDBRANCH  14  19
ENDBRANCH   8  13
ENDBRANCH   4   7
ENDBRANCH   2   3
ENDBRANCH   1   2
BRANCH   1  21
ATOM     21  C   UNL A   1      40.429  21.450  26.819  1.00  0.00     0.118 C 
BRANCH  21  22
ATOM     22  N   UNL A   1      39.321  21.874  25.975  1.00  0.00    -0.352 N 
ATOM     23  C   UNL A   1      38.619  23.054  25.964  1.00  0.00     0.251 C 
ATOM     24  H   UNL A   1      39.030  21.212  25.307  1.00  0.00     0.163 HD
ATOM     25  O   UNL A   1      37.566  23.116  25.336  1.00  0.00    -0.269 OA
BRANCH  23  26
ATOM     26  C   UNL A   1      39.114  24.239  26.699  1.00  0.00     0.039 A 
ATOM     27  C   UNL A   1      39.980  25.123  26.049  1.00  0.00     0.014 A 
ATOM     28  C   UNL A   1      38.778  24.452  28.039  1.00  0.00     0.014 A 
ATOM     29  C   UNL A   1      40.470  26.243  26.725  1.00  0.00     0.010 A 
ATOM     30  C   UNL A   1      39.212  25.604  28.692  1.00  0.00     0.010 A 
ATOM     31  C   UNL A   1      40.069  26.507  28.044  1.00  0.00    -0.014 A 
BRANCH  31  32
ATOM     32  C   UNL A   1      40.537  27.719  28.764  1.00  0.00     0.031 A 
ATOM     33  C   UNL A   1      41.907  27.749  29.388  1.00  0.00     0.074 A 
ATOM     34  C   UNL A   1      39.704  28.767  28.911  1.00  0.00     0.049 A 
ATOM     35  N   UNL A   1      42.463  28.688  30.109  1.00  0.00    -0.248 NA
ATOM     36  C   UNL A   1      42.751  26.559  29.197  1.00  0.00     0.031 C 
ATOM     37  C   UNL A   1      38.340  28.846  28.383  1.00  0.00     0.029 A 
ATOM     38  N   UNL A   1      39.880  29.967  29.556  1.00  0.00    -0.354 N 
ATOM     39  C   UNL A   1      43.711  28.196  30.474  1.00  0.00     0.074 A 
ATOM     40  C   UNL A   1      43.811  26.858  29.933  1.00  0.00     0.031 C 
ATOM     41  C   UNL A   1      37.812  30.038  28.704  1.00  0.00     0.029 A 
ATOM     42  C   UNL A   1      38.782  30.792  29.492  1.00  0.00     0.049 A 
ATOM     43  H   UNL A   1      40.713  30.212  30.019  1.00  0.00     0.167 HD
ATOM     44  C   UNL A   1      44.693  28.807  31.181  1.00  0.00     0.031 A 
ATOM     45  C   UNL A   1      38.574  32.015  30.016  1.00  0.00     0.031 A 
ATOM     46  C   UNL A   1      44.592  30.142  31.711  1.00  0.00     0.049 A 
ATOM     47  C   UNL A   1      39.674  32.673  30.801  1.00  0.00     0.074 A 
ATOM     48  C   UNL A   1      45.548  30.871  32.396  1.00  0.00     0.029 A 
ATOM     49  N   UNL A   1      43.468  30.948  31.616  1.00  0.00    -0.354 N 
ATOM     50  N   UNL A   1      40.869  32.213  31.088  1.00  0.00    -0.248 NA
ATOM     51  C   UNL A   1      39.401  34.019  31.326  1.00  0.00     0.031 C 
ATOM     52  C   UNL A   1      44.986  32.101  32.755  1.00  0.00     0.029 A 
ATOM     53  C   UNL A   1      43.698  32.159  32.248  1.00  0.00     0.049 A 
ATOM     54  H   UNL A   1      42.629  30.697  31.166  1.00  0.00     0.167 HD
ATOM     55  C   UNL A   1      41.501  33.223  31.804  1.00  0.00     0.074 A 
ATOM     56  C   UNL A   1      40.560  34.323  31.896  1.00  0.00     0.031 C 
ATOM     57  C   UNL A   1      42.749  33.241  32.334  1.00  0.00     0.031 A 
BRANCH  44  58
ATOM     58  C   UNL A   1      45.956  28.026  31.432  1.00  0.00    -0.014 A 
ATOM     59  C   UNL A   1      47.057  28.123  30.558  1.00  0.00     0.010 A 
ATOM     60  C   UNL A   1      46.056  27.199  32.565  1.00  0.00     0.010 A 
ATOM     61  C   UNL A   1      48.208  27.365  30.783  1.00  0.00     0.020 A 
ATOM     62  C   UNL A   1      47.219  26.461  32.809  1.00  0.00     0.020 A 
ATOM     63  C   UNL A   1      48.279  26.532  31.903  1.00  0.00     0.054 A 
BRANCH  63  64
ATOM     64  S   UNL A   1      49.786  25.558  32.171  1.00  0.00     0.124 S 
ATOM     65  O   UNL A   1      50.720  26.575  32.649  1.00  0.00    -0.237 OA
ATOM     66  O   UNL A   1      49.362  24.578  33.168  1.00  0.00    -0.237 OA
ATOM     67  O   UNL A   1      50.084  25.010  30.850  1.00  0.00    -0.744 OA
ENDBRANCH  63  64
ENDBRANCH  44  58
BRANCH  45  68
ATOM     68  C   UNL A   1      37.275  32.704  29.788  1.00  0.00    -0.014 A 
ATOM     69  C   UNL A   1      36.228  32.573  30.716  1.00  0.00     0.010 A 
ATOM     70  C   UNL A   1      37.091  33.523  28.658  1.00  0.00     0.010 A 
ATOM     71  C   UNL A   1      35.016  33.241  30.516  1.00  0.00     0.020 A 
ATOM     72  C   UNL A   1      35.890  34.213  28.469  1.00  0.00     0.020 A 
ATOM     73  C   UNL A   1      34.858  34.062  29.395  1.00  0.00     0.054 A 
BRANCH  73  74
ATOM     74  S   UNL A   1      33.302  34.975  29.193  1.00  0.00     0.124 S 
ATOM     75  O   UNL A   1      33.767  36.259  28.681  1.00  0.00    -0.237 OA
ATOM     76  O   UNL A   1      32.569  34.142  28.244  1.00  0.00    -0.237 OA
ATOM     77  O   UNL A   1      32.747  35.001  30.545  1.00  0.00    -0.744 OA
ENDBRANCH  73  74
ENDBRANCH  45  68
BRANCH  57  78
ATOM     78  C   UNL A   1      43.182  34.498  33.038  1.00  0.00    -0.014 A 
ATOM     79  C   UNL A   1      43.916  35.492  32.368  1.00  0.00     0.010 A 
ATOM     80  C   UNL A   1      42.800  34.710  34.376  1.00  0.00     0.010 A 
ATOM     81  C   UNL A   1      44.288  36.663  33.034  1.00  0.00     0.020 A 
ATOM     82  C   UNL A   1      43.147  35.891  35.036  1.00  0.00     0.020 A 
ATOM     83  C   UNL A   1      43.902  36.855  34.364  1.00  0.00     0.054 A 
BRANCH  83  84
ATOM     84  S   UNL A   1      44.356  38.403  35.193  1.00  0.00     0.124 S 
ATOM     85  O   UNL A   1      43.579  39.387  34.444  1.00  0.00    -0.237 OA
ATOM     86  O   UNL A   1      43.920  38.172  36.568  1.00  0.00    -0.237 OA
ATOM     87  O   UNL A   1      45.804  38.481  35.010  1.00  0.00    -0.744 OA
ENDBRANCH  83  84
ENDBRANCH  57  78
ENDBRANCH  31  32
ENDBRANCH  23  26
ENDBRANCH  21  22
ENDBRANCH   1  21
TORSDOF 15
ENDMDL
MODEL 2
REMARK VINA RESULT:      -9.5      2.891     10.946
REMARK SMILES O=Cc1ccc(-c2ccc(C(=O)NCCCNC(=O)c3ccc(-c4c5nc(c(-c6ccc(S(=O)(=O)[O-])cc6)c6ccc([nH]6)c(-c6ccc(S(=O)(=O)[O-])cc6)c6nc(c(-c7ccc(S(=O)(=O)[O-])cc7)c7ccc4[nH]7)C=C6)C=C5)cc3)cn2)cc1
REMARK SMILES IDX 15 1 14 2 13 3 11 4 12 5 10 7 7 8 8 9 81 10 9 11 80 12 6 13
REMARK SMILES IDX 3 14 4 15 83 16 5 17 82 18 2 19 1 20 16 21 17 22 18 23 19 25
REMARK SMILES IDX 20 26 21 27 79 28 22 29 78 30 23 31 24 32 25 33 72 34 26 35
REMARK SMILES IDX 77 36 71 37 73 38 27 39 76 40 70 41 69 42 28 44 58 45 39 46
REMARK SMILES IDX 57 47 40 48 43 49 56 50 74 51 41 52 42 53 55 55 75 56 44 57
REMARK SMILES IDX 29 58 30 59 38 60 31 61 37 62 32 63 33 64 34 65 35 66 36 67
REMARK SMILES IDX 59 68 60 69 68 70 61 71 67 72 62 73 63 74 64 75 65 76 66 77
REMARK SMILES IDX 45 78 46 79 54 80 47 81 53 82 48 83 49 84 50 85 51 86 52 87
REMARK H PARENT 13 6 17 24 73 43 43 54
REMARK Flexibility Score: inf
ROOT
ATOM      1  C   UNL A   1      34.275  33.878  29.371  1.00  0.00     0.042 C 
ENDROOT
BRANCH   1   2
ATOM      2  C   UNL A   1      34.422  33.169  30.716  1.00  0.00     0.118 C 
BRANCH   2   3
ATOM      3  N   UNL A   1      34.523  34.121  31.808  1.00  0.00    -0.352 N 
ATOM      4  C   UNL A   1      35.453  34.303  32.797  1.00  0.00     0.252 C 
ATOM      5  O   UNL A   1      35.302  35.269  33.546  1.00  0.00    -0.269 OA
ATOM      6  H   UNL A   1      33.775  34.760  31.846  1.00  0.00     0.163 HD
BRANCH   4   7
ATOM      7  C   UNL A   1      36.642  33.437  32.984  1.00  0.00     0.058 A 
ATOM      8  C   UNL A   1      38.667  31.577  33.324  1.00  0.00     0.070 A 
ATOM      9  C   UNL A   1      38.985  32.930  33.256  1.00  0.00     0.030 A 
ATOM     10  N   UNL A   1      37.398  31.127  33.201  1.00  0.00    -0.255 NA
ATOM     11  C   UNL A   1      37.964  33.863  33.060  1.00  0.00     0.018 A 
ATOM     12  C   UNL A   1      36.423  32.062  33.038  1.00  0.00     0.125 A 
BRANCH   8  13
ATOM     13  C   UNL A   1      39.703  30.556  33.482  1.00  0.00     0.000 A 
ATOM     14  C   UNL A   1      41.718  28.610  33.677  1.00  0.00     0.014 A 
ATOM     15  C   UNL A   1      40.493  28.282  33.095  1.00  0.00     0.012 A 
ATOM     16  C   UNL A   1      41.942  29.894  34.179  1.00  0.00     0.012 A 
ATOM     17  C   UNL A   1      39.489  29.250  33.010  1.00  0.00     0.011 A 
ATOM     18  C   UNL A   1      40.939  30.862  34.077  1.00  0.00     0.011 A 
BRANCH  14  19
ATOM     19  C   UNL A   1      42.781  27.587  33.750  1.00  0.00     0.260 C 
ATOM     20  O   UNL A   1      43.900  27.773  33.289  1.00  0.00    -0.298 OA
ENDBRANCH  14  19
ENDBRANCH   8  13
ENDBRANCH   4   7
ENDBRANCH   2   3
ENDBRANCH   1   2
BRANCH   1  21
ATOM     21  C   UNL A   1      34.810  33.065  28.193  1.00  0.00     0.118 C 
BRANCH  21  22
ATOM     22  N   UNL A   1      34.025  31.859  27.966  1.00  0.00    -0.352 N 
ATOM     23  C   UNL A   1      34.429  30.555  27.822  1.00  0.00     0.251 C 
ATOM     24  H   UNL A   1      33.053  32.001  27.908  1.00  0.00     0.163 HD
ATOM     25  O   UNL A   1      33.630  29.726  27.398  1.00  0.00    -0.269 OA
BRANCH  23  26
ATOM     26  C   UNL A   1      35.809  30.145  28.167  1.00  0.00     0.039 A 
ATOM     27  C   UNL A   1      36.778  30.127  27.159  1.00  0.00     0.014 A 
ATOM     28  C   UNL A   1      36.139  29.724  29.458  1.00  0.00     0.014 A 
ATOM     29  C   UNL A   1      38.086  29.734  27.456  1.00  0.00     0.010 A 
ATOM     30  C   UNL A   1      37.457  29.396  29.769  1.00  0.00     0.010 A 
ATOM     31  C   UNL A   1      38.442  29.390  28.769  1.00  0.00    -0.014 A 
BRANCH  31  32
ATOM     32  C   UNL A   1      39.838  29.018  29.117  1.00  0.00     0.031 A 
ATOM     33  C   UNL A   1      40.750  30.020  29.772  1.00  0.00     0.074 A 
ATOM     34  C   UNL A   1      40.303  27.798  28.783  1.00  0.00     0.049 A 
ATOM     35  N   UNL A   1      42.014  29.901  30.088  1.00  0.00    -0.248 NA
ATOM     36  C   UNL A   1      40.171  31.336  30.090  1.00  0.00     0.031 C 
ATOM     37  C   UNL A   1      39.528  26.750  28.114  1.00  0.00     0.029 A 
ATOM     38  N   UNL A   1      41.543  27.235  28.954  1.00  0.00    -0.354 N 
ATOM     39  C   UNL A   1      42.387  31.129  30.623  1.00  0.00     0.074 A 
ATOM     40  C   UNL A   1      41.229  31.992  30.546  1.00  0.00     0.031 C 
ATOM     41  C   UNL A   1      40.302  25.665  27.953  1.00  0.00     0.029 A 
ATOM     42  C   UNL A   1      41.637  25.952  28.470  1.00  0.00     0.049 A 
ATOM     43  H   UNL A   1      42.293  27.706  29.382  1.00  0.00     0.167 HD
ATOM     44  C   UNL A   1      43.581  31.501  31.145  1.00  0.00     0.031 A 
ATOM     45  C   UNL A   1      42.681  25.102  28.438  1.00  0.00     0.031 A 
ATOM     46  C   UNL A   1      44.729  30.636  31.228  1.00  0.00     0.049 A 
ATOM     47  C   UNL A   1      43.997  25.536  29.019  1.00  0.00     0.074 A 
ATOM     48  C   UNL A   1      45.967  30.899  31.786  1.00  0.00     0.029 A 
ATOM     49  N   UNL A   1      44.780  29.340  30.736  1.00  0.00    -0.354 N 
ATOM     50  N   UNL A   1      44.315  26.683  29.571  1.00  0.00    -0.248 NA
ATOM     51  C   UNL A   1      45.094  24.558  28.981  1.00  0.00     0.031 C 
ATOM     52  C   UNL A   1      46.782  29.778  31.590  1.00  0.00     0.029 A 
ATOM     53  C   UNL A   1      46.034  28.797  30.958  1.00  0.00     0.049 A 
ATOM     54  H   UNL A   1      44.034  28.874  30.293  1.00  0.00     0.167 HD
ATOM     55  C   UNL A   1      45.641  26.556  29.970  1.00  0.00     0.074 A 
ATOM     56  C   UNL A   1      46.060  25.216  29.607  1.00  0.00     0.031 C 
ATOM     57  C   UNL A   1      46.437  27.464  30.586  1.00  0.00     0.031 A 
BRANCH  44  58
ATOM     58  C   UNL A   1      43.704  32.912  31.658  1.00  0.00    -0.014 A 
ATOM     59  C   UNL A   1      43.496  33.213  33.017  1.00  0.00     0.010 A 
ATOM     60  C   UNL A   1      44.052  33.951  30.775  1.00  0.00     0.010 A 
ATOM     61  C   UNL A   1      43.578  34.532  33.472  1.00  0.00     0.020 A 
ATOM     62  C   UNL A   1      44.163  35.268  31.232  1.00  0.00     0.020 A 
ATOM     63  C   UNL A   1      43.904  35.552  32.574  1.00  0.00     0.054 A 
BRANCH  63  64
ATOM     64  S   UNL A   1      44.003  37.256  33.190  1.00  0.00     0.124 S 
ATOM     65  O   UNL A   1      45.282  37.247  33.894  1.00  0.00    -0.237 OA
ATOM     66  O   UNL A   1      43.970  38.044  31.960  1.00  0.00    -0.237 OA
ATOM     67  O   UNL A   1      42.824  37.386  34.042  1.00  0.00    -0.744 OA
ENDBRANCH  63  64
ENDBRANCH  44  58
BRANCH  45  68
ATOM     68  C   UNL A   1      42.509  23.744  27.855  1.00  0.00    -0.014 A 
ATOM     69  C   UNL A   1      42.823  23.504  26.506  1.00  0.00     0.010 A 
ATOM     70  C   UNL A   1      42.063  22.676  28.654  1.00  0.00     0.010 A 
ATOM     71  C   UNL A   1      42.688  22.222  25.964  1.00  0.00     0.020 A 
ATOM     72  C   UNL A   1      41.950  21.388  28.122  1.00  0.00     0.020 A 
ATOM     73  C   UNL A   1      42.257  21.171  26.778  1.00  0.00     0.054 A 
BRANCH  73  74
ATOM     74  S   UNL A   1      42.155  19.503  26.071  1.00  0.00     0.124 S 
ATOM     75  O   UNL A   1      40.737  19.394  25.750  1.00  0.00    -0.237 OA
ATOM     76  O   UNL A   1      43.060  19.590  24.927  1.00  0.00    -0.237 OA
ATOM     77  O   UNL A   1      42.622  18.645  27.159  1.00  0.00    -0.744 OA
ENDBRANCH  73  74
ENDBRANCH  45  68
BRANCH  57  78
ATOM     78  C   UNL A   1      47.837  27.033  30.932  1.00  0.00    -0.014 A 
ATOM     79  C   UNL A   1      48.107  26.312  32.109  1.00  0.00     0.010 A 
ATOM     80  C   UNL A   1      48.887  27.307  30.037  1.00  0.00     0.010 A 
ATOM     81  C   UNL A   1      49.411  25.901  32.399  1.00  0.00     0.020 A 
ATOM     82  C   UNL A   1      50.187  26.874  30.312  1.00  0.00     0.020 A 
ATOM     83  C   UNL A   1      50.442  26.185  31.499  1.00  0.00     0.054 A 
BRANCH  83  84
ATOM     84  S   UNL A   1      52.117  25.600  31.876  1.00  0.00     0.124 S 
ATOM     85  O   UNL A   1      52.839  25.937  30.651  1.00  0.00    -0.237 OA
ATOM     86  O   UNL A   1      52.476  26.388  33.053  1.00  0.00    -0.237 OA
ATOM     87  O   UNL A   1      51.938  24.171  32.121  1.00  0.00    -0.744 OA
ENDBRANCH  83  84
ENDBRANCH  57  78
ENDBRANCH  31  32
ENDBRANCH  23  26
ENDBRANCH  21  22
ENDBRANCH   1  21
TORSDOF 15
ENDMDL
MODEL 3
REMARK VINA RESULT:      -9.4      3.909     10.879
REMARK SMILES O=Cc1ccc(-c2ccc(C(=O)NCCCNC(=O)c3ccc(-c4c5nc(c(-c6ccc(S(=O)(=O)[O-])cc6)c6ccc([nH]6)c(-c6ccc(S(=O)(=O)[O-])cc6)c6nc(c(-c7ccc(S(=O)(=O)[O-])cc7)c7ccc4[nH]7)C=C6)C=C5)cc3)cn2)cc1
REMARK SMILES IDX 15 1 14 2 13 3 11 4 12 5 10 7 7 8 8 9 81 10 9 11 80 12 6 13
REMARK SMILES IDX 3 14 4 15 83 16 5 17 82 18 2 19 1 20 16 21 17 22 18 23 19 25
REMARK SMILES IDX 20 26 21 27 79 28 22 29 78 30 23 31 24 32 25 33 72 34 26 35
REMARK SMILES IDX 77 36 71 37 73 38 27 39 76 40 70 41 69 42 28 44 58 45 39 46
REMARK SMILES IDX 57 47 40 48 43 49 56 50 74 51 41 52 42 53 55 55 75 56 44 57
REMARK SMILES IDX 29 58 30 59 38 60 31 61 37 62 32 63 33 64 34 65 35 66 36 67
REMARK SMILES IDX 59 68 60 69 68 70 61 71 67 72 62 73 63 74 64 75 65 76 66 77
REMARK SMILES IDX 45 78 46 79 54 80 47 81 53 82 48 83 49 84 50 85 51 86 52 87
REMARK H PARENT 13 6 17 24 73 43 43 54
REMARK Flexibility Score: inf
ROOT
ATOM      1  C   UNL A   1      33.879  27.798  25.588  1.00  0.00     0.042 C 
ENDROOT
BRANCH   1   2
ATOM      2  C   UNL A   1      32.683  27.495  24.687  1.00  0.00     0.118 C 
BRANCH   2   3
ATOM      3  N   UNL A   1      33.082  27.395  23.294  1.00  0.00    -0.352 N 
ATOM      4  C   UNL A   1      33.464  26.337  22.512  1.00  0.00     0.252 C 
ATOM      5  O   UNL A   1      33.669  26.559  21.318  1.00  0.00    -0.269 OA
ATOM      6  H   UNL A   1      33.078  28.257  22.819  1.00  0.00     0.163 HD
BRANCH   4   7
ATOM      7  C   UNL A   1      33.600  24.947  23.011  1.00  0.00     0.058 A 
ATOM      8  C   UNL A   1      33.623  22.277  23.751  1.00  0.00     0.070 A 
ATOM      9  C   UNL A   1      34.551  23.150  24.310  1.00  0.00     0.030 A 
ATOM     10  N   UNL A   1      32.718  22.680  22.830  1.00  0.00    -0.255 NA
ATOM     11  C   UNL A   1      34.553  24.490  23.916  1.00  0.00     0.018 A 
ATOM     12  C   UNL A   1      32.728  23.995  22.487  1.00  0.00     0.125 A 
BRANCH   8  13
ATOM     13  C   UNL A   1      33.608  20.855  24.095  1.00  0.00     0.000 A 
ATOM     14  C   UNL A   1      33.599  18.102  24.645  1.00  0.00     0.014 A 
ATOM     15  C   UNL A   1      32.474  18.696  24.071  1.00  0.00     0.012 A 
ATOM     16  C   UNL A   1      34.721  18.870  24.964  1.00  0.00     0.012 A 
ATOM     17  C   UNL A   1      32.479  20.069  23.809  1.00  0.00     0.011 A 
ATOM     18  C   UNL A   1      34.724  20.240  24.685  1.00  0.00     0.011 A 
BRANCH  14  19
ATOM     19  C   UNL A   1      33.595  16.648  24.907  1.00  0.00     0.260 C 
ATOM     20  O   UNL A   1      33.698  15.822  24.009  1.00  0.00    -0.298 OA
ENDBRANCH  14  19
ENDBRANCH   8  13
ENDBRANCH   4   7
ENDBRANCH   2   3
ENDBRANCH   1   2
BRANCH   1  21
ATOM     21  C   UNL A   1      33.487  28.135  27.026  1.00  0.00     0.118 C 
BRANCH  21  22
ATOM     22  N   UNL A   1      33.351  29.571  27.227  1.00  0.00    -0.352 N 
ATOM     23  C   UNL A   1      34.190  30.460  27.853  1.00  0.00     0.251 C 
ATOM     24  H   UNL A   1      32.529  29.967  26.857  1.00  0.00     0.163 HD
ATOM     25  O   UNL A   1      33.774  31.582  28.126  1.00  0.00    -0.269 OA
BRANCH  23  26
ATOM     26  C   UNL A   1      35.576  30.078  28.202  1.00  0.00     0.039 A 
ATOM     27  C   UNL A   1      36.561  30.137  27.211  1.00  0.00     0.014 A 
ATOM     28  C   UNL A   1      35.899  29.609  29.479  1.00  0.00     0.014 A 
ATOM     29  C   UNL A   1      37.876  29.771  27.513  1.00  0.00     0.010 A 
ATOM     30  C   UNL A   1      37.222  29.309  29.798  1.00  0.00     0.010 A 
ATOM     31  C   UNL A   1      38.222  29.379  28.816  1.00  0.00    -0.014 A 
BRANCH  31  32
ATOM     32  C   UNL A   1      39.623  29.035  29.170  1.00  0.00     0.031 A 
ATOM     33  C   UNL A   1      40.509  30.053  29.837  1.00  0.00     0.074 A 
ATOM     34  C   UNL A   1      40.117  27.828  28.833  1.00  0.00     0.049 A 
ATOM     35  N   UNL A   1      41.773  29.960  30.160  1.00  0.00    -0.248 NA
ATOM     36  C   UNL A   1      39.900  31.354  30.158  1.00  0.00     0.031 C 
ATOM     37  C   UNL A   1      39.369  26.767  28.154  1.00  0.00     0.029 A 
ATOM     38  N   UNL A   1      41.368  27.291  29.009  1.00  0.00    -0.354 N 
ATOM     39  C   UNL A   1      42.117  31.193  30.704  1.00  0.00     0.074 A 
ATOM     40  C   UNL A   1      40.940  32.031  30.624  1.00  0.00     0.031 C 
ATOM     41  C   UNL A   1      40.168  25.700  27.992  1.00  0.00     0.029 A 
ATOM     42  C   UNL A   1      41.493  26.013  28.519  1.00  0.00     0.049 A 
ATOM     43  H   UNL A   1      42.105  27.776  29.445  1.00  0.00     0.167 HD
ATOM     44  C   UNL A   1      43.299  31.588  31.237  1.00  0.00     0.031 A 
ATOM     45  C   UNL A   1      42.555  25.185  28.489  1.00  0.00     0.031 A 
ATOM     46  C   UNL A   1      44.464  30.748  31.322  1.00  0.00     0.049 A 
ATOM     47  C   UNL A   1      43.858  25.645  29.081  1.00  0.00     0.074 A 
ATOM     48  C   UNL A   1      45.693  31.034  31.889  1.00  0.00     0.029 A 
ATOM     49  N   UNL A   1      44.547  29.456  30.824  1.00  0.00    -0.354 N 
ATOM     50  N   UNL A   1      44.147  26.796  29.642  1.00  0.00    -0.248 NA
ATOM     51  C   UNL A   1      44.976  24.691  29.045  1.00  0.00     0.031 C 
ATOM     52  C   UNL A   1      46.533  29.933  31.693  1.00  0.00     0.029 A 
ATOM     53  C   UNL A   1      45.811  28.939  31.051  1.00  0.00     0.049 A 
ATOM     54  H   UNL A   1      43.814  28.977  30.374  1.00  0.00     0.167 HD
ATOM     55  C   UNL A   1      45.473  26.695  30.049  1.00  0.00     0.074 A 
ATOM     56  C   UNL A   1      45.924  25.367  29.681  1.00  0.00     0.031 C 
ATOM     57  C   UNL A   1      46.246  27.617  30.674  1.00  0.00     0.031 A 
BRANCH  44  58
ATOM     58  C   UNL A   1      43.388  32.998  31.757  1.00  0.00    -0.014 A 
ATOM     59  C   UNL A   1      43.786  34.059  30.921  1.00  0.00     0.010 A 
ATOM     60  C   UNL A   1      43.052  33.275  33.095  1.00  0.00     0.010 A 
ATOM     61  C   UNL A   1      43.900  35.356  31.426  1.00  0.00     0.020 A 
ATOM     62  C   UNL A   1      43.137  34.578  33.597  1.00  0.00     0.020 A 
ATOM     63  C   UNL A   1      43.582  35.606  32.764  1.00  0.00     0.054 A 
BRANCH  63  64
ATOM     64  S   UNL A   1      43.739  37.299  33.395  1.00  0.00     0.124 S 
ATOM     65  O   UNL A   1      44.955  37.208  34.200  1.00  0.00    -0.237 OA
ATOM     66  O   UNL A   1      43.855  38.089  32.171  1.00  0.00    -0.237 OA
ATOM     67  O   UNL A   1      42.506  37.504  34.151  1.00  0.00    -0.744 OA
ENDBRANCH  63  64
ENDBRANCH  44  58
BRANCH  45  68
ATOM     68  C   UNL A   1      42.417  23.828  27.898  1.00  0.00    -0.014 A 
ATOM     69  C   UNL A   1      42.735  23.604  26.547  1.00  0.00     0.010 A 
ATOM     70  C   UNL A   1      41.998  22.744  28.691  1.00  0.00     0.010 A 
ATOM     71  C   UNL A   1      42.631  22.323  25.997  1.00  0.00     0.020 A 
ATOM     72  C   UNL A   1      41.917  21.457  28.151  1.00  0.00     0.020 A 
ATOM     73  C   UNL A   1      42.227  21.256  26.806  1.00  0.00     0.054 A 
BRANCH  73  74
ATOM     74  S   UNL A   1      42.167  19.590  26.088  1.00  0.00     0.124 S 
ATOM     75  O   UNL A   1      43.073  19.715  24.952  1.00  0.00    -0.237 OA
ATOM     76  O   UNL A   1      42.642  18.755  27.189  1.00  0.00    -0.237 OA
ATOM     77  O   UNL A   1      40.755  19.417  25.751  1.00  0.00    -0.744 OA
ENDBRANCH  73  74
ENDBRANCH  45  68
BRANCH  57  78
ATOM     78  C   UNL A   1      47.652  27.215  31.027  1.00  0.00    -0.014 A 
ATOM     79  C   UNL A   1      48.727  27.487  30.162  1.00  0.00     0.010 A 
ATOM     80  C   UNL A   1      47.907  26.604  32.268  1.00  0.00     0.010 A 
ATOM     81  C   UNL A   1      50.028  27.126  30.520  1.00  0.00     0.020 A 
ATOM     82  C   UNL A   1      49.210  26.265  32.641  1.00  0.00     0.020 A 
ATOM     83  C   UNL A   1      50.261  26.517  31.757  1.00  0.00     0.054 A 
BRANCH  83  84
ATOM     84  S   UNL A   1      51.965  26.099  32.219  1.00  0.00     0.124 S 
ATOM     85  O   UNL A   1      52.043  24.689  31.845  1.00  0.00    -0.237 OA
ATOM     86  O   UNL A   1      52.754  27.012  31.396  1.00  0.00    -0.237 OA
ATOM     87  O   UNL A   1      52.010  26.367  33.654  1.00  0.00    -0.744 OA
ENDBRANCH  83  84
ENDBRANCH  57  78
ENDBRANCH  31  32
ENDBRANCH  23  26
ENDBRANCH  21  22
ENDBRANCH   1  21
TORSDOF 15
ENDMDL
