MODEL 1
REMARK VINA RESULT:     -10.2      0.000      0.000
REMARK SMILES C[C@H](NC(=O)N(CC(=O)NCCCNC(=O)c1ccc(-c2c3nc(c(-c4ccc(S(=O)(=O)[O-])cc4)c4ccc([nH]4)c(-c4ccc(S(=O)(=O)[O-])cc4)c4nc(c(-c5ccc(S(=O)(=O)[O-])cc5)c5ccc2[nH]5)C=C4)C=C3)cc1)CC(F)(F)F)[C@@H]1CCCO1
REMARK SMILES IDX 11 1 10 2 8 3 9 4 7 6 6 7 4 8 3 9 5 11 2 12 1 13 82 14 83 15
REMARK SMILES IDX 86 16 84 17 85 18 77 19 78 20 79 21 80 22 81 23 12 24 13 25
REMARK SMILES IDX 14 26 15 27 16 29 17 30 18 31 76 32 19 33 75 34 20 35 21 36
REMARK SMILES IDX 22 37 69 38 23 39 74 40 68 41 70 42 24 43 73 44 67 45 66 46
REMARK SMILES IDX 25 48 55 49 36 50 54 51 37 52 40 53 53 54 71 55 38 56 39 57
REMARK SMILES IDX 52 59 72 60 41 61 26 62 27 63 35 64 28 65 34 66 29 67 30 68
REMARK SMILES IDX 31 69 32 70 33 71 56 72 57 73 65 74 58 75 64 76 59 77 60 78
REMARK SMILES IDX 61 79 62 80 63 81 42 82 43 83 51 84 44 85 50 86 45 87 46 88
REMARK SMILES IDX 47 89 48 90 49 91
REMARK H PARENT 10 5 3 10 14 28 70 47 40 58
REMARK Flexibility Score: inf
ROOT
ATOM      1  C   UNL A   1      32.507  26.310  26.104  1.00  0.00     0.117 C 
ENDROOT
BRANCH   1   2
ATOM      2  N   UNL A   1      32.516  25.929  24.702  1.00  0.00    -0.354 N 
ATOM      3  C   UNL A   1      33.158  24.884  24.103  1.00  0.00     0.239 C 
ATOM      4  O   UNL A   1      33.156  24.791  22.876  1.00  0.00    -0.273 OA
ATOM      5  H   UNL A   1      31.988  26.503  24.101  1.00  0.00     0.163 HD
BRANCH   3   6
ATOM      6  C   UNL A   1      33.732  23.782  24.982  1.00  0.00     0.221 C 
BRANCH   6   7
ATOM      7  N   UNL A   1      33.051  22.503  25.111  1.00  0.00    -0.306 N 
BRANCH   7   8
ATOM      8  C   UNL A   1      33.603  21.301  25.434  1.00  0.00     0.318 C 
ATOM      9  N   UNL A   1      33.245  20.122  24.900  1.00  0.00    -0.333 N 
ATOM     10  H   UNL A   1      33.865  19.421  25.207  1.00  0.00     0.165 HD
ATOM     11  O   UNL A   1      34.539  21.235  26.238  1.00  0.00    -0.249 OA
BRANCH   9  12
ATOM     12  C   UNL A   1      32.229  19.524  24.000  1.00  0.00     0.109 C 
ATOM     13  C   UNL A   1      32.289  20.020  22.542  1.00  0.00     0.034 C 
BRANCH  12  14
ATOM     14  C   UNL A   1      32.292  17.966  24.079  1.00  0.00     0.140 C 
ATOM     15  C   UNL A   1      33.080  17.404  25.261  1.00  0.00     0.036 C 
ATOM     16  O   UNL A   1      32.891  17.453  22.874  1.00  0.00    -0.376 OA
ATOM     17  C   UNL A   1      34.144  16.525  24.642  1.00  0.00     0.031 C 
ATOM     18  C   UNL A   1      34.174  16.916  23.184  1.00  0.00     0.160 C 
ENDBRANCH  12  14
ENDBRANCH   9  12
ENDBRANCH   7   8
BRANCH   7  19
ATOM     19  C   UNL A   1      31.569  22.540  24.994  1.00  0.00     0.237 C 
BRANCH  19  20
ATOM     20  C   UNL A   1      30.757  22.872  26.249  1.00  0.00     0.406 C 
ATOM     21  F   UNL A   1      29.769  21.988  26.490  1.00  0.00    -0.169 F 
ATOM     22  F   UNL A   1      31.568  22.883  27.334  1.00  0.00    -0.169 F 
ATOM     23  F   UNL A   1      30.199  24.100  26.164  1.00  0.00    -0.169 F 
ENDBRANCH  19  20
ENDBRANCH   7  19
ENDBRANCH   6   7
ENDBRANCH   3   6
ENDBRANCH   1   2
BRANCH   1  24
ATOM     24  C   UNL A   1      32.474  27.818  26.274  1.00  0.00     0.042 C 
BRANCH  24  25
ATOM     25  C   UNL A   1      33.693  28.352  27.004  1.00  0.00     0.118 C 
BRANCH  25  26
ATOM     26  N   UNL A   1      33.548  29.763  27.342  1.00  0.00    -0.352 N 
ATOM     27  C   UNL A   1      34.422  30.563  28.036  1.00  0.00     0.251 C 
ATOM     28  H   UNL A   1      32.718  30.196  27.034  1.00  0.00     0.163 HD
ATOM     29  O   UNL A   1      34.074  31.663  28.436  1.00  0.00    -0.269 OA
BRANCH  27  30
ATOM     30  C   UNL A   1      35.782  30.052  28.302  1.00  0.00     0.039 A 
ATOM     31  C   UNL A   1      36.745  30.122  27.295  1.00  0.00     0.014 A 
ATOM     32  C   UNL A   1      36.107  29.556  29.568  1.00  0.00     0.014 A 
ATOM     33  C   UNL A   1      38.058  29.741  27.579  1.00  0.00     0.010 A 
ATOM     34  C   UNL A   1      37.429  29.265  29.872  1.00  0.00     0.010 A 
ATOM     35  C   UNL A   1      38.416  29.343  28.879  1.00  0.00    -0.014 A 
BRANCH  35  36
ATOM     36  C   UNL A   1      39.812  28.982  29.224  1.00  0.00     0.031 A 
ATOM     37  C   UNL A   1      40.704  30.004  29.877  1.00  0.00     0.074 A 
ATOM     38  C   UNL A   1      40.296  27.771  28.886  1.00  0.00     0.049 A 
ATOM     39  N   UNL A   1      41.974  29.919  30.176  1.00  0.00    -0.248 NA
ATOM     40  C   UNL A   1      40.093  31.302  30.214  1.00  0.00     0.031 C 
ATOM     41  C   UNL A   1      39.539  26.710  28.217  1.00  0.00     0.029 A 
ATOM     42  N   UNL A   1      41.548  27.231  29.048  1.00  0.00    -0.354 N 
ATOM     43  C   UNL A   1      42.317  31.154  30.714  1.00  0.00     0.074 A 
ATOM     44  C   UNL A   1      41.138  31.988  30.650  1.00  0.00     0.031 C 
ATOM     45  C   UNL A   1      40.332  25.639  28.052  1.00  0.00     0.029 A 
ATOM     46  C   UNL A   1      41.665  25.953  28.554  1.00  0.00     0.049 A 
ATOM     47  H   UNL A   1      42.291  27.714  29.477  1.00  0.00     0.167 HD
ATOM     48  C   UNL A   1      43.502  31.551  31.235  1.00  0.00     0.031 A 
ATOM     49  C   UNL A   1      42.732  25.130  28.502  1.00  0.00     0.031 A 
ATOM     50  C   UNL A   1      44.667  30.711  31.302  1.00  0.00     0.049 A 
ATOM     51  C   UNL A   1      44.047  25.604  29.061  1.00  0.00     0.074 A 
ATOM     52  C   UNL A   1      45.902  30.999  31.855  1.00  0.00     0.029 A 
ATOM     53  N   UNL A   1      44.742  29.421  30.797  1.00  0.00    -0.354 N 
ATOM     54  N   UNL A   1      44.336  26.753  29.624  1.00  0.00    -0.248 NA
ATOM     55  C   UNL A   1      45.177  24.668  28.986  1.00  0.00     0.031 C 
ATOM     56  C   UNL A   1      46.742  29.905  31.633  1.00  0.00     0.029 A 
ATOM     57  C   UNL A   1      46.011  28.908  31.006  1.00  0.00     0.049 A 
ATOM     58  H   UNL A   1      44.004  28.941  30.359  1.00  0.00     0.167 HD
ATOM     59  C   UNL A   1      45.671  26.664  30.002  1.00  0.00     0.074 A 
ATOM     60  C   UNL A   1      46.129  25.347  29.612  1.00  0.00     0.031 C 
ATOM     61  C   UNL A   1      46.446  27.589  30.621  1.00  0.00     0.031 A 
BRANCH  48  62
ATOM     62  C   UNL A   1      43.595  32.957  31.767  1.00  0.00    -0.014 A 
ATOM     63  C   UNL A   1      43.346  33.241  33.122  1.00  0.00     0.010 A 
ATOM     64  C   UNL A   1      43.976  34.005  30.909  1.00  0.00     0.010 A 
ATOM     65  C   UNL A   1      43.434  34.552  33.600  1.00  0.00     0.020 A 
ATOM     66  C   UNL A   1      44.098  35.312  31.390  1.00  0.00     0.020 A 
ATOM     67  C   UNL A   1      43.809  35.579  32.730  1.00  0.00     0.054 A 
BRANCH  67  68
ATOM     68  S   UNL A   1      43.941  37.265  33.386  1.00  0.00     0.124 S 
ATOM     69  O   UNL A   1      45.161  37.183  34.184  1.00  0.00    -0.237 OA
ATOM     70  O   UNL A   1      44.037  38.072  32.173  1.00  0.00    -0.237 OA
ATOM     71  O   UNL A   1      42.707  37.438  34.151  1.00  0.00    -0.744 OA
ENDBRANCH  67  68
ENDBRANCH  48  62
BRANCH  49  72
ATOM     72  C   UNL A   1      42.597  23.771  27.905  1.00  0.00    -0.014 A 
ATOM     73  C   UNL A   1      42.242  22.672  28.707  1.00  0.00     0.010 A 
ATOM     74  C   UNL A   1      42.813  23.569  26.530  1.00  0.00     0.010 A 
ATOM     75  C   UNL A   1      42.128  21.395  28.151  1.00  0.00     0.020 A 
ATOM     76  C   UNL A   1      42.669  22.299  25.964  1.00  0.00     0.020 A 
ATOM     77  C   UNL A   1      42.340  21.217  26.781  1.00  0.00     0.054 A 
BRANCH  77  78
ATOM     78  S   UNL A   1      42.146  19.556  26.077  1.00  0.00     0.124 S 
ATOM     79  O   UNL A   1      43.019  19.617  24.909  1.00  0.00    -0.237 OA
ATOM     80  O   UNL A   1      42.603  18.696  27.165  1.00  0.00    -0.237 OA
ATOM     81  O   UNL A   1      40.716  19.473  25.785  1.00  0.00    -0.744 OA
ENDBRANCH  77  78
ENDBRANCH  49  72
BRANCH  61  82
ATOM     82  C   UNL A   1      47.860  27.200  30.964  1.00  0.00    -0.014 A 
ATOM     83  C   UNL A   1      48.160  26.490  32.140  1.00  0.00     0.010 A 
ATOM     84  C   UNL A   1      48.890  27.474  30.045  1.00  0.00     0.010 A 
ATOM     85  C   UNL A   1      49.470  26.076  32.398  1.00  0.00     0.020 A 
ATOM     86  C   UNL A   1      50.194  27.036  30.285  1.00  0.00     0.020 A 
ATOM     87  C   UNL A   1      50.477  26.346  31.465  1.00  0.00     0.054 A 
BRANCH  87  88
ATOM     88  S   UNL A   1      52.153  25.732  31.790  1.00  0.00     0.124 S 
ATOM     89  O   UNL A   1      51.909  24.323  32.088  1.00  0.00    -0.237 OA
ATOM     90  O   UNL A   1      52.840  25.997  30.527  1.00  0.00    -0.237 OA
ATOM     91  O   UNL A   1      52.606  26.539  32.920  1.00  0.00    -0.744 OA
ENDBRANCH  87  88
ENDBRANCH  61  82
ENDBRANCH  35  36
ENDBRANCH  27  30
ENDBRANCH  25  26
ENDBRANCH  24  25
ENDBRANCH   1  24
TORSDOF 19
ENDMDL
MODEL 2
REMARK VINA RESULT:     -10.0      2.945      9.325
REMARK SMILES C[C@H](NC(=O)N(CC(=O)NCCCNC(=O)c1ccc(-c2c3nc(c(-c4ccc(S(=O)(=O)[O-])cc4)c4ccc([nH]4)c(-c4ccc(S(=O)(=O)[O-])cc4)c4nc(c(-c5ccc(S(=O)(=O)[O-])cc5)c5ccc2[nH]5)C=C4)C=C3)cc1)CC(F)(F)F)[C@@H]1CCCO1
REMARK SMILES IDX 11 1 10 2 8 3 9 4 7 6 6 7 4 8 3 9 5 11 2 12 1 13 82 14 83 15
REMARK SMILES IDX 86 16 84 17 85 18 77 19 78 20 79 21 80 22 81 23 12 24 13 25
REMARK SMILES IDX 14 26 15 27 16 29 17 30 18 31 76 32 19 33 75 34 20 35 21 36
REMARK SMILES IDX 22 37 69 38 23 39 74 40 68 41 70 42 24 43 73 44 67 45 66 46
REMARK SMILES IDX 25 48 55 49 36 50 54 51 37 52 40 53 53 54 71 55 38 56 39 57
REMARK SMILES IDX 52 59 72 60 41 61 26 62 27 63 35 64 28 65 34 66 29 67 30 68
REMARK SMILES IDX 31 69 32 70 33 71 56 72 57 73 65 74 58 75 64 76 59 77 60 78
REMARK SMILES IDX 61 79 62 80 63 81 42 82 43 83 51 84 44 85 50 86 45 87 46 88
REMARK SMILES IDX 47 89 48 90 49 91
REMARK H PARENT 10 5 3 10 14 28 70 47 40 58
REMARK Flexibility Score: inf
ROOT
ATOM      1  C   UNL A   1      35.083  22.728  24.209  1.00  0.00     0.117 C 
ENDROOT
BRANCH   1   2
ATOM      2  N   UNL A   1      34.873  22.244  25.562  1.00  0.00    -0.354 N 
ATOM      3  C   UNL A   1      34.112  22.787  26.557  1.00  0.00     0.239 C 
ATOM      4  O   UNL A   1      34.154  22.305  27.688  1.00  0.00    -0.273 OA
ATOM      5  H   UNL A   1      35.344  21.411  25.795  1.00  0.00     0.163 HD
BRANCH   3   6
ATOM      6  C   UNL A   1      33.118  23.883  26.197  1.00  0.00     0.221 C 
BRANCH   6   7
ATOM      7  N   UNL A   1      31.706  23.579  26.027  1.00  0.00    -0.306 N 
BRANCH   7   8
ATOM      8  C   UNL A   1      30.653  24.153  26.672  1.00  0.00     0.318 C 
ATOM      9  N   UNL A   1      30.333  25.456  26.614  1.00  0.00    -0.333 N 
ATOM     10  H   UNL A   1      29.471  25.603  27.067  1.00  0.00     0.165 HD
ATOM     11  O   UNL A   1      29.872  23.464  27.336  1.00  0.00    -0.249 OA
BRANCH   9  12
ATOM     12  C   UNL A   1      30.845  26.748  26.094  1.00  0.00     0.109 C 
ATOM     13  C   UNL A   1      32.270  27.108  26.556  1.00  0.00     0.034 C 
BRANCH  12  14
ATOM     14  C   UNL A   1      30.717  26.789  24.538  1.00  0.00     0.140 C 
ATOM     15  C   UNL A   1      30.632  28.188  23.928  1.00  0.00     0.036 C 
ATOM     16  O   UNL A   1      29.537  26.068  24.139  1.00  0.00    -0.376 OA
ATOM     17  C   UNL A   1      29.340  28.195  23.143  1.00  0.00     0.031 C 
ATOM     18  C   UNL A   1      28.575  26.991  23.637  1.00  0.00     0.160 C 
ENDBRANCH  12  14
ENDBRANCH   9  12
ENDBRANCH   7   8
BRANCH   7  19
ATOM     19  C   UNL A   1      31.372  22.620  24.941  1.00  0.00     0.237 C 
BRANCH  19  20
ATOM     20  C   UNL A   1      31.473  23.109  23.493  1.00  0.00     0.406 C 
ATOM     21  F   UNL A   1      32.179  24.249  23.368  1.00  0.00    -0.169 F 
ATOM     22  F   UNL A   1      32.077  22.167  22.729  1.00  0.00    -0.169 F 
ATOM     23  F   UNL A   1      30.249  23.322  22.960  1.00  0.00    -0.169 F 
ENDBRANCH  19  20
ENDBRANCH   7  19
ENDBRANCH   6   7
ENDBRANCH   3   6
ENDBRANCH   1   2
BRANCH   1  24
ATOM     24  C   UNL A   1      36.371  23.522  24.093  1.00  0.00     0.042 C 
BRANCH  24  25
ATOM     25  C   UNL A   1      37.058  23.723  25.431  1.00  0.00     0.118 C 
BRANCH  25  26
ATOM     26  N   UNL A   1      38.124  22.753  25.645  1.00  0.00    -0.352 N 
ATOM     27  C   UNL A   1      39.376  22.968  26.169  1.00  0.00     0.251 C 
ATOM     28  H   UNL A   1      37.921  21.826  25.381  1.00  0.00     0.163 HD
ATOM     29  O   UNL A   1      40.240  22.110  26.086  1.00  0.00    -0.269 OA
BRANCH  27  30
ATOM     30  C   UNL A   1      39.652  24.267  26.816  1.00  0.00     0.039 A 
ATOM     31  C   UNL A   1      39.231  24.478  28.129  1.00  0.00     0.014 A 
ATOM     32  C   UNL A   1      40.376  25.248  26.131  1.00  0.00     0.014 A 
ATOM     33  C   UNL A   1      39.587  25.662  28.777  1.00  0.00     0.010 A 
ATOM     34  C   UNL A   1      40.804  26.381  26.808  1.00  0.00     0.010 A 
ATOM     35  C   UNL A   1      40.404  26.606  28.133  1.00  0.00    -0.014 A 
BRANCH  35  36
ATOM     36  C   UNL A   1      40.842  27.849  28.814  1.00  0.00     0.031 A 
ATOM     37  C   UNL A   1      42.217  27.918  29.421  1.00  0.00     0.074 A 
ATOM     38  C   UNL A   1      39.983  28.879  28.949  1.00  0.00     0.049 A 
ATOM     39  N   UNL A   1      42.756  28.873  30.134  1.00  0.00    -0.248 NA
ATOM     40  C   UNL A   1      43.091  26.749  29.226  1.00  0.00     0.031 C 
ATOM     41  C   UNL A   1      38.612  28.915  28.433  1.00  0.00     0.029 A 
ATOM     42  N   UNL A   1      40.133  30.092  29.572  1.00  0.00    -0.354 N 
ATOM     43  C   UNL A   1      44.019  28.412  30.487  1.00  0.00     0.074 A 
ATOM     44  C   UNL A   1      44.145  27.073  29.958  1.00  0.00     0.031 C 
ATOM     45  C   UNL A   1      38.058  30.099  28.737  1.00  0.00     0.029 A 
ATOM     46  C   UNL A   1      39.012  30.886  29.511  1.00  0.00     0.049 A 
ATOM     47  H   UNL A   1      40.965  30.368  30.020  1.00  0.00     0.167 HD
ATOM     48  C   UNL A   1      44.994  29.055  31.171  1.00  0.00     0.031 A 
ATOM     49  C   UNL A   1      38.775  32.107  30.032  1.00  0.00     0.031 A 
ATOM     50  C   UNL A   1      44.862  30.391  31.686  1.00  0.00     0.049 A 
ATOM     51  C   UNL A   1      39.864  32.790  30.813  1.00  0.00     0.074 A 
ATOM     52  C   UNL A   1      45.807  31.153  32.349  1.00  0.00     0.029 A 
ATOM     53  N   UNL A   1      43.713  31.163  31.596  1.00  0.00    -0.354 N 
ATOM     54  N   UNL A   1      41.076  32.364  31.082  1.00  0.00    -0.248 NA
ATOM     55  C   UNL A   1      39.561  34.122  31.353  1.00  0.00     0.031 C 
ATOM     56  C   UNL A   1      45.212  32.363  32.713  1.00  0.00     0.029 A 
ATOM     57  C   UNL A   1      43.918  32.385  32.214  1.00  0.00     0.049 A 
ATOM     58  H   UNL A   1      42.878  30.885  31.158  1.00  0.00     0.167 HD
ATOM     59  C   UNL A   1      41.689  33.391  31.793  1.00  0.00     0.074 A 
ATOM     60  C   UNL A   1      40.719  34.460  31.904  1.00  0.00     0.031 C 
ATOM     61  C   UNL A   1      42.944  33.443  32.304  1.00  0.00     0.031 A 
BRANCH  48  62
ATOM     62  C   UNL A   1      46.286  28.316  31.405  1.00  0.00    -0.014 A 
ATOM     63  C   UNL A   1      47.363  28.430  30.508  1.00  0.00     0.010 A 
ATOM     64  C   UNL A   1      46.440  27.527  32.561  1.00  0.00     0.010 A 
ATOM     65  C   UNL A   1      48.555  27.736  30.739  1.00  0.00     0.020 A 
ATOM     66  C   UNL A   1      47.642  26.858  32.812  1.00  0.00     0.020 A 
ATOM     67  C   UNL A   1      48.686  26.954  31.890  1.00  0.00     0.054 A 
BRANCH  67  68
ATOM     68  S   UNL A   1      50.253  26.088  32.175  1.00  0.00     0.124 S 
ATOM     69  O   UNL A   1      49.863  25.070  33.147  1.00  0.00    -0.237 OA
ATOM     70  O   UNL A   1      50.588  25.588  30.844  1.00  0.00    -0.237 OA
ATOM     71  O   UNL A   1      51.139  27.131  32.687  1.00  0.00    -0.744 OA
ENDBRANCH  67  68
ENDBRANCH  48  62
BRANCH  49  72
ATOM     72  C   UNL A   1      37.455  32.764  29.821  1.00  0.00    -0.014 A 
ATOM     73  C   UNL A   1      36.422  32.610  30.763  1.00  0.00     0.010 A 
ATOM     74  C   UNL A   1      37.224  33.558  28.682  1.00  0.00     0.010 A 
ATOM     75  C   UNL A   1      35.180  33.216  30.560  1.00  0.00     0.020 A 
ATOM     76  C   UNL A   1      35.993  34.192  28.491  1.00  0.00     0.020 A 
ATOM     77  C   UNL A   1      34.973  34.006  29.426  1.00  0.00     0.054 A 
BRANCH  77  78
ATOM     78  S   UNL A   1      33.364  34.815  29.206  1.00  0.00     0.124 S 
ATOM     79  O   UNL A   1      33.749  36.115  28.665  1.00  0.00    -0.237 OA
ATOM     80  O   UNL A   1      32.684  33.918  28.275  1.00  0.00    -0.237 OA
ATOM     81  O   UNL A   1      32.805  34.840  30.557  1.00  0.00    -0.744 OA
ENDBRANCH  77  78
ENDBRANCH  49  72
BRANCH  61  82
ATOM     82  C   UNL A   1      43.368  34.716  32.989  1.00  0.00    -0.014 A 
ATOM     83  C   UNL A   1      43.938  35.780  32.269  1.00  0.00     0.010 A 
ATOM     84  C   UNL A   1      43.104  34.878  34.362  1.00  0.00     0.010 A 
ATOM     85  C   UNL A   1      44.253  36.979  32.916  1.00  0.00     0.020 A 
ATOM     86  C   UNL A   1      43.389  36.084  35.005  1.00  0.00     0.020 A 
ATOM     87  C   UNL A   1      43.970  37.125  34.279  1.00  0.00     0.054 A 
BRANCH  87  88
ATOM     88  S   UNL A   1      44.320  38.716  35.076  1.00  0.00     0.124 S 
ATOM     89  O   UNL A   1      45.748  38.878  34.819  1.00  0.00    -0.237 OA
ATOM     90  O   UNL A   1      43.443  39.635  34.354  1.00  0.00    -0.237 OA
ATOM     91  O   UNL A   1      43.960  38.491  36.474  1.00  0.00    -0.744 OA
ENDBRANCH  87  88
ENDBRANCH  61  82
ENDBRANCH  35  36
ENDBRANCH  27  30
ENDBRANCH  25  26
ENDBRANCH  24  25
ENDBRANCH   1  24
TORSDOF 19
ENDMDL
MODEL 3
REMARK VINA RESULT:     -10.0      2.752      3.374
REMARK SMILES C[C@H](NC(=O)N(CC(=O)NCCCNC(=O)c1ccc(-c2c3nc(c(-c4ccc(S(=O)(=O)[O-])cc4)c4ccc([nH]4)c(-c4ccc(S(=O)(=O)[O-])cc4)c4nc(c(-c5ccc(S(=O)(=O)[O-])cc5)c5ccc2[nH]5)C=C4)C=C3)cc1)CC(F)(F)F)[C@@H]1CCCO1
REMARK SMILES IDX 11 1 10 2 8 3 9 4 7 6 6 7 4 8 3 9 5 11 2 12 1 13 82 14 83 15
REMARK SMILES IDX 86 16 84 17 85 18 77 19 78 20 79 21 80 22 81 23 12 24 13 25
REMARK SMILES IDX 14 26 15 27 16 29 17 30 18 31 76 32 19 33 75 34 20 35 21 36
REMARK SMILES IDX 22 37 69 38 23 39 74 40 68 41 70 42 24 43 73 44 67 45 66 46
REMARK SMILES IDX 25 48 55 49 36 50 54 51 37 52 40 53 53 54 71 55 38 56 39 57
REMARK SMILES IDX 52 59 72 60 41 61 26 62 27 63 35 64 28 65 34 66 29 67 30 68
REMARK SMILES IDX 31 69 32 70 33 71 56 72 57 73 65 74 58 75 64 76 59 77 60 78
REMARK SMILES IDX 61 79 62 80 63 81 42 82 43 83 51 84 44 85 50 86 45 87 46 88
REMARK SMILES IDX 47 89 48 90 49 91
REMARK H PARENT 10 5 3 10 14 28 70 47 40 58
REMARK Flexibility Score: inf
ROOT
ATOM      1  C   UNL A   1      32.584  26.790  25.812  1.00  0.00     0.117 C 
ENDROOT
BRANCH   1   2
ATOM      2  N   UNL A   1      31.561  25.958  26.420  1.00  0.00    -0.354 N 
ATOM      3  C   UNL A   1      31.549  24.603  26.589  1.00  0.00     0.239 C 
ATOM      4  O   UNL A   1      30.534  24.051  27.013  1.00  0.00    -0.273 OA
ATOM      5  H   UNL A   1      30.768  26.434  26.757  1.00  0.00     0.163 HD
BRANCH   3   6
ATOM      6  C   UNL A   1      32.846  23.832  26.386  1.00  0.00     0.221 C 
BRANCH   6   7
ATOM      7  N   UNL A   1      33.199  23.301  25.079  1.00  0.00    -0.306 N 
BRANCH   7   8
ATOM      8  C   UNL A   1      34.243  22.484  24.773  1.00  0.00     0.318 C 
ATOM      9  N   UNL A   1      34.137  21.180  24.469  1.00  0.00    -0.333 N 
ATOM     10  H   UNL A   1      35.012  20.839  24.174  1.00  0.00     0.165 HD
ATOM     11  O   UNL A   1      35.393  22.931  24.708  1.00  0.00    -0.249 OA
BRANCH   9  12
ATOM     12  C   UNL A   1      33.139  20.083  24.429  1.00  0.00     0.109 C 
ATOM     13  C   UNL A   1      32.317  20.008  23.127  1.00  0.00     0.034 C 
BRANCH  12  14
ATOM     14  C   UNL A   1      33.827  18.719  24.753  1.00  0.00     0.140 C 
ATOM     15  C   UNL A   1      33.851  17.711  23.604  1.00  0.00     0.036 C 
ATOM     16  O   UNL A   1      33.152  18.098  25.863  1.00  0.00    -0.376 OA
ATOM     17  C   UNL A   1      33.166  16.478  24.150  1.00  0.00     0.031 C 
ATOM     18  C   UNL A   1      32.455  16.946  25.397  1.00  0.00     0.160 C 
ENDBRANCH  12  14
ENDBRANCH   9  12
ENDBRANCH   7   8
BRANCH   7  19
ATOM     19  C   UNL A   1      32.240  23.589  23.979  1.00  0.00     0.237 C 
BRANCH  19  20
ATOM     20  C   UNL A   1      32.764  24.324  22.742  1.00  0.00     0.406 C 
ATOM     21  F   UNL A   1      31.817  25.049  22.116  1.00  0.00    -0.169 F 
ATOM     22  F   UNL A   1      33.760  25.171  23.097  1.00  0.00    -0.169 F 
ATOM     23  F   UNL A   1      33.285  23.461  21.841  1.00  0.00    -0.169 F 
ENDBRANCH  19  20
ENDBRANCH   7  19
ENDBRANCH   6   7
ENDBRANCH   3   6
ENDBRANCH   1   2
BRANCH   1  24
ATOM     24  C   UNL A   1      33.350  27.586  26.853  1.00  0.00     0.042 C 
BRANCH  24  25
ATOM     25  C   UNL A   1      34.295  28.601  26.236  1.00  0.00     0.118 C 
BRANCH  25  26
ATOM     26  N   UNL A   1      33.821  29.967  26.422  1.00  0.00    -0.352 N 
ATOM     27  C   UNL A   1      34.222  30.883  27.364  1.00  0.00     0.251 C 
ATOM     28  H   UNL A   1      33.126  30.271  25.794  1.00  0.00     0.163 HD
ATOM     29  O   UNL A   1      33.586  31.910  27.542  1.00  0.00    -0.269 OA
BRANCH  27  30
ATOM     30  C   UNL A   1      35.427  30.586  28.164  1.00  0.00     0.039 A 
ATOM     31  C   UNL A   1      35.330  29.709  29.244  1.00  0.00     0.014 A 
ATOM     32  C   UNL A   1      36.660  31.140  27.803  1.00  0.00     0.014 A 
ATOM     33  C   UNL A   1      36.487  29.342  29.933  1.00  0.00     0.010 A 
ATOM     34  C   UNL A   1      37.817  30.704  28.431  1.00  0.00     0.010 A 
ATOM     35  C   UNL A   1      37.743  29.811  29.510  1.00  0.00    -0.014 A 
BRANCH  35  36
ATOM     36  C   UNL A   1      38.996  29.399  30.188  1.00  0.00     0.031 A 
ATOM     37  C   UNL A   1      39.448  30.133  31.422  1.00  0.00     0.074 A 
ATOM     38  C   UNL A   1      39.757  28.422  29.657  1.00  0.00     0.049 A 
ATOM     39  N   UNL A   1      40.552  29.990  32.108  1.00  0.00    -0.248 NA
ATOM     40  C   UNL A   1      38.554  31.186  31.936  1.00  0.00     0.031 C 
ATOM     41  C   UNL A   1      39.441  27.663  28.445  1.00  0.00     0.029 A 
ATOM     42  N   UNL A   1      40.963  27.908  30.064  1.00  0.00    -0.354 N 
ATOM     43  C   UNL A   1      40.494  30.944  33.117  1.00  0.00     0.074 A 
ATOM     44  C   UNL A   1      39.275  31.696  32.921  1.00  0.00     0.031 C 
ATOM     45  C   UNL A   1      40.412  26.763  28.223  1.00  0.00     0.029 A 
ATOM     46  C   UNL A   1      41.443  26.914  29.244  1.00  0.00     0.049 A 
ATOM     47  H   UNL A   1      41.438  28.221  30.867  1.00  0.00     0.167 HD
ATOM     48  C   UNL A   1      41.367  31.160  34.129  1.00  0.00     0.031 A 
ATOM     49  C   UNL A   1      42.593  26.212  29.302  1.00  0.00     0.031 A 
ATOM     50  C   UNL A   1      42.573  30.400  34.321  1.00  0.00     0.049 A 
ATOM     51  C   UNL A   1      43.562  26.489  30.419  1.00  0.00     0.074 A 
ATOM     52  C   UNL A   1      43.500  30.505  35.341  1.00  0.00     0.029 A 
ATOM     53  N   UNL A   1      43.019  29.398  33.472  1.00  0.00    -0.354 N 
ATOM     54  N   UNL A   1      43.460  27.352  31.402  1.00  0.00    -0.248 NA
ATOM     55  C   UNL A   1      44.796  25.692  30.443  1.00  0.00     0.031 C 
ATOM     56  C   UNL A   1      44.538  29.607  35.079  1.00  0.00     0.029 A 
ATOM     57  C   UNL A   1      44.222  28.891  33.934  1.00  0.00     0.049 A 
ATOM     58  H   UNL A   1      42.550  29.091  32.663  1.00  0.00     0.167 HD
ATOM     59  C   UNL A   1      44.599  27.177  32.179  1.00  0.00     0.074 A 
ATOM     60  C   UNL A   1      45.371  26.121  31.558  1.00  0.00     0.031 C 
ATOM     61  C   UNL A   1      44.971  27.831  33.308  1.00  0.00     0.031 A 
BRANCH  48  62
ATOM     62  C   UNL A   1      41.049  32.266  35.101  1.00  0.00    -0.014 A 
ATOM     63  C   UNL A   1      40.301  32.018  36.266  1.00  0.00     0.010 A 
ATOM     64  C   UNL A   1      41.540  33.564  34.868  1.00  0.00     0.010 A 
ATOM     65  C   UNL A   1      40.012  33.056  37.158  1.00  0.00     0.020 A 
ATOM     66  C   UNL A   1      41.283  34.597  35.774  1.00  0.00     0.020 A 
ATOM     67  C   UNL A   1      40.505  34.339  36.905  1.00  0.00     0.054 A 
BRANCH  67  68
ATOM     68  S   UNL A   1      40.137  35.658  38.094  1.00  0.00     0.124 S 
ATOM     69  O   UNL A   1      39.907  36.801  37.214  1.00  0.00    -0.237 OA
ATOM     70  O   UNL A   1      38.954  35.147  38.781  1.00  0.00    -0.237 OA
ATOM     71  O   UNL A   1      41.345  35.736  38.912  1.00  0.00    -0.744 OA
ENDBRANCH  67  68
ENDBRANCH  48  62
BRANCH  49  72
ATOM     72  C   UNL A   1      42.884  25.172  28.275  1.00  0.00    -0.014 A 
ATOM     73  C   UNL A   1      43.585  25.503  27.102  1.00  0.00     0.010 A 
ATOM     74  C   UNL A   1      42.471  23.841  28.468  1.00  0.00     0.010 A 
ATOM     75  C   UNL A   1      43.848  24.531  26.134  1.00  0.00     0.020 A 
ATOM     76  C   UNL A   1      42.759  22.859  27.516  1.00  0.00     0.020 A 
ATOM     77  C   UNL A   1      43.434  23.213  26.347  1.00  0.00     0.054 A 
BRANCH  77  78
ATOM     78  S   UNL A   1      43.823  21.962  25.092  1.00  0.00     0.124 S 
ATOM     79  O   UNL A   1      43.614  22.700  23.851  1.00  0.00    -0.237 OA
ATOM     80  O   UNL A   1      45.210  21.625  25.403  1.00  0.00    -0.237 OA
ATOM     81  O   UNL A   1      42.857  20.898  25.358  1.00  0.00    -0.744 OA
ENDBRANCH  77  78
ENDBRANCH  49  72
BRANCH  61  82
ATOM     82  C   UNL A   1      46.245  27.394  33.982  1.00  0.00    -0.014 A 
ATOM     83  C   UNL A   1      46.255  26.354  34.928  1.00  0.00     0.010 A 
ATOM     84  C   UNL A   1      47.464  27.978  33.590  1.00  0.00     0.010 A 
ATOM     85  C   UNL A   1      47.461  25.918  35.483  1.00  0.00     0.020 A 
ATOM     86  C   UNL A   1      48.674  27.524  34.119  1.00  0.00     0.020 A 
ATOM     87  C   UNL A   1      48.664  26.501  35.069  1.00  0.00     0.054 A 
BRANCH  87  88
ATOM     88  S   UNL A   1      50.220  25.866  35.749  1.00  0.00     0.124 S 
ATOM     89  O   UNL A   1      50.683  26.992  36.557  1.00  0.00    -0.237 OA
ATOM     90  O   UNL A   1      49.784  24.691  36.501  1.00  0.00    -0.237 OA
ATOM     91  O   UNL A   1      51.025  25.576  34.565  1.00  0.00    -0.744 OA
ENDBRANCH  87  88
ENDBRANCH  61  82
ENDBRANCH  35  36
ENDBRANCH  27  30
ENDBRANCH  25  26
ENDBRANCH  24  25
ENDBRANCH   1  24
TORSDOF 19
ENDMDL
