MODEL 1
REMARK VINA RESULT:     -10.3      0.000      0.000
REMARK SMILES Cc1cscc1CNC(=O)CC(C)(C)C(=O)NCCCNC(=O)c1ccc(-c2c3nc(c(-c4ccc(S(=O)(=O)[O-])cc4)c4ccc([nH]4)c(-c4ccc(S(=O)(=O)[O-])cc4)c4nc(c(-c5ccc(S(=O)(=O)[O-])cc5)c5ccc2[nH]5)C=C4)C=C3)cc1
REMARK SMILES IDX 18 1 17 2 15 3 16 4 12 6 13 7 14 8 11 9 9 10 8 11 10 13 7 14
REMARK SMILES IDX 6 15 1 16 2 17 3 18 4 19 5 20 19 21 20 22 21 23 22 24 23 26
REMARK SMILES IDX 24 27 25 28 83 29 26 30 82 31 27 32 28 33 29 34 76 35 30 36
REMARK SMILES IDX 81 37 75 38 77 39 31 40 80 41 74 42 73 43 32 45 62 46 43 47
REMARK SMILES IDX 61 48 44 49 47 50 60 51 78 52 45 53 46 54 59 56 79 57 48 58
REMARK SMILES IDX 33 59 34 60 42 61 35 62 41 63 36 64 37 65 38 66 39 67 40 68
REMARK SMILES IDX 63 69 64 70 72 71 65 72 71 73 66 74 67 75 68 76 69 77 70 78
REMARK SMILES IDX 49 79 50 80 58 81 51 82 57 83 52 84 53 85 54 86 55 87 56 88
REMARK H PARENT 17 5 8 12 21 25 77 44 47 55
REMARK Flexibility Score: inf
ROOT
ATOM      1  C   UNL A   1      31.737  26.488  26.460  1.00  0.00     0.117 C 
ENDROOT
BRANCH   1   2
ATOM      2  N   UNL A   1      30.565  26.494  25.608  1.00  0.00    -0.356 N 
ATOM      3  C   UNL A   1      30.322  26.940  24.353  1.00  0.00     0.226 C 
ATOM      4  O   UNL A   1      29.143  26.847  24.000  1.00  0.00    -0.274 OA
ATOM      5  H   UNL A   1      29.776  26.087  26.034  1.00  0.00     0.163 HD
BRANCH   3   6
ATOM      6  C   UNL A   1      31.377  27.619  23.455  1.00  0.00     0.052 C 
ATOM      7  C   UNL A   1      31.884  28.977  23.961  1.00  0.00     0.022 C 
ATOM      8  C   UNL A   1      30.708  27.859  22.083  1.00  0.00     0.022 C 
BRANCH   6   9
ATOM      9  C   UNL A   1      32.599  26.665  23.243  1.00  0.00     0.116 C 
BRANCH   9  10
ATOM     10  C   UNL A   1      32.590  25.669  22.084  1.00  0.00     0.221 C 
ATOM     11  N   UNL A   1      31.919  24.492  22.133  1.00  0.00    -0.352 N 
ATOM     12  H   UNL A   1      31.824  24.045  21.260  1.00  0.00     0.163 HD
ATOM     13  O   UNL A   1      33.274  25.871  21.076  1.00  0.00    -0.275 OA
BRANCH  11  14
ATOM     14  C   UNL A   1      31.321  23.775  23.231  1.00  0.00     0.152 C 
BRANCH  14  15
ATOM     15  C   UNL A   1      32.326  22.882  23.910  1.00  0.00    -0.015 A 
ATOM     16  C   UNL A   1      31.960  20.818  22.347  1.00  0.00     0.045 C 
ATOM     17  C   UNL A   1      32.631  21.530  23.478  1.00  0.00    -0.035 A 
ATOM     18  C   UNL A   1      33.640  20.970  24.240  1.00  0.00     0.068 A 
ATOM     19  S   UNL A   1      34.204  22.011  25.466  1.00  0.00    -0.152 S 
ATOM     20  C   UNL A   1      33.106  23.229  25.002  1.00  0.00     0.070 A 
ENDBRANCH  14  15
ENDBRANCH  11  14
ENDBRANCH   9  10
ENDBRANCH   6   9
ENDBRANCH   3   6
ENDBRANCH   1   2
BRANCH   1  21
ATOM     21  C   UNL A   1      31.849  27.754  27.297  1.00  0.00     0.042 C 
BRANCH  21  22
ATOM     22  C   UNL A   1      33.264  28.312  27.389  1.00  0.00     0.118 C 
BRANCH  22  23
ATOM     23  N   UNL A   1      33.292  29.768  27.447  1.00  0.00    -0.352 N 
ATOM     24  C   UNL A   1      34.259  30.627  27.901  1.00  0.00     0.251 C 
ATOM     25  H   UNL A   1      32.480  30.208  27.104  1.00  0.00     0.163 HD
ATOM     26  O   UNL A   1      33.976  31.816  28.062  1.00  0.00    -0.269 OA
BRANCH  24  27
ATOM     27  C   UNL A   1      35.621  30.145  28.217  1.00  0.00     0.039 A 
ATOM     28  C   UNL A   1      36.598  30.176  27.220  1.00  0.00     0.014 A 
ATOM     29  C   UNL A   1      35.936  29.633  29.478  1.00  0.00     0.014 A 
ATOM     30  C   UNL A   1      37.900  29.760  27.509  1.00  0.00     0.010 A 
ATOM     31  C   UNL A   1      37.254  29.322  29.795  1.00  0.00     0.010 A 
ATOM     32  C   UNL A   1      38.250  29.368  28.811  1.00  0.00    -0.014 A 
BRANCH  32  33
ATOM     33  C   UNL A   1      39.650  29.003  29.153  1.00  0.00     0.031 A 
ATOM     34  C   UNL A   1      40.550  29.992  29.848  1.00  0.00     0.074 A 
ATOM     35  C   UNL A   1      40.125  27.793  28.797  1.00  0.00     0.049 A 
ATOM     36  N   UNL A   1      41.796  29.852  30.219  1.00  0.00    -0.248 NA
ATOM     37  C   UNL A   1      39.987  31.321  30.142  1.00  0.00     0.031 C 
ATOM     38  C   UNL A   1      39.372  26.767  28.068  1.00  0.00     0.029 A 
ATOM     39  N   UNL A   1      41.353  27.215  29.000  1.00  0.00    -0.354 N 
ATOM     40  C   UNL A   1      42.169  31.072  30.772  1.00  0.00     0.074 A 
ATOM     41  C   UNL A   1      41.037  31.960  30.636  1.00  0.00     0.031 C 
ATOM     42  C   UNL A   1      40.138  25.674  27.928  1.00  0.00     0.029 A 
ATOM     43  C   UNL A   1      41.449  25.932  28.515  1.00  0.00     0.049 A 
ATOM     44  H   UNL A   1      42.096  27.677  29.453  1.00  0.00     0.167 HD
ATOM     45  C   UNL A   1      43.338  31.415  31.366  1.00  0.00     0.031 A 
ATOM     46  C   UNL A   1      42.473  25.059  28.539  1.00  0.00     0.031 A 
ATOM     47  C   UNL A   1      44.458  30.524  31.511  1.00  0.00     0.049 A 
ATOM     48  C   UNL A   1      43.759  25.462  29.205  1.00  0.00     0.074 A 
ATOM     49  C   UNL A   1      45.664  30.756  32.148  1.00  0.00     0.029 A 
ATOM     50  N   UNL A   1      44.512  29.232  31.009  1.00  0.00    -0.354 N 
ATOM     51  N   UNL A   1      44.063  26.596  29.792  1.00  0.00    -0.248 NA
ATOM     52  C   UNL A   1      44.836  24.463  29.227  1.00  0.00     0.031 C 
ATOM     53  C   UNL A   1      46.469  29.624  31.982  1.00  0.00     0.029 A 
ATOM     54  C   UNL A   1      45.741  28.663  31.300  1.00  0.00     0.049 A 
ATOM     55  H   UNL A   1      43.784  28.786  30.520  1.00  0.00     0.167 HD
ATOM     56  C   UNL A   1      45.359  26.437  30.273  1.00  0.00     0.074 A 
ATOM     57  C   UNL A   1      45.768  25.091  29.930  1.00  0.00     0.031 C 
ATOM     58  C   UNL A   1      46.138  27.325  30.940  1.00  0.00     0.031 A 
BRANCH  45  59
ATOM     59  C   UNL A   1      43.462  32.820  31.903  1.00  0.00    -0.014 A 
ATOM     60  C   UNL A   1      43.068  33.134  33.217  1.00  0.00     0.010 A 
ATOM     61  C   UNL A   1      44.017  33.830  31.098  1.00  0.00     0.010 A 
ATOM     62  C   UNL A   1      43.189  34.439  33.701  1.00  0.00     0.020 A 
ATOM     63  C   UNL A   1      44.170  35.131  31.589  1.00  0.00     0.020 A 
ATOM     64  C   UNL A   1      43.739  35.430  32.883  1.00  0.00     0.054 A 
BRANCH  64  65
ATOM     65  S   UNL A   1      43.910  37.109  33.548  1.00  0.00     0.124 S 
ATOM     66  O   UNL A   1      43.869  37.919  32.334  1.00  0.00    -0.237 OA
ATOM     67  O   UNL A   1      42.746  37.226  34.422  1.00  0.00    -0.237 OA
ATOM     68  O   UNL A   1      45.200  37.082  34.234  1.00  0.00    -0.744 OA
ENDBRANCH  64  65
ENDBRANCH  45  59
BRANCH  46  69
ATOM     69  C   UNL A   1      42.315  23.708  27.931  1.00  0.00    -0.014 A 
ATOM     70  C   UNL A   1      42.830  23.433  26.652  1.00  0.00     0.010 A 
ATOM     71  C   UNL A   1      41.658  22.683  28.637  1.00  0.00     0.010 A 
ATOM     72  C   UNL A   1      42.673  22.166  26.081  1.00  0.00     0.020 A 
ATOM     73  C   UNL A   1      41.526  21.407  28.082  1.00  0.00     0.020 A 
ATOM     74  C   UNL A   1      42.023  21.160  26.802  1.00  0.00     0.054 A 
BRANCH  74  75
ATOM     75  S   UNL A   1      41.875  19.510  26.062  1.00  0.00     0.124 S 
ATOM     76  O   UNL A   1      42.361  18.650  27.137  1.00  0.00    -0.237 OA
ATOM     77  O   UNL A   1      40.446  19.421  25.775  1.00  0.00    -0.237 OA
ATOM     78  O   UNL A   1      42.735  19.585  24.883  1.00  0.00    -0.744 OA
ENDBRANCH  74  75
ENDBRANCH  46  69
BRANCH  58  79
ATOM     79  C   UNL A   1      47.505  26.857  31.364  1.00  0.00    -0.014 A 
ATOM     80  C   UNL A   1      48.629  27.038  30.538  1.00  0.00     0.010 A 
ATOM     81  C   UNL A   1      47.671  26.252  32.623  1.00  0.00     0.010 A 
ATOM     82  C   UNL A   1      49.884  26.579  30.944  1.00  0.00     0.020 A 
ATOM     83  C   UNL A   1      48.931  25.822  33.047  1.00  0.00     0.020 A 
ATOM     84  C   UNL A   1      50.026  25.971  32.194  1.00  0.00     0.054 A 
BRANCH  84  85
ATOM     85  S   UNL A   1      51.671  25.401  32.706  1.00  0.00     0.124 S 
ATOM     86  O   UNL A   1      51.605  25.549  34.157  1.00  0.00    -0.237 OA
ATOM     87  O   UNL A   1      51.700  24.026  32.214  1.00  0.00    -0.237 OA
ATOM     88  O   UNL A   1      52.582  26.321  32.027  1.00  0.00    -0.744 OA
ENDBRANCH  84  85
ENDBRANCH  58  79
ENDBRANCH  32  33
ENDBRANCH  24  27
ENDBRANCH  22  23
ENDBRANCH  21  22
ENDBRANCH   1  21
TORSDOF 17
ENDMDL
MODEL 2
REMARK VINA RESULT:     -10.1      4.429     10.247
REMARK SMILES Cc1cscc1CNC(=O)CC(C)(C)C(=O)NCCCNC(=O)c1ccc(-c2c3nc(c(-c4ccc(S(=O)(=O)[O-])cc4)c4ccc([nH]4)c(-c4ccc(S(=O)(=O)[O-])cc4)c4nc(c(-c5ccc(S(=O)(=O)[O-])cc5)c5ccc2[nH]5)C=C4)C=C3)cc1
REMARK SMILES IDX 18 1 17 2 15 3 16 4 12 6 13 7 14 8 11 9 9 10 8 11 10 13 7 14
REMARK SMILES IDX 6 15 1 16 2 17 3 18 4 19 5 20 19 21 20 22 21 23 22 24 23 26
REMARK SMILES IDX 24 27 25 28 83 29 26 30 82 31 27 32 28 33 29 34 76 35 30 36
REMARK SMILES IDX 81 37 75 38 77 39 31 40 80 41 74 42 73 43 32 45 62 46 43 47
REMARK SMILES IDX 61 48 44 49 47 50 60 51 78 52 45 53 46 54 59 56 79 57 48 58
REMARK SMILES IDX 33 59 34 60 42 61 35 62 41 63 36 64 37 65 38 66 39 67 40 68
REMARK SMILES IDX 63 69 64 70 72 71 65 72 71 73 66 74 67 75 68 76 69 77 70 78
REMARK SMILES IDX 49 79 50 80 58 81 51 82 57 83 52 84 53 85 54 86 55 87 56 88
REMARK H PARENT 17 5 8 12 21 25 77 44 47 55
REMARK Flexibility Score: inf
ROOT
ATOM      1  C   UNL A   1      37.953  23.016  25.975  1.00  0.00     0.117 C 
ENDROOT
BRANCH   1   2
ATOM      2  N   UNL A   1      36.806  22.138  26.088  1.00  0.00    -0.356 N 
ATOM      3  C   UNL A   1      35.639  22.030  25.410  1.00  0.00     0.226 C 
ATOM      4  O   UNL A   1      34.856  21.197  25.875  1.00  0.00    -0.274 OA
ATOM      5  H   UNL A   1      36.895  21.478  26.813  1.00  0.00     0.163 HD
BRANCH   3   6
ATOM      6  C   UNL A   1      35.237  22.934  24.226  1.00  0.00     0.052 C 
ATOM      7  C   UNL A   1      36.251  22.983  23.073  1.00  0.00     0.022 C 
ATOM      8  C   UNL A   1      35.104  24.369  24.783  1.00  0.00     0.022 C 
BRANCH   6   9
ATOM      9  C   UNL A   1      33.844  22.497  23.662  1.00  0.00     0.116 C 
BRANCH   9  10
ATOM     10  C   UNL A   1      33.217  23.276  22.506  1.00  0.00     0.221 C 
ATOM     11  N   UNL A   1      32.066  23.981  22.635  1.00  0.00    -0.352 N 
ATOM     12  H   UNL A   1      31.884  24.596  21.887  1.00  0.00     0.163 HD
ATOM     13  O   UNL A   1      33.704  23.220  21.373  1.00  0.00    -0.275 OA
BRANCH  11  14
ATOM     14  C   UNL A   1      31.060  23.994  23.667  1.00  0.00     0.152 C 
BRANCH  14  15
ATOM     15  C   UNL A   1      31.238  25.175  24.585  1.00  0.00    -0.015 A 
ATOM     16  C   UNL A   1      31.964  23.789  26.680  1.00  0.00     0.045 C 
ATOM     17  C   UNL A   1      31.679  25.071  25.964  1.00  0.00    -0.035 A 
ATOM     18  C   UNL A   1      31.820  26.317  26.547  1.00  0.00     0.068 A 
ATOM     19  S   UNL A   1      31.412  27.594  25.495  1.00  0.00    -0.152 S 
ATOM     20  C   UNL A   1      31.036  26.503  24.241  1.00  0.00     0.070 A 
ENDBRANCH  14  15
ENDBRANCH  11  14
ENDBRANCH   9  10
ENDBRANCH   6   9
ENDBRANCH   3   6
ENDBRANCH   1   2
BRANCH   1  21
ATOM     21  C   UNL A   1      39.215  22.393  26.555  1.00  0.00     0.042 C 
BRANCH  21  22
ATOM     22  C   UNL A   1      40.163  23.398  27.194  1.00  0.00     0.118 C 
BRANCH  22  23
ATOM     23  N   UNL A   1      41.016  24.067  26.219  1.00  0.00    -0.352 N 
ATOM     24  C   UNL A   1      41.400  25.379  26.117  1.00  0.00     0.251 C 
ATOM     25  H   UNL A   1      41.375  23.478  25.516  1.00  0.00     0.163 HD
ATOM     26  O   UNL A   1      41.946  25.764  25.080  1.00  0.00    -0.269 OA
BRANCH  24  27
ATOM     27  C   UNL A   1      41.152  26.335  27.217  1.00  0.00     0.039 A 
ATOM     28  C   UNL A   1      40.170  26.037  28.165  1.00  0.00     0.014 A 
ATOM     29  C   UNL A   1      41.857  27.537  27.308  1.00  0.00     0.014 A 
ATOM     30  C   UNL A   1      39.946  26.909  29.233  1.00  0.00     0.010 A 
ATOM     31  C   UNL A   1      41.710  28.350  28.428  1.00  0.00     0.010 A 
ATOM     32  C   UNL A   1      40.744  28.054  29.397  1.00  0.00    -0.014 A 
BRANCH  32  33
ATOM     33  C   UNL A   1      40.573  28.946  30.573  1.00  0.00     0.031 A 
ATOM     34  C   UNL A   1      41.439  28.774  31.795  1.00  0.00     0.074 A 
ATOM     35  C   UNL A   1      39.606  29.885  30.558  1.00  0.00     0.049 A 
ATOM     36  N   UNL A   1      41.430  29.454  32.912  1.00  0.00    -0.248 NA
ATOM     37  C   UNL A   1      42.426  27.681  31.770  1.00  0.00     0.031 C 
ATOM     38  C   UNL A   1      38.663  30.114  29.458  1.00  0.00     0.029 A 
ATOM     39  N   UNL A   1      39.254  30.827  31.493  1.00  0.00    -0.354 N 
ATOM     40  C   UNL A   1      42.392  28.864  33.724  1.00  0.00     0.074 A 
ATOM     41  C   UNL A   1      42.925  27.735  32.996  1.00  0.00     0.031 C 
ATOM     42  C   UNL A   1      37.875  31.156  29.763  1.00  0.00     0.029 A 
ATOM     43  C   UNL A   1      38.223  31.643  31.094  1.00  0.00     0.049 A 
ATOM     44  H   UNL A   1      39.701  30.910  32.367  1.00  0.00     0.167 HD
ATOM     45  C   UNL A   1      42.815  29.243  34.955  1.00  0.00     0.031 A 
ATOM     46  C   UNL A   1      37.623  32.670  31.725  1.00  0.00     0.031 A 
ATOM     47  C   UNL A   1      42.291  30.375  35.672  1.00  0.00     0.049 A 
ATOM     48  C   UNL A   1      38.111  33.074  33.089  1.00  0.00     0.074 A 
ATOM     49  C   UNL A   1      42.692  30.877  36.897  1.00  0.00     0.029 A 
ATOM     50  N   UNL A   1      41.250  31.178  35.231  1.00  0.00    -0.354 N 
ATOM     51  N   UNL A   1      39.077  32.549  33.807  1.00  0.00    -0.248 NA
ATOM     52  C   UNL A   1      37.440  34.217  33.721  1.00  0.00     0.031 C 
ATOM     53  C   UNL A   1      41.855  31.950  37.223  1.00  0.00     0.029 A 
ATOM     54  C   UNL A   1      40.977  32.157  36.172  1.00  0.00     0.049 A 
ATOM     55  H   UNL A   1      40.776  31.069  34.375  1.00  0.00     0.167 HD
ATOM     56  C   UNL A   1      39.144  33.315  34.966  1.00  0.00     0.074 A 
ATOM     57  C   UNL A   1      38.139  34.350  34.840  1.00  0.00     0.031 C 
ATOM     58  C   UNL A   1      39.964  33.174  36.037  1.00  0.00     0.031 A 
BRANCH  45  59
ATOM     59  C   UNL A   1      43.901  28.421  35.604  1.00  0.00    -0.014 A 
ATOM     60  C   UNL A   1      43.589  27.337  36.446  1.00  0.00     0.010 A 
ATOM     61  C   UNL A   1      45.251  28.708  35.335  1.00  0.00     0.010 A 
ATOM     62  C   UNL A   1      44.606  26.584  37.040  1.00  0.00     0.020 A 
ATOM     63  C   UNL A   1      46.272  27.937  35.902  1.00  0.00     0.020 A 
ATOM     64  C   UNL A   1      45.941  26.890  36.764  1.00  0.00     0.054 A 
BRANCH  64  65
ATOM     65  S   UNL A   1      47.238  25.877  37.526  1.00  0.00     0.124 S 
ATOM     66  O   UNL A   1      48.173  25.701  36.417  1.00  0.00    -0.237 OA
ATOM     67  O   UNL A   1      47.710  26.728  38.615  1.00  0.00    -0.237 OA
ATOM     68  O   UNL A   1      46.535  24.667  37.945  1.00  0.00    -0.744 OA
ENDBRANCH  64  65
ENDBRANCH  45  59
BRANCH  46  69
ATOM     69  C   UNL A   1      36.507  33.403  31.062  1.00  0.00    -0.014 A 
ATOM     70  C   UNL A   1      36.724  34.108  29.865  1.00  0.00     0.010 A 
ATOM     71  C   UNL A   1      35.216  33.388  31.621  1.00  0.00     0.010 A 
ATOM     72  C   UNL A   1      35.677  34.801  29.250  1.00  0.00     0.020 A 
ATOM     73  C   UNL A   1      34.160  34.054  30.993  1.00  0.00     0.020 A 
ATOM     74  C   UNL A   1      34.400  34.767  29.817  1.00  0.00     0.054 A 
BRANCH  74  75
ATOM     75  S   UNL A   1      33.045  35.632  28.975  1.00  0.00     0.124 S 
ATOM     76  O   UNL A   1      32.419  34.552  28.219  1.00  0.00    -0.237 OA
ATOM     77  O   UNL A   1      32.266  36.160  30.091  1.00  0.00    -0.237 OA
ATOM     78  O   UNL A   1      33.731  36.642  28.172  1.00  0.00    -0.744 OA
ENDBRANCH  74  75
ENDBRANCH  46  69
BRANCH  58  79
ATOM     79  C   UNL A   1      39.823  34.181  37.148  1.00  0.00    -0.014 A 
ATOM     80  C   UNL A   1      40.565  35.376  37.151  1.00  0.00     0.010 A 
ATOM     81  C   UNL A   1      38.911  33.939  38.192  1.00  0.00     0.010 A 
ATOM     82  C   UNL A   1      40.432  36.287  38.201  1.00  0.00     0.020 A 
ATOM     83  C   UNL A   1      38.750  34.864  39.226  1.00  0.00     0.020 A 
ATOM     84  C   UNL A   1      39.528  36.023  39.234  1.00  0.00     0.054 A 
BRANCH  84  85
ATOM     85  S   UNL A   1      39.360  37.232  40.576  1.00  0.00     0.124 S 
ATOM     86  O   UNL A   1      38.293  38.094  40.076  1.00  0.00    -0.237 OA
ATOM     87  O   UNL A   1      39.008  36.393  41.719  1.00  0.00    -0.237 OA
ATOM     88  O   UNL A   1      40.680  37.854  40.649  1.00  0.00    -0.744 OA
ENDBRANCH  84  85
ENDBRANCH  58  79
ENDBRANCH  32  33
ENDBRANCH  24  27
ENDBRANCH  22  23
ENDBRANCH  21  22
ENDBRANCH   1  21
TORSDOF 17
ENDMDL
MODEL 3
REMARK VINA RESULT:     -10.0      3.344      4.144
REMARK SMILES Cc1cscc1CNC(=O)CC(C)(C)C(=O)NCCCNC(=O)c1ccc(-c2c3nc(c(-c4ccc(S(=O)(=O)[O-])cc4)c4ccc([nH]4)c(-c4ccc(S(=O)(=O)[O-])cc4)c4nc(c(-c5ccc(S(=O)(=O)[O-])cc5)c5ccc2[nH]5)C=C4)C=C3)cc1
REMARK SMILES IDX 18 1 17 2 15 3 16 4 12 6 13 7 14 8 11 9 9 10 8 11 10 13 7 14
REMARK SMILES IDX 6 15 1 16 2 17 3 18 4 19 5 20 19 21 20 22 21 23 22 24 23 26
REMARK SMILES IDX 24 27 25 28 83 29 26 30 82 31 27 32 28 33 29 34 76 35 30 36
REMARK SMILES IDX 81 37 75 38 77 39 31 40 80 41 74 42 73 43 32 45 62 46 43 47
REMARK SMILES IDX 61 48 44 49 47 50 60 51 78 52 45 53 46 54 59 56 79 57 48 58
REMARK SMILES IDX 33 59 34 60 42 61 35 62 41 63 36 64 37 65 38 66 39 67 40 68
REMARK SMILES IDX 63 69 64 70 72 71 65 72 71 73 66 74 67 75 68 76 69 77 70 78
REMARK SMILES IDX 49 79 50 80 58 81 51 82 57 83 52 84 53 85 54 86 55 87 56 88
REMARK H PARENT 17 5 8 12 21 25 77 44 47 55
REMARK Flexibility Score: inf
ROOT
ATOM      1  C   UNL A   1      33.323  30.056  27.205  1.00  0.00     0.117 C 
ENDROOT
BRANCH   1   2
ATOM      2  N   UNL A   1      32.419  28.983  27.568  1.00  0.00    -0.356 N 
ATOM      3  C   UNL A   1      31.803  28.000  26.871  1.00  0.00     0.226 C 
ATOM      4  O   UNL A   1      31.017  27.320  27.536  1.00  0.00    -0.274 OA
ATOM      5  H   UNL A   1      32.208  28.966  28.530  1.00  0.00     0.163 HD
BRANCH   3   6
ATOM      6  C   UNL A   1      31.955  27.791  25.349  1.00  0.00     0.052 C 
ATOM      7  C   UNL A   1      31.685  29.037  24.492  1.00  0.00     0.022 C 
ATOM      8  C   UNL A   1      30.923  26.717  24.939  1.00  0.00     0.022 C 
BRANCH   6   9
ATOM      9  C   UNL A   1      33.385  27.246  25.020  1.00  0.00     0.116 C 
BRANCH   9  10
ATOM     10  C   UNL A   1      33.605  26.412  23.759  1.00  0.00     0.221 C 
ATOM     11  N   UNL A   1      33.971  25.107  23.797  1.00  0.00    -0.352 N 
ATOM     12  H   UNL A   1      33.879  24.637  22.936  1.00  0.00     0.163 HD
ATOM     13  O   UNL A   1      33.537  26.932  22.641  1.00  0.00    -0.275 OA
BRANCH  11  14
ATOM     14  C   UNL A   1      34.471  24.282  24.868  1.00  0.00     0.152 C 
BRANCH  14  15
ATOM     15  C   UNL A   1      34.044  22.848  24.695  1.00  0.00    -0.015 A 
ATOM     16  C   UNL A   1      36.292  21.791  25.511  1.00  0.00     0.045 C 
ATOM     17  C   UNL A   1      34.883  21.708  25.019  1.00  0.00    -0.035 A 
ATOM     18  C   UNL A   1      34.211  20.514  24.828  1.00  0.00     0.068 A 
ATOM     19  S   UNL A   1      32.623  20.729  24.247  1.00  0.00    -0.152 S 
ATOM     20  C   UNL A   1      32.805  22.424  24.239  1.00  0.00     0.070 A 
ENDBRANCH  14  15
ENDBRANCH  11  14
ENDBRANCH   9  10
ENDBRANCH   6   9
ENDBRANCH   3   6
ENDBRANCH   1   2
BRANCH   1  21
ATOM     21  C   UNL A   1      34.783  29.664  27.380  1.00  0.00     0.042 C 
BRANCH  21  22
ATOM     22  C   UNL A   1      35.629  30.723  28.075  1.00  0.00     0.118 C 
BRANCH  22  23
ATOM     23  N   UNL A   1      35.602  30.601  29.528  1.00  0.00    -0.352 N 
ATOM     24  C   UNL A   1      36.484  30.003  30.391  1.00  0.00     0.251 C 
ATOM     25  H   UNL A   1      34.821  31.015  29.960  1.00  0.00     0.163 HD
ATOM     26  O   UNL A   1      36.146  29.826  31.564  1.00  0.00    -0.269 OA
BRANCH  24  27
ATOM     27  C   UNL A   1      37.816  29.553  29.933  1.00  0.00     0.039 A 
ATOM     28  C   UNL A   1      38.138  29.662  28.578  1.00  0.00     0.014 A 
ATOM     29  C   UNL A   1      38.739  28.997  30.821  1.00  0.00     0.014 A 
ATOM     30  C   UNL A   1      39.404  29.278  28.131  1.00  0.00     0.010 A 
ATOM     31  C   UNL A   1      40.034  28.717  30.395  1.00  0.00     0.010 A 
ATOM     32  C   UNL A   1      40.379  28.840  29.044  1.00  0.00    -0.014 A 
BRANCH  32  33
ATOM     33  C   UNL A   1      41.757  28.508  28.595  1.00  0.00     0.031 A 
ATOM     34  C   UNL A   1      42.822  29.573  28.544  1.00  0.00     0.074 A 
ATOM     35  C   UNL A   1      42.037  27.253  28.189  1.00  0.00     0.049 A 
ATOM     36  N   UNL A   1      44.073  29.469  28.176  1.00  0.00    -0.248 NA
ATOM     37  C   UNL A   1      42.426  30.938  28.932  1.00  0.00     0.031 C 
ATOM     38  C   UNL A   1      41.078  26.145  28.136  1.00  0.00     0.029 A 
ATOM     39  N   UNL A   1      43.210  26.693  27.749  1.00  0.00    -0.354 N 
ATOM     40  C   UNL A   1      44.606  30.749  28.272  1.00  0.00     0.074 A 
ATOM     41  C   UNL A   1      43.529  31.625  28.676  1.00  0.00     0.031 C 
ATOM     42  C   UNL A   1      41.711  25.033  27.733  1.00  0.00     0.029 A 
ATOM     43  C   UNL A   1      43.108  25.353  27.457  1.00  0.00     0.049 A 
ATOM     44  H   UNL A   1      44.047  27.203  27.652  1.00  0.00     0.167 HD
ATOM     45  C   UNL A   1      45.882  31.157  28.070  1.00  0.00     0.031 A 
ATOM     46  C   UNL A   1      44.032  24.478  27.018  1.00  0.00     0.031 A 
ATOM     47  C   UNL A   1      46.954  30.280  27.680  1.00  0.00     0.049 A 
ATOM     48  C   UNL A   1      45.442  24.953  26.803  1.00  0.00     0.074 A 
ATOM     49  C   UNL A   1      48.293  30.583  27.506  1.00  0.00     0.029 A 
ATOM     50  N   UNL A   1      46.809  28.929  27.399  1.00  0.00    -0.354 N 
ATOM     51  N   UNL A   1      45.942  26.154  26.975  1.00  0.00    -0.248 NA
ATOM     52  C   UNL A   1      46.416  23.952  26.349  1.00  0.00     0.031 C 
ATOM     53  C   UNL A   1      48.947  29.428  27.065  1.00  0.00     0.029 A 
ATOM     54  C   UNL A   1      48.030  28.390  27.027  1.00  0.00     0.049 A 
ATOM     55  H   UNL A   1      45.964  28.429  27.455  1.00  0.00     0.167 HD
ATOM     56  C   UNL A   1      47.296  26.047  26.673  1.00  0.00     0.074 A 
ATOM     57  C   UNL A   1      47.538  24.660  26.332  1.00  0.00     0.031 C 
ATOM     58  C   UNL A   1      48.252  27.009  26.679  1.00  0.00     0.031 A 
BRANCH  45  59
ATOM     59  C   UNL A   1      46.187  32.621  28.267  1.00  0.00    -0.014 A 
ATOM     60  C   UNL A   1      46.102  33.533  27.198  1.00  0.00     0.010 A 
ATOM     61  C   UNL A   1      46.522  33.100  29.546  1.00  0.00     0.010 A 
ATOM     62  C   UNL A   1      46.387  34.887  27.396  1.00  0.00     0.020 A 
ATOM     63  C   UNL A   1      46.777  34.460  29.755  1.00  0.00     0.020 A 
ATOM     64  C   UNL A   1      46.724  35.341  28.674  1.00  0.00     0.054 A 
BRANCH  64  65
ATOM     65  S   UNL A   1      47.059  37.109  28.906  1.00  0.00     0.124 S 
ATOM     66  O   UNL A   1      45.816  37.573  29.518  1.00  0.00    -0.237 OA
ATOM     67  O   UNL A   1      48.226  37.099  29.785  1.00  0.00    -0.237 OA
ATOM     68  O   UNL A   1      47.307  37.598  27.552  1.00  0.00    -0.744 OA
ENDBRANCH  64  65
ENDBRANCH  45  59
BRANCH  46  69
ATOM     69  C   UNL A   1      43.656  23.057  26.774  1.00  0.00    -0.014 A 
ATOM     70  C   UNL A   1      44.072  22.396  25.606  1.00  0.00     0.010 A 
ATOM     71  C   UNL A   1      42.888  22.353  27.720  1.00  0.00     0.010 A 
ATOM     72  C   UNL A   1      43.711  21.064  25.376  1.00  0.00     0.020 A 
ATOM     73  C   UNL A   1      42.551  21.013  27.509  1.00  0.00     0.020 A 
ATOM     74  C   UNL A   1      42.954  20.381  26.332  1.00  0.00     0.054 A 
BRANCH  74  75
ATOM     75  S   UNL A   1      42.540  18.639  26.037  1.00  0.00     0.124 S 
ATOM     76  O   UNL A   1      41.121  18.716  25.704  1.00  0.00    -0.237 OA
ATOM     77  O   UNL A   1      43.432  18.285  24.936  1.00  0.00    -0.237 OA
ATOM     78  O   UNL A   1      42.850  17.993  27.311  1.00  0.00    -0.744 OA
ENDBRANCH  74  75
ENDBRANCH  46  69
BRANCH  58  79
ATOM     79  C   UNL A   1      49.654  26.587  26.328  1.00  0.00    -0.014 A 
ATOM     80  C   UNL A   1      50.466  25.907  27.253  1.00  0.00     0.010 A 
ATOM     81  C   UNL A   1      50.156  26.850  25.040  1.00  0.00     0.010 A 
ATOM     82  C   UNL A   1      51.771  25.542  26.913  1.00  0.00     0.020 A 
ATOM     83  C   UNL A   1      51.448  26.456  24.685  1.00  0.00     0.020 A 
ATOM     84  C   UNL A   1      52.254  25.821  25.631  1.00  0.00     0.054 A 
BRANCH  84  85
ATOM     85  S   UNL A   1      53.945  25.319  25.207  1.00  0.00     0.124 S 
ATOM     86  O   UNL A   1      53.898  23.877  25.433  1.00  0.00    -0.237 OA
ATOM     87  O   UNL A   1      54.062  25.734  23.812  1.00  0.00    -0.237 OA
ATOM     88  O   UNL A   1      54.775  26.070  26.147  1.00  0.00    -0.744 OA
ENDBRANCH  84  85
ENDBRANCH  58  79
ENDBRANCH  32  33
ENDBRANCH  24  27
ENDBRANCH  22  23
ENDBRANCH  21  22
ENDBRANCH   1  21
TORSDOF 17
ENDMDL
