MODEL 1
REMARK VINA RESULT:     -10.7      0.000      0.000
REMARK SMILES C[C@H]1[C@H](C(=O)NCCCNC(=O)c2ccc(-c3c4nc(c(-c5ccc(S(=O)(=O)[O-])cc5)c5ccc([nH]5)c(-c5ccc(S(=O)(=O)[O-])cc5)c5nc(c(-c6ccc(S(=O)(=O)[O-])cc6)c6ccc3[nH]6)C=C5)C=C4)cc2)CCN1C(=O)[C@H]1CC=CCC1
REMARK SMILES IDX 8 1 7 2 6 3 4 4 5 5 3 7 1 8 2 9 75 10 73 11 74 12 76 13
REMARK SMILES IDX 77 14 78 15 79 16 83 17 80 18 82 19 81 20 9 21 10 22 11 23
REMARK SMILES IDX 12 25 13 26 14 27 72 28 15 29 71 30 16 31 17 32 18 33 65 34
REMARK SMILES IDX 19 35 70 36 64 37 66 38 20 39 69 40 63 41 62 42 21 44 51 45
REMARK SMILES IDX 32 46 50 47 33 48 36 49 49 50 67 51 34 52 35 53 48 55 68 56
REMARK SMILES IDX 37 57 22 58 23 59 31 60 24 61 30 62 25 63 26 64 27 65 28 66
REMARK SMILES IDX 29 67 52 68 53 69 61 70 54 71 60 72 55 73 56 74 57 75 58 76
REMARK SMILES IDX 59 77 38 78 39 79 47 80 40 81 46 82 41 83 42 84 43 85 44 86
REMARK SMILES IDX 45 87
REMARK H PARENT 6 6 10 24 66 43 36 54
REMARK Flexibility Score: inf
ROOT
ATOM      1  C   UNL A   1      33.187  27.398  26.703  1.00  0.00     0.042 C 
ENDROOT
BRANCH   1   2
ATOM      2  C   UNL A   1      31.753  27.299  26.198  1.00  0.00     0.117 C 
BRANCH   2   3
ATOM      3  N   UNL A   1      31.180  25.975  26.388  1.00  0.00    -0.356 N 
ATOM      4  C   UNL A   1      31.135  24.865  25.614  1.00  0.00     0.225 C 
ATOM      5  O   UNL A   1      30.587  23.875  26.113  1.00  0.00    -0.275 OA
ATOM      6  H   UNL A   1      30.732  25.863  27.258  1.00  0.00     0.163 HD
BRANCH   4   7
ATOM      7  C   UNL A   1      31.661  24.774  24.192  1.00  0.00     0.102 C 
ATOM      8  C   UNL A   1      33.480  26.067  23.081  1.00  0.00     0.032 C 
ATOM      9  C   UNL A   1      33.185  24.964  24.107  1.00  0.00     0.094 C 
ATOM     10  N   UNL A   1      33.696  23.669  23.670  1.00  0.00    -0.339 N 
ATOM     11  C   UNL A   1      31.327  23.514  23.399  1.00  0.00     0.037 C 
ATOM     12  C   UNL A   1      32.665  22.956  22.932  1.00  0.00     0.120 C 
BRANCH  10  13
ATOM     13  C   UNL A   1      34.942  23.094  23.784  1.00  0.00     0.226 C 
ATOM     14  O   UNL A   1      35.650  23.017  22.767  1.00  0.00    -0.275 OA
BRANCH  13  15
ATOM     15  C   UNL A   1      35.518  22.493  25.082  1.00  0.00     0.083 C 
ATOM     16  C   UNL A   1      36.255  21.161  24.967  1.00  0.00     0.040 C 
ATOM     17  C   UNL A   1      36.159  23.492  26.049  1.00  0.00     0.018 C 
ATOM     18  C   UNL A   1      37.735  21.222  25.194  1.00  0.00    -0.030 C 
ATOM     19  C   UNL A   1      37.685  23.582  26.013  1.00  0.00     0.028 C 
ATOM     20  C   UNL A   1      38.372  22.302  25.661  1.00  0.00    -0.031 C 
ENDBRANCH  13  15
ENDBRANCH  10  13
ENDBRANCH   4   7
ENDBRANCH   2   3
ENDBRANCH   1   2
BRANCH   1  21
ATOM     21  C   UNL A   1      34.034  28.504  26.087  1.00  0.00     0.118 C 
BRANCH  21  22
ATOM     22  N   UNL A   1      33.789  29.801  26.688  1.00  0.00    -0.352 N 
ATOM     23  C   UNL A   1      34.514  30.498  27.623  1.00  0.00     0.251 C 
ATOM     24  H   UNL A   1      32.973  30.254  26.375  1.00  0.00     0.163 HD
ATOM     25  O   UNL A   1      34.013  31.504  28.128  1.00  0.00    -0.269 OA
BRANCH  23  26
ATOM     26  C   UNL A   1      35.866  30.060  28.055  1.00  0.00     0.039 A 
ATOM     27  C   UNL A   1      36.928  30.190  27.153  1.00  0.00     0.014 A 
ATOM     28  C   UNL A   1      36.097  29.463  29.298  1.00  0.00     0.014 A 
ATOM     29  C   UNL A   1      38.214  29.770  27.511  1.00  0.00     0.010 A 
ATOM     30  C   UNL A   1      37.396  29.118  29.686  1.00  0.00     0.010 A 
ATOM     31  C   UNL A   1      38.468  29.251  28.791  1.00  0.00    -0.014 A 
BRANCH  31  32
ATOM     32  C   UNL A   1      39.838  28.823  29.188  1.00  0.00     0.031 A 
ATOM     33  C   UNL A   1      40.741  29.754  29.956  1.00  0.00     0.074 A 
ATOM     34  C   UNL A   1      40.291  27.603  28.834  1.00  0.00     0.049 A 
ATOM     35  N   UNL A   1      41.968  29.559  30.371  1.00  0.00    -0.248 NA
ATOM     36  C   UNL A   1      40.205  31.087  30.280  1.00  0.00     0.031 C 
ATOM     37  C   UNL A   1      39.545  26.616  28.050  1.00  0.00     0.029 A 
ATOM     38  N   UNL A   1      41.492  26.986  29.086  1.00  0.00    -0.354 N 
ATOM     39  C   UNL A   1      42.354  30.744  30.989  1.00  0.00     0.074 A 
ATOM     40  C   UNL A   1      41.250  31.668  30.851  1.00  0.00     0.031 C 
ATOM     41  C   UNL A   1      40.293  25.509  27.911  1.00  0.00     0.029 A 
ATOM     42  C   UNL A   1      41.581  25.716  28.566  1.00  0.00     0.049 A 
ATOM     43  H   UNL A   1      42.221  27.413  29.592  1.00  0.00     0.167 HD
ATOM     44  C   UNL A   1      43.512  31.034  31.631  1.00  0.00     0.031 A 
ATOM     45  C   UNL A   1      42.582  24.815  28.611  1.00  0.00     0.031 A 
ATOM     46  C   UNL A   1      44.609  30.117  31.788  1.00  0.00     0.049 A 
ATOM     47  C   UNL A   1      43.848  25.149  29.348  1.00  0.00     0.074 A 
ATOM     48  C   UNL A   1      45.801  30.306  32.466  1.00  0.00     0.029 A 
ATOM     49  N   UNL A   1      44.647  28.833  31.266  1.00  0.00    -0.354 N 
ATOM     50  N   UNL A   1      44.170  26.258  29.971  1.00  0.00    -0.248 NA
ATOM     51  C   UNL A   1      44.881  24.104  29.401  1.00  0.00     0.031 C 
ATOM     52  C   UNL A   1      46.576  29.149  32.324  1.00  0.00     0.029 A 
ATOM     53  C   UNL A   1      45.847  28.224  31.595  1.00  0.00     0.049 A 
ATOM     54  H   UNL A   1      43.927  28.416  30.739  1.00  0.00     0.167 HD
ATOM     55  C   UNL A   1      45.435  26.037  30.504  1.00  0.00     0.074 A 
ATOM     56  C   UNL A   1      45.811  24.684  30.147  1.00  0.00     0.031 C 
ATOM     57  C   UNL A   1      46.215  26.881  31.225  1.00  0.00     0.031 A 
BRANCH  44  58
ATOM     58  C   UNL A   1      43.647  32.416  32.216  1.00  0.00    -0.014 A 
ATOM     59  C   UNL A   1      44.338  33.428  31.527  1.00  0.00     0.010 A 
ATOM     60  C   UNL A   1      43.059  32.712  33.459  1.00  0.00     0.010 A 
ATOM     61  C   UNL A   1      44.482  34.698  32.091  1.00  0.00     0.020 A 
ATOM     62  C   UNL A   1      43.179  33.991  34.015  1.00  0.00     0.020 A 
ATOM     63  C   UNL A   1      43.908  34.969  33.336  1.00  0.00     0.054 A 
BRANCH  63  64
ATOM     64  S   UNL A   1      44.105  36.627  34.046  1.00  0.00     0.124 S 
ATOM     65  O   UNL A   1      45.416  37.019  33.532  1.00  0.00    -0.237 OA
ATOM     66  O   UNL A   1      42.969  37.356  33.487  1.00  0.00    -0.237 OA
ATOM     67  O   UNL A   1      44.045  36.395  35.487  1.00  0.00    -0.744 OA
ENDBRANCH  63  64
ENDBRANCH  44  58
BRANCH  45  68
ATOM     68  C   UNL A   1      42.412  23.494  27.949  1.00  0.00    -0.014 A 
ATOM     69  C   UNL A   1      43.015  23.237  26.706  1.00  0.00     0.010 A 
ATOM     70  C   UNL A   1      41.665  22.479  28.573  1.00  0.00     0.010 A 
ATOM     71  C   UNL A   1      42.866  21.990  26.091  1.00  0.00     0.020 A 
ATOM     72  C   UNL A   1      41.532  21.224  27.973  1.00  0.00     0.020 A 
ATOM     73  C   UNL A   1      42.126  20.991  26.731  1.00  0.00     0.054 A 
BRANCH  73  74
ATOM     74  S   UNL A   1      41.999  19.356  25.950  1.00  0.00     0.124 S 
ATOM     75  O   UNL A   1      40.567  19.255  25.692  1.00  0.00    -0.237 OA
ATOM     76  O   UNL A   1      42.847  19.502  24.769  1.00  0.00    -0.237 OA
ATOM     77  O   UNL A   1      42.520  18.451  26.972  1.00  0.00    -0.744 OA
ENDBRANCH  73  74
ENDBRANCH  45  68
BRANCH  57  78
ATOM     78  C   UNL A   1      47.547  26.358  31.690  1.00  0.00    -0.014 A 
ATOM     79  C   UNL A   1      47.699  25.798  32.970  1.00  0.00     0.010 A 
ATOM     80  C   UNL A   1      48.653  26.397  30.822  1.00  0.00     0.010 A 
ATOM     81  C   UNL A   1      48.945  25.320  33.389  1.00  0.00     0.020 A 
ATOM     82  C   UNL A   1      49.894  25.899  31.228  1.00  0.00     0.020 A 
ATOM     83  C   UNL A   1      50.036  25.379  32.516  1.00  0.00     0.054 A 
BRANCH  83  84
ATOM     84  S   UNL A   1      51.637  24.730  33.070  1.00  0.00     0.124 S 
ATOM     85  O   UNL A   1      51.638  23.391  32.488  1.00  0.00    -0.237 OA
ATOM     86  O   UNL A   1      52.588  25.670  32.483  1.00  0.00    -0.237 OA
ATOM     87  O   UNL A   1      51.543  24.778  34.527  1.00  0.00    -0.744 OA
ENDBRANCH  83  84
ENDBRANCH  57  78
ENDBRANCH  31  32
ENDBRANCH  23  26
ENDBRANCH  21  22
ENDBRANCH   1  21
TORSDOF 15
ENDMDL
MODEL 2
REMARK VINA RESULT:     -10.6      2.917      9.614
REMARK SMILES C[C@H]1[C@H](C(=O)NCCCNC(=O)c2ccc(-c3c4nc(c(-c5ccc(S(=O)(=O)[O-])cc5)c5ccc([nH]5)c(-c5ccc(S(=O)(=O)[O-])cc5)c5nc(c(-c6ccc(S(=O)(=O)[O-])cc6)c6ccc3[nH]6)C=C5)C=C4)cc2)CCN1C(=O)[C@H]1CC=CCC1
REMARK SMILES IDX 8 1 7 2 6 3 4 4 5 5 3 7 1 8 2 9 75 10 73 11 74 12 76 13
REMARK SMILES IDX 77 14 78 15 79 16 83 17 80 18 82 19 81 20 9 21 10 22 11 23
REMARK SMILES IDX 12 25 13 26 14 27 72 28 15 29 71 30 16 31 17 32 18 33 65 34
REMARK SMILES IDX 19 35 70 36 64 37 66 38 20 39 69 40 63 41 62 42 21 44 51 45
REMARK SMILES IDX 32 46 50 47 33 48 36 49 49 50 67 51 34 52 35 53 48 55 68 56
REMARK SMILES IDX 37 57 22 58 23 59 31 60 24 61 30 62 25 63 26 64 27 65 28 66
REMARK SMILES IDX 29 67 52 68 53 69 61 70 54 71 60 72 55 73 56 74 57 75 58 76
REMARK SMILES IDX 59 77 38 78 39 79 47 80 40 81 46 82 41 83 42 84 43 85 44 86
REMARK SMILES IDX 45 87
REMARK H PARENT 6 6 10 24 66 43 36 54
REMARK Flexibility Score: inf
ROOT
ATOM      1  C   UNL A   1      35.331  23.710  25.684  1.00  0.00     0.042 C 
ENDROOT
BRANCH   1   2
ATOM      2  C   UNL A   1      34.147  24.256  24.895  1.00  0.00     0.117 C 
BRANCH   2   3
ATOM      3  N   UNL A   1      32.963  24.449  25.717  1.00  0.00    -0.356 N 
ATOM      4  C   UNL A   1      32.372  25.545  26.247  1.00  0.00     0.225 C 
ATOM      5  O   UNL A   1      31.327  25.349  26.879  1.00  0.00    -0.275 OA
ATOM      6  H   UNL A   1      32.496  23.609  25.934  1.00  0.00     0.163 HD
BRANCH   4   7
ATOM      7  C   UNL A   1      32.918  26.960  26.154  1.00  0.00     0.102 C 
ATOM      8  C   UNL A   1      33.955  28.142  24.220  1.00  0.00     0.032 C 
ATOM      9  C   UNL A   1      32.632  27.621  24.795  1.00  0.00     0.094 C 
ATOM     10  N   UNL A   1      31.710  28.711  25.101  1.00  0.00    -0.339 N 
ATOM     11  C   UNL A   1      32.486  27.952  27.229  1.00  0.00     0.037 C 
ATOM     12  C   UNL A   1      31.890  29.136  26.480  1.00  0.00     0.120 C 
BRANCH  10  13
ATOM     13  C   UNL A   1      30.810  29.393  24.313  1.00  0.00     0.226 C 
ATOM     14  O   UNL A   1      30.623  30.599  24.542  1.00  0.00    -0.275 OA
BRANCH  13  15
ATOM     15  C   UNL A   1      29.975  28.760  23.182  1.00  0.00     0.083 C 
ATOM     16  C   UNL A   1      29.248  27.454  23.498  1.00  0.00     0.040 C 
ATOM     17  C   UNL A   1      29.174  29.739  22.319  1.00  0.00     0.018 C 
ATOM     18  C   UNL A   1      27.754  27.549  23.566  1.00  0.00    -0.030 C 
ATOM     19  C   UNL A   1      27.688  29.874  22.653  1.00  0.00     0.028 C 
ATOM     20  C   UNL A   1      27.059  28.628  23.188  1.00  0.00    -0.031 C 
ENDBRANCH  13  15
ENDBRANCH  10  13
ENDBRANCH   4   7
ENDBRANCH   2   3
ENDBRANCH   1   2
BRANCH   1  21
ATOM     21  C   UNL A   1      36.700  23.892  25.041  1.00  0.00     0.118 C 
BRANCH  21  22
ATOM     22  N   UNL A   1      37.638  22.849  25.412  1.00  0.00    -0.352 N 
ATOM     23  C   UNL A   1      38.819  22.925  26.109  1.00  0.00     0.251 C 
ATOM     24  H   UNL A   1      37.390  21.944  25.116  1.00  0.00     0.163 HD
ATOM     25  O   UNL A   1      39.548  21.933  26.143  1.00  0.00    -0.269 OA
BRANCH  23  26
ATOM     26  C   UNL A   1      39.247  24.170  26.797  1.00  0.00     0.039 A 
ATOM     27  C   UNL A   1      40.048  25.077  26.096  1.00  0.00     0.014 A 
ATOM     28  C   UNL A   1      38.935  24.430  28.135  1.00  0.00     0.014 A 
ATOM     29  C   UNL A   1      40.492  26.252  26.713  1.00  0.00     0.010 A 
ATOM     30  C   UNL A   1      39.309  25.640  28.726  1.00  0.00     0.010 A 
ATOM     31  C   UNL A   1      40.107  26.560  28.028  1.00  0.00    -0.014 A 
BRANCH  31  32
ATOM     32  C   UNL A   1      40.555  27.818  28.685  1.00  0.00     0.031 A 
ATOM     33  C   UNL A   1      41.954  27.941  29.234  1.00  0.00     0.074 A 
ATOM     34  C   UNL A   1      39.698  28.850  28.819  1.00  0.00     0.049 A 
ATOM     35  N   UNL A   1      42.514  28.952  29.851  1.00  0.00    -0.248 NA
ATOM     36  C   UNL A   1      42.832  26.767  29.092  1.00  0.00     0.031 C 
ATOM     37  C   UNL A   1      38.302  28.855  28.378  1.00  0.00     0.029 A 
ATOM     38  N   UNL A   1      39.876  30.096  29.370  1.00  0.00    -0.354 N 
ATOM     39  C   UNL A   1      43.798  28.533  30.183  1.00  0.00     0.074 A 
ATOM     40  C   UNL A   1      43.918  27.160  29.744  1.00  0.00     0.031 C 
ATOM     41  C   UNL A   1      37.760  30.054  28.649  1.00  0.00     0.029 A 
ATOM     42  C   UNL A   1      38.756  30.892  29.309  1.00  0.00     0.049 A 
ATOM     43  H   UNL A   1      40.726  30.392  29.770  1.00  0.00     0.167 HD
ATOM     44  C   UNL A   1      44.795  29.229  30.781  1.00  0.00     0.031 A 
ATOM     45  C   UNL A   1      38.550  32.155  29.733  1.00  0.00     0.031 A 
ATOM     46  C   UNL A   1      44.692  30.599  31.207  1.00  0.00     0.049 A 
ATOM     47  C   UNL A   1      39.677  32.915  30.372  1.00  0.00     0.074 A 
ATOM     48  C   UNL A   1      45.666  31.401  31.777  1.00  0.00     0.029 A 
ATOM     49  N   UNL A   1      43.547  31.374  31.105  1.00  0.00    -0.354 N 
ATOM     50  N   UNL A   1      40.900  32.516  30.628  1.00  0.00    -0.248 NA
ATOM     51  C   UNL A   1      39.400  34.304  30.767  1.00  0.00     0.031 C 
ATOM     52  C   UNL A   1      45.099  32.651  32.052  1.00  0.00     0.029 A 
ATOM     53  C   UNL A   1      43.785  32.640  31.614  1.00  0.00     0.049 A 
ATOM     54  H   UNL A   1      42.689  31.069  30.728  1.00  0.00     0.167 HD
ATOM     55  C   UNL A   1      41.543  33.609  31.198  1.00  0.00     0.074 A 
ATOM     56  C   UNL A   1      40.580  34.692  31.232  1.00  0.00     0.031 C 
ATOM     57  C   UNL A   1      42.817  33.706  31.652  1.00  0.00     0.031 A 
BRANCH  44  58
ATOM     58  C   UNL A   1      46.098  28.506  31.010  1.00  0.00    -0.014 A 
ATOM     59  C   UNL A   1      46.328  27.788  32.197  1.00  0.00     0.010 A 
ATOM     60  C   UNL A   1      47.095  28.528  30.018  1.00  0.00     0.010 A 
ATOM     61  C   UNL A   1      47.549  27.146  32.411  1.00  0.00     0.020 A 
ATOM     62  C   UNL A   1      48.310  27.863  30.218  1.00  0.00     0.020 A 
ATOM     63  C   UNL A   1      48.537  27.194  31.423  1.00  0.00     0.054 A 
BRANCH  63  64
ATOM     64  S   UNL A   1      50.113  26.349  31.723  1.00  0.00     0.124 S 
ATOM     65  O   UNL A   1      49.670  24.994  32.044  1.00  0.00    -0.237 OA
ATOM     66  O   UNL A   1      50.807  26.495  30.446  1.00  0.00    -0.237 OA
ATOM     67  O   UNL A   1      50.699  27.093  32.835  1.00  0.00    -0.744 OA
ENDBRANCH  63  64
ENDBRANCH  44  58
BRANCH  45  68
ATOM     68  C   UNL A   1      37.217  32.786  29.543  1.00  0.00    -0.014 A 
ATOM     69  C   UNL A   1      36.331  32.920  30.626  1.00  0.00     0.010 A 
ATOM     70  C   UNL A   1      36.838  33.276  28.280  1.00  0.00     0.010 A 
ATOM     71  C   UNL A   1      35.083  33.525  30.448  1.00  0.00     0.020 A 
ATOM     72  C   UNL A   1      35.601  33.902  28.103  1.00  0.00     0.020 A 
ATOM     73  C   UNL A   1      34.728  34.015  29.187  1.00  0.00     0.054 A 
BRANCH  73  74
ATOM     74  S   UNL A   1      33.132  34.858  28.991  1.00  0.00     0.124 S 
ATOM     75  O   UNL A   1      32.591  34.801  30.345  1.00  0.00    -0.237 OA
ATOM     76  O   UNL A   1      33.529  36.184  28.522  1.00  0.00    -0.237 OA
ATOM     77  O   UNL A   1      32.436  34.040  28.001  1.00  0.00    -0.744 OA
ENDBRANCH  73  74
ENDBRANCH  45  68
BRANCH  57  78
ATOM     78  C   UNL A   1      43.249  35.035  32.210  1.00  0.00    -0.014 A 
ATOM     79  C   UNL A   1      44.063  35.905  31.464  1.00  0.00     0.010 A 
ATOM     80  C   UNL A   1      42.806  35.433  33.484  1.00  0.00     0.010 A 
ATOM     81  C   UNL A   1      44.458  37.135  31.999  1.00  0.00     0.020 A 
ATOM     82  C   UNL A   1      43.180  36.672  34.013  1.00  0.00     0.020 A 
ATOM     83  C   UNL A   1      44.019  37.508  33.273  1.00  0.00     0.054 A 
BRANCH  83  84
ATOM     84  S   UNL A   1      44.522  39.120  33.937  1.00  0.00     0.124 S 
ATOM     85  O   UNL A   1      45.100  38.749  35.225  1.00  0.00    -0.237 OA
ATOM     86  O   UNL A   1      45.473  39.599  32.937  1.00  0.00    -0.237 OA
ATOM     87  O   UNL A   1      43.270  39.869  34.006  1.00  0.00    -0.744 OA
ENDBRANCH  83  84
ENDBRANCH  57  78
ENDBRANCH  31  32
ENDBRANCH  23  26
ENDBRANCH  21  22
ENDBRANCH   1  21
TORSDOF 15
ENDMDL
MODEL 3
REMARK VINA RESULT:     -10.6      4.201     10.235
REMARK SMILES C[C@H]1[C@H](C(=O)NCCCNC(=O)c2ccc(-c3c4nc(c(-c5ccc(S(=O)(=O)[O-])cc5)c5ccc([nH]5)c(-c5ccc(S(=O)(=O)[O-])cc5)c5nc(c(-c6ccc(S(=O)(=O)[O-])cc6)c6ccc3[nH]6)C=C5)C=C4)cc2)CCN1C(=O)[C@H]1CC=CCC1
REMARK SMILES IDX 8 1 7 2 6 3 4 4 5 5 3 7 1 8 2 9 75 10 73 11 74 12 76 13
REMARK SMILES IDX 77 14 78 15 79 16 83 17 80 18 82 19 81 20 9 21 10 22 11 23
REMARK SMILES IDX 12 25 13 26 14 27 72 28 15 29 71 30 16 31 17 32 18 33 65 34
REMARK SMILES IDX 19 35 70 36 64 37 66 38 20 39 69 40 63 41 62 42 21 44 51 45
REMARK SMILES IDX 32 46 50 47 33 48 36 49 49 50 67 51 34 52 35 53 48 55 68 56
REMARK SMILES IDX 37 57 22 58 23 59 31 60 24 61 30 62 25 63 26 64 27 65 28 66
REMARK SMILES IDX 29 67 52 68 53 69 61 70 54 71 60 72 55 73 56 74 57 75 58 76
REMARK SMILES IDX 59 77 38 78 39 79 47 80 40 81 46 82 41 83 42 84 43 85 44 86
REMARK SMILES IDX 45 87
REMARK H PARENT 6 6 10 24 66 43 36 54
REMARK Flexibility Score: inf
ROOT
ATOM      1  C   UNL A   1      37.823  22.959  26.438  1.00  0.00     0.042 C 
ENDROOT
BRANCH   1   2
ATOM      2  C   UNL A   1      37.659  22.154  25.154  1.00  0.00     0.117 C 
BRANCH   2   3
ATOM      3  N   UNL A   1      36.845  22.837  24.161  1.00  0.00    -0.356 N 
ATOM      4  C   UNL A   1      35.509  22.952  23.979  1.00  0.00     0.225 C 
ATOM      5  O   UNL A   1      35.147  23.659  23.031  1.00  0.00    -0.275 OA
ATOM      6  H   UNL A   1      37.375  23.314  23.481  1.00  0.00     0.163 HD
BRANCH   4   7
ATOM      7  C   UNL A   1      34.453  22.252  24.817  1.00  0.00     0.102 C 
ATOM      8  C   UNL A   1      34.170  22.187  27.293  1.00  0.00     0.032 C 
ATOM      9  C   UNL A   1      34.028  23.072  26.047  1.00  0.00     0.094 C 
ATOM     10  N   UNL A   1      32.635  23.426  25.793  1.00  0.00    -0.339 N 
ATOM     11  C   UNL A   1      33.172  21.815  24.112  1.00  0.00     0.037 C 
ATOM     12  C   UNL A   1      32.033  22.449  24.899  1.00  0.00     0.120 C 
BRANCH  10  13
ATOM     13  C   UNL A   1      31.844  24.436  26.293  1.00  0.00     0.226 C 
ATOM     14  O   UNL A   1      31.064  24.168  27.220  1.00  0.00    -0.275 OA
BRANCH  13  15
ATOM     15  C   UNL A   1      31.823  25.882  25.759  1.00  0.00     0.083 C 
ATOM     16  C   UNL A   1      31.124  26.933  26.619  1.00  0.00     0.040 C 
ATOM     17  C   UNL A   1      33.114  26.365  25.092  1.00  0.00     0.018 C 
ATOM     18  C   UNL A   1      32.025  27.949  27.254  1.00  0.00    -0.030 C 
ATOM     19  C   UNL A   1      34.034  27.233  25.951  1.00  0.00     0.028 C 
ATOM     20  C   UNL A   1      33.323  28.083  26.955  1.00  0.00    -0.031 C 
ENDBRANCH  13  15
ENDBRANCH  10  13
ENDBRANCH   4   7
ENDBRANCH   2   3
ENDBRANCH   1   2
BRANCH   1  21
ATOM     21  C   UNL A   1      38.484  24.323  26.288  1.00  0.00     0.118 C 
BRANCH  21  22
ATOM     22  N   UNL A   1      39.902  24.231  25.995  1.00  0.00    -0.352 N 
ATOM     23  C   UNL A   1      40.957  24.967  26.478  1.00  0.00     0.251 C 
ATOM     24  H   UNL A   1      40.147  23.532  25.348  1.00  0.00     0.163 HD
ATOM     25  O   UNL A   1      42.059  24.837  25.943  1.00  0.00    -0.269 OA
BRANCH  23  26
ATOM     26  C   UNL A   1      40.798  25.924  27.603  1.00  0.00     0.039 A 
ATOM     27  C   UNL A   1      41.629  27.049  27.641  1.00  0.00     0.014 A 
ATOM     28  C   UNL A   1      39.901  25.703  28.652  1.00  0.00     0.014 A 
ATOM     29  C   UNL A   1      41.528  27.965  28.695  1.00  0.00     0.010 A 
ATOM     30  C   UNL A   1      39.744  26.659  29.660  1.00  0.00     0.010 A 
ATOM     31  C   UNL A   1      40.567  27.794  29.704  1.00  0.00    -0.014 A 
BRANCH  31  32
ATOM     32  C   UNL A   1      40.438  28.776  30.816  1.00  0.00     0.031 A 
ATOM     33  C   UNL A   1      41.311  28.667  32.041  1.00  0.00     0.074 A 
ATOM     34  C   UNL A   1      39.514  29.754  30.746  1.00  0.00     0.049 A 
ATOM     35  N   UNL A   1      41.329  29.420  33.112  1.00  0.00    -0.248 NA
ATOM     36  C   UNL A   1      42.275  27.555  32.076  1.00  0.00     0.031 C 
ATOM     37  C   UNL A   1      38.570  29.952  29.644  1.00  0.00     0.029 A 
ATOM     38  N   UNL A   1      39.214  30.768  31.624  1.00  0.00    -0.354 N 
ATOM     39  C   UNL A   1      42.288  28.867  33.953  1.00  0.00     0.074 A 
ATOM     40  C   UNL A   1      42.796  27.686  33.288  1.00  0.00     0.031 C 
ATOM     41  C   UNL A   1      37.818  31.036  29.899  1.00  0.00     0.029 A 
ATOM     42  C   UNL A   1      38.203  31.592  31.192  1.00  0.00     0.049 A 
ATOM     43  H   UNL A   1      39.682  30.893  32.482  1.00  0.00     0.167 HD
ATOM     44  C   UNL A   1      42.724  29.306  35.158  1.00  0.00     0.031 A 
ATOM     45  C   UNL A   1      37.644  32.676  31.767  1.00  0.00     0.031 A 
ATOM     46  C   UNL A   1      42.238  30.488  35.819  1.00  0.00     0.049 A 
ATOM     47  C   UNL A   1      38.159  33.160  33.093  1.00  0.00     0.074 A 
ATOM     48  C   UNL A   1      42.655  31.038  37.019  1.00  0.00     0.029 A 
ATOM     49  N   UNL A   1      41.228  31.306  35.335  1.00  0.00    -0.354 N 
ATOM     50  N   UNL A   1      39.105  32.650  33.845  1.00  0.00    -0.248 NA
ATOM     51  C   UNL A   1      37.540  34.375  33.641  1.00  0.00     0.031 C 
ATOM     52  C   UNL A   1      41.873  32.170  37.278  1.00  0.00     0.029 A 
ATOM     53  C   UNL A   1      40.999  32.348  36.218  1.00  0.00     0.049 A 
ATOM     54  H   UNL A   1      40.744  31.165  34.489  1.00  0.00     0.167 HD
ATOM     55  C   UNL A   1      39.206  33.492  34.947  1.00  0.00     0.074 A 
ATOM     56  C   UNL A   1      38.240  34.554  34.754  1.00  0.00     0.031 C 
ATOM     57  C   UNL A   1      40.027  33.393  36.022  1.00  0.00     0.031 A 
BRANCH  44  58
ATOM     58  C   UNL A   1      43.793  28.494  35.842  1.00  0.00    -0.014 A 
ATOM     59  C   UNL A   1      45.156  28.768  35.630  1.00  0.00     0.010 A 
ATOM     60  C   UNL A   1      43.431  27.460  36.725  1.00  0.00     0.010 A 
ATOM     61  C   UNL A   1      46.139  27.991  36.247  1.00  0.00     0.020 A 
ATOM     62  C   UNL A   1      44.414  26.696  37.365  1.00  0.00     0.020 A 
ATOM     63  C   UNL A   1      45.761  26.954  37.105  1.00  0.00     0.054 A 
BRANCH  63  64
ATOM     64  S   UNL A   1      47.056  25.961  37.898  1.00  0.00     0.124 S 
ATOM     65  O   UNL A   1      46.772  24.626  37.375  1.00  0.00    -0.237 OA
ATOM     66  O   UNL A   1      48.285  26.579  37.406  1.00  0.00    -0.237 OA
ATOM     67  O   UNL A   1      46.802  26.138  39.326  1.00  0.00    -0.744 OA
ENDBRANCH  63  64
ENDBRANCH  44  58
BRANCH  45  68
ATOM     68  C   UNL A   1      36.541  33.391  31.071  1.00  0.00    -0.014 A 
ATOM     69  C   UNL A   1      36.755  33.975  29.810  1.00  0.00     0.010 A 
ATOM     70  C   UNL A   1      35.265  33.470  31.658  1.00  0.00     0.010 A 
ATOM     71  C   UNL A   1      35.714  34.635  29.151  1.00  0.00     0.020 A 
ATOM     72  C   UNL A   1      34.216  34.110  30.992  1.00  0.00     0.020 A 
ATOM     73  C   UNL A   1      34.450  34.696  29.746  1.00  0.00     0.054 A 
BRANCH  73  74
ATOM     74  S   UNL A   1      33.093  35.499  28.846  1.00  0.00     0.124 S 
ATOM     75  O   UNL A   1      33.808  36.466  28.020  1.00  0.00    -0.237 OA
ATOM     76  O   UNL A   1      32.483  34.382  28.128  1.00  0.00    -0.237 OA
ATOM     77  O   UNL A   1      32.270  36.068  29.910  1.00  0.00    -0.744 OA
ENDBRANCH  73  74
ENDBRANCH  45  68
BRANCH  57  78
ATOM     78  C   UNL A   1      39.927  34.472  37.065  1.00  0.00    -0.014 A 
ATOM     79  C   UNL A   1      39.083  34.328  38.180  1.00  0.00     0.010 A 
ATOM     80  C   UNL A   1      40.712  35.633  36.944  1.00  0.00     0.010 A 
ATOM     81  C   UNL A   1      38.999  35.342  39.139  1.00  0.00     0.020 A 
ATOM     82  C   UNL A   1      40.648  36.639  37.912  1.00  0.00     0.020 A 
ATOM     83  C   UNL A   1      39.777  36.495  38.995  1.00  0.00     0.054 A 
BRANCH  83  84
ATOM     84  S   UNL A   1      39.672  37.788  40.264  1.00  0.00     0.124 S 
ATOM     85  O   UNL A   1      38.651  38.672  39.710  1.00  0.00    -0.237 OA
ATOM     86  O   UNL A   1      39.277  37.040  41.455  1.00  0.00    -0.237 OA
ATOM     87  O   UNL A   1      41.024  38.341  40.304  1.00  0.00    -0.744 OA
ENDBRANCH  83  84
ENDBRANCH  57  78
ENDBRANCH  31  32
ENDBRANCH  23  26
ENDBRANCH  21  22
ENDBRANCH   1  21
TORSDOF 15
ENDMDL
