MODEL 1
REMARK VINA RESULT:     -12.3      0.000      0.000
REMARK SMILES Cn1c(=O)c2c(nc(Nc3cccc(Cl)c3Cl)n2CC(=O)NCCCNC(=O)c2ccc(-c3c4nc(c(-c5ccc(S(=O)(=O)[O-])cc5)c5ccc([nH]5)c(-c5ccc(S(=O)(=O)[O-])cc5)c5nc(c(-c6ccc(S(=O)(=O)[O-])cc6)c6ccc3[nH]6)C=C5)C=C4)cc2)n(C)c1=O
REMARK SMILES IDX 24 1 23 2 22 3 20 4 21 5 19 7 18 8 1 9 2 10 3 11 91 12 4 13
REMARK SMILES IDX 5 14 89 15 92 16 6 17 90 18 7 19 8 20 9 21 10 23 11 24 16 25
REMARK SMILES IDX 12 26 14 27 17 28 13 29 15 30 25 31 26 32 27 33 28 35 29 36
REMARK SMILES IDX 30 37 88 38 31 39 87 40 32 41 33 42 34 43 81 44 35 45 86 46
REMARK SMILES IDX 80 47 82 48 36 49 85 50 79 51 78 52 37 54 67 55 48 56 66 57
REMARK SMILES IDX 49 58 52 59 65 60 83 61 50 62 51 63 64 65 84 66 53 67 38 68
REMARK SMILES IDX 39 69 47 70 40 71 46 72 41 73 42 74 43 75 44 76 45 77 68 78
REMARK SMILES IDX 69 79 77 80 70 81 76 82 71 83 72 84 73 85 74 86 75 87 54 88
REMARK SMILES IDX 55 89 63 90 56 91 62 92 57 93 58 94 59 95 60 96 61 97
REMARK H PARENT 22 6 9 22 26 34 82 53 52 64
REMARK Flexibility Score: inf
ROOT
ATOM      1  C   UNL A   1      35.794  23.192  25.825  1.00  0.00     0.042 C 
ENDROOT
BRANCH   1   2
ATOM      2  C   UNL A   1      34.824  24.144  25.131  1.00  0.00     0.117 C 
BRANCH   2   3
ATOM      3  N   UNL A   1      33.731  24.574  25.974  1.00  0.00    -0.354 N 
ATOM      4  C   UNL A   1      33.215  25.830  26.122  1.00  0.00     0.240 C 
ATOM      5  O   UNL A   1      32.122  25.921  26.686  1.00  0.00    -0.273 OA
ATOM      6  H   UNL A   1      33.303  23.869  26.513  1.00  0.00     0.163 HD
BRANCH   4   7
ATOM      7  C   UNL A   1      33.884  27.033  25.485  1.00  0.00     0.226 C 
BRANCH   7   8
ATOM      8  N   UNL A   1      33.263  28.323  25.747  1.00  0.00    -0.295 N 
ATOM      9  C   UNL A   1      29.620  28.658  22.382  1.00  0.00     0.159 C 
ATOM     10  N   UNL A   1      30.424  29.147  23.490  1.00  0.00    -0.261 N 
ATOM     11  C   UNL A   1      31.514  28.343  23.859  1.00  0.00     0.282 A 
ATOM     12  C   UNL A   1      30.083  30.379  24.071  1.00  0.00     0.332 A 
ATOM     13  O   UNL A   1      31.849  27.341  23.255  1.00  0.00    -0.267 OA
ATOM     14  C   UNL A   1      32.215  28.837  25.002  1.00  0.00     0.154 A 
ATOM     15  N   UNL A   1      30.856  30.803  25.154  1.00  0.00    -0.279 N 
ATOM     16  O   UNL A   1      29.149  31.064  23.646  1.00  0.00    -0.247 OA
ATOM     17  C   UNL A   1      31.894  30.015  25.590  1.00  0.00     0.170 A 
ATOM     18  C   UNL A   1      30.559  32.057  25.820  1.00  0.00     0.157 C 
ATOM     19  N   UNL A   1      32.712  30.294  26.630  1.00  0.00    -0.194 NA
ATOM     20  C   UNL A   1      33.570  29.292  26.703  1.00  0.00     0.210 A 
BRANCH  20  21
ATOM     21  N   UNL A   1      34.485  29.280  27.699  1.00  0.00    -0.324 N 
ATOM     22  H   UNL A   1      34.280  28.607  28.387  1.00  0.00     0.170 HD
BRANCH  21  23
ATOM     23  C   UNL A   1      35.660  29.997  27.988  1.00  0.00     0.061 A 
ATOM     24  C   UNL A   1      36.874  29.292  27.834  1.00  0.00     0.028 A 
ATOM     25  C   UNL A   1      35.716  31.337  28.415  1.00  0.00     0.083 A 
ATOM     26  C   UNL A   1      38.106  29.921  27.980  1.00  0.00     0.004 A 
ATOM     27  C   UNL A   1      36.964  31.972  28.553  1.00  0.00     0.061 A 
ATOM     28  Cl  UNL A   1      34.249  32.179  28.813  1.00  0.00    -0.080 Cl
ATOM     29  C   UNL A   1      38.150  31.268  28.318  1.00  0.00     0.022 A 
ATOM     30  Cl  UNL A   1      37.114  33.637  28.997  1.00  0.00    -0.083 Cl
ENDBRANCH  21  23
ENDBRANCH  20  21
ENDBRANCH   7   8
ENDBRANCH   4   7
ENDBRANCH   2   3
ENDBRANCH   1   2
BRANCH   1  31
ATOM     31  C   UNL A   1      37.228  23.472  25.423  1.00  0.00     0.118 C 
BRANCH  31  32
ATOM     32  N   UNL A   1      38.105  22.319  25.644  1.00  0.00    -0.352 N 
ATOM     33  C   UNL A   1      39.333  22.306  26.276  1.00  0.00     0.251 C 
ATOM     34  H   UNL A   1      37.781  21.455  25.302  1.00  0.00     0.163 HD
ATOM     35  O   UNL A   1      40.106  21.369  26.117  1.00  0.00    -0.269 OA
BRANCH  33  36
ATOM     36  C   UNL A   1      39.685  23.452  27.130  1.00  0.00     0.039 A 
ATOM     37  C   UNL A   1      40.887  23.488  27.840  1.00  0.00     0.014 A 
ATOM     38  C   UNL A   1      38.814  24.538  27.140  1.00  0.00     0.014 A 
ATOM     39  C   UNL A   1      41.244  24.670  28.484  1.00  0.00     0.010 A 
ATOM     40  C   UNL A   1      39.246  25.744  27.625  1.00  0.00     0.010 A 
ATOM     41  C   UNL A   1      40.431  25.807  28.349  1.00  0.00    -0.014 A 
BRANCH  41  42
ATOM     42  C   UNL A   1      40.833  27.091  28.908  1.00  0.00     0.031 A 
ATOM     43  C   UNL A   1      41.933  27.798  28.198  1.00  0.00     0.074 A 
ATOM     44  C   UNL A   1      40.146  27.707  29.894  1.00  0.00     0.049 A 
ATOM     45  N   UNL A   1      43.141  27.976  28.616  1.00  0.00    -0.248 NA
ATOM     46  C   UNL A   1      41.708  28.267  26.822  1.00  0.00     0.031 C 
ATOM     47  C   UNL A   1      38.878  27.316  30.523  1.00  0.00     0.029 A 
ATOM     48  N   UNL A   1      40.402  28.910  30.469  1.00  0.00    -0.354 N 
ATOM     49  C   UNL A   1      43.787  28.745  27.653  1.00  0.00     0.074 A 
ATOM     50  C   UNL A   1      42.907  28.766  26.509  1.00  0.00     0.031 C 
ATOM     51  C   UNL A   1      38.360  28.369  31.192  1.00  0.00     0.029 A 
ATOM     52  C   UNL A   1      39.346  29.432  31.203  1.00  0.00     0.049 A 
ATOM     53  H   UNL A   1      41.265  29.373  30.373  1.00  0.00     0.167 HD
ATOM     54  C   UNL A   1      44.908  29.464  27.944  1.00  0.00     0.031 A 
ATOM     55  C   UNL A   1      39.284  30.662  31.769  1.00  0.00     0.031 A 
ATOM     56  C   UNL A   1      45.431  29.124  29.243  1.00  0.00     0.049 A 
ATOM     57  C   UNL A   1      40.685  31.118  31.945  1.00  0.00     0.074 A 
ATOM     58  C   UNL A   1      45.928  27.974  29.821  1.00  0.00     0.029 A 
ATOM     59  N   UNL A   1      45.106  29.963  30.286  1.00  0.00    -0.354 N 
ATOM     60  N   UNL A   1      41.526  30.531  32.752  1.00  0.00    -0.248 NA
ATOM     61  C   UNL A   1      41.293  31.916  30.891  1.00  0.00     0.031 C 
ATOM     62  C   UNL A   1      45.413  27.985  31.151  1.00  0.00     0.029 A 
ATOM     63  C   UNL A   1      44.697  29.172  31.329  1.00  0.00     0.049 A 
ATOM     64  H   UNL A   1      45.157  30.946  30.283  1.00  0.00     0.167 HD
ATOM     65  C   UNL A   1      42.732  30.517  32.065  1.00  0.00     0.074 A 
ATOM     66  C   UNL A   1      42.552  31.476  30.974  1.00  0.00     0.031 C 
ATOM     67  C   UNL A   1      43.659  29.535  32.273  1.00  0.00     0.031 A 
BRANCH  54  68
ATOM     68  C   UNL A   1      45.342  30.722  27.237  1.00  0.00    -0.014 A 
ATOM     69  C   UNL A   1      46.714  30.905  26.963  1.00  0.00     0.010 A 
ATOM     70  C   UNL A   1      44.504  31.844  27.086  1.00  0.00     0.010 A 
ATOM     71  C   UNL A   1      47.234  32.165  26.644  1.00  0.00     0.020 A 
ATOM     72  C   UNL A   1      45.006  33.098  26.726  1.00  0.00     0.020 A 
ATOM     73  C   UNL A   1      46.374  33.259  26.547  1.00  0.00     0.054 A 
BRANCH  73  74
ATOM     74  S   UNL A   1      47.073  34.906  26.276  1.00  0.00     0.124 S 
ATOM     75  O   UNL A   1      47.886  34.696  25.082  1.00  0.00    -0.237 OA
ATOM     76  O   UNL A   1      45.877  35.724  26.093  1.00  0.00    -0.237 OA
ATOM     77  O   UNL A   1      47.820  35.167  27.503  1.00  0.00    -0.744 OA
ENDBRANCH  73  74
ENDBRANCH  54  68
BRANCH  55  78
ATOM     78  C   UNL A   1      38.103  31.550  31.891  1.00  0.00    -0.014 A 
ATOM     79  C   UNL A   1      36.812  31.020  32.057  1.00  0.00     0.010 A 
ATOM     80  C   UNL A   1      38.280  32.930  32.123  1.00  0.00     0.010 A 
ATOM     81  C   UNL A   1      35.752  31.827  32.507  1.00  0.00     0.020 A 
ATOM     82  C   UNL A   1      37.229  33.741  32.567  1.00  0.00     0.020 A 
ATOM     83  C   UNL A   1      35.974  33.178  32.784  1.00  0.00     0.054 A 
BRANCH  83  84
ATOM     84  S   UNL A   1      34.649  34.164  33.545  1.00  0.00     0.124 S 
ATOM     85  O   UNL A   1      35.109  34.291  34.925  1.00  0.00    -0.237 OA
ATOM     86  O   UNL A   1      34.677  35.392  32.755  1.00  0.00    -0.237 OA
ATOM     87  O   UNL A   1      33.456  33.340  33.361  1.00  0.00    -0.744 OA
ENDBRANCH  83  84
ENDBRANCH  55  78
BRANCH  67  88
ATOM     88  C   UNL A   1      43.460  28.584  33.435  1.00  0.00    -0.014 A 
ATOM     89  C   UNL A   1      44.109  28.728  34.678  1.00  0.00     0.010 A 
ATOM     90  C   UNL A   1      42.442  27.621  33.323  1.00  0.00     0.010 A 
ATOM     91  C   UNL A   1      43.760  27.918  35.771  1.00  0.00     0.020 A 
ATOM     92  C   UNL A   1      42.075  26.825  34.412  1.00  0.00     0.020 A 
ATOM     93  C   UNL A   1      42.739  26.973  35.629  1.00  0.00     0.054 A 
BRANCH  93  94
ATOM     94  S   UNL A   1      42.250  25.968  37.060  1.00  0.00     0.124 S 
ATOM     95  O   UNL A   1      40.830  26.278  37.198  1.00  0.00    -0.237 OA
ATOM     96  O   UNL A   1      42.557  24.608  36.622  1.00  0.00    -0.237 OA
ATOM     97  O   UNL A   1      43.098  26.465  38.143  1.00  0.00    -0.744 OA
ENDBRANCH  93  94
ENDBRANCH  67  88
ENDBRANCH  41  42
ENDBRANCH  33  36
ENDBRANCH  31  32
ENDBRANCH   1  31
TORSDOF 16
ENDMDL
MODEL 2
REMARK VINA RESULT:     -12.2      3.276      9.691
REMARK SMILES Cn1c(=O)c2c(nc(Nc3cccc(Cl)c3Cl)n2CC(=O)NCCCNC(=O)c2ccc(-c3c4nc(c(-c5ccc(S(=O)(=O)[O-])cc5)c5ccc([nH]5)c(-c5ccc(S(=O)(=O)[O-])cc5)c5nc(c(-c6ccc(S(=O)(=O)[O-])cc6)c6ccc3[nH]6)C=C5)C=C4)cc2)n(C)c1=O
REMARK SMILES IDX 24 1 23 2 22 3 20 4 21 5 19 7 18 8 1 9 2 10 3 11 91 12 4 13
REMARK SMILES IDX 5 14 89 15 92 16 6 17 90 18 7 19 8 20 9 21 10 23 11 24 16 25
REMARK SMILES IDX 12 26 14 27 17 28 13 29 15 30 25 31 26 32 27 33 28 35 29 36
REMARK SMILES IDX 30 37 88 38 31 39 87 40 32 41 33 42 34 43 81 44 35 45 86 46
REMARK SMILES IDX 80 47 82 48 36 49 85 50 79 51 78 52 37 54 67 55 48 56 66 57
REMARK SMILES IDX 49 58 52 59 65 60 83 61 50 62 51 63 64 65 84 66 53 67 38 68
REMARK SMILES IDX 39 69 47 70 40 71 46 72 41 73 42 74 43 75 44 76 45 77 68 78
REMARK SMILES IDX 69 79 77 80 70 81 76 82 71 83 72 84 73 85 74 86 75 87 54 88
REMARK SMILES IDX 55 89 63 90 56 91 62 92 57 93 58 94 59 95 60 96 61 97
REMARK H PARENT 22 6 9 22 26 34 82 53 52 64
REMARK Flexibility Score: inf
ROOT
ATOM      1  C   UNL A   1      32.603  28.271  26.785  1.00  0.00     0.042 C 
ENDROOT
BRANCH   1   2
ATOM      2  C   UNL A   1      32.920  26.804  26.506  1.00  0.00     0.117 C 
BRANCH   2   3
ATOM      3  N   UNL A   1      31.825  25.908  26.802  1.00  0.00    -0.354 N 
ATOM      4  C   UNL A   1      31.793  24.545  26.712  1.00  0.00     0.240 C 
ATOM      5  O   UNL A   1      30.852  23.971  27.263  1.00  0.00    -0.273 OA
ATOM      6  H   UNL A   1      30.992  26.336  27.108  1.00  0.00     0.163 HD
BRANCH   4   7
ATOM      7  C   UNL A   1      32.945  23.773  26.095  1.00  0.00     0.226 C 
BRANCH   7   8
ATOM      8  N   UNL A   1      32.679  23.148  24.808  1.00  0.00    -0.295 N 
ATOM      9  C   UNL A   1      32.859  18.268  25.732  1.00  0.00     0.159 C 
ATOM     10  N   UNL A   1      32.695  19.429  24.874  1.00  0.00    -0.261 N 
ATOM     11  C   UNL A   1      32.928  20.675  25.478  1.00  0.00     0.282 A 
ATOM     12  C   UNL A   1      32.364  19.224  23.525  1.00  0.00     0.332 A 
ATOM     13  O   UNL A   1      33.329  20.809  26.619  1.00  0.00    -0.267 OA
ATOM     14  C   UNL A   1      32.674  21.778  24.605  1.00  0.00     0.154 A 
ATOM     15  N   UNL A   1      32.184  20.362  22.738  1.00  0.00    -0.279 N 
ATOM     16  O   UNL A   1      32.244  18.092  23.049  1.00  0.00    -0.247 OA
ATOM     17  C   UNL A   1      32.337  21.605  23.304  1.00  0.00     0.170 A 
ATOM     18  C   UNL A   1      31.824  20.236  21.337  1.00  0.00     0.157 C 
ATOM     19  N   UNL A   1      32.180  22.787  22.666  1.00  0.00    -0.194 NA
ATOM     20  C   UNL A   1      32.427  23.725  23.563  1.00  0.00     0.210 A 
BRANCH  20  21
ATOM     21  N   UNL A   1      32.291  25.024  23.211  1.00  0.00    -0.324 N 
ATOM     22  H   UNL A   1      33.113  25.392  22.815  1.00  0.00     0.170 HD
BRANCH  21  23
ATOM     23  C   UNL A   1      31.257  25.976  23.274  1.00  0.00     0.061 A 
ATOM     24  C   UNL A   1      29.979  25.484  23.617  1.00  0.00     0.028 A 
ATOM     25  C   UNL A   1      31.398  27.353  23.021  1.00  0.00     0.083 A 
ATOM     26  C   UNL A   1      28.899  26.339  23.821  1.00  0.00     0.004 A 
ATOM     27  C   UNL A   1      30.307  28.215  23.238  1.00  0.00     0.061 A 
ATOM     28  Cl  UNL A   1      32.898  27.969  22.400  1.00  0.00    -0.080 Cl
ATOM     29  C   UNL A   1      29.070  27.707  23.653  1.00  0.00     0.022 A 
ATOM     30  Cl  UNL A   1      30.420  29.928  23.026  1.00  0.00    -0.083 Cl
ENDBRANCH  21  23
ENDBRANCH  20  21
ENDBRANCH   7   8
ENDBRANCH   4   7
ENDBRANCH   2   3
ENDBRANCH   1   2
BRANCH   1  31
ATOM     31  C   UNL A   1      33.742  28.955  27.515  1.00  0.00     0.118 C 
BRANCH  31  32
ATOM     32  N   UNL A   1      33.584  30.410  27.557  1.00  0.00    -0.352 N 
ATOM     33  C   UNL A   1      34.509  31.344  27.980  1.00  0.00     0.251 C 
ATOM     34  H   UNL A   1      32.719  30.762  27.247  1.00  0.00     0.163 HD
ATOM     35  O   UNL A   1      34.158  32.481  28.271  1.00  0.00    -0.269 OA
BRANCH  33  36
ATOM     36  C   UNL A   1      35.917  30.928  28.079  1.00  0.00     0.039 A 
ATOM     37  C   UNL A   1      36.875  31.743  28.686  1.00  0.00     0.014 A 
ATOM     38  C   UNL A   1      36.246  29.655  27.621  1.00  0.00     0.014 A 
ATOM     39  C   UNL A   1      38.147  31.222  28.910  1.00  0.00     0.010 A 
ATOM     40  C   UNL A   1      37.436  29.090  27.997  1.00  0.00     0.010 A 
ATOM     41  C   UNL A   1      38.414  29.881  28.588  1.00  0.00    -0.014 A 
BRANCH  41  42
ATOM     42  C   UNL A   1      39.694  29.267  28.919  1.00  0.00     0.031 A 
ATOM     43  C   UNL A   1      39.981  29.093  30.368  1.00  0.00     0.074 A 
ATOM     44  C   UNL A   1      40.503  28.717  27.988  1.00  0.00     0.049 A 
ATOM     45  N   UNL A   1      40.849  29.738  31.073  1.00  0.00    -0.248 NA
ATOM     46  C   UNL A   1      39.139  28.180  31.157  1.00  0.00     0.031 C 
ATOM     47  C   UNL A   1      40.268  28.529  26.551  1.00  0.00     0.029 A 
ATOM     48  N   UNL A   1      41.694  28.093  28.176  1.00  0.00    -0.354 N 
ATOM     49  C   UNL A   1      40.811  29.190  32.351  1.00  0.00     0.074 A 
ATOM     50  C   UNL A   1      39.642  28.344  32.384  1.00  0.00     0.031 C 
ATOM     51  C   UNL A   1      41.150  27.631  26.061  1.00  0.00     0.029 A 
ATOM     52  C   UNL A   1      42.124  27.338  27.094  1.00  0.00     0.049 A 
ATOM     53  H   UNL A   1      42.209  28.169  29.011  1.00  0.00     0.167 HD
ATOM     54  C   UNL A   1      41.852  29.326  33.220  1.00  0.00     0.031 A 
ATOM     55  C   UNL A   1      43.202  26.517  27.058  1.00  0.00     0.031 A 
ATOM     56  C   UNL A   1      42.823  30.276  32.738  1.00  0.00     0.049 A 
ATOM     57  C   UNL A   1      44.119  26.975  28.131  1.00  0.00     0.074 A 
ATOM     58  C   UNL A   1      42.800  31.622  32.438  1.00  0.00     0.029 A 
ATOM     59  N   UNL A   1      43.936  29.765  32.107  1.00  0.00    -0.354 N 
ATOM     60  N   UNL A   1      44.710  28.139  28.110  1.00  0.00    -0.248 NA
ATOM     61  C   UNL A   1      44.015  26.356  29.443  1.00  0.00     0.031 C 
ATOM     62  C   UNL A   1      43.593  31.744  31.258  1.00  0.00     0.029 A 
ATOM     63  C   UNL A   1      44.111  30.483  30.952  1.00  0.00     0.049 A 
ATOM     64  H   UNL A   1      44.499  29.023  32.425  1.00  0.00     0.167 HD
ATOM     65  C   UNL A   1      44.654  28.592  29.421  1.00  0.00     0.074 A 
ATOM     66  C   UNL A   1      44.312  27.410  30.211  1.00  0.00     0.031 C 
ATOM     67  C   UNL A   1      44.615  29.927  29.712  1.00  0.00     0.031 A 
BRANCH  54  68
ATOM     68  C   UNL A   1      42.194  28.360  34.326  1.00  0.00    -0.014 A 
ATOM     69  C   UNL A   1      42.263  28.845  35.649  1.00  0.00     0.010 A 
ATOM     70  C   UNL A   1      42.720  27.076  34.085  1.00  0.00     0.010 A 
ATOM     71  C   UNL A   1      42.906  28.120  36.660  1.00  0.00     0.020 A 
ATOM     72  C   UNL A   1      43.326  26.325  35.097  1.00  0.00     0.020 A 
ATOM     73  C   UNL A   1      43.451  26.870  36.369  1.00  0.00     0.054 A 
BRANCH  73  74
ATOM     74  S   UNL A   1      44.403  26.007  37.643  1.00  0.00     0.124 S 
ATOM     75  O   UNL A   1      45.755  26.496  37.391  1.00  0.00    -0.237 OA
ATOM     76  O   UNL A   1      43.775  26.481  38.874  1.00  0.00    -0.237 OA
ATOM     77  O   UNL A   1      44.182  24.596  37.339  1.00  0.00    -0.744 OA
ENDBRANCH  73  74
ENDBRANCH  54  68
BRANCH  55  78
ATOM     78  C   UNL A   1      43.336  25.220  26.352  1.00  0.00    -0.014 A 
ATOM     79  C   UNL A   1      44.179  25.087  25.235  1.00  0.00     0.010 A 
ATOM     80  C   UNL A   1      42.846  24.040  26.948  1.00  0.00     0.010 A 
ATOM     81  C   UNL A   1      44.573  23.818  24.775  1.00  0.00     0.020 A 
ATOM     82  C   UNL A   1      43.229  22.773  26.493  1.00  0.00     0.020 A 
ATOM     83  C   UNL A   1      44.115  22.669  25.423  1.00  0.00     0.054 A 
BRANCH  83  84
ATOM     84  S   UNL A   1      44.780  21.046  24.942  1.00  0.00     0.124 S 
ATOM     85  O   UNL A   1      43.921  20.126  25.681  1.00  0.00    -0.237 OA
ATOM     86  O   UNL A   1      44.602  21.051  23.493  1.00  0.00    -0.237 OA
ATOM     87  O   UNL A   1      46.170  21.095  25.392  1.00  0.00    -0.744 OA
ENDBRANCH  83  84
ENDBRANCH  55  78
BRANCH  67  88
ATOM     88  C   UNL A   1      44.870  30.920  28.597  1.00  0.00    -0.014 A 
ATOM     89  C   UNL A   1      43.874  31.354  27.699  1.00  0.00     0.010 A 
ATOM     90  C   UNL A   1      46.114  31.573  28.578  1.00  0.00     0.010 A 
ATOM     91  C   UNL A   1      44.124  32.399  26.796  1.00  0.00     0.020 A 
ATOM     92  C   UNL A   1      46.365  32.627  27.694  1.00  0.00     0.020 A 
ATOM     93  C   UNL A   1      45.371  33.032  26.803  1.00  0.00     0.054 A 
BRANCH  93  94
ATOM     94  S   UNL A   1      45.673  34.421  25.674  1.00  0.00     0.124 S 
ATOM     95  O   UNL A   1      45.203  35.569  26.446  1.00  0.00    -0.237 OA
ATOM     96  O   UNL A   1      47.117  34.357  25.459  1.00  0.00    -0.237 OA
ATOM     97  O   UNL A   1      44.867  34.097  24.498  1.00  0.00    -0.744 OA
ENDBRANCH  93  94
ENDBRANCH  67  88
ENDBRANCH  41  42
ENDBRANCH  33  36
ENDBRANCH  31  32
ENDBRANCH   1  31
TORSDOF 16
ENDMDL
MODEL 3
REMARK VINA RESULT:     -12.1      3.148      4.827
REMARK SMILES Cn1c(=O)c2c(nc(Nc3cccc(Cl)c3Cl)n2CC(=O)NCCCNC(=O)c2ccc(-c3c4nc(c(-c5ccc(S(=O)(=O)[O-])cc5)c5ccc([nH]5)c(-c5ccc(S(=O)(=O)[O-])cc5)c5nc(c(-c6ccc(S(=O)(=O)[O-])cc6)c6ccc3[nH]6)C=C5)C=C4)cc2)n(C)c1=O
REMARK SMILES IDX 24 1 23 2 22 3 20 4 21 5 19 7 18 8 1 9 2 10 3 11 91 12 4 13
REMARK SMILES IDX 5 14 89 15 92 16 6 17 90 18 7 19 8 20 9 21 10 23 11 24 16 25
REMARK SMILES IDX 12 26 14 27 17 28 13 29 15 30 25 31 26 32 27 33 28 35 29 36
REMARK SMILES IDX 30 37 88 38 31 39 87 40 32 41 33 42 34 43 81 44 35 45 86 46
REMARK SMILES IDX 80 47 82 48 36 49 85 50 79 51 78 52 37 54 67 55 48 56 66 57
REMARK SMILES IDX 49 58 52 59 65 60 83 61 50 62 51 63 64 65 84 66 53 67 38 68
REMARK SMILES IDX 39 69 47 70 40 71 46 72 41 73 42 74 43 75 44 76 45 77 68 78
REMARK SMILES IDX 69 79 77 80 70 81 76 82 71 83 72 84 73 85 74 86 75 87 54 88
REMARK SMILES IDX 55 89 63 90 56 91 62 92 57 93 58 94 59 95 60 96 61 97
REMARK H PARENT 22 6 9 22 26 34 82 53 52 64
REMARK Flexibility Score: inf
ROOT
ATOM      1  C   UNL A   1      37.892  22.504  25.564  1.00  0.00     0.042 C 
ENDROOT
BRANCH   1   2
ATOM      2  C   UNL A   1      37.132  23.721  25.047  1.00  0.00     0.117 C 
BRANCH   2   3
ATOM      3  N   UNL A   1      36.315  23.445  23.886  1.00  0.00    -0.354 N 
ATOM      4  C   UNL A   1      34.992  23.725  23.691  1.00  0.00     0.240 C 
ATOM      5  O   UNL A   1      34.569  23.642  22.536  1.00  0.00    -0.273 OA
ATOM      6  H   UNL A   1      36.771  22.994  23.139  1.00  0.00     0.163 HD
BRANCH   4   7
ATOM      7  C   UNL A   1      34.129  24.261  24.818  1.00  0.00     0.226 C 
BRANCH   7   8
ATOM      8  N   UNL A   1      32.835  24.803  24.429  1.00  0.00    -0.295 N 
ATOM      9  C   UNL A   1      33.145  29.649  25.486  1.00  0.00     0.159 C 
ATOM     10  N   UNL A   1      32.465  28.458  25.007  1.00  0.00    -0.261 N 
ATOM     11  C   UNL A   1      33.165  27.251  25.153  1.00  0.00     0.282 A 
ATOM     12  C   UNL A   1      31.169  28.593  24.482  1.00  0.00     0.332 A 
ATOM     13  O   UNL A   1      34.237  27.156  25.721  1.00  0.00    -0.267 OA
ATOM     14  C   UNL A   1      32.478  26.131  24.592  1.00  0.00     0.154 A 
ATOM     15  N   UNL A   1      30.557  27.434  24.002  1.00  0.00    -0.279 N 
ATOM     16  O   UNL A   1      30.589  29.682  24.450  1.00  0.00    -0.247 OA
ATOM     17  C   UNL A   1      31.234  26.239  24.065  1.00  0.00     0.170 A 
ATOM     18  C   UNL A   1      29.225  27.491  23.429  1.00  0.00     0.157 C 
ATOM     19  N   UNL A   1      30.770  25.047  23.626  1.00  0.00    -0.194 NA
ATOM     20  C   UNL A   1      31.721  24.166  23.883  1.00  0.00     0.210 A 
BRANCH  20  21
ATOM     21  N   UNL A   1      31.548  22.880  23.498  1.00  0.00    -0.324 N 
ATOM     22  H   UNL A   1      30.933  22.799  22.733  1.00  0.00     0.170 HD
BRANCH  21  23
ATOM     23  C   UNL A   1      32.035  21.632  23.926  1.00  0.00     0.061 A 
ATOM     24  C   UNL A   1      32.376  21.533  25.293  1.00  0.00     0.028 A 
ATOM     25  C   UNL A   1      32.210  20.500  23.110  1.00  0.00     0.083 A 
ATOM     26  C   UNL A   1      32.762  20.323  25.862  1.00  0.00     0.004 A 
ATOM     27  C   UNL A   1      32.593  19.276  23.690  1.00  0.00     0.061 A 
ATOM     28  Cl  UNL A   1      32.000  20.633  21.390  1.00  0.00    -0.080 Cl
ATOM     29  C   UNL A   1      32.849  19.189  25.063  1.00  0.00     0.022 A 
ATOM     30  Cl  UNL A   1      32.753  17.821  22.768  1.00  0.00    -0.083 Cl
ENDBRANCH  21  23
ENDBRANCH  20  21
ENDBRANCH   7   8
ENDBRANCH   4   7
ENDBRANCH   2   3
ENDBRANCH   1   2
BRANCH   1  31
ATOM     31  C   UNL A   1      38.972  22.902  26.550  1.00  0.00     0.118 C 
BRANCH  31  32
ATOM     32  N   UNL A   1      40.265  22.289  26.240  1.00  0.00    -0.352 N 
ATOM     33  C   UNL A   1      41.469  22.930  26.023  1.00  0.00     0.251 C 
ATOM     34  H   UNL A   1      40.276  21.307  26.180  1.00  0.00     0.163 HD
ATOM     35  O   UNL A   1      42.392  22.350  25.463  1.00  0.00    -0.269 OA
BRANCH  33  36
ATOM     36  C   UNL A   1      41.601  24.325  26.473  1.00  0.00     0.039 A 
ATOM     37  C   UNL A   1      41.112  25.385  25.708  1.00  0.00     0.014 A 
ATOM     38  C   UNL A   1      42.157  24.546  27.730  1.00  0.00     0.014 A 
ATOM     39  C   UNL A   1      41.104  26.662  26.266  1.00  0.00     0.010 A 
ATOM     40  C   UNL A   1      41.991  25.762  28.337  1.00  0.00     0.010 A 
ATOM     41  C   UNL A   1      41.520  26.839  27.596  1.00  0.00    -0.014 A 
BRANCH  41  42
ATOM     42  C   UNL A   1      41.413  28.137  28.250  1.00  0.00     0.031 A 
ATOM     43  C   UNL A   1      42.488  29.117  27.938  1.00  0.00     0.074 A 
ATOM     44  C   UNL A   1      40.324  28.514  28.954  1.00  0.00     0.049 A 
ATOM     45  N   UNL A   1      43.423  29.525  28.730  1.00  0.00    -0.248 NA
ATOM     46  C   UNL A   1      42.614  29.624  26.563  1.00  0.00     0.031 C 
ATOM     47  C   UNL A   1      39.048  27.810  29.133  1.00  0.00     0.029 A 
ATOM     48  N   UNL A   1      40.096  29.699  29.575  1.00  0.00    -0.354 N 
ATOM     49  C   UNL A   1      44.147  30.485  28.029  1.00  0.00     0.074 A 
ATOM     50  C   UNL A   1      43.701  30.395  26.659  1.00  0.00     0.031 C 
ATOM     51  C   UNL A   1      38.114  28.673  29.590  1.00  0.00     0.029 A 
ATOM     52  C   UNL A   1      38.771  29.923  29.919  1.00  0.00     0.049 A 
ATOM     53  H   UNL A   1      40.813  30.346  29.766  1.00  0.00     0.167 HD
ATOM     54  C   UNL A   1      44.917  31.409  28.669  1.00  0.00     0.031 A 
ATOM     55  C   UNL A   1      38.248  31.065  30.428  1.00  0.00     0.031 A 
ATOM     56  C   UNL A   1      45.060  31.100  30.069  1.00  0.00     0.049 A 
ATOM     57  C   UNL A   1      39.374  31.804  31.053  1.00  0.00     0.074 A 
ATOM     58  C   UNL A   1      45.597  30.049  30.783  1.00  0.00     0.029 A 
ATOM     59  N   UNL A   1      44.233  31.770  30.944  1.00  0.00    -0.354 N 
ATOM     60  N   UNL A   1      40.023  31.359  32.094  1.00  0.00    -0.248 NA
ATOM     61  C   UNL A   1      40.085  32.790  30.254  1.00  0.00     0.031 C 
ATOM     62  C   UNL A   1      44.695  29.850  31.870  1.00  0.00     0.029 A 
ATOM     63  C   UNL A   1      43.706  30.835  31.798  1.00  0.00     0.049 A 
ATOM     64  H   UNL A   1      44.053  32.738  30.954  1.00  0.00     0.167 HD
ATOM     65  C   UNL A   1      41.354  31.660  31.842  1.00  0.00     0.074 A 
ATOM     66  C   UNL A   1      41.317  32.631  30.749  1.00  0.00     0.031 C 
ATOM     67  C   UNL A   1      42.366  30.893  32.347  1.00  0.00     0.031 A 
BRANCH  54  68
ATOM     68  C   UNL A   1      45.252  32.780  28.138  1.00  0.00    -0.014 A 
ATOM     69  C   UNL A   1      46.592  33.066  27.802  1.00  0.00     0.010 A 
ATOM     70  C   UNL A   1      44.366  33.872  28.223  1.00  0.00     0.010 A 
ATOM     71  C   UNL A   1      47.042  34.383  27.647  1.00  0.00     0.020 A 
ATOM     72  C   UNL A   1      44.796  35.188  28.029  1.00  0.00     0.020 A 
ATOM     73  C   UNL A   1      46.140  35.437  27.782  1.00  0.00     0.054 A 
BRANCH  73  74
ATOM     74  S   UNL A   1      46.758  37.137  27.724  1.00  0.00     0.124 S 
ATOM     75  O   UNL A   1      45.985  37.700  26.621  1.00  0.00    -0.237 OA
ATOM     76  O   UNL A   1      46.420  37.636  29.055  1.00  0.00    -0.237 OA
ATOM     77  O   UNL A   1      48.186  36.973  27.468  1.00  0.00    -0.744 OA
ENDBRANCH  73  74
ENDBRANCH  54  68
BRANCH  55  78
ATOM     78  C   UNL A   1      36.919  31.661  30.152  1.00  0.00    -0.014 A 
ATOM     79  C   UNL A   1      36.187  32.300  31.167  1.00  0.00     0.010 A 
ATOM     80  C   UNL A   1      36.492  31.846  28.820  1.00  0.00     0.010 A 
ATOM     81  C   UNL A   1      35.109  33.149  30.856  1.00  0.00     0.020 A 
ATOM     82  C   UNL A   1      35.418  32.685  28.502  1.00  0.00     0.020 A 
ATOM     83  C   UNL A   1      34.748  33.355  29.522  1.00  0.00     0.054 A 
BRANCH  83  84
ATOM     84  S   UNL A   1      33.483  34.598  29.122  1.00  0.00     0.124 S 
ATOM     85  O   UNL A   1      32.864  34.843  30.421  1.00  0.00    -0.237 OA
ATOM     86  O   UNL A   1      34.281  35.698  28.586  1.00  0.00    -0.237 OA
ATOM     87  O   UNL A   1      32.631  33.922  28.145  1.00  0.00    -0.744 OA
ENDBRANCH  83  84
ENDBRANCH  55  78
BRANCH  67  88
ATOM     88  C   UNL A   1      42.030  29.840  33.383  1.00  0.00    -0.014 A 
ATOM     89  C   UNL A   1      41.662  28.519  33.059  1.00  0.00     0.010 A 
ATOM     90  C   UNL A   1      42.277  30.151  34.732  1.00  0.00     0.010 A 
ATOM     91  C   UNL A   1      41.527  27.543  34.059  1.00  0.00     0.020 A 
ATOM     92  C   UNL A   1      42.164  29.179  35.730  1.00  0.00     0.020 A 
ATOM     93  C   UNL A   1      41.783  27.881  35.391  1.00  0.00     0.054 A 
BRANCH  93  94
ATOM     94  S   UNL A   1      41.665  26.603  36.675  1.00  0.00     0.124 S 
ATOM     95  O   UNL A   1      42.926  26.755  37.395  1.00  0.00    -0.237 OA
ATOM     96  O   UNL A   1      40.467  26.995  37.414  1.00  0.00    -0.237 OA
ATOM     97  O   UNL A   1      41.532  25.358  35.917  1.00  0.00    -0.744 OA
ENDBRANCH  93  94
ENDBRANCH  67  88
ENDBRANCH  41  42
ENDBRANCH  33  36
ENDBRANCH  31  32
ENDBRANCH   1  31
TORSDOF 16
ENDMDL
