MODEL 1
REMARK VINA RESULT:     -10.2      0.000      0.000
REMARK SMILES C[C@H]1[C@@H](C(=O)NCCCNC(=O)c2ccc(-c3c4nc(c(-c5ccc(S(=O)(=O)[O-])cc5)c5ccc([nH]5)c(-c5ccc(S(=O)(=O)[O-])cc5)c5nc(c(-c6ccc(S(=O)(=O)[O-])cc6)c6ccc3[nH]6)C=C5)C=C4)cc2)CCN1C(=O)c1cc2cc(F)ccc2s1
REMARK SMILES IDX 8 1 7 2 6 3 4 4 5 5 3 7 1 8 2 9 75 10 73 11 74 12 76 13
REMARK SMILES IDX 77 14 78 15 79 16 87 17 80 18 86 19 81 20 85 21 82 22 84 23
REMARK SMILES IDX 83 24 9 25 10 26 11 27 12 29 13 30 14 31 72 32 15 33 71 34
REMARK SMILES IDX 16 35 17 36 18 37 65 38 19 39 70 40 64 41 66 42 20 43 69 44
REMARK SMILES IDX 63 45 62 46 21 48 51 49 32 50 50 51 33 52 36 53 49 54 67 55
REMARK SMILES IDX 34 56 35 57 48 59 68 60 37 61 22 62 23 63 31 64 24 65 30 66
REMARK SMILES IDX 25 67 26 68 27 69 28 70 29 71 52 72 53 73 61 74 54 75 60 76
REMARK SMILES IDX 55 77 56 78 57 79 58 80 59 81 38 82 39 83 47 84 40 85 46 86
REMARK SMILES IDX 41 87 42 88 43 89 44 90 45 91
REMARK H PARENT 6 6 10 28 66 47 36 58
REMARK Flexibility Score: inf
ROOT
ATOM      1  C   UNL A   1      33.880  34.352  28.230  1.00  0.00     0.042 C 
ENDROOT
BRANCH   1   2
ATOM      2  C   UNL A   1      33.981  35.031  29.596  1.00  0.00     0.117 C 
BRANCH   2   3
ATOM      3  N   UNL A   1      33.661  34.086  30.651  1.00  0.00    -0.356 N 
ATOM      4  C   UNL A   1      34.231  33.867  31.865  1.00  0.00     0.225 C 
ATOM      5  O   UNL A   1      33.818  32.886  32.489  1.00  0.00    -0.275 OA
ATOM      6  H   UNL A   1      32.895  33.502  30.452  1.00  0.00     0.163 HD
BRANCH   4   7
ATOM      7  C   UNL A   1      35.237  34.854  32.460  1.00  0.00     0.102 C 
ATOM      8  C   UNL A   1      37.329  33.767  31.308  1.00  0.00     0.032 C 
ATOM      9  C   UNL A   1      36.729  34.460  32.512  1.00  0.00     0.094 C 
ATOM     10  N   UNL A   1      36.914  33.724  33.764  1.00  0.00    -0.334 N 
ATOM     11  C   UNL A   1      34.948  35.009  33.966  1.00  0.00     0.037 C 
ATOM     12  C   UNL A   1      35.713  33.840  34.575  1.00  0.00     0.121 C 
BRANCH  10  13
ATOM     13  C   UNL A   1      38.139  33.851  34.414  1.00  0.00     0.264 C 
ATOM     14  O   UNL A   1      38.588  34.967  34.682  1.00  0.00    -0.268 OA
BRANCH  13  15
ATOM     15  C   UNL A   1      38.859  32.639  34.753  1.00  0.00     0.093 A 
ATOM     16  C   UNL A   1      38.815  31.449  34.059  1.00  0.00     0.034 A 
ATOM     17  S   UNL A   1      40.048  32.597  35.976  1.00  0.00    -0.130 S 
ATOM     18  C   UNL A   1      39.956  30.623  34.313  1.00  0.00    -0.004 A 
ATOM     19  C   UNL A   1      40.756  31.160  35.326  1.00  0.00     0.035 A 
ATOM     20  C   UNL A   1      40.398  29.458  33.647  1.00  0.00     0.048 A 
ATOM     21  C   UNL A   1      41.985  30.568  35.686  1.00  0.00     0.022 A 
ATOM     22  C   UNL A   1      41.644  28.921  33.957  1.00  0.00     0.123 A 
ATOM     23  C   UNL A   1      42.432  29.461  34.959  1.00  0.00     0.041 A 
ATOM     24  F   UNL A   1      42.105  27.889  33.238  1.00  0.00    -0.207 F 
ENDBRANCH  13  15
ENDBRANCH  10  13
ENDBRANCH   4   7
ENDBRANCH   2   3
ENDBRANCH   1   2
BRANCH   1  25
ATOM     25  C   UNL A   1      34.730  33.093  28.109  1.00  0.00     0.118 C 
BRANCH  25  26
ATOM     26  N   UNL A   1      33.906  31.912  27.938  1.00  0.00    -0.352 N 
ATOM     27  C   UNL A   1      34.268  30.596  27.786  1.00  0.00     0.251 C 
ATOM     28  H   UNL A   1      32.936  32.081  27.930  1.00  0.00     0.163 HD
ATOM     29  O   UNL A   1      33.424  29.801  27.378  1.00  0.00    -0.269 OA
BRANCH  27  30
ATOM     30  C   UNL A   1      35.641  30.117  28.094  1.00  0.00     0.039 A 
ATOM     31  C   UNL A   1      35.932  29.733  29.409  1.00  0.00     0.014 A 
ATOM     32  C   UNL A   1      36.670  30.130  27.146  1.00  0.00     0.014 A 
ATOM     33  C   UNL A   1      37.230  29.348  29.764  1.00  0.00     0.010 A 
ATOM     34  C   UNL A   1      37.947  29.670  27.481  1.00  0.00     0.010 A 
ATOM     35  C   UNL A   1      38.250  29.302  28.801  1.00  0.00    -0.014 A 
BRANCH  35  36
ATOM     36  C   UNL A   1      39.643  28.934  29.175  1.00  0.00     0.031 A 
ATOM     37  C   UNL A   1      40.512  29.914  29.925  1.00  0.00     0.074 A 
ATOM     38  C   UNL A   1      40.145  27.734  28.826  1.00  0.00     0.049 A 
ATOM     39  N   UNL A   1      41.758  29.785  30.312  1.00  0.00    -0.248 NA
ATOM     40  C   UNL A   1      39.912  31.214  30.265  1.00  0.00     0.031 C 
ATOM     41  C   UNL A   1      39.434  26.705  28.065  1.00  0.00     0.029 A 
ATOM     42  N   UNL A   1      41.377  27.178  29.065  1.00  0.00    -0.354 N 
ATOM     43  C   UNL A   1      42.095  30.992  30.914  1.00  0.00     0.074 A 
ATOM     44  C   UNL A   1      40.938  31.854  30.805  1.00  0.00     0.031 C 
ATOM     45  C   UNL A   1      40.232  25.634  27.922  1.00  0.00     0.029 A 
ATOM     46  C   UNL A   1      41.518  25.907  28.558  1.00  0.00     0.049 A 
ATOM     47  H   UNL A   1      42.094  27.644  29.554  1.00  0.00     0.167 HD
ATOM     48  C   UNL A   1      43.253  31.351  31.519  1.00  0.00     0.031 A 
ATOM     49  C   UNL A   1      42.560  25.055  28.601  1.00  0.00     0.031 A 
ATOM     50  C   UNL A   1      44.399  30.493  31.658  1.00  0.00     0.049 A 
ATOM     51  C   UNL A   1      43.820  25.456  29.314  1.00  0.00     0.074 A 
ATOM     52  C   UNL A   1      45.600  30.754  32.296  1.00  0.00     0.029 A 
ATOM     53  N   UNL A   1      44.485  29.203  31.160  1.00  0.00    -0.354 N 
ATOM     54  N   UNL A   1      44.102  26.588  29.912  1.00  0.00    -0.248 NA
ATOM     55  C   UNL A   1      44.897  24.457  29.371  1.00  0.00     0.031 C 
ATOM     56  C   UNL A   1      46.420  29.628  32.164  1.00  0.00     0.029 A 
ATOM     57  C   UNL A   1      45.717  28.655  31.471  1.00  0.00     0.049 A 
ATOM     58  H   UNL A   1      43.772  28.743  30.658  1.00  0.00     0.167 HD
ATOM     59  C   UNL A   1      45.384  26.434  30.428  1.00  0.00     0.074 A 
ATOM     60  C   UNL A   1      45.814  25.093  30.087  1.00  0.00     0.031 C 
ATOM     61  C   UNL A   1      46.136  27.323  31.122  1.00  0.00     0.031 A 
BRANCH  48  62
ATOM     62  C   UNL A   1      43.331  32.747  32.078  1.00  0.00    -0.014 A 
ATOM     63  C   UNL A   1      43.745  33.824  31.274  1.00  0.00     0.010 A 
ATOM     64  C   UNL A   1      42.979  32.986  33.417  1.00  0.00     0.010 A 
ATOM     65  C   UNL A   1      43.856  35.108  31.814  1.00  0.00     0.020 A 
ATOM     66  C   UNL A   1      43.065  34.274  33.956  1.00  0.00     0.020 A 
ATOM     67  C   UNL A   1      43.525  35.322  33.156  1.00  0.00     0.054 A 
BRANCH  67  68
ATOM     68  S   UNL A   1      43.680  36.996  33.839  1.00  0.00     0.124 S 
ATOM     69  O   UNL A   1      44.912  36.890  34.614  1.00  0.00    -0.237 OA
ATOM     70  O   UNL A   1      43.761  37.830  32.643  1.00  0.00    -0.237 OA
ATOM     71  O   UNL A   1      42.459  37.161  34.627  1.00  0.00    -0.744 OA
ENDBRANCH  67  68
ENDBRANCH  48  62
BRANCH  49  72
ATOM     72  C   UNL A   1      42.440  23.717  27.967  1.00  0.00    -0.014 A 
ATOM     73  C   UNL A   1      42.968  23.487  26.685  1.00  0.00     0.010 A 
ATOM     74  C   UNL A   1      41.821  22.658  28.656  1.00  0.00     0.010 A 
ATOM     75  C   UNL A   1      42.875  22.222  26.099  1.00  0.00     0.020 A 
ATOM     76  C   UNL A   1      41.745  21.387  28.080  1.00  0.00     0.020 A 
ATOM     77  C   UNL A   1      42.266  21.179  26.801  1.00  0.00     0.054 A 
BRANCH  77  78
ATOM     78  S   UNL A   1      42.222  19.525  26.056  1.00  0.00     0.124 S 
ATOM     79  O   UNL A   1      40.809  19.382  25.719  1.00  0.00    -0.237 OA
ATOM     80  O   UNL A   1      43.132  19.661  24.922  1.00  0.00    -0.237 OA
ATOM     81  O   UNL A   1      42.704  18.659  27.129  1.00  0.00    -0.744 OA
ENDBRANCH  77  78
ENDBRANCH  49  72
BRANCH  61  82
ATOM     82  C   UNL A   1      47.496  26.868  31.572  1.00  0.00    -0.014 A 
ATOM     83  C   UNL A   1      47.661  26.173  32.783  1.00  0.00     0.010 A 
ATOM     84  C   UNL A   1      48.617  27.110  30.759  1.00  0.00     0.010 A 
ATOM     85  C   UNL A   1      48.931  25.755  33.189  1.00  0.00     0.020 A 
ATOM     86  C   UNL A   1      49.886  26.678  31.153  1.00  0.00     0.020 A 
ATOM     87  C   UNL A   1      50.037  26.017  32.374  1.00  0.00     0.054 A 
BRANCH  87  88
ATOM     88  S   UNL A   1      51.675  25.443  32.903  1.00  0.00     0.124 S 
ATOM     89  O   UNL A   1      52.261  24.995  31.643  1.00  0.00    -0.237 OA
ATOM     90  O   UNL A   1      52.271  26.646  33.481  1.00  0.00    -0.237 OA
ATOM     91  O   UNL A   1      51.375  24.384  33.864  1.00  0.00    -0.744 OA
ENDBRANCH  87  88
ENDBRANCH  61  82
ENDBRANCH  35  36
ENDBRANCH  27  30
ENDBRANCH  25  26
ENDBRANCH   1  25
TORSDOF 15
ENDMDL
MODEL 2
REMARK VINA RESULT:     -10.1      4.674      7.688
REMARK SMILES C[C@H]1[C@@H](C(=O)NCCCNC(=O)c2ccc(-c3c4nc(c(-c5ccc(S(=O)(=O)[O-])cc5)c5ccc([nH]5)c(-c5ccc(S(=O)(=O)[O-])cc5)c5nc(c(-c6ccc(S(=O)(=O)[O-])cc6)c6ccc3[nH]6)C=C5)C=C4)cc2)CCN1C(=O)c1cc2cc(F)ccc2s1
REMARK SMILES IDX 8 1 7 2 6 3 4 4 5 5 3 7 1 8 2 9 75 10 73 11 74 12 76 13
REMARK SMILES IDX 77 14 78 15 79 16 87 17 80 18 86 19 81 20 85 21 82 22 84 23
REMARK SMILES IDX 83 24 9 25 10 26 11 27 12 29 13 30 14 31 72 32 15 33 71 34
REMARK SMILES IDX 16 35 17 36 18 37 65 38 19 39 70 40 64 41 66 42 20 43 69 44
REMARK SMILES IDX 63 45 62 46 21 48 51 49 32 50 50 51 33 52 36 53 49 54 67 55
REMARK SMILES IDX 34 56 35 57 48 59 68 60 37 61 22 62 23 63 31 64 24 65 30 66
REMARK SMILES IDX 25 67 26 68 27 69 28 70 29 71 52 72 53 73 61 74 54 75 60 76
REMARK SMILES IDX 55 77 56 78 57 79 58 80 59 81 38 82 39 83 47 84 40 85 46 86
REMARK SMILES IDX 41 87 42 88 43 89 44 90 45 91
REMARK H PARENT 6 6 10 28 66 47 36 58
REMARK Flexibility Score: inf
ROOT
ATOM      1  C   UNL A   1      34.278  29.549  27.603  1.00  0.00     0.042 C 
ENDROOT
BRANCH   1   2
ATOM      2  C   UNL A   1      33.051  30.033  26.831  1.00  0.00     0.117 C 
BRANCH   2   3
ATOM      3  N   UNL A   1      33.306  29.987  25.403  1.00  0.00    -0.356 N 
ATOM      4  C   UNL A   1      32.864  29.139  24.437  1.00  0.00     0.225 C 
ATOM      5  O   UNL A   1      33.374  29.274  23.322  1.00  0.00    -0.275 OA
ATOM      6  H   UNL A   1      33.904  30.696  25.076  1.00  0.00     0.163 HD
BRANCH   4   7
ATOM      7  C   UNL A   1      31.717  28.162  24.701  1.00  0.00     0.102 C 
ATOM      8  C   UNL A   1      33.242  26.298  25.743  1.00  0.00     0.032 C 
ATOM      9  C   UNL A   1      32.041  26.665  24.901  1.00  0.00     0.094 C 
ATOM     10  N   UNL A   1      32.060  26.070  23.563  1.00  0.00    -0.334 N 
ATOM     11  C   UNL A   1      30.833  28.080  23.441  1.00  0.00     0.037 C 
ATOM     12  C   UNL A   1      31.551  27.032  22.598  1.00  0.00     0.121 C 
BRANCH  10  13
ATOM     13  C   UNL A   1      31.633  24.751  23.436  1.00  0.00     0.264 C 
ATOM     14  O   UNL A   1      30.432  24.492  23.340  1.00  0.00    -0.268 OA
BRANCH  13  15
ATOM     15  C   UNL A   1      32.641  23.707  23.427  1.00  0.00     0.093 A 
ATOM     16  C   UNL A   1      33.970  23.868  23.103  1.00  0.00     0.034 A 
ATOM     17  S   UNL A   1      32.337  22.143  24.036  1.00  0.00    -0.130 S 
ATOM     18  C   UNL A   1      34.796  22.830  23.643  1.00  0.00    -0.004 A 
ATOM     19  C   UNL A   1      34.025  21.823  24.232  1.00  0.00     0.035 A 
ATOM     20  C   UNL A   1      36.204  22.746  23.733  1.00  0.00     0.048 A 
ATOM     21  C   UNL A   1      34.622  20.742  24.912  1.00  0.00     0.022 A 
ATOM     22  C   UNL A   1      36.784  21.716  24.467  1.00  0.00     0.123 A 
ATOM     23  C   UNL A   1      36.012  20.725  25.051  1.00  0.00     0.041 A 
ATOM     24  F   UNL A   1      38.111  21.712  24.647  1.00  0.00    -0.207 F 
ENDBRANCH  13  15
ENDBRANCH  10  13
ENDBRANCH   4   7
ENDBRANCH   2   3
ENDBRANCH   1   2
BRANCH   1  25
ATOM     25  C   UNL A   1      35.258  30.663  27.954  1.00  0.00     0.118 C 
BRANCH  25  26
ATOM     26  N   UNL A   1      35.364  30.843  29.389  1.00  0.00    -0.352 N 
ATOM     27  C   UNL A   1      36.327  30.406  30.266  1.00  0.00     0.251 C 
ATOM     28  H   UNL A   1      34.631  31.357  29.798  1.00  0.00     0.163 HD
ATOM     29  O   UNL A   1      36.075  30.430  31.468  1.00  0.00    -0.269 OA
BRANCH  27  30
ATOM     30  C   UNL A   1      37.647  29.907  29.799  1.00  0.00     0.039 A 
ATOM     31  C   UNL A   1      38.594  29.534  30.761  1.00  0.00     0.014 A 
ATOM     32  C   UNL A   1      38.008  29.890  28.448  1.00  0.00     0.014 A 
ATOM     33  C   UNL A   1      39.877  29.131  30.373  1.00  0.00     0.010 A 
ATOM     34  C   UNL A   1      39.261  29.412  28.056  1.00  0.00     0.010 A 
ATOM     35  C   UNL A   1      40.221  29.055  29.014  1.00  0.00    -0.014 A 
BRANCH  35  36
ATOM     36  C   UNL A   1      41.595  28.667  28.591  1.00  0.00     0.031 A 
ATOM     37  C   UNL A   1      42.699  29.695  28.558  1.00  0.00     0.074 A 
ATOM     38  C   UNL A   1      41.856  27.401  28.211  1.00  0.00     0.049 A 
ATOM     39  N   UNL A   1      43.949  29.554  28.191  1.00  0.00    -0.248 NA
ATOM     40  C   UNL A   1      42.348  31.064  28.969  1.00  0.00     0.031 C 
ATOM     41  C   UNL A   1      40.878  26.313  28.154  1.00  0.00     0.029 A 
ATOM     42  N   UNL A   1      43.028  26.816  27.799  1.00  0.00    -0.354 N 
ATOM     43  C   UNL A   1      44.522  30.816  28.302  1.00  0.00     0.074 A 
ATOM     44  C   UNL A   1      43.475  31.717  28.732  1.00  0.00     0.031 C 
ATOM     45  C   UNL A   1      41.495  25.188  27.756  1.00  0.00     0.029 A 
ATOM     46  C   UNL A   1      42.904  25.478  27.506  1.00  0.00     0.049 A 
ATOM     47  H   UNL A   1      43.877  27.308  27.719  1.00  0.00     0.167 HD
ATOM     48  C   UNL A   1      45.806  31.193  28.085  1.00  0.00     0.031 A 
ATOM     49  C   UNL A   1      43.819  24.583  27.086  1.00  0.00     0.031 A 
ATOM     50  C   UNL A   1      46.860  30.301  27.687  1.00  0.00     0.049 A 
ATOM     51  C   UNL A   1      45.246  25.012  26.894  1.00  0.00     0.074 A 
ATOM     52  C   UNL A   1      48.201  30.584  27.488  1.00  0.00     0.029 A 
ATOM     53  N   UNL A   1      46.698  28.948  27.435  1.00  0.00    -0.354 N 
ATOM     54  N   UNL A   1      45.774  26.203  27.044  1.00  0.00    -0.248 NA
ATOM     55  C   UNL A   1      46.202  23.973  26.489  1.00  0.00     0.031 C 
ATOM     56  C   UNL A   1      48.845  29.405  27.094  1.00  0.00     0.029 A 
ATOM     57  C   UNL A   1      47.909  28.382  27.079  1.00  0.00     0.049 A 
ATOM     58  H   UNL A   1      45.844  28.460  27.500  1.00  0.00     0.167 HD
ATOM     59  C   UNL A   1      47.128  26.053  26.766  1.00  0.00     0.074 A 
ATOM     60  C   UNL A   1      47.340  24.653  26.455  1.00  0.00     0.031 C 
ATOM     61  C   UNL A   1      48.107  26.991  26.767  1.00  0.00     0.031 A 
BRANCH  48  62
ATOM     62  C   UNL A   1      46.134  32.650  28.278  1.00  0.00    -0.014 A 
ATOM     63  C   UNL A   1      46.513  33.143  29.539  1.00  0.00     0.010 A 
ATOM     64  C   UNL A   1      46.072  33.533  27.186  1.00  0.00     0.010 A 
ATOM     65  C   UNL A   1      46.773  34.505  29.717  1.00  0.00     0.020 A 
ATOM     66  C   UNL A   1      46.354  34.892  27.354  1.00  0.00     0.020 A 
ATOM     67  C   UNL A   1      46.681  35.372  28.624  1.00  0.00     0.054 A 
BRANCH  67  68
ATOM     68  S   UNL A   1      47.019  37.137  28.878  1.00  0.00     0.124 S 
ATOM     69  O   UNL A   1      46.702  37.693  27.566  1.00  0.00    -0.237 OA
ATOM     70  O   UNL A   1      46.096  37.495  29.950  1.00  0.00    -0.237 OA
ATOM     71  O   UNL A   1      48.434  37.167  29.243  1.00  0.00    -0.744 OA
ENDBRANCH  67  68
ENDBRANCH  48  62
BRANCH  49  72
ATOM     72  C   UNL A   1      43.411  23.175  26.848  1.00  0.00    -0.014 A 
ATOM     73  C   UNL A   1      43.557  22.598  25.574  1.00  0.00     0.010 A 
ATOM     74  C   UNL A   1      42.902  22.394  27.902  1.00  0.00     0.010 A 
ATOM     75  C   UNL A   1      43.195  21.266  25.356  1.00  0.00     0.020 A 
ATOM     76  C   UNL A   1      42.558  21.056  27.691  1.00  0.00     0.020 A 
ATOM     77  C   UNL A   1      42.700  20.503  26.416  1.00  0.00     0.054 A 
BRANCH  77  78
ATOM     78  S   UNL A   1      42.306  18.754  26.133  1.00  0.00     0.124 S 
ATOM     79  O   UNL A   1      40.901  18.819  25.747  1.00  0.00    -0.237 OA
ATOM     80  O   UNL A   1      43.239  18.385  25.071  1.00  0.00    -0.237 OA
ATOM     81  O   UNL A   1      42.576  18.134  27.429  1.00  0.00    -0.744 OA
ENDBRANCH  77  78
ENDBRANCH  49  72
BRANCH  61  82
ATOM     82  C   UNL A   1      49.500  26.530  26.438  1.00  0.00    -0.014 A 
ATOM     83  C   UNL A   1      50.303  25.908  27.409  1.00  0.00     0.010 A 
ATOM     84  C   UNL A   1      49.997  26.692  25.133  1.00  0.00     0.010 A 
ATOM     85  C   UNL A   1      51.596  25.484  27.089  1.00  0.00     0.020 A 
ATOM     86  C   UNL A   1      51.283  26.253  24.804  1.00  0.00     0.020 A 
ATOM     87  C   UNL A   1      52.079  25.666  25.790  1.00  0.00     0.054 A 
BRANCH  87  88
ATOM     88  S   UNL A   1      53.750  25.084  25.383  1.00  0.00     0.124 S 
ATOM     89  O   UNL A   1      54.019  25.786  24.132  1.00  0.00    -0.237 OA
ATOM     90  O   UNL A   1      54.537  25.524  26.534  1.00  0.00    -0.237 OA
ATOM     91  O   UNL A   1      53.590  23.637  25.266  1.00  0.00    -0.744 OA
ENDBRANCH  87  88
ENDBRANCH  61  82
ENDBRANCH  35  36
ENDBRANCH  27  30
ENDBRANCH  25  26
ENDBRANCH   1  25
TORSDOF 15
ENDMDL
MODEL 3
REMARK VINA RESULT:     -10.0      4.938      8.448
REMARK SMILES C[C@H]1[C@@H](C(=O)NCCCNC(=O)c2ccc(-c3c4nc(c(-c5ccc(S(=O)(=O)[O-])cc5)c5ccc([nH]5)c(-c5ccc(S(=O)(=O)[O-])cc5)c5nc(c(-c6ccc(S(=O)(=O)[O-])cc6)c6ccc3[nH]6)C=C5)C=C4)cc2)CCN1C(=O)c1cc2cc(F)ccc2s1
REMARK SMILES IDX 8 1 7 2 6 3 4 4 5 5 3 7 1 8 2 9 75 10 73 11 74 12 76 13
REMARK SMILES IDX 77 14 78 15 79 16 87 17 80 18 86 19 81 20 85 21 82 22 84 23
REMARK SMILES IDX 83 24 9 25 10 26 11 27 12 29 13 30 14 31 72 32 15 33 71 34
REMARK SMILES IDX 16 35 17 36 18 37 65 38 19 39 70 40 64 41 66 42 20 43 69 44
REMARK SMILES IDX 63 45 62 46 21 48 51 49 32 50 50 51 33 52 36 53 49 54 67 55
REMARK SMILES IDX 34 56 35 57 48 59 68 60 37 61 22 62 23 63 31 64 24 65 30 66
REMARK SMILES IDX 25 67 26 68 27 69 28 70 29 71 52 72 53 73 61 74 54 75 60 76
REMARK SMILES IDX 55 77 56 78 57 79 58 80 59 81 38 82 39 83 47 84 40 85 46 86
REMARK SMILES IDX 41 87 42 88 43 89 44 90 45 91
REMARK H PARENT 6 6 10 28 66 47 36 58
REMARK Flexibility Score: inf
ROOT
ATOM      1  C   UNL A   1      31.673  31.912  26.813  1.00  0.00     0.042 C 
ENDROOT
BRANCH   1   2
ATOM      2  C   UNL A   1      31.853  30.527  26.191  1.00  0.00     0.117 C 
BRANCH   2   3
ATOM      3  N   UNL A   1      31.053  30.411  24.985  1.00  0.00    -0.356 N 
ATOM      4  C   UNL A   1      30.856  29.370  24.134  1.00  0.00     0.225 C 
ATOM      5  O   UNL A   1      30.224  29.623  23.105  1.00  0.00    -0.275 OA
ATOM      6  H   UNL A   1      30.567  31.231  24.741  1.00  0.00     0.163 HD
BRANCH   4   7
ATOM      7  C   UNL A   1      31.295  27.951  24.498  1.00  0.00     0.102 C 
ATOM      8  C   UNL A   1      33.809  28.314  23.840  1.00  0.00     0.032 C 
ATOM      9  C   UNL A   1      32.607  27.397  23.902  1.00  0.00     0.094 C 
ATOM     10  N   UNL A   1      32.251  26.810  22.609  1.00  0.00    -0.334 N 
ATOM     11  C   UNL A   1      30.285  26.950  23.902  1.00  0.00     0.037 C 
ATOM     12  C   UNL A   1      30.803  26.760  22.481  1.00  0.00     0.121 C 
BRANCH  10  13
ATOM     13  C   UNL A   1      32.969  25.693  22.186  1.00  0.00     0.264 C 
ATOM     14  O   UNL A   1      33.463  25.662  21.058  1.00  0.00    -0.268 OA
BRANCH  13  15
ATOM     15  C   UNL A   1      33.104  24.582  23.109  1.00  0.00     0.093 A 
ATOM     16  C   UNL A   1      32.212  23.544  23.263  1.00  0.00     0.034 A 
ATOM     17  S   UNL A   1      34.533  24.307  23.999  1.00  0.00    -0.130 S 
ATOM     18  C   UNL A   1      32.815  22.385  23.849  1.00  0.00    -0.004 A 
ATOM     19  C   UNL A   1      34.123  22.649  24.265  1.00  0.00     0.035 A 
ATOM     20  C   UNL A   1      32.320  21.066  23.965  1.00  0.00     0.048 A 
ATOM     21  C   UNL A   1      34.949  21.632  24.788  1.00  0.00     0.022 A 
ATOM     22  C   UNL A   1      33.163  20.054  24.414  1.00  0.00     0.123 A 
ATOM     23  C   UNL A   1      34.459  20.323  24.821  1.00  0.00     0.041 A 
ATOM     24  F   UNL A   1      32.722  18.789  24.408  1.00  0.00    -0.207 F 
ENDBRANCH  13  15
ENDBRANCH  10  13
ENDBRANCH   4   7
ENDBRANCH   2   3
ENDBRANCH   1   2
BRANCH   1  25
ATOM     25  C   UNL A   1      32.958  32.493  27.393  1.00  0.00     0.118 C 
BRANCH  25  26
ATOM     26  N   UNL A   1      32.778  33.873  27.799  1.00  0.00    -0.352 N 
ATOM     27  C   UNL A   1      33.317  34.560  28.861  1.00  0.00     0.251 C 
ATOM     28  H   UNL A   1      32.176  34.400  27.225  1.00  0.00     0.163 HD
ATOM     29  O   UNL A   1      32.813  35.635  29.177  1.00  0.00    -0.269 OA
BRANCH  27  30
ATOM     30  C   UNL A   1      34.476  34.036  29.629  1.00  0.00     0.039 A 
ATOM     31  C   UNL A   1      35.765  34.344  29.180  1.00  0.00     0.014 A 
ATOM     32  C   UNL A   1      34.325  33.172  30.719  1.00  0.00     0.014 A 
ATOM     33  C   UNL A   1      36.888  33.811  29.825  1.00  0.00     0.010 A 
ATOM     34  C   UNL A   1      35.444  32.704  31.412  1.00  0.00     0.010 A 
ATOM     35  C   UNL A   1      36.739  32.993  30.956  1.00  0.00    -0.014 A 
BRANCH  35  36
ATOM     36  C   UNL A   1      37.923  32.388  31.626  1.00  0.00     0.031 A 
ATOM     37  C   UNL A   1      38.370  32.887  32.977  1.00  0.00     0.074 A 
ATOM     38  C   UNL A   1      38.618  31.406  31.018  1.00  0.00     0.049 A 
ATOM     39  N   UNL A   1      39.393  32.505  33.702  1.00  0.00    -0.248 NA
ATOM     40  C   UNL A   1      37.580  33.971  33.583  1.00  0.00     0.031 C 
ATOM     41  C   UNL A   1      38.325  30.853  29.694  1.00  0.00     0.029 A 
ATOM     42  N   UNL A   1      39.718  30.700  31.437  1.00  0.00    -0.354 N 
ATOM     43  C   UNL A   1      39.382  33.317  34.831  1.00  0.00     0.074 A 
ATOM     44  C   UNL A   1      38.278  34.238  34.676  1.00  0.00     0.031 C 
ATOM     45  C   UNL A   1      39.206  29.877  29.421  1.00  0.00     0.029 A 
ATOM     46  C   UNL A   1      40.141  29.751  30.536  1.00  0.00     0.049 A 
ATOM     47  H   UNL A   1      40.163  30.858  32.301  1.00  0.00     0.167 HD
ATOM     48  C   UNL A   1      40.203  33.292  35.909  1.00  0.00     0.031 A 
ATOM     49  C   UNL A   1      41.163  28.875  30.598  1.00  0.00     0.031 A 
ATOM     50  C   UNL A   1      41.285  32.362  36.087  1.00  0.00     0.049 A 
ATOM     51  C   UNL A   1      42.034  28.834  31.822  1.00  0.00     0.074 A 
ATOM     52  C   UNL A   1      42.142  32.231  37.167  1.00  0.00     0.029 A 
ATOM     53  N   UNL A   1      41.656  31.396  35.165  1.00  0.00    -0.354 N 
ATOM     54  N   UNL A   1      41.980  29.585  32.895  1.00  0.00    -0.248 NA
ATOM     55  C   UNL A   1      43.095  27.817  31.846  1.00  0.00     0.031 C 
ATOM     56  C   UNL A   1      43.045  31.199  36.888  1.00  0.00     0.029 A 
ATOM     57  C   UNL A   1      42.730  30.668  35.647  1.00  0.00     0.049 A 
ATOM     58  H   UNL A   1      41.220  31.250  34.294  1.00  0.00     0.167 HD
ATOM     59  C   UNL A   1      42.991  29.122  33.730  1.00  0.00     0.074 A 
ATOM     60  C   UNL A   1      43.628  28.016  33.044  1.00  0.00     0.031 C 
ATOM     61  C   UNL A   1      43.358  29.574  34.954  1.00  0.00     0.031 A 
BRANCH  48  62
ATOM     62  C   UNL A   1      39.952  34.314  36.985  1.00  0.00    -0.014 A 
ATOM     63  C   UNL A   1      39.153  34.006  38.101  1.00  0.00     0.010 A 
ATOM     64  C   UNL A   1      40.529  35.593  36.886  1.00  0.00     0.010 A 
ATOM     65  C   UNL A   1      38.891  34.976  39.072  1.00  0.00     0.020 A 
ATOM     66  C   UNL A   1      40.288  36.559  37.868  1.00  0.00     0.020 A 
ATOM     67  C   UNL A   1      39.452  36.251  38.943  1.00  0.00     0.054 A 
BRANCH  67  68
ATOM     68  S   UNL A   1      39.095  37.496  40.214  1.00  0.00     0.124 S 
ATOM     69  O   UNL A   1      38.503  36.682  41.271  1.00  0.00    -0.237 OA
ATOM     70  O   UNL A   1      40.414  38.047  40.510  1.00  0.00    -0.237 OA
ATOM     71  O   UNL A   1      38.176  38.416  39.546  1.00  0.00    -0.744 OA
ENDBRANCH  67  68
ENDBRANCH  48  62
BRANCH  49  72
ATOM     72  C   UNL A   1      41.396  27.940  29.468  1.00  0.00    -0.014 A 
ATOM     73  C   UNL A   1      42.462  28.154  28.577  1.00  0.00     0.010 A 
ATOM     74  C   UNL A   1      40.571  26.814  29.295  1.00  0.00     0.010 A 
ATOM     75  C   UNL A   1      42.696  27.261  27.527  1.00  0.00     0.020 A 
ATOM     76  C   UNL A   1      40.815  25.909  28.259  1.00  0.00     0.020 A 
ATOM     77  C   UNL A   1      41.872  26.143  27.376  1.00  0.00     0.054 A 
BRANCH  77  78
ATOM     78  S   UNL A   1      42.236  24.954  26.055  1.00  0.00     0.124 S 
ATOM     79  O   UNL A   1      41.909  25.722  24.858  1.00  0.00    -0.237 OA
ATOM     80  O   UNL A   1      43.655  24.673  26.259  1.00  0.00    -0.237 OA
ATOM     81  O   UNL A   1      41.341  23.837  26.350  1.00  0.00    -0.744 OA
ENDBRANCH  77  78
ENDBRANCH  49  72
BRANCH  61  82
ATOM     82  C   UNL A   1      44.491  28.860  35.638  1.00  0.00    -0.014 A 
ATOM     83  C   UNL A   1      45.823  29.265  35.443  1.00  0.00     0.010 A 
ATOM     84  C   UNL A   1      44.216  27.795  36.513  1.00  0.00     0.010 A 
ATOM     85  C   UNL A   1      46.866  28.593  36.086  1.00  0.00     0.020 A 
ATOM     86  C   UNL A   1      45.255  27.132  37.173  1.00  0.00     0.020 A 
ATOM     87  C   UNL A   1      46.575  27.526  36.942  1.00  0.00     0.054 A 
BRANCH  87  88
ATOM     88  S   UNL A   1      47.940  26.683  37.791  1.00  0.00     0.124 S 
ATOM     89  O   UNL A   1      49.072  26.986  36.921  1.00  0.00    -0.237 OA
ATOM     90  O   UNL A   1      47.960  27.334  39.099  1.00  0.00    -0.237 OA
ATOM     91  O   UNL A   1      47.521  25.283  37.808  1.00  0.00    -0.744 OA
ENDBRANCH  87  88
ENDBRANCH  61  82
ENDBRANCH  35  36
ENDBRANCH  27  30
ENDBRANCH  25  26
ENDBRANCH   1  25
TORSDOF 15
ENDMDL
