MODEL 1
REMARK VINA RESULT:     -10.8      0.000      0.000
REMARK SMILES CC[C@@H](C)N(C)S(=O)(=O)c1cc(C(=O)NCCCNC(=O)c2ccc(-c3c4nc(c(-c5ccc(S(=O)(=O)[O-])cc5)c5ccc([nH]5)c(-c5ccc(S(=O)(=O)[O-])cc5)c5nc(c(-c6ccc(S(=O)(=O)[O-])cc6)c6ccc3[nH]6)C=C5)C=C4)cc2)c(C)cc1C
REMARK SMILES IDX 16 1 15 2 13 3 14 4 12 6 10 7 11 8 85 9 84 10 86 11 82 12
REMARK SMILES IDX 83 13 7 14 8 15 9 16 5 17 6 18 3 19 4 20 2 21 1 22 17 23
REMARK SMILES IDX 18 24 19 25 20 26 21 28 22 29 23 30 81 31 24 32 80 33 25 34
REMARK SMILES IDX 26 35 27 36 74 37 28 38 79 39 73 40 75 41 29 42 78 43 72 44
REMARK SMILES IDX 71 45 30 47 60 48 41 49 59 50 42 51 45 52 58 53 76 54 43 55
REMARK SMILES IDX 44 56 57 58 77 59 46 60 31 61 32 62 40 63 33 64 39 65 34 66
REMARK SMILES IDX 35 67 36 68 37 69 38 70 61 71 62 72 70 73 63 74 69 75 64 76
REMARK SMILES IDX 65 77 66 78 67 79 68 80 47 81 48 82 56 83 49 84 55 85 50 86
REMARK SMILES IDX 51 87 52 88 53 89 54 90
REMARK H PARENT 15 5 19 27 75 46 45 57
REMARK Flexibility Score: inf
ROOT
ATOM      1  C   UNL A   1      31.884  28.087  27.300  1.00  0.00     0.118 C 
ENDROOT
BRANCH   1   2
ATOM      2  N   UNL A   1      30.991  26.969  27.058  1.00  0.00    -0.352 N 
ATOM      3  C   UNL A   1      30.694  26.175  25.984  1.00  0.00     0.251 C 
ATOM      4  O   UNL A   1      29.873  25.280  26.213  1.00  0.00    -0.269 OA
ATOM      5  H   UNL A   1      30.475  26.724  27.858  1.00  0.00     0.163 HD
BRANCH   3   6
ATOM      6  C   UNL A   1      31.279  26.236  24.601  1.00  0.00     0.044 A 
ATOM      7  C   UNL A   1      32.710  24.920  23.050  1.00  0.00     0.086 A 
ATOM      8  C   UNL A   1      32.231  25.214  24.346  1.00  0.00     0.036 A 
ATOM      9  C   UNL A   1      32.279  25.696  21.966  1.00  0.00    -0.031 A 
ATOM     10  C   UNL A   1      31.409  26.765  22.234  1.00  0.00     0.009 A 
ATOM     11  C   UNL A   1      32.614  25.498  20.515  1.00  0.00     0.046 C 
ATOM     12  C   UNL A   1      30.851  27.009  23.507  1.00  0.00    -0.038 A 
ATOM     13  C   UNL A   1      29.740  28.011  23.511  1.00  0.00     0.045 C 
BRANCH   7  14
ATOM     14  S   UNL A   1      33.615  23.382  22.831  1.00  0.00     0.243 S 
ATOM     15  O   UNL A   1      34.994  23.736  22.571  1.00  0.00    -0.207 OA
ATOM     16  O   UNL A   1      32.894  22.584  21.860  1.00  0.00    -0.207 OA
BRANCH  14  17
ATOM     17  N   UNL A   1      33.528  22.531  24.322  1.00  0.00    -0.198 NA
ATOM     18  C   UNL A   1      34.789  22.090  24.951  1.00  0.00     0.124 C 
BRANCH  17  19
ATOM     19  C   UNL A   1      32.464  21.454  24.426  1.00  0.00     0.069 C 
ATOM     20  C   UNL A   1      31.609  21.584  25.691  1.00  0.00     0.026 C 
BRANCH  19  21
ATOM     21  C   UNL A   1      33.061  20.050  24.254  1.00  0.00     0.016 C 
ATOM     22  C   UNL A   1      32.763  19.135  25.438  1.00  0.00     0.005 C 
ENDBRANCH  19  21
ENDBRANCH  17  19
ENDBRANCH  14  17
ENDBRANCH   7  14
ENDBRANCH   3   6
ENDBRANCH   1   2
BRANCH   1  23
ATOM     23  C   UNL A   1      33.304  27.760  26.827  1.00  0.00     0.042 C 
BRANCH  23  24
ATOM     24  C   UNL A   1      34.017  28.894  26.099  1.00  0.00     0.118 C 
BRANCH  24  25
ATOM     25  N   UNL A   1      33.882  30.158  26.801  1.00  0.00    -0.352 N 
ATOM     26  C   UNL A   1      34.660  30.722  27.785  1.00  0.00     0.251 C 
ATOM     27  H   UNL A   1      33.107  30.700  26.528  1.00  0.00     0.163 HD
ATOM     28  O   UNL A   1      34.206  31.680  28.409  1.00  0.00    -0.269 OA
BRANCH  26  29
ATOM     29  C   UNL A   1      36.015  30.208  28.120  1.00  0.00     0.039 A 
ATOM     30  C   UNL A   1      36.232  29.682  29.402  1.00  0.00     0.014 A 
ATOM     31  C   UNL A   1      37.097  30.318  27.242  1.00  0.00     0.014 A 
ATOM     32  C   UNL A   1      37.506  29.244  29.783  1.00  0.00     0.010 A 
ATOM     33  C   UNL A   1      38.350  29.809  27.596  1.00  0.00     0.010 A 
ATOM     34  C   UNL A   1      38.576  29.287  28.878  1.00  0.00    -0.014 A 
BRANCH  34  35
ATOM     35  C   UNL A   1      39.945  28.848  29.269  1.00  0.00     0.031 A 
ATOM     36  C   UNL A   1      40.854  29.789  30.022  1.00  0.00     0.074 A 
ATOM     37  C   UNL A   1      40.393  27.625  28.918  1.00  0.00     0.049 A 
ATOM     38  N   UNL A   1      42.102  29.625  30.379  1.00  0.00    -0.248 NA
ATOM     39  C   UNL A   1      40.290  31.095  30.403  1.00  0.00     0.031 C 
ATOM     40  C   UNL A   1      39.632  26.624  28.169  1.00  0.00     0.029 A 
ATOM     41  N   UNL A   1      41.606  27.020  29.141  1.00  0.00    -0.354 N 
ATOM     42  C   UNL A   1      42.481  30.811  30.999  1.00  0.00     0.074 A 
ATOM     43  C   UNL A   1      41.342  31.701  30.936  1.00  0.00     0.031 C 
ATOM     44  C   UNL A   1      40.388  25.523  28.013  1.00  0.00     0.029 A 
ATOM     45  C   UNL A   1      41.696  25.751  28.619  1.00  0.00     0.049 A 
ATOM     46  H   UNL A   1      42.343  27.454  29.630  1.00  0.00     0.167 HD
ATOM     47  C   UNL A   1      43.660  31.129  31.584  1.00  0.00     0.031 A 
ATOM     48  C   UNL A   1      42.717  24.870  28.622  1.00  0.00     0.031 A 
ATOM     49  C   UNL A   1      44.785  30.238  31.678  1.00  0.00     0.049 A 
ATOM     50  C   UNL A   1      44.010  25.240  29.294  1.00  0.00     0.074 A 
ATOM     51  C   UNL A   1      46.009  30.456  32.288  1.00  0.00     0.029 A 
ATOM     52  N   UNL A   1      44.819  28.952  31.162  1.00  0.00    -0.354 N 
ATOM     53  N   UNL A   1      44.334  26.357  29.900  1.00  0.00    -0.248 NA
ATOM     54  C   UNL A   1      45.073  24.223  29.293  1.00  0.00     0.031 C 
ATOM     55  C   UNL A   1      46.794  29.310  32.117  1.00  0.00     0.029 A 
ATOM     56  C   UNL A   1      46.043  28.366  31.436  1.00  0.00     0.049 A 
ATOM     57  H   UNL A   1      44.083  28.519  30.673  1.00  0.00     0.167 HD
ATOM     58  C   UNL A   1      45.628  26.167  30.375  1.00  0.00     0.074 A 
ATOM     59  C   UNL A   1      46.022  24.826  29.996  1.00  0.00     0.031 C 
ATOM     60  C   UNL A   1      46.417  27.026  31.063  1.00  0.00     0.031 A 
BRANCH  47  61
ATOM     61  C   UNL A   1      43.793  32.507  32.176  1.00  0.00    -0.014 A 
ATOM     62  C   UNL A   1      43.496  32.743  33.530  1.00  0.00     0.010 A 
ATOM     63  C   UNL A   1      44.257  33.571  31.380  1.00  0.00     0.010 A 
ATOM     64  C   UNL A   1      43.622  34.025  34.069  1.00  0.00     0.020 A 
ATOM     65  C   UNL A   1      44.407  34.851  31.922  1.00  0.00     0.020 A 
ATOM     66  C   UNL A   1      44.072  35.074  33.260  1.00  0.00     0.054 A 
BRANCH  66  67
ATOM     67  S   UNL A   1      44.247  36.726  33.989  1.00  0.00     0.124 S 
ATOM     68  O   UNL A   1      42.945  37.320  33.700  1.00  0.00    -0.237 OA
ATOM     69  O   UNL A   1      44.504  36.432  35.397  1.00  0.00    -0.237 OA
ATOM     70  O   UNL A   1      45.373  37.307  33.263  1.00  0.00    -0.744 OA
ENDBRANCH  66  67
ENDBRANCH  47  61
BRANCH  48  71
ATOM     71  C   UNL A   1      42.553  23.538  27.979  1.00  0.00    -0.014 A 
ATOM     72  C   UNL A   1      42.966  23.335  26.651  1.00  0.00     0.010 A 
ATOM     73  C   UNL A   1      41.982  22.468  28.691  1.00  0.00     0.010 A 
ATOM     74  C   UNL A   1      42.791  22.091  26.037  1.00  0.00     0.020 A 
ATOM     75  C   UNL A   1      41.826  21.216  28.088  1.00  0.00     0.020 A 
ATOM     76  C   UNL A   1      42.219  21.040  26.759  1.00  0.00     0.054 A 
BRANCH  76  77
ATOM     77  S   UNL A   1      42.042  19.418  25.962  1.00  0.00     0.124 S 
ATOM     78  O   UNL A   1      40.605  19.359  25.716  1.00  0.00    -0.237 OA
ATOM     79  O   UNL A   1      42.883  19.552  24.776  1.00  0.00    -0.237 OA
ATOM     80  O   UNL A   1      42.545  18.489  26.971  1.00  0.00    -0.744 OA
ENDBRANCH  76  77
ENDBRANCH  48  71
BRANCH  60  81
ATOM     81  C   UNL A   1      47.770  26.532  31.491  1.00  0.00    -0.014 A 
ATOM     82  C   UNL A   1      48.872  26.584  30.619  1.00  0.00     0.010 A 
ATOM     83  C   UNL A   1      47.953  26.058  32.802  1.00  0.00     0.010 A 
ATOM     84  C   UNL A   1      50.127  26.141  31.043  1.00  0.00     0.020 A 
ATOM     85  C   UNL A   1      49.211  25.636  33.236  1.00  0.00     0.020 A 
ATOM     86  C   UNL A   1      50.288  25.667  32.348  1.00  0.00     0.054 A 
BRANCH  86  87
ATOM     87  S   UNL A   1      51.936  25.140  32.894  1.00  0.00     0.124 S 
ATOM     88  O   UNL A   1      51.819  25.233  34.346  1.00  0.00    -0.237 OA
ATOM     89  O   UNL A   1      52.038  23.786  32.356  1.00  0.00    -0.237 OA
ATOM     90  O   UNL A   1      52.833  26.116  32.276  1.00  0.00    -0.744 OA
ENDBRANCH  86  87
ENDBRANCH  60  81
ENDBRANCH  34  35
ENDBRANCH  26  29
ENDBRANCH  24  25
ENDBRANCH  23  24
ENDBRANCH   1  23
TORSDOF 17
ENDMDL
MODEL 2
REMARK VINA RESULT:     -10.8      4.407      9.722
REMARK SMILES CC[C@@H](C)N(C)S(=O)(=O)c1cc(C(=O)NCCCNC(=O)c2ccc(-c3c4nc(c(-c5ccc(S(=O)(=O)[O-])cc5)c5ccc([nH]5)c(-c5ccc(S(=O)(=O)[O-])cc5)c5nc(c(-c6ccc(S(=O)(=O)[O-])cc6)c6ccc3[nH]6)C=C5)C=C4)cc2)c(C)cc1C
REMARK SMILES IDX 16 1 15 2 13 3 14 4 12 6 10 7 11 8 85 9 84 10 86 11 82 12
REMARK SMILES IDX 83 13 7 14 8 15 9 16 5 17 6 18 3 19 4 20 2 21 1 22 17 23
REMARK SMILES IDX 18 24 19 25 20 26 21 28 22 29 23 30 81 31 24 32 80 33 25 34
REMARK SMILES IDX 26 35 27 36 74 37 28 38 79 39 73 40 75 41 29 42 78 43 72 44
REMARK SMILES IDX 71 45 30 47 60 48 41 49 59 50 42 51 45 52 58 53 76 54 43 55
REMARK SMILES IDX 44 56 57 58 77 59 46 60 31 61 32 62 40 63 33 64 39 65 34 66
REMARK SMILES IDX 35 67 36 68 37 69 38 70 61 71 62 72 70 73 63 74 69 75 64 76
REMARK SMILES IDX 65 77 66 78 67 79 68 80 47 81 48 82 56 83 49 84 55 85 50 86
REMARK SMILES IDX 51 87 52 88 53 89 54 90
REMARK H PARENT 15 5 19 27 75 46 45 57
REMARK Flexibility Score: inf
ROOT
ATOM      1  C   UNL A   1      37.432  22.439  25.788  1.00  0.00     0.118 C 
ENDROOT
BRANCH   1   2
ATOM      2  N   UNL A   1      37.382  22.579  24.345  1.00  0.00    -0.352 N 
ATOM      3  C   UNL A   1      36.403  22.837  23.424  1.00  0.00     0.251 C 
ATOM      4  O   UNL A   1      36.798  22.910  22.256  1.00  0.00    -0.269 OA
ATOM      5  H   UNL A   1      38.265  22.458  23.928  1.00  0.00     0.163 HD
BRANCH   3   6
ATOM      6  C   UNL A   1      34.942  23.083  23.676  1.00  0.00     0.044 A 
ATOM      7  C   UNL A   1      33.116  24.654  23.059  1.00  0.00     0.086 A 
ATOM      8  C   UNL A   1      34.485  24.328  23.169  1.00  0.00     0.036 A 
ATOM      9  C   UNL A   1      32.154  23.743  23.516  1.00  0.00    -0.031 A 
ATOM     10  C   UNL A   1      32.611  22.552  24.102  1.00  0.00     0.009 A 
ATOM     11  C   UNL A   1      30.660  23.873  23.422  1.00  0.00     0.046 C 
ATOM     12  C   UNL A   1      33.970  22.175  24.131  1.00  0.00    -0.038 A 
ATOM     13  C   UNL A   1      34.207  20.755  24.539  1.00  0.00     0.045 C 
BRANCH   7  14
ATOM     14  S   UNL A   1      32.683  26.093  22.070  1.00  0.00     0.243 S 
ATOM     15  O   UNL A   1      31.640  25.680  21.157  1.00  0.00    -0.207 OA
ATOM     16  O   UNL A   1      33.914  26.643  21.538  1.00  0.00    -0.207 OA
BRANCH  14  17
ATOM     17  N   UNL A   1      32.048  27.271  23.148  1.00  0.00    -0.198 NA
ATOM     18  C   UNL A   1      32.262  27.082  24.596  1.00  0.00     0.124 C 
BRANCH  17  19
ATOM     19  C   UNL A   1      30.639  27.759  22.866  1.00  0.00     0.069 C 
ATOM     20  C   UNL A   1      30.604  29.189  22.319  1.00  0.00     0.026 C 
BRANCH  19  21
ATOM     21  C   UNL A   1      29.719  27.564  24.080  1.00  0.00     0.016 C 
ATOM     22  C   UNL A   1      28.528  26.660  23.777  1.00  0.00     0.005 C 
ENDBRANCH  19  21
ENDBRANCH  17  19
ENDBRANCH  14  17
ENDBRANCH   7  14
ENDBRANCH   3   6
ENDBRANCH   1   2
BRANCH   1  23
ATOM     23  C   UNL A   1      37.886  23.747  26.445  1.00  0.00     0.042 C 
BRANCH  23  24
ATOM     24  C   UNL A   1      39.319  23.742  26.965  1.00  0.00     0.118 C 
BRANCH  24  25
ATOM     25  N   UNL A   1      40.230  24.402  26.046  1.00  0.00    -0.352 N 
ATOM     26  C   UNL A   1      40.802  25.651  26.096  1.00  0.00     0.251 C 
ATOM     27  H   UNL A   1      40.480  23.866  25.259  1.00  0.00     0.163 HD
ATOM     28  O   UNL A   1      41.336  26.089  25.078  1.00  0.00    -0.269 OA
BRANCH  26  29
ATOM     29  C   UNL A   1      40.786  26.485  27.329  1.00  0.00     0.039 A 
ATOM     30  C   UNL A   1      39.860  26.172  28.334  1.00  0.00     0.014 A 
ATOM     31  C   UNL A   1      41.589  27.618  27.478  1.00  0.00     0.014 A 
ATOM     32  C   UNL A   1      39.766  26.965  29.485  1.00  0.00     0.010 A 
ATOM     33  C   UNL A   1      41.549  28.363  28.660  1.00  0.00     0.010 A 
ATOM     34  C   UNL A   1      40.622  28.060  29.668  1.00  0.00    -0.014 A 
BRANCH  34  35
ATOM     35  C   UNL A   1      40.524  28.932  30.873  1.00  0.00     0.031 A 
ATOM     36  C   UNL A   1      39.483  30.023  30.933  1.00  0.00     0.074 A 
ATOM     37  C   UNL A   1      41.388  28.777  31.896  1.00  0.00     0.049 A 
ATOM     38  N   UNL A   1      39.292  30.935  31.853  1.00  0.00    -0.248 NA
ATOM     39  C   UNL A   1      38.550  30.116  29.797  1.00  0.00     0.031 C 
ATOM     40  C   UNL A   1      42.459  27.780  31.961  1.00  0.00     0.029 A 
ATOM     41  N   UNL A   1      41.506  29.466  33.078  1.00  0.00    -0.354 N 
ATOM     42  C   UNL A   1      38.241  31.723  31.397  1.00  0.00     0.074 A 
ATOM     43  C   UNL A   1      37.859  31.206  30.100  1.00  0.00     0.031 C 
ATOM     44  C   UNL A   1      43.110  27.909  33.129  1.00  0.00     0.029 A 
ATOM     45  C   UNL A   1      42.529  29.016  33.882  1.00  0.00     0.049 A 
ATOM     46  H   UNL A   1      40.914  30.212  33.328  1.00  0.00     0.167 HD
ATOM     47  C   UNL A   1      37.633  32.770  32.004  1.00  0.00     0.031 A 
ATOM     48  C   UNL A   1      42.954  29.448  35.085  1.00  0.00     0.031 A 
ATOM     49  C   UNL A   1      37.986  33.267  33.307  1.00  0.00     0.049 A 
ATOM     50  C   UNL A   1      42.251  30.601  35.749  1.00  0.00     0.074 A 
ATOM     51  C   UNL A   1      37.401  34.298  34.023  1.00  0.00     0.029 A 
ATOM     52  N   UNL A   1      39.006  32.761  34.096  1.00  0.00    -0.354 N 
ATOM     53  N   UNL A   1      41.239  31.311  35.311  1.00  0.00    -0.248 NA
ATOM     54  C   UNL A   1      42.741  31.003  37.076  1.00  0.00     0.031 C 
ATOM     55  C   UNL A   1      38.086  34.432  35.236  1.00  0.00     0.029 A 
ATOM     56  C   UNL A   1      39.071  33.459  35.289  1.00  0.00     0.049 A 
ATOM     57  H   UNL A   1      39.599  32.016  33.845  1.00  0.00     0.167 HD
ATOM     58  C   UNL A   1      40.955  32.225  36.320  1.00  0.00     0.074 A 
ATOM     59  C   UNL A   1      41.894  31.971  37.393  1.00  0.00     0.031 C 
ATOM     60  C   UNL A   1      40.002  33.187  36.353  1.00  0.00     0.031 A 
BRANCH  47  61
ATOM     61  C   UNL A   1      36.512  33.448  31.263  1.00  0.00    -0.014 A 
ATOM     62  C   UNL A   1      35.248  33.613  31.858  1.00  0.00     0.010 A 
ATOM     63  C   UNL A   1      36.735  33.962  29.973  1.00  0.00     0.010 A 
ATOM     64  C   UNL A   1      34.215  34.243  31.161  1.00  0.00     0.020 A 
ATOM     65  C   UNL A   1      35.710  34.616  29.281  1.00  0.00     0.020 A 
ATOM     66  C   UNL A   1      34.450  34.736  29.873  1.00  0.00     0.054 A 
BRANCH  66  67
ATOM     67  S   UNL A   1      33.099  35.571  28.997  1.00  0.00     0.124 S 
ATOM     68  O   UNL A   1      32.312  36.109  30.105  1.00  0.00    -0.237 OA
ATOM     69  O   UNL A   1      33.801  36.562  28.187  1.00  0.00    -0.237 OA
ATOM     70  O   UNL A   1      32.458  34.496  28.244  1.00  0.00    -0.744 OA
ENDBRANCH  66  67
ENDBRANCH  47  61
BRANCH  48  71
ATOM     71  C   UNL A   1      44.100  28.776  35.756  1.00  0.00    -0.014 A 
ATOM     72  C   UNL A   1      43.879  27.695  36.627  1.00  0.00     0.010 A 
ATOM     73  C   UNL A   1      45.417  29.215  35.529  1.00  0.00     0.010 A 
ATOM     74  C   UNL A   1      44.951  27.077  37.277  1.00  0.00     0.020 A 
ATOM     75  C   UNL A   1      46.494  28.586  36.159  1.00  0.00     0.020 A 
ATOM     76  C   UNL A   1      46.253  27.529  37.040  1.00  0.00     0.054 A 
BRANCH  76  77
ATOM     77  S   UNL A   1      47.639  26.686  37.856  1.00  0.00     0.124 S 
ATOM     78  O   UNL A   1      48.789  27.267  37.173  1.00  0.00    -0.237 OA
ATOM     79  O   UNL A   1      47.469  27.073  39.254  1.00  0.00    -0.237 OA
ATOM     80  O   UNL A   1      47.388  25.274  37.575  1.00  0.00    -0.744 OA
ENDBRANCH  76  77
ENDBRANCH  48  71
BRANCH  60  81
ATOM     81  C   UNL A   1      39.895  34.012  37.605  1.00  0.00    -0.014 A 
ATOM     82  C   UNL A   1      40.628  35.201  37.758  1.00  0.00     0.010 A 
ATOM     83  C   UNL A   1      39.007  33.616  38.622  1.00  0.00     0.010 A 
ATOM     84  C   UNL A   1      40.497  35.966  38.920  1.00  0.00     0.020 A 
ATOM     85  C   UNL A   1      38.857  34.389  39.775  1.00  0.00     0.020 A 
ATOM     86  C   UNL A   1      39.614  35.553  39.922  1.00  0.00     0.054 A 
BRANCH  86  87
ATOM     87  S   UNL A   1      39.424  36.584  41.403  1.00  0.00     0.124 S 
ATOM     88  O   UNL A   1      38.936  37.839  40.839  1.00  0.00    -0.237 OA
ATOM     89  O   UNL A   1      38.456  35.833  42.199  1.00  0.00    -0.237 OA
ATOM     90  O   UNL A   1      40.773  36.635  41.964  1.00  0.00    -0.744 OA
ENDBRANCH  86  87
ENDBRANCH  60  81
ENDBRANCH  34  35
ENDBRANCH  26  29
ENDBRANCH  24  25
ENDBRANCH  23  24
ENDBRANCH   1  23
TORSDOF 17
ENDMDL
MODEL 3
REMARK VINA RESULT:     -10.7      4.135     10.189
REMARK SMILES CC[C@@H](C)N(C)S(=O)(=O)c1cc(C(=O)NCCCNC(=O)c2ccc(-c3c4nc(c(-c5ccc(S(=O)(=O)[O-])cc5)c5ccc([nH]5)c(-c5ccc(S(=O)(=O)[O-])cc5)c5nc(c(-c6ccc(S(=O)(=O)[O-])cc6)c6ccc3[nH]6)C=C5)C=C4)cc2)c(C)cc1C
REMARK SMILES IDX 16 1 15 2 13 3 14 4 12 6 10 7 11 8 85 9 84 10 86 11 82 12
REMARK SMILES IDX 83 13 7 14 8 15 9 16 5 17 6 18 3 19 4 20 2 21 1 22 17 23
REMARK SMILES IDX 18 24 19 25 20 26 21 28 22 29 23 30 81 31 24 32 80 33 25 34
REMARK SMILES IDX 26 35 27 36 74 37 28 38 79 39 73 40 75 41 29 42 78 43 72 44
REMARK SMILES IDX 71 45 30 47 60 48 41 49 59 50 42 51 45 52 58 53 76 54 43 55
REMARK SMILES IDX 44 56 57 58 77 59 46 60 31 61 32 62 40 63 33 64 39 65 34 66
REMARK SMILES IDX 35 67 36 68 37 69 38 70 61 71 62 72 70 73 63 74 69 75 64 76
REMARK SMILES IDX 65 77 66 78 67 79 68 80 47 81 48 82 56 83 49 84 55 85 50 86
REMARK SMILES IDX 51 87 52 88 53 89 54 90
REMARK H PARENT 15 5 19 27 75 46 45 57
REMARK Flexibility Score: inf
ROOT
ATOM      1  C   UNL A   1      38.040  23.644  26.117  1.00  0.00     0.118 C 
ENDROOT
BRANCH   1   2
ATOM      2  N   UNL A   1      37.506  23.558  24.771  1.00  0.00    -0.352 N 
ATOM      3  C   UNL A   1      36.274  23.319  24.225  1.00  0.00     0.251 C 
ATOM      4  O   UNL A   1      36.237  23.369  22.991  1.00  0.00    -0.269 OA
ATOM      5  H   UNL A   1      38.197  23.707  24.086  1.00  0.00     0.163 HD
BRANCH   3   6
ATOM      6  C   UNL A   1      34.981  23.057  24.944  1.00  0.00     0.044 A 
ATOM      7  C   UNL A   1      32.890  24.210  25.636  1.00  0.00     0.086 A 
ATOM      8  C   UNL A   1      34.236  24.236  25.210  1.00  0.00     0.036 A 
ATOM      9  C   UNL A   1      32.264  22.977  25.862  1.00  0.00    -0.031 A 
ATOM     10  C   UNL A   1      33.031  21.815  25.687  1.00  0.00     0.009 A 
ATOM     11  C   UNL A   1      30.830  22.740  26.244  1.00  0.00     0.046 C 
ATOM     12  C   UNL A   1      34.345  21.825  25.173  1.00  0.00    -0.038 A 
ATOM     13  C   UNL A   1      34.871  20.474  24.801  1.00  0.00     0.045 C 
BRANCH   7  14
ATOM     14  S   UNL A   1      31.973  25.757  25.578  1.00  0.00     0.243 S 
ATOM     15  O   UNL A   1      31.422  25.972  26.897  1.00  0.00    -0.207 OA
ATOM     16  O   UNL A   1      31.079  25.692  24.439  1.00  0.00    -0.207 OA
BRANCH  14  17
ATOM     17  N   UNL A   1      33.109  27.001  25.237  1.00  0.00    -0.198 NA
ATOM     18  C   UNL A   1      33.632  27.799  26.363  1.00  0.00     0.124 C 
BRANCH  17  19
ATOM     19  C   UNL A   1      32.807  27.884  24.039  1.00  0.00     0.069 C 
ATOM     20  C   UNL A   1      34.025  28.095  23.135  1.00  0.00     0.026 C 
BRANCH  19  21
ATOM     21  C   UNL A   1      32.146  29.204  24.462  1.00  0.00     0.016 C 
ATOM     22  C   UNL A   1      30.678  29.284  24.054  1.00  0.00     0.005 C 
ENDBRANCH  19  21
ENDBRANCH  17  19
ENDBRANCH  14  17
ENDBRANCH   7  14
ENDBRANCH   3   6
ENDBRANCH   1   2
BRANCH   1  23
ATOM     23  C   UNL A   1      39.083  22.548  26.359  1.00  0.00     0.042 C 
BRANCH  23  24
ATOM     24  C   UNL A   1      40.356  23.013  27.056  1.00  0.00     0.118 C 
BRANCH  24  25
ATOM     25  N   UNL A   1      41.260  23.684  26.139  1.00  0.00    -0.352 N 
ATOM     26  C   UNL A   1      41.651  25.001  26.071  1.00  0.00     0.251 C 
ATOM     27  H   UNL A   1      41.660  23.101  25.453  1.00  0.00     0.163 HD
ATOM     28  O   UNL A   1      42.223  25.388  25.053  1.00  0.00    -0.269 OA
BRANCH  26  29
ATOM     29  C   UNL A   1      41.396  25.964  27.176  1.00  0.00     0.039 A 
ATOM     30  C   UNL A   1      42.210  27.103  27.270  1.00  0.00     0.014 A 
ATOM     31  C   UNL A   1      40.446  25.728  28.173  1.00  0.00     0.014 A 
ATOM     32  C   UNL A   1      42.048  28.005  28.329  1.00  0.00     0.010 A 
ATOM     33  C   UNL A   1      40.234  26.668  29.185  1.00  0.00     0.010 A 
ATOM     34  C   UNL A   1      41.046  27.806  29.289  1.00  0.00    -0.014 A 
BRANCH  34  35
ATOM     35  C   UNL A   1      40.872  28.741  30.436  1.00  0.00     0.031 A 
ATOM     36  C   UNL A   1      41.764  28.623  31.648  1.00  0.00     0.074 A 
ATOM     37  C   UNL A   1      39.892  29.667  30.416  1.00  0.00     0.049 A 
ATOM     38  N   UNL A   1      41.718  29.285  32.777  1.00  0.00    -0.248 NA
ATOM     39  C   UNL A   1      42.834  27.613  31.591  1.00  0.00     0.031 C 
ATOM     40  C   UNL A   1      38.942  29.875  29.322  1.00  0.00     0.029 A 
ATOM     41  N   UNL A   1      39.529  30.604  31.352  1.00  0.00    -0.354 N 
ATOM     42  C   UNL A   1      42.729  28.755  33.572  1.00  0.00     0.074 A 
ATOM     43  C   UNL A   1      43.348  27.691  32.811  1.00  0.00     0.031 C 
ATOM     44  C   UNL A   1      38.119  30.889  29.640  1.00  0.00     0.029 A 
ATOM     45  C   UNL A   1      38.458  31.380  30.972  1.00  0.00     0.049 A 
ATOM     46  H   UNL A   1      39.991  30.711  32.215  1.00  0.00     0.167 HD
ATOM     47  C   UNL A   1      43.122  29.127  34.813  1.00  0.00     0.031 A 
ATOM     48  C   UNL A   1      37.819  32.373  31.623  1.00  0.00     0.031 A 
ATOM     49  C   UNL A   1      42.531  30.204  35.562  1.00  0.00     0.049 A 
ATOM     50  C   UNL A   1      38.285  32.780  32.993  1.00  0.00     0.074 A 
ATOM     51  C   UNL A   1      42.889  30.681  36.811  1.00  0.00     0.029 A 
ATOM     52  N   UNL A   1      41.472  30.981  35.124  1.00  0.00    -0.354 N 
ATOM     53  N   UNL A   1      39.264  32.284  33.712  1.00  0.00    -0.248 NA
ATOM     54  C   UNL A   1      37.568  33.891  33.636  1.00  0.00     0.031 C 
ATOM     55  C   UNL A   1      42.025  31.733  37.141  1.00  0.00     0.029 A 
ATOM     56  C   UNL A   1      41.159  31.933  36.079  1.00  0.00     0.049 A 
ATOM     57  H   UNL A   1      41.009  30.873  34.262  1.00  0.00     0.167 HD
ATOM     58  C   UNL A   1      39.296  33.040  34.879  1.00  0.00     0.074 A 
ATOM     59  C   UNL A   1      38.247  34.033  34.765  1.00  0.00     0.031 C 
ATOM     60  C   UNL A   1      40.120  32.922  35.947  1.00  0.00     0.031 A 
BRANCH  47  61
ATOM     61  C   UNL A   1      44.254  28.360  35.442  1.00  0.00    -0.014 A 
ATOM     62  C   UNL A   1      44.024  27.134  36.092  1.00  0.00     0.010 A 
ATOM     63  C   UNL A   1      45.570  28.850  35.348  1.00  0.00     0.010 A 
ATOM     64  C   UNL A   1      45.083  26.432  36.673  1.00  0.00     0.020 A 
ATOM     65  C   UNL A   1      46.636  28.137  35.907  1.00  0.00     0.020 A 
ATOM     66  C   UNL A   1      46.383  26.940  36.582  1.00  0.00     0.054 A 
BRANCH  66  67
ATOM     67  S   UNL A   1      47.743  25.998  37.325  1.00  0.00     0.124 S 
ATOM     68  O   UNL A   1      48.877  26.410  36.502  1.00  0.00    -0.237 OA
ATOM     69  O   UNL A   1      47.759  26.483  38.702  1.00  0.00    -0.237 OA
ATOM     70  O   UNL A   1      47.328  24.606  37.163  1.00  0.00    -0.744 OA
ENDBRANCH  66  67
ENDBRANCH  47  61
BRANCH  48  71
ATOM     71  C   UNL A   1      36.671  33.067  30.978  1.00  0.00    -0.014 A 
ATOM     72  C   UNL A   1      35.380  32.962  31.523  1.00  0.00     0.010 A 
ATOM     73  C   UNL A   1      36.864  33.835  29.815  1.00  0.00     0.010 A 
ATOM     74  C   UNL A   1      34.296  33.593  30.905  1.00  0.00     0.020 A 
ATOM     75  C   UNL A   1      35.787  34.486  29.207  1.00  0.00     0.020 A 
ATOM     76  C   UNL A   1      34.507  34.350  29.749  1.00  0.00     0.054 A 
BRANCH  76  77
ATOM     77  S   UNL A   1      33.097  35.201  28.986  1.00  0.00     0.124 S 
ATOM     78  O   UNL A   1      32.227  35.434  30.133  1.00  0.00    -0.237 OA
ATOM     79  O   UNL A   1      33.717  36.391  28.409  1.00  0.00    -0.237 OA
ATOM     80  O   UNL A   1      32.605  34.232  28.010  1.00  0.00    -0.744 OA
ENDBRANCH  76  77
ENDBRANCH  48  71
BRANCH  60  81
ATOM     81  C   UNL A   1      39.953  33.915  37.063  1.00  0.00    -0.014 A 
ATOM     82  C   UNL A   1      40.665  35.127  37.070  1.00  0.00     0.010 A 
ATOM     83  C   UNL A   1      39.031  33.653  38.092  1.00  0.00     0.010 A 
ATOM     84  C   UNL A   1      40.478  36.048  38.104  1.00  0.00     0.020 A 
ATOM     85  C   UNL A   1      38.827  34.580  39.116  1.00  0.00     0.020 A 
ATOM     86  C   UNL A   1      39.562  35.767  39.122  1.00  0.00     0.054 A 
BRANCH  86  87
ATOM     87  S   UNL A   1      39.302  36.996  40.432  1.00  0.00     0.124 S 
ATOM     88  O   UNL A   1      38.565  38.039  39.726  1.00  0.00    -0.237 OA
ATOM     89  O   UNL A   1      38.537  36.250  41.428  1.00  0.00    -0.237 OA
ATOM     90  O   UNL A   1      40.658  37.357  40.841  1.00  0.00    -0.744 OA
ENDBRANCH  86  87
ENDBRANCH  60  81
ENDBRANCH  34  35
ENDBRANCH  26  29
ENDBRANCH  24  25
ENDBRANCH  23  24
ENDBRANCH   1  23
TORSDOF 17
ENDMDL
