MODEL 1
REMARK VINA RESULT:     -10.7      0.000      0.000
REMARK SMILES CCC(CC)NC(=O)N[C@@H]1C=C[C@@H](C(=O)NCCCNC(=O)c2ccc(-c3c4nc(c(-c5ccc(S(=O)(=O)[O-])cc5)c5ccc([nH]5)c(-c5ccc(S(=O)(=O)[O-])cc5)c5nc(c(-c6ccc(S(=O)(=O)[O-])cc6)c6ccc3[nH]6)C=C5)C=C4)cc2)C1
REMARK SMILES IDX 18 1 17 2 16 3 14 4 15 5 13 7 10 8 11 9 83 10 12 11 9 12
REMARK SMILES IDX 6 13 7 14 8 16 3 18 2 19 1 20 4 21 5 22 19 23 20 24 21 25
REMARK SMILES IDX 22 27 23 28 24 29 82 30 25 31 81 32 26 33 27 34 28 35 75 36
REMARK SMILES IDX 29 37 80 38 74 39 76 40 30 41 79 42 73 43 72 44 31 46 61 47
REMARK SMILES IDX 42 48 60 49 43 50 46 51 59 52 77 53 44 54 45 55 58 57 78 58
REMARK SMILES IDX 47 59 32 60 33 61 41 62 34 63 40 64 35 65 36 66 37 67 38 68
REMARK SMILES IDX 39 69 62 70 63 71 71 72 64 73 70 74 65 75 66 76 67 77 68 78
REMARK SMILES IDX 69 79 48 80 49 81 57 82 50 83 56 84 51 85 52 86 53 87 54 88
REMARK SMILES IDX 55 89
REMARK H PARENT 16 6 6 15 9 17 20 26 76 45 46 56
REMARK Flexibility Score: inf
ROOT
ATOM      1  C   UNL A   1      38.524  19.804  25.036  1.00  0.00     0.042 C 
ENDROOT
BRANCH   1   2
ATOM      2  C   UNL A   1      37.278  20.652  25.044  1.00  0.00     0.117 C 
BRANCH   2   3
ATOM      3  N   UNL A   1      37.456  21.804  24.179  1.00  0.00    -0.356 N 
ATOM      4  C   UNL A   1      36.529  22.650  23.670  1.00  0.00     0.227 C 
ATOM      5  O   UNL A   1      36.858  23.368  22.721  1.00  0.00    -0.274 OA
ATOM      6  H   UNL A   1      38.388  21.999  23.927  1.00  0.00     0.163 HD
BRANCH   4   7
ATOM      7  C   UNL A   1      35.153  22.768  24.293  1.00  0.00     0.103 C 
ATOM      8  C   UNL A   1      33.259  24.170  24.841  1.00  0.00     0.107 C 
ATOM      9  C   UNL A   1      32.962  23.360  23.635  1.00  0.00    -0.006 C 
ATOM     10  C   UNL A   1      34.789  24.072  24.988  1.00  0.00     0.047 C 
ATOM     11  C   UNL A   1      34.005  22.578  23.324  1.00  0.00    -0.016 C 
BRANCH   8  12
ATOM     12  N   UNL A   1      32.451  23.790  26.004  1.00  0.00    -0.332 N 
ATOM     13  N   UNL A   1      30.548  25.133  26.608  1.00  0.00    -0.335 N 
ATOM     14  C   UNL A   1      31.363  24.078  26.721  1.00  0.00     0.315 C 
ATOM     15  H   UNL A   1      29.787  25.100  27.233  1.00  0.00     0.165 HD
ATOM     16  O   UNL A   1      31.085  23.272  27.619  1.00  0.00    -0.249 OA
ATOM     17  H   UNL A   1      32.883  23.011  26.423  1.00  0.00     0.165 HD
BRANCH  13  18
ATOM     18  C   UNL A   1      30.542  26.313  25.771  1.00  0.00     0.083 C 
BRANCH  18  19
ATOM     19  C   UNL A   1      31.739  27.248  25.999  1.00  0.00     0.021 C 
ATOM     20  C   UNL A   1      31.715  27.905  27.381  1.00  0.00     0.006 C 
ENDBRANCH  18  19
BRANCH  18  21
ATOM     21  C   UNL A   1      30.146  26.033  24.314  1.00  0.00     0.021 C 
ATOM     22  C   UNL A   1      28.847  26.673  23.865  1.00  0.00     0.006 C 
ENDBRANCH  18  21
ENDBRANCH  13  18
ENDBRANCH   8  12
ENDBRANCH   4   7
ENDBRANCH   2   3
ENDBRANCH   1   2
BRANCH   1  23
ATOM     23  C   UNL A   1      39.480  20.248  26.120  1.00  0.00     0.118 C 
BRANCH  23  24
ATOM     24  N   UNL A   1      40.690  19.428  26.127  1.00  0.00    -0.352 N 
ATOM     25  C   UNL A   1      41.999  19.841  26.089  1.00  0.00     0.251 C 
ATOM     26  H   UNL A   1      40.549  18.455  26.163  1.00  0.00     0.163 HD
ATOM     27  O   UNL A   1      42.892  19.065  25.757  1.00  0.00    -0.269 OA
BRANCH  25  28
ATOM     28  C   UNL A   1      42.294  21.240  26.440  1.00  0.00     0.039 A 
ATOM     29  C   UNL A   1      42.614  21.585  27.752  1.00  0.00     0.014 A 
ATOM     30  C   UNL A   1      42.320  22.196  25.424  1.00  0.00     0.014 A 
ATOM     31  C   UNL A   1      43.034  22.887  28.022  1.00  0.00     0.010 A 
ATOM     32  C   UNL A   1      42.897  23.428  25.664  1.00  0.00     0.010 A 
ATOM     33  C   UNL A   1      43.219  23.804  26.973  1.00  0.00    -0.014 A 
BRANCH  33  34
ATOM     34  C   UNL A   1      43.693  25.186  27.207  1.00  0.00     0.031 A 
ATOM     35  C   UNL A   1      45.140  25.521  26.948  1.00  0.00     0.074 A 
ATOM     36  C   UNL A   1      42.852  26.104  27.721  1.00  0.00     0.049 A 
ATOM     37  N   UNL A   1      45.776  26.642  27.162  1.00  0.00    -0.248 NA
ATOM     38  C   UNL A   1      45.997  24.441  26.421  1.00  0.00     0.031 C 
ATOM     39  C   UNL A   1      41.448  25.874  28.071  1.00  0.00     0.029 A 
ATOM     40  N   UNL A   1      43.060  27.421  28.040  1.00  0.00    -0.354 N 
ATOM     41  C   UNL A   1      47.101  26.391  26.824  1.00  0.00     0.074 A 
ATOM     42  C   UNL A   1      47.197  24.996  26.468  1.00  0.00     0.031 C 
ATOM     43  C   UNL A   1      40.909  27.023  28.509  1.00  0.00     0.029 A 
ATOM     44  C   UNL A   1      41.940  28.056  28.520  1.00  0.00     0.049 A 
ATOM     45  H   UNL A   1      43.931  27.869  27.936  1.00  0.00     0.167 HD
ATOM     46  C   UNL A   1      48.142  27.253  26.780  1.00  0.00     0.031 A 
ATOM     47  C   UNL A   1      41.765  29.329  28.923  1.00  0.00     0.031 A 
ATOM     48  C   UNL A   1      48.028  28.648  27.105  1.00  0.00     0.049 A 
ATOM     49  C   UNL A   1      42.934  30.273  28.856  1.00  0.00     0.074 A 
ATOM     50  C   UNL A   1      48.997  29.630  27.028  1.00  0.00     0.029 A 
ATOM     51  N   UNL A   1      46.870  29.257  27.567  1.00  0.00    -0.354 N 
ATOM     52  N   UNL A   1      44.163  30.038  28.460  1.00  0.00    -0.248 NA
ATOM     53  C   UNL A   1      42.690  31.658  29.279  1.00  0.00     0.031 C 
ATOM     54  C   UNL A   1      48.441  30.823  27.499  1.00  0.00     0.029 A 
ATOM     55  C   UNL A   1      47.107  30.598  27.804  1.00  0.00     0.049 A 
ATOM     56  H   UNL A   1      46.008  28.802  27.704  1.00  0.00     0.167 HD
ATOM     57  C   UNL A   1      44.832  31.252  28.557  1.00  0.00     0.074 A 
ATOM     58  C   UNL A   1      43.865  32.221  29.033  1.00  0.00     0.031 C 
ATOM     59  C   UNL A   1      46.127  31.542  28.279  1.00  0.00     0.031 A 
BRANCH  46  60
ATOM     60  C   UNL A   1      49.483  26.710  26.362  1.00  0.00    -0.014 A 
ATOM     61  C   UNL A   1      49.946  26.843  25.040  1.00  0.00     0.010 A 
ATOM     62  C   UNL A   1      50.306  26.079  27.312  1.00  0.00     0.010 A 
ATOM     63  C   UNL A   1      51.185  26.320  24.665  1.00  0.00     0.020 A 
ATOM     64  C   UNL A   1      51.562  25.583  26.950  1.00  0.00     0.020 A 
ATOM     65  C   UNL A   1      51.986  25.693  25.624  1.00  0.00     0.054 A 
BRANCH  65  66
ATOM     66  S   UNL A   1      53.605  25.053  25.116  1.00  0.00     0.124 S 
ATOM     67  O   UNL A   1      53.435  23.616  25.316  1.00  0.00    -0.237 OA
ATOM     68  O   UNL A   1      53.697  25.487  23.725  1.00  0.00    -0.237 OA
ATOM     69  O   UNL A   1      54.538  25.702  26.033  1.00  0.00    -0.744 OA
ENDBRANCH  65  66
ENDBRANCH  46  60
BRANCH  47  70
ATOM     70  C   UNL A   1      40.430  29.784  29.398  1.00  0.00    -0.014 A 
ATOM     71  C   UNL A   1      40.213  30.061  30.759  1.00  0.00     0.010 A 
ATOM     72  C   UNL A   1      39.370  29.959  28.489  1.00  0.00     0.010 A 
ATOM     73  C   UNL A   1      38.957  30.483  31.206  1.00  0.00     0.020 A 
ATOM     74  C   UNL A   1      38.122  30.411  28.927  1.00  0.00     0.020 A 
ATOM     75  C   UNL A   1      37.920  30.658  30.286  1.00  0.00     0.054 A 
BRANCH  75  76
ATOM     76  S   UNL A   1      36.312  31.252  30.882  1.00  0.00     0.124 S 
ATOM     77  O   UNL A   1      35.901  30.171  31.771  1.00  0.00    -0.237 OA
ATOM     78  O   UNL A   1      36.665  32.511  31.534  1.00  0.00    -0.237 OA
ATOM     79  O   UNL A   1      35.525  31.393  29.659  1.00  0.00    -0.744 OA
ENDBRANCH  75  76
ENDBRANCH  47  70
BRANCH  59  80
ATOM     80  C   UNL A   1      46.566  32.971  28.445  1.00  0.00    -0.014 A 
ATOM     81  C   UNL A   1      46.437  33.902  27.400  1.00  0.00     0.010 A 
ATOM     82  C   UNL A   1      47.060  33.400  29.692  1.00  0.00     0.010 A 
ATOM     83  C   UNL A   1      46.828  35.230  27.588  1.00  0.00     0.020 A 
ATOM     84  C   UNL A   1      47.419  34.733  29.892  1.00  0.00     0.020 A 
ATOM     85  C   UNL A   1      47.316  35.636  28.834  1.00  0.00     0.054 A 
BRANCH  85  86
ATOM     86  S   UNL A   1      47.775  37.374  29.064  1.00  0.00     0.124 S 
ATOM     87  O   UNL A   1      49.153  37.264  29.537  1.00  0.00    -0.237 OA
ATOM     88  O   UNL A   1      47.614  37.928  27.721  1.00  0.00    -0.237 OA
ATOM     89  O   UNL A   1      46.815  37.860  30.051  1.00  0.00    -0.744 OA
ENDBRANCH  85  86
ENDBRANCH  59  80
ENDBRANCH  33  34
ENDBRANCH  25  28
ENDBRANCH  23  24
ENDBRANCH   1  23
TORSDOF 17
ENDMDL
MODEL 2
REMARK VINA RESULT:     -10.5      6.205      8.175
REMARK SMILES CCC(CC)NC(=O)N[C@@H]1C=C[C@@H](C(=O)NCCCNC(=O)c2ccc(-c3c4nc(c(-c5ccc(S(=O)(=O)[O-])cc5)c5ccc([nH]5)c(-c5ccc(S(=O)(=O)[O-])cc5)c5nc(c(-c6ccc(S(=O)(=O)[O-])cc6)c6ccc3[nH]6)C=C5)C=C4)cc2)C1
REMARK SMILES IDX 18 1 17 2 16 3 14 4 15 5 13 7 10 8 11 9 83 10 12 11 9 12
REMARK SMILES IDX 6 13 7 14 8 16 3 18 2 19 1 20 4 21 5 22 19 23 20 24 21 25
REMARK SMILES IDX 22 27 23 28 24 29 82 30 25 31 81 32 26 33 27 34 28 35 75 36
REMARK SMILES IDX 29 37 80 38 74 39 76 40 30 41 79 42 73 43 72 44 31 46 61 47
REMARK SMILES IDX 42 48 60 49 43 50 46 51 59 52 77 53 44 54 45 55 58 57 78 58
REMARK SMILES IDX 47 59 32 60 33 61 41 62 34 63 40 64 35 65 36 66 37 67 38 68
REMARK SMILES IDX 39 69 62 70 63 71 71 72 64 73 70 74 65 75 66 76 67 77 68 78
REMARK SMILES IDX 69 79 48 80 49 81 57 82 50 83 56 84 51 85 52 86 53 87 54 88
REMARK SMILES IDX 55 89
REMARK H PARENT 16 6 6 15 9 17 20 26 76 45 46 56
REMARK Flexibility Score: inf
ROOT
ATOM      1  C   UNL A   1      38.844  22.686  26.458  1.00  0.00     0.042 C 
ENDROOT
BRANCH   1   2
ATOM      2  C   UNL A   1      37.720  23.587  26.013  1.00  0.00     0.117 C 
BRANCH   2   3
ATOM      3  N   UNL A   1      37.606  23.561  24.566  1.00  0.00    -0.356 N 
ATOM      4  C   UNL A   1      36.565  23.176  23.791  1.00  0.00     0.227 C 
ATOM      5  O   UNL A   1      36.784  22.944  22.599  1.00  0.00    -0.274 OA
ATOM      6  H   UNL A   1      38.403  23.870  24.077  1.00  0.00     0.163 HD
BRANCH   4   7
ATOM      7  C   UNL A   1      35.158  23.106  24.352  1.00  0.00     0.103 C 
ATOM      8  C   UNL A   1      32.891  23.950  24.323  1.00  0.00     0.107 C 
ATOM      9  C   UNL A   1      32.969  22.672  23.575  1.00  0.00    -0.006 C 
ATOM     10  C   UNL A   1      34.359  24.397  24.449  1.00  0.00     0.047 C 
ATOM     11  C   UNL A   1      34.221  22.195  23.586  1.00  0.00    -0.016 C 
BRANCH   8  12
ATOM     12  N   UNL A   1      32.115  23.846  25.563  1.00  0.00    -0.332 N 
ATOM     13  N   UNL A   1      31.265  25.846  26.595  1.00  0.00    -0.335 N 
ATOM     14  C   UNL A   1      31.412  24.522  26.473  1.00  0.00     0.315 C 
ATOM     15  H   UNL A   1      30.661  26.100  27.330  1.00  0.00     0.165 HD
ATOM     16  O   UNL A   1      30.837  23.832  27.326  1.00  0.00    -0.249 OA
ATOM     17  H   UNL A   1      32.112  22.898  25.831  1.00  0.00     0.165 HD
BRANCH  13  18
ATOM     18  C   UNL A   1      31.801  26.986  25.883  1.00  0.00     0.083 C 
BRANCH  18  19
ATOM     19  C   UNL A   1      30.783  27.690  24.974  1.00  0.00     0.021 C 
ATOM     20  C   UNL A   1      30.028  26.713  24.070  1.00  0.00     0.006 C 
ENDBRANCH  18  19
BRANCH  18  21
ATOM     21  C   UNL A   1      32.701  27.882  26.744  1.00  0.00     0.021 C 
ATOM     22  C   UNL A   1      32.042  29.143  27.270  1.00  0.00     0.006 C 
ENDBRANCH  18  21
ENDBRANCH  13  18
ENDBRANCH   8  12
ENDBRANCH   4   7
ENDBRANCH   2   3
ENDBRANCH   1   2
BRANCH   1  23
ATOM     23  C   UNL A   1      39.925  23.482  27.153  1.00  0.00     0.118 C 
BRANCH  23  24
ATOM     24  N   UNL A   1      40.859  24.059  26.189  1.00  0.00    -0.352 N 
ATOM     25  C   UNL A   1      41.177  25.380  25.997  1.00  0.00     0.251 C 
ATOM     26  H   UNL A   1      41.320  23.417  25.601  1.00  0.00     0.163 HD
ATOM     27  O   UNL A   1      41.701  25.754  24.950  1.00  0.00    -0.269 OA
BRANCH  25  28
ATOM     28  C   UNL A   1      40.858  26.332  27.074  1.00  0.00     0.039 A 
ATOM     29  C   UNL A   1      39.985  25.972  28.099  1.00  0.00     0.014 A 
ATOM     30  C   UNL A   1      41.501  27.571  27.087  1.00  0.00     0.014 A 
ATOM     31  C   UNL A   1      39.820  26.838  29.179  1.00  0.00     0.010 A 
ATOM     32  C   UNL A   1      41.468  28.342  28.232  1.00  0.00     0.010 A 
ATOM     33  C   UNL A   1      40.593  28.008  29.272  1.00  0.00    -0.014 A 
BRANCH  33  34
ATOM     34  C   UNL A   1      40.477  28.941  30.415  1.00  0.00     0.031 A 
ATOM     35  C   UNL A   1      41.378  28.757  31.610  1.00  0.00     0.074 A 
ATOM     36  C   UNL A   1      39.520  29.890  30.410  1.00  0.00     0.049 A 
ATOM     37  N   UNL A   1      41.386  29.409  32.742  1.00  0.00    -0.248 NA
ATOM     38  C   UNL A   1      42.370  27.667  31.543  1.00  0.00     0.031 C 
ATOM     39  C   UNL A   1      38.551  30.118  29.335  1.00  0.00     0.029 A 
ATOM     40  N   UNL A   1      39.206  30.841  31.345  1.00  0.00    -0.354 N 
ATOM     41  C   UNL A   1      42.358  28.792  33.522  1.00  0.00     0.074 A 
ATOM     42  C   UNL A   1      42.862  27.669  32.771  1.00  0.00     0.031 C 
ATOM     43  C   UNL A   1      37.784  31.174  29.651  1.00  0.00     0.029 A 
ATOM     44  C   UNL A   1      38.171  31.664  30.969  1.00  0.00     0.049 A 
ATOM     45  H   UNL A   1      39.677  30.927  32.206  1.00  0.00     0.167 HD
ATOM     46  C   UNL A   1      42.816  29.150  34.743  1.00  0.00     0.031 A 
ATOM     47  C   UNL A   1      37.601  32.698  31.616  1.00  0.00     0.031 A 
ATOM     48  C   UNL A   1      42.330  30.291  35.467  1.00  0.00     0.049 A 
ATOM     49  C   UNL A   1      38.134  33.084  32.969  1.00  0.00     0.074 A 
ATOM     50  C   UNL A   1      42.770  30.790  36.679  1.00  0.00     0.029 A 
ATOM     51  N   UNL A   1      41.296  31.111  35.043  1.00  0.00    -0.354 N 
ATOM     52  N   UNL A   1      39.107  32.537  33.659  1.00  0.00    -0.248 NA
ATOM     53  C   UNL A   1      37.500  34.235  33.625  1.00  0.00     0.031 C 
ATOM     54  C   UNL A   1      41.961  31.880  37.015  1.00  0.00     0.029 A 
ATOM     55  C   UNL A   1      41.064  32.100  35.981  1.00  0.00     0.049 A 
ATOM     56  H   UNL A   1      40.801  31.006  34.198  1.00  0.00     0.167 HD
ATOM     57  C   UNL A   1      39.223  33.295  34.818  1.00  0.00     0.074 A 
ATOM     58  C   UNL A   1      38.232  34.348  34.726  1.00  0.00     0.031 C 
ATOM     59  C   UNL A   1      40.070  33.138  35.865  1.00  0.00     0.031 A 
BRANCH  46  60
ATOM     60  C   UNL A   1      43.896  28.301  35.360  1.00  0.00    -0.014 A 
ATOM     61  C   UNL A   1      45.258  28.577  35.140  1.00  0.00     0.010 A 
ATOM     62  C   UNL A   1      43.546  27.225  36.196  1.00  0.00     0.010 A 
ATOM     63  C   UNL A   1      46.248  27.770  35.707  1.00  0.00     0.020 A 
ATOM     64  C   UNL A   1      44.531  26.435  36.793  1.00  0.00     0.020 A 
ATOM     65  C   UNL A   1      45.877  26.704  36.531  1.00  0.00     0.054 A 
BRANCH  65  66
ATOM     66  S   UNL A   1      47.183  25.694  37.281  1.00  0.00     0.124 S 
ATOM     67  O   UNL A   1      47.124  24.478  36.473  1.00  0.00    -0.237 OA
ATOM     68  O   UNL A   1      48.373  26.518  37.089  1.00  0.00    -0.237 OA
ATOM     69  O   UNL A   1      46.751  25.540  38.668  1.00  0.00    -0.744 OA
ENDBRANCH  65  66
ENDBRANCH  46  60
BRANCH  47  70
ATOM     70  C   UNL A   1      36.485  33.450  30.982  1.00  0.00    -0.014 A 
ATOM     71  C   UNL A   1      35.250  33.586  31.641  1.00  0.00     0.010 A 
ATOM     72  C   UNL A   1      36.653  34.050  29.721  1.00  0.00     0.010 A 
ATOM     73  C   UNL A   1      34.199  34.288  31.043  1.00  0.00     0.020 A 
ATOM     74  C   UNL A   1      35.615  34.779  29.132  1.00  0.00     0.020 A 
ATOM     75  C   UNL A   1      34.390  34.882  29.793  1.00  0.00     0.054 A 
BRANCH  75  76
ATOM     76  S   UNL A   1      33.027  35.828  29.057  1.00  0.00     0.124 S 
ATOM     77  O   UNL A   1      32.280  36.251  30.236  1.00  0.00    -0.237 OA
ATOM     78  O   UNL A   1      33.733  36.887  28.339  1.00  0.00    -0.237 OA
ATOM     79  O   UNL A   1      32.355  34.850  28.204  1.00  0.00    -0.744 OA
ENDBRANCH  75  76
ENDBRANCH  47  70
BRANCH  59  80
ATOM     80  C   UNL A   1      39.990  34.147  36.977  1.00  0.00    -0.014 A 
ATOM     81  C   UNL A   1      39.188  33.923  38.110  1.00  0.00     0.010 A 
ATOM     82  C   UNL A   1      40.779  35.310  36.911  1.00  0.00     0.010 A 
ATOM     83  C   UNL A   1      39.151  34.864  39.142  1.00  0.00     0.020 A 
ATOM     84  C   UNL A   1      40.770  36.234  37.956  1.00  0.00     0.020 A 
ATOM     85  C   UNL A   1      39.943  36.013  39.059  1.00  0.00     0.054 A 
BRANCH  85  86
ATOM     86  S   UNL A   1      39.909  37.196  40.431  1.00  0.00     0.124 S 
ATOM     87  O   UNL A   1      40.165  38.461  39.748  1.00  0.00    -0.237 OA
ATOM     88  O   UNL A   1      38.558  37.030  40.962  1.00  0.00    -0.237 OA
ATOM     89  O   UNL A   1      40.979  36.737  41.313  1.00  0.00    -0.744 OA
ENDBRANCH  85  86
ENDBRANCH  59  80
ENDBRANCH  33  34
ENDBRANCH  25  28
ENDBRANCH  23  24
ENDBRANCH   1  23
TORSDOF 17
ENDMDL
MODEL 3
REMARK VINA RESULT:     -10.5      6.201     10.941
REMARK SMILES CCC(CC)NC(=O)N[C@@H]1C=C[C@@H](C(=O)NCCCNC(=O)c2ccc(-c3c4nc(c(-c5ccc(S(=O)(=O)[O-])cc5)c5ccc([nH]5)c(-c5ccc(S(=O)(=O)[O-])cc5)c5nc(c(-c6ccc(S(=O)(=O)[O-])cc6)c6ccc3[nH]6)C=C5)C=C4)cc2)C1
REMARK SMILES IDX 18 1 17 2 16 3 14 4 15 5 13 7 10 8 11 9 83 10 12 11 9 12
REMARK SMILES IDX 6 13 7 14 8 16 3 18 2 19 1 20 4 21 5 22 19 23 20 24 21 25
REMARK SMILES IDX 22 27 23 28 24 29 82 30 25 31 81 32 26 33 27 34 28 35 75 36
REMARK SMILES IDX 29 37 80 38 74 39 76 40 30 41 79 42 73 43 72 44 31 46 61 47
REMARK SMILES IDX 42 48 60 49 43 50 46 51 59 52 77 53 44 54 45 55 58 57 78 58
REMARK SMILES IDX 47 59 32 60 33 61 41 62 34 63 40 64 35 65 36 66 37 67 38 68
REMARK SMILES IDX 39 69 62 70 63 71 71 72 64 73 70 74 65 75 66 76 67 77 68 78
REMARK SMILES IDX 69 79 48 80 49 81 57 82 50 83 56 84 51 85 52 86 53 87 54 88
REMARK SMILES IDX 55 89
REMARK H PARENT 16 6 6 15 9 17 20 26 76 45 46 56
REMARK Flexibility Score: inf
ROOT
ATOM      1  C   UNL A   1      39.086  22.727  26.428  1.00  0.00     0.042 C 
ENDROOT
BRANCH   1   2
ATOM      2  C   UNL A   1      37.788  23.445  26.161  1.00  0.00     0.117 C 
BRANCH   2   3
ATOM      3  N   UNL A   1      37.586  23.593  24.731  1.00  0.00    -0.356 N 
ATOM      4  C   UNL A   1      36.534  23.218  23.966  1.00  0.00     0.227 C 
ATOM      5  O   UNL A   1      36.696  23.160  22.744  1.00  0.00    -0.274 OA
ATOM      6  H   UNL A   1      38.323  24.032  24.247  1.00  0.00     0.163 HD
BRANCH   4   7
ATOM      7  C   UNL A   1      35.175  22.953  24.584  1.00  0.00     0.103 C 
ATOM      8  C   UNL A   1      32.775  23.222  24.460  1.00  0.00     0.107 C 
ATOM      9  C   UNL A   1      33.159  21.862  24.009  1.00  0.00    -0.006 C 
ATOM     10  C   UNL A   1      34.095  24.013  24.426  1.00  0.00     0.047 C 
ATOM     11  C   UNL A   1      34.488  21.702  24.075  1.00  0.00    -0.016 C 
BRANCH   8  12
ATOM     12  N   UNL A   1      32.028  23.221  25.723  1.00  0.00    -0.332 N 
ATOM     13  N   UNL A   1      31.096  25.281  26.545  1.00  0.00    -0.335 N 
ATOM     14  C   UNL A   1      31.308  23.960  26.568  1.00  0.00     0.315 C 
ATOM     15  H   UNL A   1      30.494  25.587  27.262  1.00  0.00     0.165 HD
ATOM     16  O   UNL A   1      30.785  23.344  27.507  1.00  0.00    -0.249 OA
ATOM     17  H   UNL A   1      32.078  22.311  26.095  1.00  0.00     0.165 HD
BRANCH  13  18
ATOM     18  C   UNL A   1      31.560  26.358  25.697  1.00  0.00     0.083 C 
BRANCH  18  19
ATOM     19  C   UNL A   1      30.963  26.342  24.282  1.00  0.00     0.021 C 
ATOM     20  C   UNL A   1      29.433  26.311  24.291  1.00  0.00     0.006 C 
ENDBRANCH  18  19
BRANCH  18  21
ATOM     21  C   UNL A   1      31.625  27.717  26.408  1.00  0.00     0.021 C 
ATOM     22  C   UNL A   1      32.959  28.045  27.050  1.00  0.00     0.006 C 
ENDBRANCH  18  21
ENDBRANCH  13  18
ENDBRANCH   8  12
ENDBRANCH   4   7
ENDBRANCH   2   3
ENDBRANCH   1   2
BRANCH   1  23
ATOM     23  C   UNL A   1      40.069  23.639  27.125  1.00  0.00     0.118 C 
BRANCH  23  24
ATOM     24  N   UNL A   1      40.936  24.317  26.163  1.00  0.00    -0.352 N 
ATOM     25  C   UNL A   1      41.192  25.661  26.047  1.00  0.00     0.251 C 
ATOM     26  H   UNL A   1      41.395  23.736  25.514  1.00  0.00     0.163 HD
ATOM     27  O   UNL A   1      41.653  26.124  25.006  1.00  0.00    -0.269 OA
BRANCH  25  28
ATOM     28  C   UNL A   1      40.883  26.526  27.197  1.00  0.00     0.039 A 
ATOM     29  C   UNL A   1      39.999  26.098  28.185  1.00  0.00     0.014 A 
ATOM     30  C   UNL A   1      41.547  27.748  27.315  1.00  0.00     0.014 A 
ATOM     31  C   UNL A   1      39.843  26.874  29.332  1.00  0.00     0.010 A 
ATOM     32  C   UNL A   1      41.520  28.423  28.519  1.00  0.00     0.010 A 
ATOM     33  C   UNL A   1      40.635  28.020  29.525  1.00  0.00    -0.014 A 
BRANCH  33  34
ATOM     34  C   UNL A   1      40.529  28.857  30.740  1.00  0.00     0.031 A 
ATOM     35  C   UNL A   1      39.483  29.941  30.798  1.00  0.00     0.074 A 
ATOM     36  C   UNL A   1      41.414  28.696  31.744  1.00  0.00     0.049 A 
ATOM     37  N   UNL A   1      39.273  30.833  31.730  1.00  0.00    -0.248 NA
ATOM     38  C   UNL A   1      38.582  30.069  29.637  1.00  0.00     0.031 C 
ATOM     39  C   UNL A   1      42.508  27.722  31.768  1.00  0.00     0.029 A 
ATOM     40  N   UNL A   1      41.531  29.353  32.941  1.00  0.00    -0.354 N 
ATOM     41  C   UNL A   1      38.243  31.636  31.253  1.00  0.00     0.074 A 
ATOM     42  C   UNL A   1      37.923  31.180  29.923  1.00  0.00     0.031 C 
ATOM     43  C   UNL A   1      43.154  27.814  32.942  1.00  0.00     0.029 A 
ATOM     44  C   UNL A   1      42.553  28.884  33.731  1.00  0.00     0.049 A 
ATOM     45  H   UNL A   1      40.939  30.093  33.209  1.00  0.00     0.167 HD
ATOM     46  C   UNL A   1      37.595  32.643  31.881  1.00  0.00     0.031 A 
ATOM     47  C   UNL A   1      42.959  29.274  34.954  1.00  0.00     0.031 A 
ATOM     48  C   UNL A   1      37.900  33.067  33.219  1.00  0.00     0.049 A 
ATOM     49  C   UNL A   1      42.217  30.391  35.637  1.00  0.00     0.074 A 
ATOM     50  C   UNL A   1      37.263  34.027  33.982  1.00  0.00     0.029 A 
ATOM     51  N   UNL A   1      38.929  32.552  33.994  1.00  0.00    -0.354 N 
ATOM     52  N   UNL A   1      41.194  31.088  35.203  1.00  0.00    -0.248 NA
ATOM     53  C   UNL A   1      42.677  30.764  36.982  1.00  0.00     0.031 C 
ATOM     54  C   UNL A   1      37.944  34.134  35.198  1.00  0.00     0.029 A 
ATOM     55  C   UNL A   1      38.961  33.193  35.219  1.00  0.00     0.049 A 
ATOM     56  H   UNL A   1      39.543  31.836  33.713  1.00  0.00     0.167 HD
ATOM     57  C   UNL A   1      40.867  31.963  36.232  1.00  0.00     0.074 A 
ATOM     58  C   UNL A   1      41.792  31.693  37.315  1.00  0.00     0.031 C 
ATOM     59  C   UNL A   1      39.893  32.905  36.280  1.00  0.00     0.031 A 
BRANCH  46  60
ATOM     60  C   UNL A   1      36.496  33.344  31.127  1.00  0.00    -0.014 A 
ATOM     61  C   UNL A   1      36.724  33.905  29.857  1.00  0.00     0.010 A 
ATOM     62  C   UNL A   1      35.206  33.420  31.683  1.00  0.00     0.010 A 
ATOM     63  C   UNL A   1      35.698  34.565  29.177  1.00  0.00     0.020 A 
ATOM     64  C   UNL A   1      34.167  34.049  30.993  1.00  0.00     0.020 A 
ATOM     65  C   UNL A   1      34.425  34.632  29.750  1.00  0.00     0.054 A 
BRANCH  65  66
ATOM     66  S   UNL A   1      33.103  35.466  28.830  1.00  0.00     0.124 S 
ATOM     67  O   UNL A   1      32.301  36.039  29.909  1.00  0.00    -0.237 OA
ATOM     68  O   UNL A   1      33.840  36.429  28.016  1.00  0.00    -0.237 OA
ATOM     69  O   UNL A   1      32.462  34.386  28.086  1.00  0.00    -0.744 OA
ENDBRANCH  65  66
ENDBRANCH  46  60
BRANCH  47  70
ATOM     70  C   UNL A   1      44.103  28.588  35.614  1.00  0.00    -0.014 A 
ATOM     71  C   UNL A   1      45.426  28.965  35.322  1.00  0.00     0.010 A 
ATOM     72  C   UNL A   1      43.877  27.565  36.552  1.00  0.00     0.010 A 
ATOM     73  C   UNL A   1      46.501  28.317  35.938  1.00  0.00     0.020 A 
ATOM     74  C   UNL A   1      44.948  26.936  37.194  1.00  0.00     0.020 A 
ATOM     75  C   UNL A   1      46.254  27.308  36.872  1.00  0.00     0.054 A 
BRANCH  75  76
ATOM     76  S   UNL A   1      47.663  26.513  37.694  1.00  0.00     0.124 S 
ATOM     77  O   UNL A   1      47.697  25.208  37.043  1.00  0.00    -0.237 OA
ATOM     78  O   UNL A   1      48.766  27.414  37.367  1.00  0.00    -0.237 OA
ATOM     79  O   UNL A   1      47.275  26.501  39.103  1.00  0.00    -0.744 OA
ENDBRANCH  75  76
ENDBRANCH  47  70
BRANCH  59  80
ATOM     80  C   UNL A   1      39.751  33.688  37.557  1.00  0.00    -0.014 A 
ATOM     81  C   UNL A   1      40.332  34.959  37.703  1.00  0.00     0.010 A 
ATOM     82  C   UNL A   1      38.969  33.163  38.603  1.00  0.00     0.010 A 
ATOM     83  C   UNL A   1      40.163  35.678  38.889  1.00  0.00     0.020 A 
ATOM     84  C   UNL A   1      38.771  33.894  39.776  1.00  0.00     0.020 A 
ATOM     85  C   UNL A   1      39.383  35.140  39.917  1.00  0.00     0.054 A 
BRANCH  85  86
ATOM     86  S   UNL A   1      39.144  36.112  41.428  1.00  0.00     0.124 S 
ATOM     87  O   UNL A   1      39.063  37.474  40.903  1.00  0.00    -0.237 OA
ATOM     88  O   UNL A   1      37.897  35.570  41.963  1.00  0.00    -0.237 OA
ATOM     89  O   UNL A   1      40.335  35.821  42.221  1.00  0.00    -0.744 OA
ENDBRANCH  85  86
ENDBRANCH  59  80
ENDBRANCH  33  34
ENDBRANCH  25  28
ENDBRANCH  23  24
ENDBRANCH   1  23
TORSDOF 17
ENDMDL
