MODEL 1
REMARK VINA RESULT:     -11.7      0.000      0.000
REMARK SMILES COC(=O)C[C@@H](NC(=O)c1ccccc1C(=O)NCCCNC(=O)c1ccc(-c2c3nc(c(-c4ccc(S(=O)(=O)[O-])cc4)c4ccc([nH]4)c(-c4ccc(S(=O)(=O)[O-])cc4)c4nc(c(-c5ccc(S(=O)(=O)[O-])cc5)c5ccc2[nH]5)C=C4)C=C3)cc1)c1cccc(C)c1C
REMARK SMILES IDX 19 1 18 2 16 3 17 4 15 6 10 7 11 8 12 9 14 10 13 11 8 12
REMARK SMILES IDX 7 13 9 15 6 16 5 17 3 18 4 19 2 20 1 21 85 22 86 23 91 24
REMARK SMILES IDX 87 25 89 26 92 27 88 28 90 29 20 30 21 31 22 32 23 33 24 35
REMARK SMILES IDX 25 36 26 37 84 38 27 39 83 40 28 41 29 42 30 43 77 44 31 45
REMARK SMILES IDX 82 46 76 47 78 48 32 49 81 50 75 51 74 52 33 54 63 55 44 56
REMARK SMILES IDX 62 57 45 58 48 59 61 60 79 61 46 62 47 63 60 65 80 66 49 67
REMARK SMILES IDX 34 68 35 69 43 70 36 71 42 72 37 73 38 74 39 75 40 76 41 77
REMARK SMILES IDX 64 78 65 79 73 80 66 81 72 82 67 83 68 84 69 85 70 86 71 87
REMARK SMILES IDX 50 88 51 89 59 90 52 91 58 92 53 93 54 94 55 95 56 96 57 97
REMARK H PARENT 18 5 7 14 22 34 78 53 48 64
REMARK Flexibility Score: inf
ROOT
ATOM      1  C   UNL A   1      31.843  30.463  26.622  1.00  0.00     0.118 C 
ENDROOT
BRANCH   1   2
ATOM      2  N   UNL A   1      32.607  30.077  25.452  1.00  0.00    -0.352 N 
ATOM      3  C   UNL A   1      32.413  29.151  24.475  1.00  0.00     0.252 C 
ATOM      4  O   UNL A   1      33.320  29.065  23.640  1.00  0.00    -0.269 OA
ATOM      5  H   UNL A   1      33.439  30.591  25.343  1.00  0.00     0.163 HD
BRANCH   3   6
ATOM      6  C   UNL A   1      31.247  28.241  24.348  1.00  0.00     0.052 A 
ATOM      7  C   UNL A   1      30.866  27.172  25.164  1.00  0.00     0.052 A 
ATOM      8  C   UNL A   1      29.699  26.438  24.851  1.00  0.00     0.014 A 
ATOM      9  C   UNL A   1      28.880  26.786  23.780  1.00  0.00     0.001 A 
ATOM     10  C   UNL A   1      30.386  28.588  23.276  1.00  0.00     0.014 A 
ATOM     11  C   UNL A   1      29.217  27.876  22.996  1.00  0.00     0.001 A 
BRANCH   7  12
ATOM     12  C   UNL A   1      31.575  26.603  26.320  1.00  0.00     0.252 C 
ATOM     13  N   UNL A   1      32.465  25.572  26.245  1.00  0.00    -0.345 N 
ATOM     14  H   UNL A   1      33.081  25.527  27.011  1.00  0.00     0.164 HD
ATOM     15  O   UNL A   1      31.447  27.171  27.407  1.00  0.00    -0.269 OA
BRANCH  13  16
ATOM     16  C   UNL A   1      32.689  24.519  25.251  1.00  0.00     0.124 C 
BRANCH  16  17
ATOM     17  C   UNL A   1      31.825  23.288  25.548  1.00  0.00     0.152 C 
BRANCH  17  18
ATOM     18  C   UNL A   1      31.523  23.256  27.022  1.00  0.00     0.307 C 
ATOM     19  O   UNL A   1      32.304  22.846  27.869  1.00  0.00    -0.252 OA
BRANCH  18  20
ATOM     20  O   UNL A   1      30.239  23.653  27.239  1.00  0.00    -0.469 OA
ATOM     21  C   UNL A   1      29.268  22.601  27.244  1.00  0.00     0.282 C 
ENDBRANCH  18  20
ENDBRANCH  17  18
ENDBRANCH  16  17
BRANCH  16  22
ATOM     22  C   UNL A   1      34.154  24.152  25.077  1.00  0.00    -0.022 A 
ATOM     23  C   UNL A   1      34.978  24.343  26.206  1.00  0.00     0.006 A 
ATOM     24  C   UNL A   1      34.722  23.609  23.899  1.00  0.00    -0.043 A 
ATOM     25  C   UNL A   1      36.294  23.908  26.228  1.00  0.00     0.001 A 
ATOM     26  C   UNL A   1      36.093  23.243  23.906  1.00  0.00    -0.048 A 
ATOM     27  C   UNL A   1      33.928  23.479  22.622  1.00  0.00     0.045 C 
ATOM     28  C   UNL A   1      36.846  23.349  25.087  1.00  0.00     0.004 A 
ATOM     29  C   UNL A   1      36.782  22.684  22.690  1.00  0.00     0.044 C 
ENDBRANCH  16  22
ENDBRANCH  13  16
ENDBRANCH   7  12
ENDBRANCH   3   6
ENDBRANCH   1   2
BRANCH   1  30
ATOM     30  C   UNL A   1      31.672  31.967  26.739  1.00  0.00     0.042 C 
BRANCH  30  31
ATOM     31  C   UNL A   1      32.918  32.683  27.253  1.00  0.00     0.118 C 
BRANCH  31  32
ATOM     32  N   UNL A   1      32.667  33.967  27.904  1.00  0.00    -0.352 N 
ATOM     33  C   UNL A   1      33.369  34.597  28.909  1.00  0.00     0.251 C 
ATOM     34  H   UNL A   1      31.878  34.456  27.576  1.00  0.00     0.163 HD
ATOM     35  O   UNL A   1      32.993  35.659  29.394  1.00  0.00    -0.269 OA
BRANCH  33  36
ATOM     36  C   UNL A   1      34.576  33.954  29.449  1.00  0.00     0.039 A 
ATOM     37  C   UNL A   1      35.830  34.342  28.973  1.00  0.00     0.014 A 
ATOM     38  C   UNL A   1      34.456  33.016  30.469  1.00  0.00     0.014 A 
ATOM     39  C   UNL A   1      36.975  33.864  29.609  1.00  0.00     0.010 A 
ATOM     40  C   UNL A   1      35.582  32.657  31.185  1.00  0.00     0.010 A 
ATOM     41  C   UNL A   1      36.854  33.067  30.756  1.00  0.00    -0.014 A 
BRANCH  41  42
ATOM     42  C   UNL A   1      38.027  32.588  31.523  1.00  0.00     0.031 A 
ATOM     43  C   UNL A   1      38.815  31.429  30.976  1.00  0.00     0.074 A 
ATOM     44  C   UNL A   1      38.292  33.098  32.743  1.00  0.00     0.049 A 
ATOM     45  N   UNL A   1      39.705  30.680  31.569  1.00  0.00    -0.248 NA
ATOM     46  C   UNL A   1      38.504  31.015  29.595  1.00  0.00     0.031 C 
ATOM     47  C   UNL A   1      37.561  34.191  33.391  1.00  0.00     0.029 A 
ATOM     48  N   UNL A   1      39.242  32.745  33.666  1.00  0.00    -0.354 N 
ATOM     49  C   UNL A   1      40.004  29.671  30.660  1.00  0.00     0.074 A 
ATOM     50  C   UNL A   1      39.162  29.872  29.503  1.00  0.00     0.031 C 
ATOM     51  C   UNL A   1      38.112  34.440  34.591  1.00  0.00     0.029 A 
ATOM     52  C   UNL A   1      39.195  33.492  34.820  1.00  0.00     0.049 A 
ATOM     53  H   UNL A   1      39.896  32.024  33.517  1.00  0.00     0.167 HD
ATOM     54  C   UNL A   1      40.919  28.680  30.772  1.00  0.00     0.031 A 
ATOM     55  C   UNL A   1      39.940  33.409  35.939  1.00  0.00     0.031 A 
ATOM     56  C   UNL A   1      41.795  28.545  31.901  1.00  0.00     0.049 A 
ATOM     57  C   UNL A   1      41.004  32.347  36.010  1.00  0.00     0.074 A 
ATOM     58  C   UNL A   1      42.817  27.636  32.098  1.00  0.00     0.029 A 
ATOM     59  N   UNL A   1      41.767  29.372  33.017  1.00  0.00    -0.354 N 
ATOM     60  N   UNL A   1      41.298  31.418  35.131  1.00  0.00    -0.248 NA
ATOM     61  C   UNL A   1      41.840  32.326  37.217  1.00  0.00     0.031 C 
ATOM     62  C   UNL A   1      43.393  27.898  33.347  1.00  0.00     0.029 A 
ATOM     63  C   UNL A   1      42.755  28.997  33.906  1.00  0.00     0.049 A 
ATOM     64  H   UNL A   1      41.135  30.114  33.153  1.00  0.00     0.167 HD
ATOM     65  C   UNL A   1      42.370  30.715  35.667  1.00  0.00     0.074 A 
ATOM     66  C   UNL A   1      42.679  31.336  36.940  1.00  0.00     0.031 C 
ATOM     67  C   UNL A   1      43.038  29.650  35.160  1.00  0.00     0.031 A 
BRANCH  54  68
ATOM     68  C   UNL A   1      41.011  27.690  29.640  1.00  0.00    -0.014 A 
ATOM     69  C   UNL A   1      39.971  26.776  29.385  1.00  0.00     0.010 A 
ATOM     70  C   UNL A   1      42.155  27.665  28.823  1.00  0.00     0.010 A 
ATOM     71  C   UNL A   1      40.101  25.816  28.378  1.00  0.00     0.020 A 
ATOM     72  C   UNL A   1      42.274  26.727  27.791  1.00  0.00     0.020 A 
ATOM     73  C   UNL A   1      41.256  25.794  27.592  1.00  0.00     0.054 A 
BRANCH  73  74
ATOM     74  S   UNL A   1      41.395  24.541  26.287  1.00  0.00     0.124 S 
ATOM     75  O   UNL A   1      40.172  23.767  26.482  1.00  0.00    -0.237 OA
ATOM     76  O   UNL A   1      41.439  25.348  25.069  1.00  0.00    -0.237 OA
ATOM     77  O   UNL A   1      42.635  23.841  26.611  1.00  0.00    -0.744 OA
ENDBRANCH  73  74
ENDBRANCH  54  68
BRANCH  55  78
ATOM     78  C   UNL A   1      39.729  34.374  37.052  1.00  0.00    -0.014 A 
ATOM     79  C   UNL A   1      39.017  33.983  38.201  1.00  0.00     0.010 A 
ATOM     80  C   UNL A   1      40.263  35.674  36.993  1.00  0.00     0.010 A 
ATOM     81  C   UNL A   1      38.829  34.876  39.261  1.00  0.00     0.020 A 
ATOM     82  C   UNL A   1      40.098  36.563  38.061  1.00  0.00     0.020 A 
ATOM     83  C   UNL A   1      39.373  36.161  39.185  1.00  0.00     0.054 A 
BRANCH  83  84
ATOM     84  S   UNL A   1      39.167  37.282  40.598  1.00  0.00     0.124 S 
ATOM     85  O   UNL A   1      38.270  38.296  40.053  1.00  0.00    -0.237 OA
ATOM     86  O   UNL A   1      38.588  36.406  41.615  1.00  0.00    -0.237 OA
ATOM     87  O   UNL A   1      40.529  37.734  40.878  1.00  0.00    -0.744 OA
ENDBRANCH  83  84
ENDBRANCH  55  78
BRANCH  67  88
ATOM     88  C   UNL A   1      44.189  29.117  35.963  1.00  0.00    -0.014 A 
ATOM     89  C   UNL A   1      45.467  29.692  35.865  1.00  0.00     0.010 A 
ATOM     90  C   UNL A   1      43.966  28.079  36.884  1.00  0.00     0.010 A 
ATOM     91  C   UNL A   1      46.512  29.221  36.660  1.00  0.00     0.020 A 
ATOM     92  C   UNL A   1      45.002  27.620  37.698  1.00  0.00     0.020 A 
ATOM     93  C   UNL A   1      46.272  28.189  37.574  1.00  0.00     0.054 A 
BRANCH  93  94
ATOM     94  S   UNL A   1      47.631  27.633  38.638  1.00  0.00     0.124 S 
ATOM     95  O   UNL A   1      47.789  26.241  38.227  1.00  0.00    -0.237 OA
ATOM     96  O   UNL A   1      48.721  28.529  38.261  1.00  0.00    -0.237 OA
ATOM     97  O   UNL A   1      47.112  27.828  39.990  1.00  0.00    -0.744 OA
ENDBRANCH  93  94
ENDBRANCH  67  88
ENDBRANCH  41  42
ENDBRANCH  33  36
ENDBRANCH  31  32
ENDBRANCH  30  31
ENDBRANCH   1  30
TORSDOF 19
ENDMDL
MODEL 2
REMARK VINA RESULT:     -11.7      2.156      8.127
REMARK SMILES COC(=O)C[C@@H](NC(=O)c1ccccc1C(=O)NCCCNC(=O)c1ccc(-c2c3nc(c(-c4ccc(S(=O)(=O)[O-])cc4)c4ccc([nH]4)c(-c4ccc(S(=O)(=O)[O-])cc4)c4nc(c(-c5ccc(S(=O)(=O)[O-])cc5)c5ccc2[nH]5)C=C4)C=C3)cc1)c1cccc(C)c1C
REMARK SMILES IDX 19 1 18 2 16 3 17 4 15 6 10 7 11 8 12 9 14 10 13 11 8 12
REMARK SMILES IDX 7 13 9 15 6 16 5 17 3 18 4 19 2 20 1 21 85 22 86 23 91 24
REMARK SMILES IDX 87 25 89 26 92 27 88 28 90 29 20 30 21 31 22 32 23 33 24 35
REMARK SMILES IDX 25 36 26 37 84 38 27 39 83 40 28 41 29 42 30 43 77 44 31 45
REMARK SMILES IDX 82 46 76 47 78 48 32 49 81 50 75 51 74 52 33 54 63 55 44 56
REMARK SMILES IDX 62 57 45 58 48 59 61 60 79 61 46 62 47 63 60 65 80 66 49 67
REMARK SMILES IDX 34 68 35 69 43 70 36 71 42 72 37 73 38 74 39 75 40 76 41 77
REMARK SMILES IDX 64 78 65 79 73 80 66 81 72 82 67 83 68 84 69 85 70 86 71 87
REMARK SMILES IDX 50 88 51 89 59 90 52 91 58 92 53 93 54 94 55 95 56 96 57 97
REMARK H PARENT 18 5 7 14 22 34 78 53 48 64
REMARK Flexibility Score: inf
ROOT
ATOM      1  C   UNL A   1      36.414  22.206  25.539  1.00  0.00     0.118 C 
ENDROOT
BRANCH   1   2
ATOM      2  N   UNL A   1      35.491  22.240  26.655  1.00  0.00    -0.352 N 
ATOM      3  C   UNL A   1      34.144  22.398  26.748  1.00  0.00     0.252 C 
ATOM      4  O   UNL A   1      33.690  22.422  27.897  1.00  0.00    -0.269 OA
ATOM      5  H   UNL A   1      35.931  22.126  27.528  1.00  0.00     0.163 HD
BRANCH   3   6
ATOM      6  C   UNL A   1      33.201  22.567  25.613  1.00  0.00     0.052 A 
ATOM      7  C   UNL A   1      31.956  23.204  25.584  1.00  0.00     0.052 A 
ATOM      8  C   UNL A   1      31.225  23.249  24.375  1.00  0.00     0.014 A 
ATOM      9  C   UNL A   1      31.736  22.726  23.190  1.00  0.00     0.001 A 
ATOM     10  C   UNL A   1      33.707  22.061  24.390  1.00  0.00     0.014 A 
ATOM     11  C   UNL A   1      32.990  22.140  23.194  1.00  0.00     0.001 A 
BRANCH   7  12
ATOM     12  C   UNL A   1      31.205  23.798  26.699  1.00  0.00     0.252 C 
ATOM     13  N   UNL A   1      31.029  25.139  26.880  1.00  0.00    -0.345 N 
ATOM     14  H   UNL A   1      30.259  25.362  27.452  1.00  0.00     0.164 HD
ATOM     15  O   UNL A   1      30.596  23.034  27.451  1.00  0.00    -0.269 OA
BRANCH  13  16
ATOM     16  C   UNL A   1      31.755  26.315  26.393  1.00  0.00     0.124 C 
BRANCH  16  17
ATOM     17  C   UNL A   1      31.427  27.553  27.235  1.00  0.00     0.152 C 
BRANCH  17  18
ATOM     18  C   UNL A   1      32.407  28.642  26.892  1.00  0.00     0.307 C 
ATOM     19  O   UNL A   1      32.089  29.712  26.392  1.00  0.00    -0.252 OA
BRANCH  18  20
ATOM     20  O   UNL A   1      33.677  28.213  27.133  1.00  0.00    -0.469 OA
ATOM     21  C   UNL A   1      34.648  29.251  27.308  1.00  0.00     0.282 C 
ENDBRANCH  18  20
ENDBRANCH  17  18
ENDBRANCH  16  17
BRANCH  16  22
ATOM     22  C   UNL A   1      31.563  26.574  24.908  1.00  0.00    -0.022 A 
ATOM     23  C   UNL A   1      30.268  26.966  24.511  1.00  0.00     0.006 A 
ATOM     24  C   UNL A   1      32.582  26.487  23.929  1.00  0.00    -0.043 A 
ATOM     25  C   UNL A   1      29.996  27.378  23.215  1.00  0.00     0.001 A 
ATOM     26  C   UNL A   1      32.273  26.831  22.587  1.00  0.00    -0.048 A 
ATOM     27  C   UNL A   1      33.961  25.970  24.261  1.00  0.00     0.045 C 
ATOM     28  C   UNL A   1      30.998  27.323  22.261  1.00  0.00     0.004 A 
ATOM     29  C   UNL A   1      33.288  26.743  21.480  1.00  0.00     0.044 C 
ENDBRANCH  16  22
ENDBRANCH  13  16
ENDBRANCH   7  12
ENDBRANCH   3   6
ENDBRANCH   1   2
BRANCH   1  30
ATOM     30  C   UNL A   1      37.022  23.564  25.239  1.00  0.00     0.042 C 
BRANCH  30  31
ATOM     31  C   UNL A   1      37.937  24.080  26.348  1.00  0.00     0.118 C 
BRANCH  31  32
ATOM     32  N   UNL A   1      39.363  23.856  26.124  1.00  0.00    -0.352 N 
ATOM     33  C   UNL A   1      40.450  24.547  26.612  1.00  0.00     0.251 C 
ATOM     34  H   UNL A   1      39.581  23.096  25.536  1.00  0.00     0.163 HD
ATOM     35  O   UNL A   1      41.598  24.267  26.282  1.00  0.00    -0.269 OA
BRANCH  33  36
ATOM     36  C   UNL A   1      40.226  25.684  27.517  1.00  0.00     0.039 A 
ATOM     37  C   UNL A   1      39.371  25.533  28.610  1.00  0.00     0.014 A 
ATOM     38  C   UNL A   1      40.918  26.874  27.308  1.00  0.00     0.014 A 
ATOM     39  C   UNL A   1      39.299  26.549  29.562  1.00  0.00     0.010 A 
ATOM     40  C   UNL A   1      40.954  27.814  28.320  1.00  0.00     0.010 A 
ATOM     41  C   UNL A   1      40.136  27.668  29.452  1.00  0.00    -0.014 A 
BRANCH  41  42
ATOM     42  C   UNL A   1      40.166  28.746  30.467  1.00  0.00     0.031 A 
ATOM     43  C   UNL A   1      41.123  28.615  31.621  1.00  0.00     0.074 A 
ATOM     44  C   UNL A   1      39.264  29.746  30.419  1.00  0.00     0.049 A 
ATOM     45  N   UNL A   1      41.159  29.278  32.745  1.00  0.00    -0.248 NA
ATOM     46  C   UNL A   1      42.129  27.541  31.525  1.00  0.00     0.031 C 
ATOM     47  C   UNL A   1      38.259  29.943  29.370  1.00  0.00     0.029 A 
ATOM     48  N   UNL A   1      39.035  30.779  31.291  1.00  0.00    -0.354 N 
ATOM     49  C   UNL A   1      42.141  28.658  33.510  1.00  0.00     0.074 A 
ATOM     50  C   UNL A   1      42.633  27.534  32.747  1.00  0.00     0.031 C 
ATOM     51  C   UNL A   1      37.545  31.048  29.644  1.00  0.00     0.029 A 
ATOM     52  C   UNL A   1      38.003  31.605  30.910  1.00  0.00     0.049 A 
ATOM     53  H   UNL A   1      39.560  30.916  32.113  1.00  0.00     0.167 HD
ATOM     54  C   UNL A   1      42.607  29.010  34.731  1.00  0.00     0.031 A 
ATOM     55  C   UNL A   1      37.482  32.683  31.526  1.00  0.00     0.031 A 
ATOM     56  C   UNL A   1      42.152  30.174  35.438  1.00  0.00     0.049 A 
ATOM     57  C   UNL A   1      38.067  33.103  32.847  1.00  0.00     0.074 A 
ATOM     58  C   UNL A   1      42.600  30.684  36.641  1.00  0.00     0.029 A 
ATOM     59  N   UNL A   1      41.157  31.029  34.980  1.00  0.00    -0.354 N 
ATOM     60  N   UNL A   1      39.016  32.525  33.546  1.00  0.00    -0.248 NA
ATOM     61  C   UNL A   1      37.520  34.320  33.459  1.00  0.00     0.031 C 
ATOM     62  C   UNL A   1      41.858  31.837  36.924  1.00  0.00     0.029 A 
ATOM     63  C   UNL A   1      40.978  32.066  35.876  1.00  0.00     0.049 A 
ATOM     64  H   UNL A   1      40.654  30.912  34.142  1.00  0.00     0.167 HD
ATOM     65  C   UNL A   1      39.197  33.321  34.670  1.00  0.00     0.074 A 
ATOM     66  C   UNL A   1      38.268  34.428  34.549  1.00  0.00     0.031 C 
ATOM     67  C   UNL A   1      40.049  33.155  35.712  1.00  0.00     0.031 A 
BRANCH  54  68
ATOM     68  C   UNL A   1      43.659  28.130  35.352  1.00  0.00    -0.014 A 
ATOM     69  C   UNL A   1      45.030  28.402  35.182  1.00  0.00     0.010 A 
ATOM     70  C   UNL A   1      43.276  27.009  36.110  1.00  0.00     0.010 A 
ATOM     71  C   UNL A   1      45.995  27.536  35.704  1.00  0.00     0.020 A 
ATOM     72  C   UNL A   1      44.241  26.158  36.662  1.00  0.00     0.020 A 
ATOM     73  C   UNL A   1      45.594  26.416  36.434  1.00  0.00     0.054 A 
BRANCH  73  74
ATOM     74  S   UNL A   1      46.868  25.312  37.104  1.00  0.00     0.124 S 
ATOM     75  O   UNL A   1      46.212  24.010  37.020  1.00  0.00    -0.237 OA
ATOM     76  O   UNL A   1      47.985  25.513  36.182  1.00  0.00    -0.237 OA
ATOM     77  O   UNL A   1      47.085  25.815  38.458  1.00  0.00    -0.744 OA
ENDBRANCH  73  74
ENDBRANCH  54  68
BRANCH  55  78
ATOM     78  C   UNL A   1      36.381  33.453  30.885  1.00  0.00    -0.014 A 
ATOM     79  C   UNL A   1      36.569  34.032  29.616  1.00  0.00     0.010 A 
ATOM     80  C   UNL A   1      35.130  33.587  31.516  1.00  0.00     0.010 A 
ATOM     81  C   UNL A   1      35.535  34.741  28.997  1.00  0.00     0.020 A 
ATOM     82  C   UNL A   1      34.085  34.276  30.889  1.00  0.00     0.020 A 
ATOM     83  C   UNL A   1      34.298  34.857  29.637  1.00  0.00     0.054 A 
BRANCH  83  84
ATOM     84  S   UNL A   1      32.953  35.732  28.787  1.00  0.00     0.124 S 
ATOM     85  O   UNL A   1      32.340  34.662  28.007  1.00  0.00    -0.237 OA
ATOM     86  O   UNL A   1      32.154  36.241  29.900  1.00  0.00    -0.237 OA
ATOM     87  O   UNL A   1      33.648  36.756  28.010  1.00  0.00    -0.744 OA
ENDBRANCH  83  84
ENDBRANCH  55  78
BRANCH  67  88
ATOM     88  C   UNL A   1      40.040  34.212  36.779  1.00  0.00    -0.014 A 
ATOM     89  C   UNL A   1      39.210  34.094  37.907  1.00  0.00     0.010 A 
ATOM     90  C   UNL A   1      40.932  35.294  36.686  1.00  0.00     0.010 A 
ATOM     91  C   UNL A   1      39.256  35.057  38.915  1.00  0.00     0.020 A 
ATOM     92  C   UNL A   1      40.999  36.247  37.703  1.00  0.00     0.020 A 
ATOM     93  C   UNL A   1      40.152  36.126  38.808  1.00  0.00     0.054 A 
BRANCH  93  94
ATOM     94  S   UNL A   1      40.236  37.333  40.159  1.00  0.00     0.124 S 
ATOM     95  O   UNL A   1      38.847  37.770  40.262  1.00  0.00    -0.237 OA
ATOM     96  O   UNL A   1      40.727  36.530  41.276  1.00  0.00    -0.237 OA
ATOM     97  O   UNL A   1      41.172  38.340  39.665  1.00  0.00    -0.744 OA
ENDBRANCH  93  94
ENDBRANCH  67  88
ENDBRANCH  41  42
ENDBRANCH  33  36
ENDBRANCH  31  32
ENDBRANCH  30  31
ENDBRANCH   1  30
TORSDOF 19
ENDMDL
MODEL 3
REMARK VINA RESULT:     -11.3      5.838     11.329
REMARK SMILES COC(=O)C[C@@H](NC(=O)c1ccccc1C(=O)NCCCNC(=O)c1ccc(-c2c3nc(c(-c4ccc(S(=O)(=O)[O-])cc4)c4ccc([nH]4)c(-c4ccc(S(=O)(=O)[O-])cc4)c4nc(c(-c5ccc(S(=O)(=O)[O-])cc5)c5ccc2[nH]5)C=C4)C=C3)cc1)c1cccc(C)c1C
REMARK SMILES IDX 19 1 18 2 16 3 17 4 15 6 10 7 11 8 12 9 14 10 13 11 8 12
REMARK SMILES IDX 7 13 9 15 6 16 5 17 3 18 4 19 2 20 1 21 85 22 86 23 91 24
REMARK SMILES IDX 87 25 89 26 92 27 88 28 90 29 20 30 21 31 22 32 23 33 24 35
REMARK SMILES IDX 25 36 26 37 84 38 27 39 83 40 28 41 29 42 30 43 77 44 31 45
REMARK SMILES IDX 82 46 76 47 78 48 32 49 81 50 75 51 74 52 33 54 63 55 44 56
REMARK SMILES IDX 62 57 45 58 48 59 61 60 79 61 46 62 47 63 60 65 80 66 49 67
REMARK SMILES IDX 34 68 35 69 43 70 36 71 42 72 37 73 38 74 39 75 40 76 41 77
REMARK SMILES IDX 64 78 65 79 73 80 66 81 72 82 67 83 68 84 69 85 70 86 71 87
REMARK SMILES IDX 50 88 51 89 59 90 52 91 58 92 53 93 54 94 55 95 56 96 57 97
REMARK H PARENT 18 5 7 14 22 34 78 53 48 64
REMARK Flexibility Score: inf
ROOT
ATOM      1  C   UNL A   1      36.590  23.138  25.680  1.00  0.00     0.118 C 
ENDROOT
BRANCH   1   2
ATOM      2  N   UNL A   1      35.713  22.716  26.753  1.00  0.00    -0.352 N 
ATOM      3  C   UNL A   1      34.375  22.483  26.829  1.00  0.00     0.252 C 
ATOM      4  O   UNL A   1      33.953  22.173  27.948  1.00  0.00    -0.269 OA
ATOM      5  H   UNL A   1      36.182  22.567  27.605  1.00  0.00     0.163 HD
BRANCH   3   6
ATOM      6  C   UNL A   1      33.401  22.595  25.714  1.00  0.00     0.052 A 
ATOM      7  C   UNL A   1      32.137  23.195  25.699  1.00  0.00     0.052 A 
ATOM      8  C   UNL A   1      31.377  23.188  24.507  1.00  0.00     0.014 A 
ATOM      9  C   UNL A   1      31.875  22.648  23.324  1.00  0.00     0.001 A 
ATOM     10  C   UNL A   1      33.893  22.072  24.492  1.00  0.00     0.014 A 
ATOM     11  C   UNL A   1      33.146  22.099  23.312  1.00  0.00     0.001 A 
BRANCH   7  12
ATOM     12  C   UNL A   1      31.395  23.796  26.817  1.00  0.00     0.252 C 
ATOM     13  N   UNL A   1      31.181  25.135  26.965  1.00  0.00    -0.345 N 
ATOM     14  H   UNL A   1      30.419  25.350  27.551  1.00  0.00     0.164 HD
ATOM     15  O   UNL A   1      30.831  23.035  27.605  1.00  0.00    -0.269 OA
BRANCH  13  16
ATOM     16  C   UNL A   1      31.855  26.319  26.427  1.00  0.00     0.124 C 
BRANCH  16  17
ATOM     17  C   UNL A   1      31.488  27.574  27.227  1.00  0.00     0.152 C 
BRANCH  17  18
ATOM     18  C   UNL A   1      32.647  28.533  27.179  1.00  0.00     0.307 C 
ATOM     19  O   UNL A   1      33.819  28.183  27.136  1.00  0.00    -0.252 OA
BRANCH  18  20
ATOM     20  O   UNL A   1      32.194  29.812  27.288  1.00  0.00    -0.469 OA
ATOM     21  C   UNL A   1      33.179  30.828  27.073  1.00  0.00     0.282 C 
ENDBRANCH  18  20
ENDBRANCH  17  18
ENDBRANCH  16  17
BRANCH  16  22
ATOM     22  C   UNL A   1      31.637  26.516  24.935  1.00  0.00    -0.022 A 
ATOM     23  C   UNL A   1      30.329  26.868  24.543  1.00  0.00     0.006 A 
ATOM     24  C   UNL A   1      32.644  26.411  23.946  1.00  0.00    -0.043 A 
ATOM     25  C   UNL A   1      30.031  27.224  23.236  1.00  0.00     0.001 A 
ATOM     26  C   UNL A   1      32.309  26.696  22.596  1.00  0.00    -0.048 A 
ATOM     27  C   UNL A   1      34.037  25.933  24.277  1.00  0.00     0.045 C 
ATOM     28  C   UNL A   1      31.020  27.150  22.270  1.00  0.00     0.004 A 
ATOM     29  C   UNL A   1      33.310  26.583  21.478  1.00  0.00     0.044 C 
ENDBRANCH  16  22
ENDBRANCH  13  16
ENDBRANCH   7  12
ENDBRANCH   3   6
ENDBRANCH   1   2
BRANCH   1  30
ATOM     30  C   UNL A   1      37.573  22.058  25.268  1.00  0.00     0.042 C 
BRANCH  30  31
ATOM     31  C   UNL A   1      38.831  22.018  26.132  1.00  0.00     0.118 C 
BRANCH  31  32
ATOM     32  N   UNL A   1      39.535  20.738  26.137  1.00  0.00    -0.352 N 
ATOM     33  C   UNL A   1      40.874  20.470  26.323  1.00  0.00     0.251 C 
ATOM     34  H   UNL A   1      38.968  19.947  25.986  1.00  0.00     0.163 HD
ATOM     35  O   UNL A   1      41.324  19.332  26.241  1.00  0.00    -0.269 OA
BRANCH  33  36
ATOM     36  C   UNL A   1      41.797  21.585  26.578  1.00  0.00     0.039 A 
ATOM     37  C   UNL A   1      42.168  22.423  25.525  1.00  0.00     0.014 A 
ATOM     38  C   UNL A   1      42.237  21.828  27.875  1.00  0.00     0.014 A 
ATOM     39  C   UNL A   1      42.896  23.580  25.801  1.00  0.00     0.010 A 
ATOM     40  C   UNL A   1      42.833  23.042  28.164  1.00  0.00     0.010 A 
ATOM     41  C   UNL A   1      43.179  23.925  27.130  1.00  0.00    -0.014 A 
BRANCH  41  42
ATOM     42  C   UNL A   1      43.881  25.175  27.498  1.00  0.00     0.031 A 
ATOM     43  C   UNL A   1      43.080  26.288  28.120  1.00  0.00     0.074 A 
ATOM     44  C   UNL A   1      45.174  25.352  27.160  1.00  0.00     0.049 A 
ATOM     45  N   UNL A   1      43.401  27.542  28.292  1.00  0.00    -0.248 NA
ATOM     46  C   UNL A   1      41.705  25.956  28.537  1.00  0.00     0.031 C 
ATOM     47  C   UNL A   1      46.032  24.357  26.510  1.00  0.00     0.029 A 
ATOM     48  N   UNL A   1      45.988  26.446  27.299  1.00  0.00    -0.354 N 
ATOM     49  C   UNL A   1      42.248  28.156  28.770  1.00  0.00     0.074 A 
ATOM     50  C   UNL A   1      41.210  27.152  28.806  1.00  0.00     0.031 C 
ATOM     51  C   UNL A   1      47.259  24.875  26.339  1.00  0.00     0.029 A 
ATOM     52  C   UNL A   1      47.260  26.253  26.815  1.00  0.00     0.049 A 
ATOM     53  H   UNL A   1      45.689  27.290  27.708  1.00  0.00     0.167 HD
ATOM     54  C   UNL A   1      42.080  29.439  29.167  1.00  0.00     0.031 A 
ATOM     55  C   UNL A   1      48.304  27.102  26.754  1.00  0.00     0.031 A 
ATOM     56  C   UNL A   1      43.147  30.399  29.191  1.00  0.00     0.049 A 
ATOM     57  C   UNL A   1      48.116  28.502  27.272  1.00  0.00     0.074 A 
ATOM     58  C   UNL A   1      43.125  31.704  29.646  1.00  0.00     0.029 A 
ATOM     59  N   UNL A   1      44.443  30.140  28.763  1.00  0.00    -0.354 N 
ATOM     60  N   UNL A   1      47.030  29.062  27.751  1.00  0.00    -0.248 NA
ATOM     61  C   UNL A   1      49.292  29.381  27.251  1.00  0.00     0.031 C 
ATOM     62  C   UNL A   1      44.405  32.243  29.471  1.00  0.00     0.029 A 
ATOM     63  C   UNL A   1      45.232  31.260  28.945  1.00  0.00     0.049 A 
ATOM     64  H   UNL A   1      44.752  29.286  28.385  1.00  0.00     0.167 HD
ATOM     65  C   UNL A   1      47.396  30.354  28.110  1.00  0.00     0.074 A 
ATOM     66  C   UNL A   1      48.807  30.485  27.806  1.00  0.00     0.031 C 
ATOM     67  C   UNL A   1      46.638  31.345  28.639  1.00  0.00     0.031 A 
BRANCH  54  68
ATOM     68  C   UNL A   1      40.701  29.852  29.612  1.00  0.00    -0.014 A 
ATOM     69  C   UNL A   1      40.420  30.114  30.966  1.00  0.00     0.010 A 
ATOM     70  C   UNL A   1      39.668  29.972  28.666  1.00  0.00     0.010 A 
ATOM     71  C   UNL A   1      39.120  30.425  31.373  1.00  0.00     0.020 A 
ATOM     72  C   UNL A   1      38.372  30.318  29.066  1.00  0.00     0.020 A 
ATOM     73  C   UNL A   1      38.102  30.518  30.421  1.00  0.00     0.054 A 
BRANCH  73  74
ATOM     74  S   UNL A   1      36.425  30.930  30.977  1.00  0.00     0.124 S 
ATOM     75  O   UNL A   1      35.999  29.678  31.596  1.00  0.00    -0.237 OA
ATOM     76  O   UNL A   1      36.656  32.039  31.900  1.00  0.00    -0.237 OA
ATOM     77  O   UNL A   1      35.729  31.285  29.743  1.00  0.00    -0.744 OA
ENDBRANCH  73  74
ENDBRANCH  54  68
BRANCH  55  78
ATOM     78  C   UNL A   1      49.614  26.641  26.220  1.00  0.00    -0.014 A 
ATOM     79  C   UNL A   1      49.997  26.969  24.906  1.00  0.00     0.010 A 
ATOM     80  C   UNL A   1      50.503  25.903  27.023  1.00  0.00     0.010 A 
ATOM     81  C   UNL A   1      51.233  26.556  24.400  1.00  0.00     0.020 A 
ATOM     82  C   UNL A   1      51.752  25.509  26.529  1.00  0.00     0.020 A 
ATOM     83  C   UNL A   1      52.105  25.830  25.217  1.00  0.00     0.054 A 
BRANCH  83  84
ATOM     84  S   UNL A   1      53.730  25.357  24.558  1.00  0.00     0.124 S 
ATOM     85  O   UNL A   1      53.751  23.919  24.807  1.00  0.00    -0.237 OA
ATOM     86  O   UNL A   1      53.630  25.754  23.155  1.00  0.00    -0.237 OA
ATOM     87  O   UNL A   1      54.666  26.146  25.357  1.00  0.00    -0.744 OA
ENDBRANCH  83  84
ENDBRANCH  55  78
BRANCH  67  88
ATOM     88  C   UNL A   1      47.328  32.640  28.957  1.00  0.00    -0.014 A 
ATOM     89  C   UNL A   1      47.961  32.838  30.196  1.00  0.00     0.010 A 
ATOM     90  C   UNL A   1      47.409  33.639  27.971  1.00  0.00     0.010 A 
ATOM     91  C   UNL A   1      48.645  34.026  30.452  1.00  0.00     0.020 A 
ATOM     92  C   UNL A   1      48.113  34.819  28.214  1.00  0.00     0.020 A 
ATOM     93  C   UNL A   1      48.719  35.009  29.459  1.00  0.00     0.054 A 
BRANCH  93  94
ATOM     94  S   UNL A   1      49.664  36.519  29.794  1.00  0.00     0.124 S 
ATOM     95  O   UNL A   1      49.054  36.990  31.034  1.00  0.00    -0.237 OA
ATOM     96  O   UNL A   1      51.032  36.021  29.915  1.00  0.00    -0.237 OA
ATOM     97  O   UNL A   1      49.412  37.352  28.620  1.00  0.00    -0.744 OA
ENDBRANCH  93  94
ENDBRANCH  67  88
ENDBRANCH  41  42
ENDBRANCH  33  36
ENDBRANCH  31  32
ENDBRANCH  30  31
ENDBRANCH   1  30
TORSDOF 19
ENDMDL
