MODEL 1
REMARK VINA RESULT:     -11.2      0.000      0.000
REMARK SMILES O=C(NCCCNC(=O)[C@]1(CCCCO)CCc2ccccc2C1)c1ccc(-c2c3nc(c(-c4ccc(S(=O)(=O)[O-])cc4)c4ccc([nH]4)c(-c4ccc(S(=O)(=O)[O-])cc4)c4nc(c(-c5ccc(S(=O)(=O)[O-])cc5)c5ccc2[nH]5)C=C4)C=C3)cc1
REMARK SMILES IDX 6 1 5 2 4 3 3 4 1 5 2 6 25 8 26 9 84 10 27 11 83 12 28 13
REMARK SMILES IDX 29 14 30 15 77 16 31 17 82 18 76 19 78 20 32 21 81 22 75 23
REMARK SMILES IDX 74 24 33 26 63 27 44 28 62 29 45 30 48 31 61 32 79 33 46 34
REMARK SMILES IDX 47 35 60 37 80 38 49 39 34 40 35 41 43 42 36 43 42 44 37 45
REMARK SMILES IDX 38 46 39 47 40 48 41 49 64 50 65 51 73 52 66 53 72 54 67 55
REMARK SMILES IDX 68 56 69 57 70 58 71 59 50 60 51 61 59 62 52 63 58 64 53 65
REMARK SMILES IDX 54 66 55 67 56 68 57 69 7 70 8 71 9 73 10 74 16 75 24 76
REMARK SMILES IDX 17 77 23 78 18 79 22 80 19 81 21 82 20 83 11 84 12 85 13 86
REMARK SMILES IDX 14 87 15 88
REMARK H PARENT 3 7 78 25 48 36 7 72 15 89
REMARK Flexibility Score: inf
ROOT
ATOM      1  C   UNL A   1      36.880  21.993  25.683  1.00  0.00     0.117 C 
ENDROOT
BRANCH   1   2
ATOM      2  C   UNL A   1      37.450  23.450  25.584  1.00  0.00     0.042 C 
BRANCH   2   3
ATOM      3  C   UNL A   1      38.469  24.067  26.556  1.00  0.00     0.118 C 
BRANCH   3   4
ATOM      4  N   UNL A   1      39.853  23.990  26.128  1.00  0.00    -0.352 N 
ATOM      5  O   UNL A   1      41.966  24.737  25.872  1.00  0.00    -0.269 OA
ATOM      6  C   UNL A   1      40.895  24.838  26.447  1.00  0.00     0.251 C 
ATOM      7  H   UNL A   1      40.077  23.237  25.533  1.00  0.00     0.163 HD
BRANCH   6   8
ATOM      8  C   UNL A   1      40.716  25.877  27.492  1.00  0.00     0.039 A 
ATOM      9  C   UNL A   1      39.759  25.716  28.497  1.00  0.00     0.014 A 
ATOM     10  C   UNL A   1      41.582  26.975  27.524  1.00  0.00     0.014 A 
ATOM     11  C   UNL A   1      39.635  26.682  29.503  1.00  0.00     0.010 A 
ATOM     12  C   UNL A   1      41.471  27.929  28.545  1.00  0.00     0.010 A 
ATOM     13  C   UNL A   1      40.493  27.797  29.544  1.00  0.00    -0.014 A 
BRANCH  13  14
ATOM     14  C   UNL A   1      40.418  28.768  30.674  1.00  0.00     0.031 A 
ATOM     15  C   UNL A   1      41.310  28.632  31.881  1.00  0.00     0.074 A 
ATOM     16  C   UNL A   1      39.520  29.774  30.614  1.00  0.00     0.049 A 
ATOM     17  N   UNL A   1      41.356  29.371  32.961  1.00  0.00    -0.248 NA
ATOM     18  C   UNL A   1      42.273  27.519  31.879  1.00  0.00     0.031 C 
ATOM     19  C   UNL A   1      38.590  30.005  29.505  1.00  0.00     0.029 A 
ATOM     20  N   UNL A   1      39.238  30.789  31.496  1.00  0.00    -0.354 N 
ATOM     21  C   UNL A   1      42.337  28.809  33.774  1.00  0.00     0.074 A 
ATOM     22  C   UNL A   1      42.851  27.654  33.067  1.00  0.00     0.031 C 
ATOM     23  C   UNL A   1      37.861  31.102  29.761  1.00  0.00     0.029 A 
ATOM     24  C   UNL A   1      38.226  31.622  31.075  1.00  0.00     0.049 A 
ATOM     25  H   UNL A   1      39.714  30.910  32.349  1.00  0.00     0.167 HD
ATOM     26  C   UNL A   1      42.765  29.217  34.994  1.00  0.00     0.031 A 
ATOM     27  C   UNL A   1      37.636  32.670  31.683  1.00  0.00     0.031 A 
ATOM     28  C   UNL A   1      42.243  30.366  35.692  1.00  0.00     0.049 A 
ATOM     29  C   UNL A   1      38.110  33.079  33.050  1.00  0.00     0.074 A 
ATOM     30  C   UNL A   1      42.637  30.882  36.915  1.00  0.00     0.029 A 
ATOM     31  N   UNL A   1      41.210  31.172  35.236  1.00  0.00    -0.354 N 
ATOM     32  N   UNL A   1      39.072  32.561  33.777  1.00  0.00    -0.248 NA
ATOM     33  C   UNL A   1      37.425  34.216  33.679  1.00  0.00     0.031 C 
ATOM     34  C   UNL A   1      41.805  31.962  37.226  1.00  0.00     0.029 A 
ATOM     35  C   UNL A   1      40.935  32.161  36.166  1.00  0.00     0.049 A 
ATOM     36  H   UNL A   1      40.741  31.058  34.378  1.00  0.00     0.167 HD
ATOM     37  C   UNL A   1      39.119  33.321  34.939  1.00  0.00     0.074 A 
ATOM     38  C   UNL A   1      38.107  34.349  34.808  1.00  0.00     0.031 C 
ATOM     39  C   UNL A   1      39.924  33.178  36.021  1.00  0.00     0.031 A 
BRANCH  26  40
ATOM     40  C   UNL A   1      43.840  28.410  35.681  1.00  0.00    -0.014 A 
ATOM     41  C   UNL A   1      45.202  28.719  35.518  1.00  0.00     0.010 A 
ATOM     42  C   UNL A   1      43.477  27.388  36.579  1.00  0.00     0.010 A 
ATOM     43  C   UNL A   1      46.180  28.006  36.221  1.00  0.00     0.020 A 
ATOM     44  C   UNL A   1      44.450  26.690  37.303  1.00  0.00     0.020 A 
ATOM     45  C   UNL A   1      45.798  26.998  37.112  1.00  0.00     0.054 A 
BRANCH  45  46
ATOM     46  S   UNL A   1      47.087  26.125  38.044  1.00  0.00     0.124 S 
ATOM     47  O   UNL A   1      47.450  25.050  37.125  1.00  0.00    -0.237 OA
ATOM     48  O   UNL A   1      48.102  27.160  38.231  1.00  0.00    -0.237 OA
ATOM     49  O   UNL A   1      46.405  25.697  39.264  1.00  0.00    -0.744 OA
ENDBRANCH  45  46
ENDBRANCH  26  40
BRANCH  27  50
ATOM     50  C   UNL A   1      36.508  33.385  31.019  1.00  0.00    -0.014 A 
ATOM     51  C   UNL A   1      36.634  33.874  29.707  1.00  0.00     0.010 A 
ATOM     52  C   UNL A   1      35.297  33.587  31.706  1.00  0.00     0.010 A 
ATOM     53  C   UNL A   1      35.583  34.573  29.106  1.00  0.00     0.020 A 
ATOM     54  C   UNL A   1      34.232  34.256  31.098  1.00  0.00     0.020 A 
ATOM     55  C   UNL A   1      34.388  34.761  29.807  1.00  0.00     0.054 A 
BRANCH  55  56
ATOM     56  S   UNL A   1      33.026  35.648  29.000  1.00  0.00     0.124 S 
ATOM     57  O   UNL A   1      32.513  34.641  28.078  1.00  0.00    -0.237 OA
ATOM     58  O   UNL A   1      32.156  35.982  30.125  1.00  0.00    -0.237 OA
ATOM     59  O   UNL A   1      33.688  36.791  28.374  1.00  0.00    -0.744 OA
ENDBRANCH  55  56
ENDBRANCH  27  50
BRANCH  39  60
ATOM     60  C   UNL A   1      39.766  34.180  37.134  1.00  0.00    -0.014 A 
ATOM     61  C   UNL A   1      40.291  35.479  37.025  1.00  0.00     0.010 A 
ATOM     62  C   UNL A   1      39.046  33.824  38.289  1.00  0.00     0.010 A 
ATOM     63  C   UNL A   1      40.131  36.395  38.069  1.00  0.00     0.020 A 
ATOM     64  C   UNL A   1      38.856  34.746  39.320  1.00  0.00     0.020 A 
ATOM     65  C   UNL A   1      39.413  36.022  39.210  1.00  0.00     0.054 A 
BRANCH  65  66
ATOM     66  S   UNL A   1      39.186  37.239  40.535  1.00  0.00     0.124 S 
ATOM     67  O   UNL A   1      38.526  36.446  41.568  1.00  0.00    -0.237 OA
ATOM     68  O   UNL A   1      40.558  37.646  40.834  1.00  0.00    -0.237 OA
ATOM     69  O   UNL A   1      38.357  38.272  39.917  1.00  0.00    -0.744 OA
ENDBRANCH  65  66
ENDBRANCH  39  60
ENDBRANCH  13  14
ENDBRANCH   6   8
ENDBRANCH   3   4
ENDBRANCH   2   3
ENDBRANCH   1   2
BRANCH   1  70
ATOM     70  N   UNL A   1      35.681  21.643  26.482  1.00  0.00    -0.356 N 
ATOM     71  C   UNL A   1      34.311  21.802  26.477  1.00  0.00     0.226 C 
ATOM     72  H   UNL A   1      35.952  21.127  27.276  1.00  0.00     0.163 HD
ATOM     73  O   UNL A   1      33.642  21.215  27.333  1.00  0.00    -0.274 OA
BRANCH  71  74
ATOM     74  C   UNL A   1      33.607  22.626  25.408  1.00  0.00     0.054 C 
ATOM     75  C   UNL A   1      34.184  22.675  23.964  1.00  0.00     0.022 C 
ATOM     76  C   UNL A   1      33.830  24.052  25.996  1.00  0.00     0.052 C 
ATOM     77  C   UNL A   1      33.452  23.749  23.095  1.00  0.00     0.037 C 
ATOM     78  C   UNL A   1      33.755  25.248  25.085  1.00  0.00    -0.044 A 
ATOM     79  C   UNL A   1      33.461  25.117  23.729  1.00  0.00    -0.045 A 
ATOM     80  C   UNL A   1      34.057  26.519  25.605  1.00  0.00     0.004 A 
ATOM     81  C   UNL A   1      33.215  26.276  22.974  1.00  0.00     0.004 A 
ATOM     82  C   UNL A   1      33.910  27.663  24.824  1.00  0.00     0.000 A 
ATOM     83  C   UNL A   1      33.426  27.544  23.526  1.00  0.00     0.000 A 
BRANCH  74  84
ATOM     84  C   UNL A   1      32.236  21.952  25.281  1.00  0.00     0.017 C 
BRANCH  84  85
ATOM     85  C   UNL A   1      30.968  22.782  25.745  1.00  0.00     0.003 C 
BRANCH  85  86
ATOM     86  C   UNL A   1      30.402  24.193  25.329  1.00  0.00     0.028 C 
BRANCH  86  87
ATOM     87  C   UNL A   1      29.897  25.469  26.071  1.00  0.00     0.156 C 
BRANCH  87  88
ATOM     88  O   UNL A   1      30.815  26.360  26.669  1.00  0.00    -0.396 OA
ATOM     89  H   UNL A   1      30.460  27.263  26.634  1.00  0.00     0.210 HD
ENDBRANCH  87  88
ENDBRANCH  86  87
ENDBRANCH  85  86
ENDBRANCH  84  85
ENDBRANCH  74  84
ENDBRANCH  71  74
ENDBRANCH   1  70
TORSDOF 18
ENDMDL
MODEL 2
REMARK VINA RESULT:     -11.2      4.582     10.224
REMARK SMILES O=C(NCCCNC(=O)[C@]1(CCCCO)CCc2ccccc2C1)c1ccc(-c2c3nc(c(-c4ccc(S(=O)(=O)[O-])cc4)c4ccc([nH]4)c(-c4ccc(S(=O)(=O)[O-])cc4)c4nc(c(-c5ccc(S(=O)(=O)[O-])cc5)c5ccc2[nH]5)C=C4)C=C3)cc1
REMARK SMILES IDX 6 1 5 2 4 3 3 4 1 5 2 6 25 8 26 9 84 10 27 11 83 12 28 13
REMARK SMILES IDX 29 14 30 15 77 16 31 17 82 18 76 19 78 20 32 21 81 22 75 23
REMARK SMILES IDX 74 24 33 26 63 27 44 28 62 29 45 30 48 31 61 32 79 33 46 34
REMARK SMILES IDX 47 35 60 37 80 38 49 39 34 40 35 41 43 42 36 43 42 44 37 45
REMARK SMILES IDX 38 46 39 47 40 48 41 49 64 50 65 51 73 52 66 53 72 54 67 55
REMARK SMILES IDX 68 56 69 57 70 58 71 59 50 60 51 61 59 62 52 63 58 64 53 65
REMARK SMILES IDX 54 66 55 67 56 68 57 69 7 70 8 71 9 73 10 74 16 75 24 76
REMARK SMILES IDX 17 77 23 78 18 79 22 80 19 81 21 82 20 83 11 84 12 85 13 86
REMARK SMILES IDX 14 87 15 88
REMARK H PARENT 3 7 78 25 48 36 7 72 15 89
REMARK Flexibility Score: inf
ROOT
ATOM      1  C   UNL A   1      33.547  27.392  24.699  1.00  0.00     0.117 C 
ENDROOT
BRANCH   1   2
ATOM      2  C   UNL A   1      34.229  27.762  26.062  1.00  0.00     0.042 C 
BRANCH   2   3
ATOM      3  C   UNL A   1      33.483  28.236  27.320  1.00  0.00     0.118 C 
BRANCH   3   4
ATOM      4  N   UNL A   1      33.372  29.675  27.463  1.00  0.00    -0.352 N 
ATOM      5  O   UNL A   1      34.003  31.721  28.174  1.00  0.00    -0.269 OA
ATOM      6  C   UNL A   1      34.308  30.560  27.962  1.00  0.00     0.251 C 
ATOM      7  H   UNL A   1      32.520  30.072  27.167  1.00  0.00     0.163 HD
BRANCH   6   8
ATOM      8  C   UNL A   1      35.692  30.100  28.243  1.00  0.00     0.039 A 
ATOM      9  C   UNL A   1      36.675  30.159  27.251  1.00  0.00     0.014 A 
ATOM     10  C   UNL A   1      36.032  29.700  29.539  1.00  0.00     0.014 A 
ATOM     11  C   UNL A   1      37.986  29.766  27.546  1.00  0.00     0.010 A 
ATOM     12  C   UNL A   1      37.351  29.329  29.837  1.00  0.00     0.010 A 
ATOM     13  C   UNL A   1      38.343  29.353  28.843  1.00  0.00    -0.014 A 
BRANCH  13  14
ATOM     14  C   UNL A   1      39.762  29.031  29.171  1.00  0.00     0.031 A 
ATOM     15  C   UNL A   1      40.665  30.051  29.816  1.00  0.00     0.074 A 
ATOM     16  C   UNL A   1      40.243  27.807  28.867  1.00  0.00     0.049 A 
ATOM     17  N   UNL A   1      41.929  29.945  30.142  1.00  0.00    -0.248 NA
ATOM     18  C   UNL A   1      40.075  31.362  30.130  1.00  0.00     0.031 C 
ATOM     19  C   UNL A   1      39.471  26.737  28.229  1.00  0.00     0.029 A 
ATOM     20  N   UNL A   1      41.487  27.252  29.049  1.00  0.00    -0.354 N 
ATOM     21  C   UNL A   1      42.293  31.175  30.684  1.00  0.00     0.074 A 
ATOM     22  C   UNL A   1      41.117  32.019  30.628  1.00  0.00     0.031 C 
ATOM     23  C   UNL A   1      40.250  25.651  28.096  1.00  0.00     0.029 A 
ATOM     24  C   UNL A   1      41.589  25.961  28.584  1.00  0.00     0.049 A 
ATOM     25  H   UNL A   1      42.234  27.733  29.472  1.00  0.00     0.167 HD
ATOM     26  C   UNL A   1      43.494  31.563  31.180  1.00  0.00     0.031 A 
ATOM     27  C   UNL A   1      42.644  25.124  28.529  1.00  0.00     0.031 A 
ATOM     28  C   UNL A   1      44.660  30.716  31.227  1.00  0.00     0.049 A 
ATOM     29  C   UNL A   1      43.972  25.593  29.056  1.00  0.00     0.074 A 
ATOM     30  C   UNL A   1      45.913  31.004  31.744  1.00  0.00     0.029 A 
ATOM     31  N   UNL A   1      44.725  29.421  30.733  1.00  0.00    -0.354 N 
ATOM     32  N   UNL A   1      44.279  26.744  29.609  1.00  0.00    -0.248 NA
ATOM     33  C   UNL A   1      45.097  24.653  28.958  1.00  0.00     0.031 C 
ATOM     34  C   UNL A   1      46.748  29.908  31.509  1.00  0.00     0.029 A 
ATOM     35  C   UNL A   1      46.000  28.910  30.906  1.00  0.00     0.049 A 
ATOM     36  H   UNL A   1      43.973  28.936  30.320  1.00  0.00     0.167 HD
ATOM     37  C   UNL A   1      45.626  26.657  29.941  1.00  0.00     0.074 A 
ATOM     38  C   UNL A   1      46.068  25.334  29.552  1.00  0.00     0.031 C 
ATOM     39  C   UNL A   1      46.425  27.590  30.512  1.00  0.00     0.031 A 
BRANCH  26  40
ATOM     40  C   UNL A   1      43.633  32.974  31.697  1.00  0.00    -0.014 A 
ATOM     41  C   UNL A   1      43.990  34.033  30.844  1.00  0.00     0.010 A 
ATOM     42  C   UNL A   1      43.307  33.260  33.037  1.00  0.00     0.010 A 
ATOM     43  C   UNL A   1      44.041  35.346  31.326  1.00  0.00     0.020 A 
ATOM     44  C   UNL A   1      43.334  34.573  33.517  1.00  0.00     0.020 A 
ATOM     45  C   UNL A   1      43.710  35.609  32.659  1.00  0.00     0.054 A 
BRANCH  45  46
ATOM     46  S   UNL A   1      43.740  37.327  33.241  1.00  0.00     0.124 S 
ATOM     47  O   UNL A   1      42.504  37.406  34.015  1.00  0.00    -0.237 OA
ATOM     48  O   UNL A   1      44.973  37.378  34.024  1.00  0.00    -0.237 OA
ATOM     49  O   UNL A   1      43.755  38.112  32.009  1.00  0.00    -0.744 OA
ENDBRANCH  45  46
ENDBRANCH  26  40
BRANCH  27  50
ATOM     50  C   UNL A   1      42.498  23.771  27.921  1.00  0.00    -0.014 A 
ATOM     51  C   UNL A   1      42.770  23.557  26.558  1.00  0.00     0.010 A 
ATOM     52  C   UNL A   1      42.077  22.684  28.709  1.00  0.00     0.010 A 
ATOM     53  C   UNL A   1      42.596  22.291  25.990  1.00  0.00     0.020 A 
ATOM     54  C   UNL A   1      41.934  21.409  28.153  1.00  0.00     0.020 A 
ATOM     55  C   UNL A   1      42.178  21.225  26.792  1.00  0.00     0.054 A 
BRANCH  55  56
ATOM     56  S   UNL A   1      41.985  19.584  26.042  1.00  0.00     0.124 S 
ATOM     57  O   UNL A   1      42.462  18.707  27.104  1.00  0.00    -0.237 OA
ATOM     58  O   UNL A   1      40.550  19.529  25.769  1.00  0.00    -0.237 OA
ATOM     59  O   UNL A   1      42.834  19.650  24.854  1.00  0.00    -0.744 OA
ENDBRANCH  55  56
ENDBRANCH  27  50
BRANCH  39  60
ATOM     60  C   UNL A   1      47.854  27.200  30.784  1.00  0.00    -0.014 A 
ATOM     61  C   UNL A   1      48.886  27.542  29.892  1.00  0.00     0.010 A 
ATOM     62  C   UNL A   1      48.171  26.514  31.971  1.00  0.00     0.010 A 
ATOM     63  C   UNL A   1      50.206  27.172  30.165  1.00  0.00     0.020 A 
ATOM     64  C   UNL A   1      49.493  26.171  32.263  1.00  0.00     0.020 A 
ATOM     65  C   UNL A   1      50.501  26.488  31.350  1.00  0.00     0.054 A 
BRANCH  65  66
ATOM     66  S   UNL A   1      52.226  26.053  31.699  1.00  0.00     0.124 S 
ATOM     67  O   UNL A   1      52.637  27.131  32.594  1.00  0.00    -0.237 OA
ATOM     68  O   UNL A   1      52.104  24.735  32.317  1.00  0.00    -0.237 OA
ATOM     69  O   UNL A   1      52.859  26.060  30.382  1.00  0.00    -0.744 OA
ENDBRANCH  65  66
ENDBRANCH  39  60
ENDBRANCH  13  14
ENDBRANCH   6   8
ENDBRANCH   3   4
ENDBRANCH   2   3
ENDBRANCH   1   2
BRANCH   1  70
ATOM     70  N   UNL A   1      32.230  26.719  24.605  1.00  0.00    -0.356 N 
ATOM     71  C   UNL A   1      31.638  25.494  24.835  1.00  0.00     0.226 C 
ATOM     72  H   UNL A   1      31.557  27.354  24.269  1.00  0.00     0.163 HD
ATOM     73  O   UNL A   1      30.413  25.396  24.719  1.00  0.00    -0.274 OA
BRANCH  71  74
ATOM     74  C   UNL A   1      32.449  24.288  25.286  1.00  0.00     0.054 C 
ATOM     75  C   UNL A   1      33.355  24.392  26.548  1.00  0.00     0.022 C 
ATOM     76  C   UNL A   1      33.427  24.170  24.078  1.00  0.00     0.052 C 
ATOM     77  C   UNL A   1      34.267  23.132  26.700  1.00  0.00     0.037 C 
ATOM     78  C   UNL A   1      34.736  23.447  24.254  1.00  0.00    -0.044 A 
ATOM     79  C   UNL A   1      35.087  22.853  25.465  1.00  0.00    -0.045 A 
ATOM     80  C   UNL A   1      35.654  23.435  23.189  1.00  0.00     0.004 A 
ATOM     81  C   UNL A   1      36.226  22.033  25.513  1.00  0.00     0.004 A 
ATOM     82  C   UNL A   1      36.835  22.701  23.273  1.00  0.00     0.000 A 
ATOM     83  C   UNL A   1      37.089  21.948  24.414  1.00  0.00     0.000 A 
BRANCH  74  84
ATOM     84  C   UNL A   1      31.380  23.246  25.633  1.00  0.00     0.017 C 
BRANCH  84  85
ATOM     85  C   UNL A   1      31.321  21.935  24.744  1.00  0.00     0.003 C 
BRANCH  85  86
ATOM     86  C   UNL A   1      32.284  20.695  24.603  1.00  0.00     0.028 C 
BRANCH  86  87
ATOM     87  C   UNL A   1      32.709  19.489  25.498  1.00  0.00     0.156 C 
BRANCH  87  88
ATOM     88  O   UNL A   1      33.334  19.709  26.745  1.00  0.00    -0.396 OA
ATOM     89  H   UNL A   1      33.118  20.600  27.064  1.00  0.00     0.210 HD
ENDBRANCH  87  88
ENDBRANCH  86  87
ENDBRANCH  85  86
ENDBRANCH  84  85
ENDBRANCH  74  84
ENDBRANCH  71  74
ENDBRANCH   1  70
TORSDOF 18
ENDMDL
MODEL 3
REMARK VINA RESULT:     -10.9      2.725      8.354
REMARK SMILES O=C(NCCCNC(=O)[C@]1(CCCCO)CCc2ccccc2C1)c1ccc(-c2c3nc(c(-c4ccc(S(=O)(=O)[O-])cc4)c4ccc([nH]4)c(-c4ccc(S(=O)(=O)[O-])cc4)c4nc(c(-c5ccc(S(=O)(=O)[O-])cc5)c5ccc2[nH]5)C=C4)C=C3)cc1
REMARK SMILES IDX 6 1 5 2 4 3 3 4 1 5 2 6 25 8 26 9 84 10 27 11 83 12 28 13
REMARK SMILES IDX 29 14 30 15 77 16 31 17 82 18 76 19 78 20 32 21 81 22 75 23
REMARK SMILES IDX 74 24 33 26 63 27 44 28 62 29 45 30 48 31 61 32 79 33 46 34
REMARK SMILES IDX 47 35 60 37 80 38 49 39 34 40 35 41 43 42 36 43 42 44 37 45
REMARK SMILES IDX 38 46 39 47 40 48 41 49 64 50 65 51 73 52 66 53 72 54 67 55
REMARK SMILES IDX 68 56 69 57 70 58 71 59 50 60 51 61 59 62 52 63 58 64 53 65
REMARK SMILES IDX 54 66 55 67 56 68 57 69 7 70 8 71 9 73 10 74 16 75 24 76
REMARK SMILES IDX 17 77 23 78 18 79 22 80 19 81 21 82 20 83 11 84 12 85 13 86
REMARK SMILES IDX 14 87 15 88
REMARK H PARENT 3 7 78 25 48 36 7 72 15 89
REMARK Flexibility Score: inf
ROOT
ATOM      1  C   UNL A   1      32.009  30.129  25.844  1.00  0.00     0.117 C 
ENDROOT
BRANCH   1   2
ATOM      2  C   UNL A   1      32.698  30.544  27.190  1.00  0.00     0.042 C 
BRANCH   2   3
ATOM      3  C   UNL A   1      33.740  31.666  27.338  1.00  0.00     0.118 C 
BRANCH   3   4
ATOM      4  N   UNL A   1      33.199  32.963  27.697  1.00  0.00    -0.352 N 
ATOM      5  O   UNL A   1      32.900  34.766  29.020  1.00  0.00    -0.269 OA
ATOM      6  C   UNL A   1      33.564  33.780  28.750  1.00  0.00     0.251 C 
ATOM      7  H   UNL A   1      32.480  33.304  27.118  1.00  0.00     0.163 HD
BRANCH   6   8
ATOM      8  C   UNL A   1      34.769  33.459  29.558  1.00  0.00     0.039 A 
ATOM      9  C   UNL A   1      34.706  32.508  30.579  1.00  0.00     0.014 A 
ATOM     10  C   UNL A   1      35.994  34.042  29.222  1.00  0.00     0.014 A 
ATOM     11  C   UNL A   1      35.861  32.182  31.299  1.00  0.00     0.010 A 
ATOM     12  C   UNL A   1      37.155  33.697  29.930  1.00  0.00     0.010 A 
ATOM     13  C   UNL A   1      37.101  32.766  30.981  1.00  0.00    -0.014 A 
BRANCH  13  14
ATOM     14  C   UNL A   1      38.343  32.340  31.688  1.00  0.00     0.031 A 
ATOM     15  C   UNL A   1      39.292  31.345  31.069  1.00  0.00     0.074 A 
ATOM     16  C   UNL A   1      38.607  32.845  32.911  1.00  0.00     0.049 A 
ATOM     17  N   UNL A   1      40.399  30.847  31.558  1.00  0.00    -0.248 NA
ATOM     18  C   UNL A   1      38.951  30.840  29.729  1.00  0.00     0.031 C 
ATOM     19  C   UNL A   1      37.758  33.805  33.623  1.00  0.00     0.029 A 
ATOM     20  N   UNL A   1      39.654  32.629  33.774  1.00  0.00    -0.354 N 
ATOM     21  C   UNL A   1      40.882  29.960  30.598  1.00  0.00     0.074 A 
ATOM     22  C   UNL A   1      39.934  29.977  29.503  1.00  0.00     0.031 C 
ATOM     23  C   UNL A   1      38.330  34.112  34.799  1.00  0.00     0.029 A 
ATOM     24  C   UNL A   1      39.553  33.331  34.953  1.00  0.00     0.049 A 
ATOM     25  H   UNL A   1      40.406  32.028  33.568  1.00  0.00     0.167 HD
ATOM     26  C   UNL A   1      42.006  29.203  30.631  1.00  0.00     0.031 A 
ATOM     27  C   UNL A   1      40.337  33.332  36.049  1.00  0.00     0.031 A 
ATOM     28  C   UNL A   1      42.940  29.189  31.729  1.00  0.00     0.049 A 
ATOM     29  C   UNL A   1      41.560  32.457  36.069  1.00  0.00     0.074 A 
ATOM     30  C   UNL A   1      44.128  28.484  31.840  1.00  0.00     0.029 A 
ATOM     31  N   UNL A   1      42.793  29.904  32.908  1.00  0.00    -0.354 N 
ATOM     32  N   UNL A   1      42.020  31.664  35.130  1.00  0.00    -0.248 NA
ATOM     33  C   UNL A   1      42.373  32.478  37.292  1.00  0.00     0.031 C 
ATOM     34  C   UNL A   1      44.666  28.727  33.108  1.00  0.00     0.029 A 
ATOM     35  C   UNL A   1      43.850  29.634  33.762  1.00  0.00     0.049 A 
ATOM     36  H   UNL A   1      42.046  30.514  33.110  1.00  0.00     0.167 HD
ATOM     37  C   UNL A   1      43.186  31.108  35.643  1.00  0.00     0.074 A 
ATOM     38  C   UNL A   1      43.374  31.673  36.963  1.00  0.00     0.031 C 
ATOM     39  C   UNL A   1      44.023  30.206  35.074  1.00  0.00     0.031 A 
BRANCH  26  40
ATOM     40  C   UNL A   1      42.293  28.299  29.457  1.00  0.00    -0.014 A 
ATOM     41  C   UNL A   1      41.721  27.017  29.364  1.00  0.00     0.010 A 
ATOM     42  C   UNL A   1      43.071  28.776  28.384  1.00  0.00     0.010 A 
ATOM     43  C   UNL A   1      41.941  26.223  28.232  1.00  0.00     0.020 A 
ATOM     44  C   UNL A   1      43.272  27.996  27.241  1.00  0.00     0.020 A 
ATOM     45  C   UNL A   1      42.713  26.718  27.176  1.00  0.00     0.054 A 
BRANCH  45  46
ATOM     46  S   UNL A   1      42.939  25.683  25.703  1.00  0.00     0.124 S 
ATOM     47  O   UNL A   1      43.171  24.366  26.292  1.00  0.00    -0.237 OA
ATOM     48  O   UNL A   1      41.666  25.841  25.003  1.00  0.00    -0.237 OA
ATOM     49  O   UNL A   1      44.093  26.278  25.033  1.00  0.00    -0.744 OA
ENDBRANCH  45  46
ENDBRANCH  26  40
BRANCH  27  50
ATOM     50  C   UNL A   1      39.971  34.162  37.233  1.00  0.00    -0.014 A 
ATOM     51  C   UNL A   1      40.409  35.494  37.345  1.00  0.00     0.010 A 
ATOM     52  C   UNL A   1      39.184  33.616  38.264  1.00  0.00     0.010 A 
ATOM     53  C   UNL A   1      40.090  36.253  38.475  1.00  0.00     0.020 A 
ATOM     54  C   UNL A   1      38.835  34.381  39.379  1.00  0.00     0.020 A 
ATOM     55  C   UNL A   1      39.305  35.690  39.486  1.00  0.00     0.054 A 
BRANCH  55  56
ATOM     56  S   UNL A   1      38.880  36.701  40.932  1.00  0.00     0.124 S 
ATOM     57  O   UNL A   1      38.434  37.943  40.313  1.00  0.00    -0.237 OA
ATOM     58  O   UNL A   1      37.838  35.905  41.579  1.00  0.00    -0.237 OA
ATOM     59  O   UNL A   1      40.138  36.784  41.672  1.00  0.00    -0.744 OA
ENDBRANCH  55  56
ENDBRANCH  27  50
BRANCH  39  60
ATOM     60  C   UNL A   1      45.239  29.802  35.864  1.00  0.00    -0.014 A 
ATOM     61  C   UNL A   1      46.459  30.486  35.726  1.00  0.00     0.010 A 
ATOM     62  C   UNL A   1      45.145  28.745  36.788  1.00  0.00     0.010 A 
ATOM     63  C   UNL A   1      47.576  30.097  36.472  1.00  0.00     0.020 A 
ATOM     64  C   UNL A   1      46.249  28.373  37.559  1.00  0.00     0.020 A 
ATOM     65  C   UNL A   1      47.463  29.042  37.384  1.00  0.00     0.054 A 
BRANCH  65  66
ATOM     66  S   UNL A   1      48.914  28.580  38.367  1.00  0.00     0.124 S 
ATOM     67  O   UNL A   1      49.274  29.849  38.994  1.00  0.00    -0.237 OA
ATOM     68  O   UNL A   1      48.379  27.563  39.269  1.00  0.00    -0.237 OA
ATOM     69  O   UNL A   1      49.864  28.085  37.372  1.00  0.00    -0.744 OA
ENDBRANCH  65  66
ENDBRANCH  39  60
ENDBRANCH  13  14
ENDBRANCH   6   8
ENDBRANCH   3   4
ENDBRANCH   2   3
ENDBRANCH   1   2
BRANCH   1  70
ATOM     70  N   UNL A   1      32.761  29.655  24.659  1.00  0.00    -0.356 N 
ATOM     71  C   UNL A   1      33.037  28.497  23.962  1.00  0.00     0.226 C 
ATOM     72  H   UNL A   1      33.211  30.417  24.227  1.00  0.00     0.163 HD
ATOM     73  O   UNL A   1      33.659  28.579  22.898  1.00  0.00    -0.274 OA
BRANCH  71  74
ATOM     74  C   UNL A   1      32.538  27.141  24.438  1.00  0.00     0.054 C 
ATOM     75  C   UNL A   1      31.923  26.998  25.861  1.00  0.00     0.022 C 
ATOM     76  C   UNL A   1      33.895  26.374  24.491  1.00  0.00     0.052 C 
ATOM     77  C   UNL A   1      31.692  25.497  26.233  1.00  0.00     0.037 C 
ATOM     78  C   UNL A   1      34.019  25.150  25.359  1.00  0.00    -0.044 A 
ATOM     79  C   UNL A   1      32.942  24.664  26.097  1.00  0.00    -0.045 A 
ATOM     80  C   UNL A   1      35.274  24.526  25.478  1.00  0.00     0.004 A 
ATOM     81  C   UNL A   1      33.063  23.417  26.732  1.00  0.00     0.004 A 
ATOM     82  C   UNL A   1      35.415  23.339  26.193  1.00  0.00     0.000 A 
ATOM     83  C   UNL A   1      34.293  22.752  26.767  1.00  0.00     0.000 A 
BRANCH  74  84
ATOM     84  C   UNL A   1      31.402  26.813  23.464  1.00  0.00     0.017 C 
BRANCH  84  85
ATOM     85  C   UNL A   1      30.015  27.548  23.684  1.00  0.00     0.003 C 
BRANCH  85  86
ATOM     86  C   UNL A   1      29.488  28.979  23.287  1.00  0.00     0.028 C 
BRANCH  86  87
ATOM     87  C   UNL A   1      29.529  29.883  22.016  1.00  0.00     0.156 C 
BRANCH  87  88
ATOM     88  O   UNL A   1      30.750  30.130  21.351  1.00  0.00    -0.396 OA
ATOM     89  H   UNL A   1      30.638  29.977  20.400  1.00  0.00     0.210 HD
ENDBRANCH  87  88
ENDBRANCH  86  87
ENDBRANCH  85  86
ENDBRANCH  84  85
ENDBRANCH  74  84
ENDBRANCH  71  74
ENDBRANCH   1  70
TORSDOF 18
ENDMDL
