MODEL 1
REMARK VINA RESULT:     -10.5      0.000      0.000
REMARK SMILES COc1ccc(OCc2cccs2)c(C(=O)NCCCNC(=O)c2ccc(-c3c4nc(c(-c5ccc(S(=O)(=O)[O-])cc5)c5ccc([nH]5)c(-c5ccc(S(=O)(=O)[O-])cc5)c5nc(c(-c6ccc(S(=O)(=O)[O-])cc6)c6ccc3[nH]6)C=C5)C=C4)cc2)c1
REMARK SMILES IDX 19 1 18 2 17 3 15 4 16 5 14 7 3 8 4 9 84 10 5 11 6 12 2 13
REMARK SMILES IDX 1 14 7 15 8 16 9 17 10 18 13 19 11 20 12 21 20 22 21 23
REMARK SMILES IDX 22 24 23 26 24 27 25 28 83 29 26 30 82 31 27 32 28 33 29 34
REMARK SMILES IDX 76 35 30 36 81 37 75 38 77 39 31 40 80 41 74 42 73 43 32 45
REMARK SMILES IDX 62 46 43 47 61 48 44 49 47 50 60 51 78 52 45 53 46 54 59 56
REMARK SMILES IDX 79 57 48 58 33 59 34 60 42 61 35 62 41 63 36 64 37 65 38 66
REMARK SMILES IDX 39 67 40 68 63 69 64 70 72 71 65 72 71 73 66 74 67 75 68 76
REMARK SMILES IDX 69 77 70 78 49 79 50 80 58 81 51 82 57 83 52 84 53 85 54 86
REMARK SMILES IDX 55 87 56 88
REMARK H PARENT 17 6 21 25 77 44 47 55
REMARK Flexibility Score: inf
ROOT
ATOM      1  C   UNL A   1      34.033  28.548  25.760  1.00  0.00     0.042 C 
ENDROOT
BRANCH   1   2
ATOM      2  C   UNL A   1      33.064  29.326  24.873  1.00  0.00     0.118 C 
BRANCH   2   3
ATOM      3  N   UNL A   1      33.460  29.165  23.481  1.00  0.00    -0.352 N 
ATOM      4  C   UNL A   1      33.557  28.073  22.660  1.00  0.00     0.255 C 
ATOM      5  O   UNL A   1      34.211  28.189  21.626  1.00  0.00    -0.269 OA
ATOM      6  H   UNL A   1      33.710  30.011  23.043  1.00  0.00     0.163 HD
BRANCH   4   7
ATOM      7  C   UNL A   1      32.877  26.791  22.950  1.00  0.00     0.085 A 
ATOM      8  C   UNL A   1      33.098  24.436  23.553  1.00  0.00     0.119 A 
ATOM      9  C   UNL A   1      31.798  24.209  23.125  1.00  0.00     0.050 A 
ATOM     10  C   UNL A   1      33.656  25.703  23.394  1.00  0.00     0.064 A 
ATOM     11  C   UNL A   1      31.021  25.275  22.673  1.00  0.00     0.051 A 
ATOM     12  C   UNL A   1      31.521  26.587  22.644  1.00  0.00     0.132 A 
BRANCH   8  13
ATOM     13  O   UNL A   1      33.767  23.348  24.040  1.00  0.00    -0.497 OA
ATOM     14  C   UNL A   1      33.276  22.089  23.583  1.00  0.00     0.278 C 
ENDBRANCH   8  13
BRANCH  12  15
ATOM     15  O   UNL A   1      30.543  27.472  22.289  1.00  0.00    -0.487 OA
BRANCH  15  16
ATOM     16  C   UNL A   1      29.441  27.827  23.127  1.00  0.00     0.276 C 
BRANCH  16  17
ATOM     17  C   UNL A   1      28.892  29.190  22.799  1.00  0.00     0.042 A 
ATOM     18  C   UNL A   1      27.758  29.818  23.277  1.00  0.00     0.019 A 
ATOM     19  S   UNL A   1      29.787  30.252  21.786  1.00  0.00    -0.145 S 
ATOM     20  C   UNL A   1      27.653  31.175  22.866  1.00  0.00     0.012 A 
ATOM     21  C   UNL A   1      28.703  31.545  22.059  1.00  0.00     0.065 A 
ENDBRANCH  16  17
ENDBRANCH  15  16
ENDBRANCH  12  15
ENDBRANCH   4   7
ENDBRANCH   2   3
ENDBRANCH   1   2
BRANCH   1  22
ATOM     22  C   UNL A   1      33.663  28.657  27.237  1.00  0.00     0.118 C 
BRANCH  22  23
ATOM     23  N   UNL A   1      33.553  30.048  27.657  1.00  0.00    -0.352 N 
ATOM     24  C   UNL A   1      34.448  30.806  28.376  1.00  0.00     0.251 C 
ATOM     25  H   UNL A   1      32.725  30.509  27.389  1.00  0.00     0.163 HD
ATOM     26  O   UNL A   1      34.091  31.859  28.885  1.00  0.00    -0.269 OA
BRANCH  24  27
ATOM     27  C   UNL A   1      35.837  30.324  28.531  1.00  0.00     0.039 A 
ATOM     28  C   UNL A   1      36.732  30.454  27.469  1.00  0.00     0.014 A 
ATOM     29  C   UNL A   1      36.248  29.754  29.739  1.00  0.00     0.014 A 
ATOM     30  C   UNL A   1      38.062  30.065  27.643  1.00  0.00     0.010 A 
ATOM     31  C   UNL A   1      37.590  29.463  29.940  1.00  0.00     0.010 A 
ATOM     32  C   UNL A   1      38.509  29.599  28.890  1.00  0.00    -0.014 A 
BRANCH  32  33
ATOM     33  C   UNL A   1      39.928  29.226  29.120  1.00  0.00     0.031 A 
ATOM     34  C   UNL A   1      40.888  30.246  29.674  1.00  0.00     0.074 A 
ATOM     35  C   UNL A   1      40.363  28.002  28.764  1.00  0.00     0.049 A 
ATOM     36  N   UNL A   1      42.176  30.141  29.877  1.00  0.00    -0.248 NA
ATOM     37  C   UNL A   1      40.335  31.569  30.013  1.00  0.00     0.031 C 
ATOM     38  C   UNL A   1      39.537  26.946  28.171  1.00  0.00     0.029 A 
ATOM     39  N   UNL A   1      41.611  27.438  28.845  1.00  0.00    -0.354 N 
ATOM     40  C   UNL A   1      42.586  31.384  30.343  1.00  0.00     0.074 A 
ATOM     41  C   UNL A   1      41.427  32.247  30.332  1.00  0.00     0.031 C 
ATOM     42  C   UNL A   1      40.293  25.853  27.977  1.00  0.00     0.029 A 
ATOM     43  C   UNL A   1      41.663  26.142  28.387  1.00  0.00     0.049 A 
ATOM     44  H   UNL A   1      42.396  27.916  29.198  1.00  0.00     0.167 HD
ATOM     45  C   UNL A   1      43.814  31.769  30.766  1.00  0.00     0.031 A 
ATOM     46  C   UNL A   1      42.699  25.286  28.303  1.00  0.00     0.031 A 
ATOM     47  C   UNL A   1      44.959  30.899  30.792  1.00  0.00     0.049 A 
ATOM     48  C   UNL A   1      44.054  25.735  28.778  1.00  0.00     0.074 A 
ATOM     49  C   UNL A   1      46.233  31.167  31.258  1.00  0.00     0.029 A 
ATOM     50  N   UNL A   1      44.966  29.590  30.333  1.00  0.00    -0.354 N 
ATOM     51  N   UNL A   1      44.408  26.894  29.279  1.00  0.00    -0.248 NA
ATOM     52  C   UNL A   1      45.146  24.756  28.687  1.00  0.00     0.031 C 
ATOM     53  C   UNL A   1      47.025  30.037  31.031  1.00  0.00     0.029 A 
ATOM     54  C   UNL A   1      46.229  29.044  30.482  1.00  0.00     0.049 A 
ATOM     55  H   UNL A   1      44.188  29.120  29.956  1.00  0.00     0.167 HD
ATOM     56  C   UNL A   1      45.759  26.776  29.590  1.00  0.00     0.074 A 
ATOM     57  C   UNL A   1      46.151  25.427  29.235  1.00  0.00     0.031 C 
ATOM     58  C   UNL A   1      46.598  27.699  30.121  1.00  0.00     0.031 A 
BRANCH  45  59
ATOM     59  C   UNL A   1      43.975  33.191  31.236  1.00  0.00    -0.014 A 
ATOM     60  C   UNL A   1      43.780  33.538  32.586  1.00  0.00     0.010 A 
ATOM     61  C   UNL A   1      44.350  34.193  30.322  1.00  0.00     0.010 A 
ATOM     62  C   UNL A   1      43.911  34.865  33.004  1.00  0.00     0.020 A 
ATOM     63  C   UNL A   1      44.514  35.517  30.743  1.00  0.00     0.020 A 
ATOM     64  C   UNL A   1      44.274  35.846  32.079  1.00  0.00     0.054 A 
BRANCH  64  65
ATOM     65  S   UNL A   1      44.457  37.557  32.655  1.00  0.00     0.124 S 
ATOM     66  O   UNL A   1      44.046  38.316  31.476  1.00  0.00    -0.237 OA
ATOM     67  O   UNL A   1      43.538  37.612  33.788  1.00  0.00    -0.237 OA
ATOM     68  O   UNL A   1      45.873  37.658  32.998  1.00  0.00    -0.744 OA
ENDBRANCH  64  65
ENDBRANCH  45  59
BRANCH  46  69
ATOM     69  C   UNL A   1      42.488  23.911  27.769  1.00  0.00    -0.014 A 
ATOM     70  C   UNL A   1      42.270  22.833  28.645  1.00  0.00     0.010 A 
ATOM     71  C   UNL A   1      42.486  23.675  26.382  1.00  0.00     0.010 A 
ATOM     72  C   UNL A   1      42.072  21.541  28.146  1.00  0.00     0.020 A 
ATOM     73  C   UNL A   1      42.260  22.391  25.879  1.00  0.00     0.020 A 
ATOM     74  C   UNL A   1      42.065  21.330  26.764  1.00  0.00     0.054 A 
BRANCH  74  75
ATOM     75  S   UNL A   1      41.754  19.654  26.139  1.00  0.00     0.124 S 
ATOM     76  O   UNL A   1      42.664  19.581  25.001  1.00  0.00    -0.237 OA
ATOM     77  O   UNL A   1      42.104  18.821  27.286  1.00  0.00    -0.237 OA
ATOM     78  O   UNL A   1      40.331  19.674  25.805  1.00  0.00    -0.744 OA
ENDBRANCH  74  75
ENDBRANCH  46  69
BRANCH  58  79
ATOM     79  C   UNL A   1      48.017  27.272  30.383  1.00  0.00    -0.014 A 
ATOM     80  C   UNL A   1      49.048  27.566  29.473  1.00  0.00     0.010 A 
ATOM     81  C   UNL A   1      48.331  26.618  31.590  1.00  0.00     0.010 A 
ATOM     82  C   UNL A   1      50.363  27.185  29.752  1.00  0.00     0.020 A 
ATOM     83  C   UNL A   1      49.649  26.263  31.884  1.00  0.00     0.020 A 
ATOM     84  C   UNL A   1      50.654  26.535  30.956  1.00  0.00     0.054 A 
BRANCH  84  85
ATOM     85  S   UNL A   1      52.376  26.091  31.312  1.00  0.00     0.124 S 
ATOM     86  O   UNL A   1      52.801  27.190  32.175  1.00  0.00    -0.237 OA
ATOM     87  O   UNL A   1      52.242  24.791  31.967  1.00  0.00    -0.237 OA
ATOM     88  O   UNL A   1      53.005  26.055  29.994  1.00  0.00    -0.744 OA
ENDBRANCH  84  85
ENDBRANCH  58  79
ENDBRANCH  32  33
ENDBRANCH  24  27
ENDBRANCH  22  23
ENDBRANCH   1  22
TORSDOF 17
ENDMDL
MODEL 2
REMARK VINA RESULT:     -10.5      1.320      3.212
REMARK SMILES COc1ccc(OCc2cccs2)c(C(=O)NCCCNC(=O)c2ccc(-c3c4nc(c(-c5ccc(S(=O)(=O)[O-])cc5)c5ccc([nH]5)c(-c5ccc(S(=O)(=O)[O-])cc5)c5nc(c(-c6ccc(S(=O)(=O)[O-])cc6)c6ccc3[nH]6)C=C5)C=C4)cc2)c1
REMARK SMILES IDX 19 1 18 2 17 3 15 4 16 5 14 7 3 8 4 9 84 10 5 11 6 12 2 13
REMARK SMILES IDX 1 14 7 15 8 16 9 17 10 18 13 19 11 20 12 21 20 22 21 23
REMARK SMILES IDX 22 24 23 26 24 27 25 28 83 29 26 30 82 31 27 32 28 33 29 34
REMARK SMILES IDX 76 35 30 36 81 37 75 38 77 39 31 40 80 41 74 42 73 43 32 45
REMARK SMILES IDX 62 46 43 47 61 48 44 49 47 50 60 51 78 52 45 53 46 54 59 56
REMARK SMILES IDX 79 57 48 58 33 59 34 60 42 61 35 62 41 63 36 64 37 65 38 66
REMARK SMILES IDX 39 67 40 68 63 69 64 70 72 71 65 72 71 73 66 74 67 75 68 76
REMARK SMILES IDX 69 77 70 78 49 79 50 80 58 81 51 82 57 83 52 84 53 85 54 86
REMARK SMILES IDX 55 87 56 88
REMARK H PARENT 17 6 21 25 77 44 47 55
REMARK Flexibility Score: inf
ROOT
ATOM      1  C   UNL A   1      33.914  27.799  25.896  1.00  0.00     0.042 C 
ENDROOT
BRANCH   1   2
ATOM      2  C   UNL A   1      33.682  28.891  24.855  1.00  0.00     0.118 C 
BRANCH   2   3
ATOM      3  N   UNL A   1      33.927  28.342  23.528  1.00  0.00    -0.352 N 
ATOM      4  C   UNL A   1      33.168  27.577  22.683  1.00  0.00     0.255 C 
ATOM      5  O   UNL A   1      33.741  27.004  21.759  1.00  0.00    -0.269 OA
ATOM      6  H   UNL A   1      34.816  28.564  23.169  1.00  0.00     0.163 HD
BRANCH   4   7
ATOM      7  C   UNL A   1      31.699  27.455  22.815  1.00  0.00     0.085 A 
ATOM      8  C   UNL A   1      29.522  28.543  22.639  1.00  0.00     0.119 A 
ATOM      9  C   UNL A   1      28.958  27.529  23.400  1.00  0.00     0.050 A 
ATOM     10  C   UNL A   1      30.897  28.543  22.414  1.00  0.00     0.064 A 
ATOM     11  C   UNL A   1      29.744  26.453  23.811  1.00  0.00     0.051 A 
ATOM     12  C   UNL A   1      31.103  26.363  23.468  1.00  0.00     0.132 A 
BRANCH   8  13
ATOM     13  O   UNL A   1      28.666  29.527  22.224  1.00  0.00    -0.497 OA
ATOM     14  C   UNL A   1      27.382  29.504  22.844  1.00  0.00     0.278 C 
ENDBRANCH   8  13
BRANCH  12  15
ATOM     15  O   UNL A   1      31.627  25.168  23.869  1.00  0.00    -0.487 OA
BRANCH  15  16
ATOM     16  C   UNL A   1      30.872  24.135  24.505  1.00  0.00     0.276 C 
BRANCH  16  17
ATOM     17  C   UNL A   1      31.580  22.807  24.468  1.00  0.00     0.042 A 
ATOM     18  C   UNL A   1      31.828  21.914  25.494  1.00  0.00     0.019 A 
ATOM     19  S   UNL A   1      32.094  22.152  22.964  1.00  0.00    -0.145 S 
ATOM     20  C   UNL A   1      32.377  20.682  25.046  1.00  0.00     0.012 A 
ATOM     21  C   UNL A   1      32.561  20.673  23.683  1.00  0.00     0.065 A 
ENDBRANCH  16  17
ENDBRANCH  15  16
ENDBRANCH  12  15
ENDBRANCH   4   7
ENDBRANCH   2   3
ENDBRANCH   1   2
BRANCH   1  22
ATOM     22  C   UNL A   1      33.503  28.253  27.295  1.00  0.00     0.118 C 
BRANCH  22  23
ATOM     23  N   UNL A   1      33.444  29.706  27.388  1.00  0.00    -0.352 N 
ATOM     24  C   UNL A   1      34.364  30.576  27.928  1.00  0.00     0.251 C 
ATOM     25  H   UNL A   1      32.636  30.124  27.011  1.00  0.00     0.163 HD
ATOM     26  O   UNL A   1      34.044  31.729  28.180  1.00  0.00    -0.269 OA
BRANCH  24  27
ATOM     27  C   UNL A   1      35.732  30.092  28.207  1.00  0.00     0.039 A 
ATOM     28  C   UNL A   1      36.690  30.116  27.193  1.00  0.00     0.014 A 
ATOM     29  C   UNL A   1      36.063  29.627  29.483  1.00  0.00     0.014 A 
ATOM     30  C   UNL A   1      38.000  29.727  27.478  1.00  0.00     0.010 A 
ATOM     31  C   UNL A   1      37.386  29.338  29.788  1.00  0.00     0.010 A 
ATOM     32  C   UNL A   1      38.366  29.370  28.786  1.00  0.00    -0.014 A 
BRANCH  32  33
ATOM     33  C   UNL A   1      39.762  29.001  29.131  1.00  0.00     0.031 A 
ATOM     34  C   UNL A   1      40.661  30.014  29.793  1.00  0.00     0.074 A 
ATOM     35  C   UNL A   1      40.239  27.789  28.786  1.00  0.00     0.049 A 
ATOM     36  N   UNL A   1      41.926  29.912  30.107  1.00  0.00    -0.248 NA
ATOM     37  C   UNL A   1      40.067  31.323  30.114  1.00  0.00     0.031 C 
ATOM     38  C   UNL A   1      39.479  26.742  28.096  1.00  0.00     0.029 A 
ATOM     39  N   UNL A   1      41.480  27.233  28.963  1.00  0.00    -0.354 N 
ATOM     40  C   UNL A   1      42.282  31.147  30.637  1.00  0.00     0.074 A 
ATOM     41  C   UNL A   1      41.121  32.001  30.545  1.00  0.00     0.031 C 
ATOM     42  C   UNL A   1      40.259  25.660  27.943  1.00  0.00     0.029 A 
ATOM     43  C   UNL A   1      41.584  25.949  28.480  1.00  0.00     0.049 A 
ATOM     44  H   UNL A   1      42.226  27.707  29.396  1.00  0.00     0.167 HD
ATOM     45  C   UNL A   1      43.463  31.529  31.177  1.00  0.00     0.031 A 
ATOM     46  C   UNL A   1      42.632  25.102  28.467  1.00  0.00     0.031 A 
ATOM     47  C   UNL A   1      44.610  30.667  31.283  1.00  0.00     0.049 A 
ATOM     48  C   UNL A   1      43.935  25.549  29.071  1.00  0.00     0.074 A 
ATOM     49  C   UNL A   1      45.835  30.933  31.866  1.00  0.00     0.029 A 
ATOM     50  N   UNL A   1      44.670  29.371  30.794  1.00  0.00    -0.354 N 
ATOM     51  N   UNL A   1      44.233  26.698  29.630  1.00  0.00    -0.248 NA
ATOM     52  C   UNL A   1      45.040  24.581  29.054  1.00  0.00     0.031 C 
ATOM     53  C   UNL A   1      46.655  29.815  31.683  1.00  0.00     0.029 A 
ATOM     54  C   UNL A   1      45.920  28.830  31.042  1.00  0.00     0.049 A 
ATOM     55  H   UNL A   1      43.933  28.904  30.339  1.00  0.00     0.167 HD
ATOM     56  C   UNL A   1      45.552  26.582  30.056  1.00  0.00     0.074 A 
ATOM     57  C   UNL A   1      45.987  25.245  29.705  1.00  0.00     0.031 C 
ATOM     58  C   UNL A   1      46.332  27.497  30.682  1.00  0.00     0.031 A 
BRANCH  45  59
ATOM     59  C   UNL A   1      43.569  32.941  31.694  1.00  0.00    -0.014 A 
ATOM     60  C   UNL A   1      43.987  33.992  30.856  1.00  0.00     0.010 A 
ATOM     61  C   UNL A   1      43.223  33.227  33.026  1.00  0.00     0.010 A 
ATOM     62  C   UNL A   1      44.102  35.293  31.354  1.00  0.00     0.020 A 
ATOM     63  C   UNL A   1      43.305  34.533  33.520  1.00  0.00     0.020 A 
ATOM     64  C   UNL A   1      43.762  35.554  32.684  1.00  0.00     0.054 A 
BRANCH  64  65
ATOM     65  S   UNL A   1      43.902  37.256  33.296  1.00  0.00     0.124 S 
ATOM     66  O   UNL A   1      42.655  37.410  34.042  1.00  0.00    -0.237 OA
ATOM     67  O   UNL A   1      45.115  37.206  34.107  1.00  0.00    -0.237 OA
ATOM     68  O   UNL A   1      44.003  38.056  32.078  1.00  0.00    -0.744 OA
ENDBRANCH  64  65
ENDBRANCH  45  59
BRANCH  46  69
ATOM     69  C   UNL A   1      42.482  23.740  27.884  1.00  0.00    -0.014 A 
ATOM     70  C   UNL A   1      42.051  22.666  28.683  1.00  0.00     0.010 A 
ATOM     71  C   UNL A   1      42.751  23.512  26.521  1.00  0.00     0.010 A 
ATOM     72  C   UNL A   1      41.910  21.386  28.136  1.00  0.00     0.020 A 
ATOM     73  C   UNL A   1      42.583  22.241  25.965  1.00  0.00     0.020 A 
ATOM     74  C   UNL A   1      42.174  21.183  26.779  1.00  0.00     0.054 A 
BRANCH  74  75
ATOM     75  S   UNL A   1      41.934  19.525  26.081  1.00  0.00     0.124 S 
ATOM     76  O   UNL A   1      40.495  19.501  25.844  1.00  0.00    -0.237 OA
ATOM     77  O   UNL A   1      42.774  19.561  24.888  1.00  0.00    -0.237 OA
ATOM     78  O   UNL A   1      42.409  18.637  27.142  1.00  0.00    -0.744 OA
ENDBRANCH  74  75
ENDBRANCH  46  69
BRANCH  58  79
ATOM     79  C   UNL A   1      47.727  27.074  31.059  1.00  0.00    -0.014 A 
ATOM     80  C   UNL A   1      47.987  26.418  32.275  1.00  0.00     0.010 A 
ATOM     81  C   UNL A   1      48.782  27.284  30.152  1.00  0.00     0.010 A 
ATOM     82  C   UNL A   1      49.284  26.009  32.591  1.00  0.00     0.020 A 
ATOM     83  C   UNL A   1      50.075  26.849  30.452  1.00  0.00     0.020 A 
ATOM     84  C   UNL A   1      50.320  26.227  31.677  1.00  0.00     0.054 A 
BRANCH  84  85
ATOM     85  S   UNL A   1      51.986  25.647  32.093  1.00  0.00     0.124 S 
ATOM     86  O   UNL A   1      51.792  24.201  32.180  1.00  0.00    -0.237 OA
ATOM     87  O   UNL A   1      52.779  26.107  30.955  1.00  0.00    -0.237 OA
ATOM     88  O   UNL A   1      52.280  26.313  33.359  1.00  0.00    -0.744 OA
ENDBRANCH  84  85
ENDBRANCH  58  79
ENDBRANCH  32  33
ENDBRANCH  24  27
ENDBRANCH  22  23
ENDBRANCH   1  22
TORSDOF 17
ENDMDL
MODEL 3
REMARK VINA RESULT:     -10.3      1.440      2.238
REMARK SMILES COc1ccc(OCc2cccs2)c(C(=O)NCCCNC(=O)c2ccc(-c3c4nc(c(-c5ccc(S(=O)(=O)[O-])cc5)c5ccc([nH]5)c(-c5ccc(S(=O)(=O)[O-])cc5)c5nc(c(-c6ccc(S(=O)(=O)[O-])cc6)c6ccc3[nH]6)C=C5)C=C4)cc2)c1
REMARK SMILES IDX 19 1 18 2 17 3 15 4 16 5 14 7 3 8 4 9 84 10 5 11 6 12 2 13
REMARK SMILES IDX 1 14 7 15 8 16 9 17 10 18 13 19 11 20 12 21 20 22 21 23
REMARK SMILES IDX 22 24 23 26 24 27 25 28 83 29 26 30 82 31 27 32 28 33 29 34
REMARK SMILES IDX 76 35 30 36 81 37 75 38 77 39 31 40 80 41 74 42 73 43 32 45
REMARK SMILES IDX 62 46 43 47 61 48 44 49 47 50 60 51 78 52 45 53 46 54 59 56
REMARK SMILES IDX 79 57 48 58 33 59 34 60 42 61 35 62 41 63 36 64 37 65 38 66
REMARK SMILES IDX 39 67 40 68 63 69 64 70 72 71 65 72 71 73 66 74 67 75 68 76
REMARK SMILES IDX 69 77 70 78 49 79 50 80 58 81 51 82 57 83 52 84 53 85 54 86
REMARK SMILES IDX 55 87 56 88
REMARK H PARENT 17 6 21 25 77 44 47 55
REMARK Flexibility Score: inf
ROOT
ATOM      1  C   UNL A   1      32.653  27.801  26.932  1.00  0.00     0.042 C 
ENDROOT
BRANCH   1   2
ATOM      2  C   UNL A   1      32.732  26.414  26.298  1.00  0.00     0.118 C 
BRANCH   2   3
ATOM      3  N   UNL A   1      31.688  25.573  26.867  1.00  0.00    -0.352 N 
ATOM      4  C   UNL A   1      31.150  24.372  26.487  1.00  0.00     0.255 C 
ATOM      5  O   UNL A   1      30.073  24.044  26.981  1.00  0.00    -0.269 OA
ATOM      6  H   UNL A   1      31.289  25.942  27.687  1.00  0.00     0.163 HD
BRANCH   4   7
ATOM      7  C   UNL A   1      31.831  23.449  25.551  1.00  0.00     0.085 A 
ATOM      8  C   UNL A   1      33.514  21.710  25.239  1.00  0.00     0.119 A 
ATOM      9  C   UNL A   1      33.496  21.944  23.872  1.00  0.00     0.050 A 
ATOM     10  C   UNL A   1      32.742  22.512  26.078  1.00  0.00     0.064 A 
ATOM     11  C   UNL A   1      32.607  22.878  23.340  1.00  0.00     0.051 A 
ATOM     12  C   UNL A   1      31.715  23.591  24.158  1.00  0.00     0.132 A 
BRANCH   8  13
ATOM     13  O   UNL A   1      34.371  20.734  25.669  1.00  0.00    -0.497 OA
ATOM     14  C   UNL A   1      35.754  21.066  25.569  1.00  0.00     0.278 C 
ENDBRANCH   8  13
BRANCH  12  15
ATOM     15  O   UNL A   1      30.862  24.344  23.405  1.00  0.00    -0.487 OA
BRANCH  15  16
ATOM     16  C   UNL A   1      31.281  25.242  22.375  1.00  0.00     0.276 C 
BRANCH  16  17
ATOM     17  C   UNL A   1      31.252  26.678  22.824  1.00  0.00     0.042 A 
ATOM     18  C   UNL A   1      30.243  27.382  23.453  1.00  0.00     0.019 A 
ATOM     19  S   UNL A   1      32.667  27.646  22.689  1.00  0.00    -0.145 S 
ATOM     20  C   UNL A   1      30.642  28.679  23.876  1.00  0.00     0.012 A 
ATOM     21  C   UNL A   1      31.946  28.946  23.534  1.00  0.00     0.065 A 
ENDBRANCH  16  17
ENDBRANCH  15  16
ENDBRANCH  12  15
ENDBRANCH   4   7
ENDBRANCH   2   3
ENDBRANCH   1   2
BRANCH   1  22
ATOM     22  C   UNL A   1      33.898  28.633  26.633  1.00  0.00     0.118 C 
BRANCH  22  23
ATOM     23  N   UNL A   1      33.767  29.991  27.147  1.00  0.00    -0.352 N 
ATOM     24  C   UNL A   1      34.594  30.671  28.011  1.00  0.00     0.251 C 
ATOM     25  H   UNL A   1      32.979  30.491  26.832  1.00  0.00     0.163 HD
ATOM     26  O   UNL A   1      34.202  31.691  28.560  1.00  0.00    -0.269 OA
BRANCH  24  27
ATOM     27  C   UNL A   1      35.951  30.145  28.271  1.00  0.00     0.039 A 
ATOM     28  C   UNL A   1      36.900  30.156  27.249  1.00  0.00     0.014 A 
ATOM     29  C   UNL A   1      36.279  29.652  29.537  1.00  0.00     0.014 A 
ATOM     30  C   UNL A   1      38.201  29.727  27.517  1.00  0.00     0.010 A 
ATOM     31  C   UNL A   1      37.596  29.322  29.826  1.00  0.00     0.010 A 
ATOM     32  C   UNL A   1      38.568  29.340  28.816  1.00  0.00    -0.014 A 
BRANCH  32  33
ATOM     33  C   UNL A   1      39.956  28.928  29.144  1.00  0.00     0.031 A 
ATOM     34  C   UNL A   1      40.894  29.911  29.794  1.00  0.00     0.074 A 
ATOM     35  C   UNL A   1      40.390  27.702  28.793  1.00  0.00     0.049 A 
ATOM     36  N   UNL A   1      42.160  29.770  30.091  1.00  0.00    -0.248 NA
ATOM     37  C   UNL A   1      40.347  31.239  30.122  1.00  0.00     0.031 C 
ATOM     38  C   UNL A   1      39.588  26.679  28.114  1.00  0.00     0.029 A 
ATOM     39  N   UNL A   1      41.615  27.106  28.954  1.00  0.00    -0.354 N 
ATOM     40  C   UNL A   1      42.562  30.993  30.617  1.00  0.00     0.074 A 
ATOM     41  C   UNL A   1      41.427  31.883  30.539  1.00  0.00     0.031 C 
ATOM     42  C   UNL A   1      40.332  25.573  27.951  1.00  0.00     0.029 A 
ATOM     43  C   UNL A   1      41.672  25.819  28.471  1.00  0.00     0.049 A 
ATOM     44  H   UNL A   1      42.381  27.556  29.378  1.00  0.00     0.167 HD
ATOM     45  C   UNL A   1      43.761  31.338  31.141  1.00  0.00     0.031 A 
ATOM     46  C   UNL A   1      42.692  24.940  28.445  1.00  0.00     0.031 A 
ATOM     47  C   UNL A   1      44.881  30.440  31.233  1.00  0.00     0.049 A 
ATOM     48  C   UNL A   1      44.016  25.345  29.032  1.00  0.00     0.074 A 
ATOM     49  C   UNL A   1      46.122  30.667  31.800  1.00  0.00     0.029 A 
ATOM     50  N   UNL A   1      44.894  29.142  30.744  1.00  0.00    -0.354 N 
ATOM     51  N   UNL A   1      44.357  26.484  29.586  1.00  0.00    -0.248 NA
ATOM     52  C   UNL A   1      45.089  24.343  29.001  1.00  0.00     0.031 C 
ATOM     53  C   UNL A   1      46.903  29.523  31.607  1.00  0.00     0.029 A 
ATOM     54  C   UNL A   1      46.129  28.562  30.976  1.00  0.00     0.049 A 
ATOM     55  H   UNL A   1      44.137  28.699  30.298  1.00  0.00     0.167 HD
ATOM     56  C   UNL A   1      45.677  26.326  29.996  1.00  0.00     0.074 A 
ATOM     57  C   UNL A   1      46.065  24.976  29.640  1.00  0.00     0.031 C 
ATOM     58  C   UNL A   1      46.494  27.217  30.611  1.00  0.00     0.031 A 
BRANCH  45  59
ATOM     59  C   UNL A   1      43.918  32.745  31.656  1.00  0.00    -0.014 A 
ATOM     60  C   UNL A   1      43.593  33.074  32.986  1.00  0.00     0.010 A 
ATOM     61  C   UNL A   1      44.420  33.749  30.809  1.00  0.00     0.010 A 
ATOM     62  C   UNL A   1      43.722  34.388  33.444  1.00  0.00     0.020 A 
ATOM     63  C   UNL A   1      44.582  35.059  31.273  1.00  0.00     0.020 A 
ATOM     64  C   UNL A   1      44.213  35.372  32.583  1.00  0.00     0.054 A 
BRANCH  64  65
ATOM     65  S   UNL A   1      44.389  37.065  33.212  1.00  0.00     0.124 S 
ATOM     66  O   UNL A   1      43.774  37.848  32.142  1.00  0.00    -0.237 OA
ATOM     67  O   UNL A   1      43.643  37.019  34.465  1.00  0.00    -0.237 OA
ATOM     68  O   UNL A   1      45.834  37.233  33.355  1.00  0.00    -0.744 OA
ENDBRANCH  64  65
ENDBRANCH  45  59
BRANCH  46  69
ATOM     69  C   UNL A   1      42.492  23.583  27.864  1.00  0.00    -0.014 A 
ATOM     70  C   UNL A   1      42.806  23.332  26.517  1.00  0.00     0.010 A 
ATOM     71  C   UNL A   1      42.003  22.530  28.658  1.00  0.00     0.010 A 
ATOM     72  C   UNL A   1      42.619  22.059  25.969  1.00  0.00     0.020 A 
ATOM     73  C   UNL A   1      41.842  21.249  28.123  1.00  0.00     0.020 A 
ATOM     74  C   UNL A   1      42.140  21.024  26.778  1.00  0.00     0.054 A 
BRANCH  74  75
ATOM     75  S   UNL A   1      41.955  19.368  26.059  1.00  0.00     0.124 S 
ATOM     76  O   UNL A   1      42.399  18.510  27.152  1.00  0.00    -0.237 OA
ATOM     77  O   UNL A   1      40.528  19.317  25.751  1.00  0.00    -0.237 OA
ATOM     78  O   UNL A   1      42.834  19.403  24.891  1.00  0.00    -0.744 OA
ENDBRANCH  74  75
ENDBRANCH  46  69
BRANCH  58  79
ATOM     79  C   UNL A   1      47.879  26.749  30.970  1.00  0.00    -0.014 A 
ATOM     80  C   UNL A   1      48.957  26.911  30.082  1.00  0.00     0.010 A 
ATOM     81  C   UNL A   1      48.114  26.194  32.242  1.00  0.00     0.010 A 
ATOM     82  C   UNL A   1      50.240  26.495  30.448  1.00  0.00     0.020 A 
ATOM     83  C   UNL A   1      49.400  25.806  32.623  1.00  0.00     0.020 A 
ATOM     84  C   UNL A   1      50.453  25.945  31.717  1.00  0.00     0.054 A 
BRANCH  84  85
ATOM     85  S   UNL A   1      52.134  25.455  32.183  1.00  0.00     0.124 S 
ATOM     86  O   UNL A   1      52.011  24.003  32.285  1.00  0.00    -0.237 OA
ATOM     87  O   UNL A   1      52.933  25.941  31.059  1.00  0.00    -0.237 OA
ATOM     88  O   UNL A   1      52.361  26.151  33.447  1.00  0.00    -0.744 OA
ENDBRANCH  84  85
ENDBRANCH  58  79
ENDBRANCH  32  33
ENDBRANCH  24  27
ENDBRANCH  22  23
ENDBRANCH   1  22
TORSDOF 17
ENDMDL
