MODEL 1
REMARK VINA RESULT:     -10.2      0.000      0.000
REMARK SMILES [NH3+][C@H](CSCc1ccco1)C(=O)NCCCNC(=O)c1ccc(-c2c3nc(c(-c4ccc(S(=O)(=O)[O-])cc4)c4ccc([nH]4)c(-c4ccc(S(=O)(=O)[O-])cc4)c4nc(c(-c5ccc(S(=O)(=O)[O-])cc5)c5ccc2[nH]5)C=C4)C=C3)cc1
REMARK SMILES IDX 14 1 13 2 11 3 12 4 2 6 1 7 3 11 4 12 5 13 6 14 7 15 10 16
REMARK SMILES IDX 8 17 9 18 15 19 16 20 17 21 18 22 19 24 20 25 21 26 79 27
REMARK SMILES IDX 22 28 78 29 23 30 24 31 25 32 72 33 26 34 77 35 71 36 73 37
REMARK SMILES IDX 27 38 76 39 70 40 69 41 28 43 58 44 39 45 57 46 40 47 43 48
REMARK SMILES IDX 56 49 74 50 41 51 42 52 55 54 75 55 44 56 29 57 30 58 38 59
REMARK SMILES IDX 31 60 37 61 32 62 33 63 34 64 35 65 36 66 59 67 60 68 68 69
REMARK SMILES IDX 61 70 67 71 62 72 63 73 64 74 65 75 66 76 45 77 46 78 54 79
REMARK SMILES IDX 47 80 53 81 48 82 49 83 50 84 51 85 52 86
REMARK H PARENT 13 5 1 8 1 9 1 10 17 23 73 42 43 53
REMARK Flexibility Score: inf
ROOT
ATOM      1  C   UNL A   1      41.466  21.255  28.106  1.00  0.00     0.118 C 
ENDROOT
BRANCH   1   2
ATOM      2  N   UNL A   1      40.727  20.480  27.117  1.00  0.00    -0.351 N 
ATOM      3  C   UNL A   1      41.013  19.416  26.321  1.00  0.00     0.279 C 
ATOM      4  O   UNL A   1      40.123  19.088  25.524  1.00  0.00    -0.268 OA
ATOM      5  H   UNL A   1      39.804  20.804  26.998  1.00  0.00     0.163 HD
BRANCH   3   6
ATOM      6  C   UNL A   1      42.353  18.660  26.298  1.00  0.00     0.280 C 
BRANCH   6   7
ATOM      7  N   UNL A   1      42.768  18.098  27.598  1.00  0.00    -0.347 N 
ATOM      8  H   UNL A   1      43.000  17.111  27.483  1.00  0.00     0.345 HD
ATOM      9  H   UNL A   1      42.004  18.193  28.268  1.00  0.00     0.345 HD
ATOM     10  H   UNL A   1      43.586  18.603  27.940  1.00  0.00     0.345 HD
ENDBRANCH   6   7
BRANCH   6  11
ATOM     11  C   UNL A   1      43.464  19.372  25.506  1.00  0.00     0.145 C 
BRANCH  11  12
ATOM     12  S   UNL A   1      45.091  18.560  25.381  1.00  0.00    -0.147 SA
BRANCH  12  13
ATOM     13  C   UNL A   1      45.990  19.723  24.295  1.00  0.00     0.145 C 
BRANCH  13  14
ATOM     14  C   UNL A   1      45.609  21.142  24.478  1.00  0.00     0.113 A 
ATOM     15  C   UNL A   1      46.030  22.135  25.340  1.00  0.00     0.046 A 
ATOM     16  O   UNL A   1      44.717  21.653  23.582  1.00  0.00    -0.468 OA
ATOM     17  C   UNL A   1      45.347  23.313  24.956  1.00  0.00     0.042 A 
ATOM     18  C   UNL A   1      44.567  22.969  23.877  1.00  0.00     0.195 A 
ENDBRANCH  13  14
ENDBRANCH  12  13
ENDBRANCH  11  12
ENDBRANCH   6  11
ENDBRANCH   3   6
ENDBRANCH   1   2
BRANCH   1  19
ATOM     19  C   UNL A   1      41.335  22.774  27.961  1.00  0.00     0.042 C 
BRANCH  19  20
ATOM     20  C   UNL A   1      42.517  23.514  27.343  1.00  0.00     0.118 C 
BRANCH  20  21
ATOM     21  N   UNL A   1      42.146  24.294  26.180  1.00  0.00    -0.352 N 
ATOM     22  C   UNL A   1      41.557  25.535  26.101  1.00  0.00     0.251 C 
ATOM     23  H   UNL A   1      42.346  23.872  25.314  1.00  0.00     0.163 HD
ATOM     24  O   UNL A   1      41.148  25.923  25.010  1.00  0.00    -0.269 OA
BRANCH  22  25
ATOM     25  C   UNL A   1      41.393  26.402  27.298  1.00  0.00     0.039 A 
ATOM     26  C   UNL A   1      40.308  26.157  28.146  1.00  0.00     0.014 A 
ATOM     27  C   UNL A   1      42.230  27.493  27.554  1.00  0.00     0.014 A 
ATOM     28  C   UNL A   1      40.082  26.979  29.256  1.00  0.00     0.010 A 
ATOM     29  C   UNL A   1      42.041  28.274  28.700  1.00  0.00     0.010 A 
ATOM     30  C   UNL A   1      40.954  28.039  29.554  1.00  0.00    -0.014 A 
BRANCH  30  31
ATOM     31  C   UNL A   1      40.702  28.910  30.735  1.00  0.00     0.031 A 
ATOM     32  C   UNL A   1      41.545  28.786  31.980  1.00  0.00     0.074 A 
ATOM     33  C   UNL A   1      39.712  29.825  30.695  1.00  0.00     0.049 A 
ATOM     34  N   UNL A   1      41.514  29.509  33.072  1.00  0.00    -0.248 NA
ATOM     35  C   UNL A   1      42.538  27.702  32.009  1.00  0.00     0.031 C 
ATOM     36  C   UNL A   1      38.787  30.023  29.577  1.00  0.00     0.029 A 
ATOM     37  N   UNL A   1      39.325  30.769  31.616  1.00  0.00    -0.354 N 
ATOM     38  C   UNL A   1      42.474  28.965  33.918  1.00  0.00     0.074 A 
ATOM     39  C   UNL A   1      43.037  27.821  33.231  1.00  0.00     0.031 C 
ATOM     40  C   UNL A   1      37.966  31.048  29.862  1.00  0.00     0.029 A 
ATOM     41  C   UNL A   1      38.292  31.567  31.188  1.00  0.00     0.049 A 
ATOM     42  H   UNL A   1      39.749  30.865  32.500  1.00  0.00     0.167 HD
ATOM     43  C   UNL A   1      42.870  29.385  35.144  1.00  0.00     0.031 A 
ATOM     44  C   UNL A   1      37.681  32.610  31.784  1.00  0.00     0.031 A 
ATOM     45  C   UNL A   1      42.324  30.526  35.830  1.00  0.00     0.049 A 
ATOM     46  C   UNL A   1      38.154  33.076  33.133  1.00  0.00     0.074 A 
ATOM     47  C   UNL A   1      42.700  31.059  37.052  1.00  0.00     0.029 A 
ATOM     48  N   UNL A   1      41.287  31.313  35.355  1.00  0.00    -0.354 N 
ATOM     49  N   UNL A   1      39.115  32.590  33.882  1.00  0.00    -0.248 NA
ATOM     50  C   UNL A   1      37.474  34.247  33.705  1.00  0.00     0.031 C 
ATOM     51  C   UNL A   1      41.865  32.147  37.332  1.00  0.00     0.029 A 
ATOM     52  C   UNL A   1      40.999  32.318  36.265  1.00  0.00     0.049 A 
ATOM     53  H   UNL A   1      40.822  31.178  34.497  1.00  0.00     0.167 HD
ATOM     54  C   UNL A   1      39.169  33.410  35.004  1.00  0.00     0.074 A 
ATOM     55  C   UNL A   1      38.157  34.432  34.827  1.00  0.00     0.031 C 
ATOM     56  C   UNL A   1      39.986  33.325  36.083  1.00  0.00     0.031 A 
BRANCH  43  57
ATOM     57  C   UNL A   1      43.957  28.597  35.828  1.00  0.00    -0.014 A 
ATOM     58  C   UNL A   1      43.653  27.454  36.589  1.00  0.00     0.010 A 
ATOM     59  C   UNL A   1      45.303  28.984  35.681  1.00  0.00     0.010 A 
ATOM     60  C   UNL A   1      44.668  26.737  37.227  1.00  0.00     0.020 A 
ATOM     61  C   UNL A   1      46.323  28.254  36.297  1.00  0.00     0.020 A 
ATOM     62  C   UNL A   1      45.997  27.147  37.083  1.00  0.00     0.054 A 
BRANCH  62  63
ATOM     63  S   UNL A   1      47.299  26.191  37.911  1.00  0.00     0.124 S 
ATOM     64  O   UNL A   1      48.459  26.476  37.071  1.00  0.00    -0.237 OA
ATOM     65  O   UNL A   1      47.331  26.778  39.247  1.00  0.00    -0.237 OA
ATOM     66  O   UNL A   1      46.809  24.815  37.851  1.00  0.00    -0.744 OA
ENDBRANCH  62  63
ENDBRANCH  43  57
BRANCH  44  67
ATOM     67  C   UNL A   1      36.574  33.317  31.085  1.00  0.00    -0.014 A 
ATOM     68  C   UNL A   1      35.303  33.415  31.679  1.00  0.00     0.010 A 
ATOM     69  C   UNL A   1      36.790  33.907  29.826  1.00  0.00     0.010 A 
ATOM     70  C   UNL A   1      34.263  34.077  31.021  1.00  0.00     0.020 A 
ATOM     71  C   UNL A   1      35.758  34.590  29.177  1.00  0.00     0.020 A 
ATOM     72  C   UNL A   1      34.498  34.662  29.773  1.00  0.00     0.054 A 
BRANCH  72  73
ATOM     73  S   UNL A   1      33.152  35.570  28.963  1.00  0.00     0.124 S 
ATOM     74  O   UNL A   1      33.884  36.546  28.163  1.00  0.00    -0.237 OA
ATOM     75  O   UNL A   1      32.465  34.522  28.213  1.00  0.00    -0.237 OA
ATOM     76  O   UNL A   1      32.392  36.120  30.084  1.00  0.00    -0.744 OA
ENDBRANCH  72  73
ENDBRANCH  44  67
BRANCH  56  77
ATOM     77  C   UNL A   1      39.834  34.380  37.145  1.00  0.00    -0.014 A 
ATOM     78  C   UNL A   1      38.969  34.195  38.238  1.00  0.00     0.010 A 
ATOM     79  C   UNL A   1      40.583  35.567  37.058  1.00  0.00     0.010 A 
ATOM     80  C   UNL A   1      38.822  35.196  39.202  1.00  0.00     0.020 A 
ATOM     81  C   UNL A   1      40.458  36.561  38.033  1.00  0.00     0.020 A 
ATOM     82  C   UNL A   1      39.562  36.378  39.088  1.00  0.00     0.054 A 
BRANCH  82  83
ATOM     83  S   UNL A   1      39.370  37.661  40.356  1.00  0.00     0.124 S 
ATOM     84  O   UNL A   1      38.120  38.301  39.952  1.00  0.00    -0.237 OA
ATOM     85  O   UNL A   1      39.307  36.887  41.593  1.00  0.00    -0.237 OA
ATOM     86  O   UNL A   1      40.569  38.481  40.202  1.00  0.00    -0.744 OA
ENDBRANCH  82  83
ENDBRANCH  56  77
ENDBRANCH  30  31
ENDBRANCH  22  25
ENDBRANCH  20  21
ENDBRANCH  19  20
ENDBRANCH   1  19
TORSDOF 18
ENDMDL
MODEL 2
REMARK VINA RESULT:     -10.1      4.111     12.873
REMARK SMILES [NH3+][C@H](CSCc1ccco1)C(=O)NCCCNC(=O)c1ccc(-c2c3nc(c(-c4ccc(S(=O)(=O)[O-])cc4)c4ccc([nH]4)c(-c4ccc(S(=O)(=O)[O-])cc4)c4nc(c(-c5ccc(S(=O)(=O)[O-])cc5)c5ccc2[nH]5)C=C4)C=C3)cc1
REMARK SMILES IDX 14 1 13 2 11 3 12 4 2 6 1 7 3 11 4 12 5 13 6 14 7 15 10 16
REMARK SMILES IDX 8 17 9 18 15 19 16 20 17 21 18 22 19 24 20 25 21 26 79 27
REMARK SMILES IDX 22 28 78 29 23 30 24 31 25 32 72 33 26 34 77 35 71 36 73 37
REMARK SMILES IDX 27 38 76 39 70 40 69 41 28 43 58 44 39 45 57 46 40 47 43 48
REMARK SMILES IDX 56 49 74 50 41 51 42 52 55 54 75 55 44 56 29 57 30 58 38 59
REMARK SMILES IDX 31 60 37 61 32 62 33 63 34 64 35 65 36 66 59 67 60 68 68 69
REMARK SMILES IDX 61 70 67 71 62 72 63 73 64 74 65 75 66 76 45 77 46 78 54 79
REMARK SMILES IDX 47 80 53 81 48 82 49 83 50 84 51 85 52 86
REMARK H PARENT 13 5 1 8 1 9 1 10 17 23 73 42 43 53
REMARK Flexibility Score: inf
ROOT
ATOM      1  C   UNL A   1      33.229  34.399  28.982  1.00  0.00     0.118 C 
ENDROOT
BRANCH   1   2
ATOM      2  N   UNL A   1      33.143  35.740  29.545  1.00  0.00    -0.351 N 
ATOM      3  C   UNL A   1      33.151  36.257  30.803  1.00  0.00     0.279 C 
ATOM      4  O   UNL A   1      32.963  37.479  30.882  1.00  0.00    -0.268 OA
ATOM      5  H   UNL A   1      33.059  36.435  28.852  1.00  0.00     0.163 HD
BRANCH   3   6
ATOM      6  C   UNL A   1      33.305  35.439  32.097  1.00  0.00     0.280 C 
BRANCH   6   7
ATOM      7  N   UNL A   1      32.074  35.316  32.900  1.00  0.00    -0.347 N 
ATOM      8  H   UNL A   1      32.242  35.678  33.839  1.00  0.00     0.345 HD
ATOM      9  H   UNL A   1      31.803  34.334  32.957  1.00  0.00     0.345 HD
ATOM     10  H   UNL A   1      31.325  35.851  32.458  1.00  0.00     0.345 HD
ENDBRANCH   6   7
BRANCH   6  11
ATOM     11  C   UNL A   1      34.582  35.759  32.896  1.00  0.00     0.145 C 
BRANCH  11  12
ATOM     12  S   UNL A   1      35.053  34.638  34.253  1.00  0.00    -0.147 SA
BRANCH  12  13
ATOM     13  C   UNL A   1      35.585  33.155  33.326  1.00  0.00     0.145 C 
BRANCH  13  14
ATOM     14  C   UNL A   1      36.505  33.441  32.201  1.00  0.00     0.113 A 
ATOM     15  C   UNL A   1      36.445  33.207  30.842  1.00  0.00     0.046 A 
ATOM     16  O   UNL A   1      37.626  34.157  32.498  1.00  0.00    -0.468 OA
ATOM     17  C   UNL A   1      37.600  33.802  30.282  1.00  0.00     0.042 A 
ATOM     18  C   UNL A   1      38.282  34.374  31.330  1.00  0.00     0.195 A 
ENDBRANCH  13  14
ENDBRANCH  12  13
ENDBRANCH  11  12
ENDBRANCH   6  11
ENDBRANCH   3   6
ENDBRANCH   1   2
BRANCH   1  19
ATOM     19  C   UNL A   1      34.183  34.262  27.792  1.00  0.00     0.042 C 
BRANCH  19  20
ATOM     20  C   UNL A   1      34.968  32.959  27.682  1.00  0.00     0.118 C 
BRANCH  20  21
ATOM     21  N   UNL A   1      34.128  31.784  27.796  1.00  0.00    -0.352 N 
ATOM     22  C   UNL A   1      34.476  30.459  27.914  1.00  0.00     0.251 C 
ATOM     23  H   UNL A   1      33.160  31.961  27.786  1.00  0.00     0.163 HD
ATOM     24  O   UNL A   1      33.599  29.607  27.794  1.00  0.00    -0.269 OA
BRANCH  22  25
ATOM     25  C   UNL A   1      35.880  30.036  28.165  1.00  0.00     0.039 A 
ATOM     26  C   UNL A   1      36.222  29.618  29.455  1.00  0.00     0.014 A 
ATOM     27  C   UNL A   1      36.875  30.118  27.185  1.00  0.00     0.014 A 
ATOM     28  C   UNL A   1      37.542  29.261  29.753  1.00  0.00     0.010 A 
ATOM     29  C   UNL A   1      38.180  29.698  27.466  1.00  0.00     0.010 A 
ATOM     30  C   UNL A   1      38.534  29.284  28.758  1.00  0.00    -0.014 A 
BRANCH  30  31
ATOM     31  C   UNL A   1      39.937  28.905  29.086  1.00  0.00     0.031 A 
ATOM     32  C   UNL A   1      40.839  29.856  29.832  1.00  0.00     0.074 A 
ATOM     33  C   UNL A   1      40.408  27.696  28.718  1.00  0.00     0.049 A 
ATOM     34  N   UNL A   1      42.061  29.666  30.264  1.00  0.00    -0.248 NA
ATOM     35  C   UNL A   1      40.309  31.198  30.114  1.00  0.00     0.031 C 
ATOM     36  C   UNL A   1      39.665  26.695  27.951  1.00  0.00     0.029 A 
ATOM     37  N   UNL A   1      41.624  27.100  28.950  1.00  0.00    -0.354 N 
ATOM     38  C   UNL A   1      42.447  30.861  30.860  1.00  0.00     0.074 A 
ATOM     39  C   UNL A   1      41.346  31.786  30.692  1.00  0.00     0.031 C 
ATOM     40  C   UNL A   1      40.425  25.597  27.807  1.00  0.00     0.029 A 
ATOM     41  C   UNL A   1      41.716  25.821  28.454  1.00  0.00     0.049 A 
ATOM     42  H   UNL A   1      42.362  27.547  29.426  1.00  0.00     0.167 HD
ATOM     43  C   UNL A   1      43.599  31.160  31.507  1.00  0.00     0.031 A 
ATOM     44  C   UNL A   1      42.716  24.921  28.522  1.00  0.00     0.031 A 
ATOM     45  C   UNL A   1      44.693  30.244  31.689  1.00  0.00     0.049 A 
ATOM     46  C   UNL A   1      43.975  25.265  29.269  1.00  0.00     0.074 A 
ATOM     47  C   UNL A   1      45.879  30.442  32.378  1.00  0.00     0.029 A 
ATOM     48  N   UNL A   1      44.739  28.955  31.181  1.00  0.00    -0.354 N 
ATOM     49  N   UNL A   1      44.287  26.377  29.889  1.00  0.00    -0.248 NA
ATOM     50  C   UNL A   1      45.007  24.221  29.342  1.00  0.00     0.031 C 
ATOM     51  C   UNL A   1      46.657  29.285  32.255  1.00  0.00     0.029 A 
ATOM     52  C   UNL A   1      45.937  28.351  31.528  1.00  0.00     0.049 A 
ATOM     53  H   UNL A   1      44.025  28.531  30.651  1.00  0.00     0.167 HD
ATOM     54  C   UNL A   1      45.543  26.159  30.446  1.00  0.00     0.074 A 
ATOM     55  C   UNL A   1      45.923  24.803  30.104  1.00  0.00     0.031 C 
ATOM     56  C   UNL A   1      46.310  27.006  31.177  1.00  0.00     0.031 A 
BRANCH  43  57
ATOM     57  C   UNL A   1      43.734  32.550  32.073  1.00  0.00    -0.014 A 
ATOM     58  C   UNL A   1      43.340  32.834  33.394  1.00  0.00     0.010 A 
ATOM     59  C   UNL A   1      44.290  33.577  31.289  1.00  0.00     0.010 A 
ATOM     60  C   UNL A   1      43.460  34.129  33.906  1.00  0.00     0.020 A 
ATOM     61  C   UNL A   1      44.436  34.868  31.806  1.00  0.00     0.020 A 
ATOM     62  C   UNL A   1      44.001  35.140  33.105  1.00  0.00     0.054 A 
BRANCH  62  63
ATOM     63  S   UNL A   1      44.158  36.810  33.797  1.00  0.00     0.124 S 
ATOM     64  O   UNL A   1      42.954  36.908  34.619  1.00  0.00    -0.237 OA
ATOM     65  O   UNL A   1      45.416  36.738  34.533  1.00  0.00    -0.237 OA
ATOM     66  O   UNL A   1      44.179  37.673  32.617  1.00  0.00    -0.744 OA
ENDBRANCH  62  63
ENDBRANCH  43  57
BRANCH  44  67
ATOM     67  C   UNL A   1      42.549  23.582  27.897  1.00  0.00    -0.014 A 
ATOM     68  C   UNL A   1      43.089  23.317  26.626  1.00  0.00     0.010 A 
ATOM     69  C   UNL A   1      41.860  22.560  28.576  1.00  0.00     0.010 A 
ATOM     70  C   UNL A   1      42.931  22.059  26.037  1.00  0.00     0.020 A 
ATOM     71  C   UNL A   1      41.721  21.294  28.000  1.00  0.00     0.020 A 
ATOM     72  C   UNL A   1      42.248  21.055  26.729  1.00  0.00     0.054 A 
BRANCH  72  73
ATOM     73  S   UNL A   1      42.106  19.410  25.975  1.00  0.00     0.124 S 
ATOM     74  O   UNL A   1      42.949  19.545  24.793  1.00  0.00    -0.237 OA
ATOM     75  O   UNL A   1      42.618  18.533  27.023  1.00  0.00    -0.237 OA
ATOM     76  O   UNL A   1      40.673  19.280  25.713  1.00  0.00    -0.744 OA
ENDBRANCH  72  73
ENDBRANCH  44  67
BRANCH  56  77
ATOM     77  C   UNL A   1      47.629  26.479  31.677  1.00  0.00    -0.014 A 
ATOM     78  C   UNL A   1      48.809  26.642  30.930  1.00  0.00     0.010 A 
ATOM     79  C   UNL A   1      47.691  25.830  32.923  1.00  0.00     0.010 A 
ATOM     80  C   UNL A   1      50.020  26.126  31.399  1.00  0.00     0.020 A 
ATOM     81  C   UNL A   1      48.904  25.333  33.407  1.00  0.00     0.020 A 
ATOM     82  C   UNL A   1      50.058  25.466  32.631  1.00  0.00     0.054 A 
BRANCH  82  83
ATOM     83  S   UNL A   1      51.642  24.815  33.231  1.00  0.00     0.124 S 
ATOM     84  O   UNL A   1      52.494  24.960  32.053  1.00  0.00    -0.237 OA
ATOM     85  O   UNL A   1      51.956  25.704  34.346  1.00  0.00    -0.237 OA
ATOM     86  O   UNL A   1      51.328  23.439  33.608  1.00  0.00    -0.744 OA
ENDBRANCH  82  83
ENDBRANCH  56  77
ENDBRANCH  30  31
ENDBRANCH  22  25
ENDBRANCH  20  21
ENDBRANCH  19  20
ENDBRANCH   1  19
TORSDOF 18
ENDMDL
MODEL 3
REMARK VINA RESULT:      -9.9      5.013     11.091
REMARK SMILES [NH3+][C@H](CSCc1ccco1)C(=O)NCCCNC(=O)c1ccc(-c2c3nc(c(-c4ccc(S(=O)(=O)[O-])cc4)c4ccc([nH]4)c(-c4ccc(S(=O)(=O)[O-])cc4)c4nc(c(-c5ccc(S(=O)(=O)[O-])cc5)c5ccc2[nH]5)C=C4)C=C3)cc1
REMARK SMILES IDX 14 1 13 2 11 3 12 4 2 6 1 7 3 11 4 12 5 13 6 14 7 15 10 16
REMARK SMILES IDX 8 17 9 18 15 19 16 20 17 21 18 22 19 24 20 25 21 26 79 27
REMARK SMILES IDX 22 28 78 29 23 30 24 31 25 32 72 33 26 34 77 35 71 36 73 37
REMARK SMILES IDX 27 38 76 39 70 40 69 41 28 43 58 44 39 45 57 46 40 47 43 48
REMARK SMILES IDX 56 49 74 50 41 51 42 52 55 54 75 55 44 56 29 57 30 58 38 59
REMARK SMILES IDX 31 60 37 61 32 62 33 63 34 64 35 65 36 66 59 67 60 68 68 69
REMARK SMILES IDX 61 70 67 71 62 72 63 73 64 74 65 75 66 76 45 77 46 78 54 79
REMARK SMILES IDX 47 80 53 81 48 82 49 83 50 84 51 85 52 86
REMARK H PARENT 13 5 1 8 1 9 1 10 17 23 73 42 43 53
REMARK Flexibility Score: inf
ROOT
ATOM      1  C   UNL A   1      33.264  26.705  24.375  1.00  0.00     0.118 C 
ENDROOT
BRANCH   1   2
ATOM      2  N   UNL A   1      33.267  26.628  22.920  1.00  0.00    -0.351 N 
ATOM      3  C   UNL A   1      33.159  25.622  22.011  1.00  0.00     0.279 C 
ATOM      4  O   UNL A   1      33.300  25.954  20.825  1.00  0.00    -0.268 OA
ATOM      5  H   UNL A   1      33.371  27.511  22.496  1.00  0.00     0.163 HD
BRANCH   3   6
ATOM      6  C   UNL A   1      32.951  24.137  22.352  1.00  0.00     0.280 C 
BRANCH   6   7
ATOM      7  N   UNL A   1      31.661  23.826  22.997  1.00  0.00    -0.347 N 
ATOM      8  H   UNL A   1      31.640  22.839  23.257  1.00  0.00     0.345 HD
ATOM      9  H   UNL A   1      30.900  24.023  22.347  1.00  0.00     0.345 HD
ATOM     10  H   UNL A   1      31.553  24.400  23.833  1.00  0.00     0.345 HD
ENDBRANCH   6   7
BRANCH   6  11
ATOM     11  C   UNL A   1      34.181  23.456  22.980  1.00  0.00     0.145 C 
BRANCH  11  12
ATOM     12  S   UNL A   1      34.101  22.982  24.738  1.00  0.00    -0.147 SA
BRANCH  12  13
ATOM     13  C   UNL A   1      35.398  24.050  25.457  1.00  0.00     0.145 C 
BRANCH  13  14
ATOM     14  C   UNL A   1      36.709  23.382  25.625  1.00  0.00     0.113 A 
ATOM     15  C   UNL A   1      37.914  23.779  26.171  1.00  0.00     0.046 A 
ATOM     16  O   UNL A   1      36.777  22.072  25.256  1.00  0.00    -0.468 OA
ATOM     17  C   UNL A   1      38.766  22.650  26.119  1.00  0.00     0.042 A 
ATOM     18  C   UNL A   1      38.025  21.636  25.561  1.00  0.00     0.195 A 
ENDBRANCH  13  14
ENDBRANCH  12  13
ENDBRANCH  11  12
ENDBRANCH   6  11
ENDBRANCH   3   6
ENDBRANCH   1   2
BRANCH   1  19
ATOM     19  C   UNL A   1      33.454  28.114  24.943  1.00  0.00     0.042 C 
BRANCH  19  20
ATOM     20  C   UNL A   1      33.808  28.221  26.423  1.00  0.00     0.118 C 
BRANCH  20  21
ATOM     21  N   UNL A   1      33.611  29.555  26.954  1.00  0.00    -0.352 N 
ATOM     22  C   UNL A   1      34.433  30.320  27.748  1.00  0.00     0.251 C 
ATOM     23  H   UNL A   1      32.757  29.979  26.709  1.00  0.00     0.163 HD
ATOM     24  O   UNL A   1      33.980  31.346  28.247  1.00  0.00    -0.269 OA
BRANCH  22  25
ATOM     25  C   UNL A   1      35.841  29.928  28.026  1.00  0.00     0.039 A 
ATOM     26  C   UNL A   1      36.150  29.439  29.299  1.00  0.00     0.014 A 
ATOM     27  C   UNL A   1      36.867  30.106  27.092  1.00  0.00     0.014 A 
ATOM     28  C   UNL A   1      37.470  29.106  29.624  1.00  0.00     0.010 A 
ATOM     29  C   UNL A   1      38.175  29.712  27.396  1.00  0.00     0.010 A 
ATOM     30  C   UNL A   1      38.496  29.226  28.672  1.00  0.00    -0.014 A 
BRANCH  30  31
ATOM     31  C   UNL A   1      39.898  28.873  29.029  1.00  0.00     0.031 A 
ATOM     32  C   UNL A   1      40.770  29.843  29.785  1.00  0.00     0.074 A 
ATOM     33  C   UNL A   1      40.397  27.670  28.678  1.00  0.00     0.049 A 
ATOM     34  N   UNL A   1      41.987  29.676  30.242  1.00  0.00    -0.248 NA
ATOM     35  C   UNL A   1      40.213  31.178  30.049  1.00  0.00     0.031 C 
ATOM     36  C   UNL A   1      39.685  26.652  27.903  1.00  0.00     0.029 A 
ATOM     37  N   UNL A   1      41.618  27.095  28.936  1.00  0.00    -0.354 N 
ATOM     38  C   UNL A   1      42.341  30.881  30.837  1.00  0.00     0.074 A 
ATOM     39  C   UNL A   1      41.229  31.787  30.642  1.00  0.00     0.031 C 
ATOM     40  C   UNL A   1      40.466  25.565  27.781  1.00  0.00     0.029 A 
ATOM     41  C   UNL A   1      41.740  25.815  28.451  1.00  0.00     0.049 A 
ATOM     42  H   UNL A   1      42.338  27.557  29.423  1.00  0.00     0.167 HD
ATOM     43  C   UNL A   1      43.476  31.204  31.504  1.00  0.00     0.031 A 
ATOM     44  C   UNL A   1      42.754  24.932  28.544  1.00  0.00     0.031 A 
ATOM     45  C   UNL A   1      44.582  30.307  31.713  1.00  0.00     0.049 A 
ATOM     46  C   UNL A   1      43.993  25.302  29.312  1.00  0.00     0.074 A 
ATOM     47  C   UNL A   1      45.750  30.529  32.422  1.00  0.00     0.029 A 
ATOM     48  N   UNL A   1      44.658  29.016  31.214  1.00  0.00    -0.354 N 
ATOM     49  N   UNL A   1      44.274  26.423  29.930  1.00  0.00    -0.248 NA
ATOM     50  C   UNL A   1      45.040  24.275  29.412  1.00  0.00     0.031 C 
ATOM     51  C   UNL A   1      46.550  29.384  32.322  1.00  0.00     0.029 A 
ATOM     52  C   UNL A   1      45.859  28.434  31.588  1.00  0.00     0.049 A 
ATOM     53  H   UNL A   1      43.962  28.577  30.674  1.00  0.00     0.167 HD
ATOM     54  C   UNL A   1      45.522  26.229  30.513  1.00  0.00     0.074 A 
ATOM     55  C   UNL A   1      45.932  24.878  30.187  1.00  0.00     0.031 C 
ATOM     56  C   UNL A   1      46.261  27.093  31.252  1.00  0.00     0.031 A 
BRANCH  43  57
ATOM     57  C   UNL A   1      43.577  32.599  32.064  1.00  0.00    -0.014 A 
ATOM     58  C   UNL A   1      43.196  32.876  33.389  1.00  0.00     0.010 A 
ATOM     59  C   UNL A   1      44.089  33.640  31.267  1.00  0.00     0.010 A 
ATOM     60  C   UNL A   1      43.284  34.175  33.895  1.00  0.00     0.020 A 
ATOM     61  C   UNL A   1      44.203  34.936  31.778  1.00  0.00     0.020 A 
ATOM     62  C   UNL A   1      43.780  35.200  33.082  1.00  0.00     0.054 A 
BRANCH  62  63
ATOM     63  S   UNL A   1      43.897  36.876  33.766  1.00  0.00     0.124 S 
ATOM     64  O   UNL A   1      44.831  36.683  34.873  1.00  0.00    -0.237 OA
ATOM     65  O   UNL A   1      44.410  37.650  32.640  1.00  0.00    -0.237 OA
ATOM     66  O   UNL A   1      42.523  37.187  34.157  1.00  0.00    -0.744 OA
ENDBRANCH  62  63
ENDBRANCH  43  57
BRANCH  44  67
ATOM     67  C   UNL A   1      42.621  23.586  27.924  1.00  0.00    -0.014 A 
ATOM     68  C   UNL A   1      41.958  22.550  28.606  1.00  0.00     0.010 A 
ATOM     69  C   UNL A   1      43.144  23.339  26.642  1.00  0.00     0.010 A 
ATOM     70  C   UNL A   1      41.834  21.285  28.024  1.00  0.00     0.020 A 
ATOM     71  C   UNL A   1      43.002  22.082  26.048  1.00  0.00     0.020 A 
ATOM     72  C   UNL A   1      42.357  21.060  26.747  1.00  0.00     0.054 A 
BRANCH  72  73
ATOM     73  S   UNL A   1      42.133  19.429  25.983  1.00  0.00     0.124 S 
ATOM     74  O   UNL A   1      40.689  19.386  25.780  1.00  0.00    -0.237 OA
ATOM     75  O   UNL A   1      42.941  19.530  24.771  1.00  0.00    -0.237 OA
ATOM     76  O   UNL A   1      42.653  18.508  26.991  1.00  0.00    -0.744 OA
ENDBRANCH  72  73
ENDBRANCH  44  67
BRANCH  56  77
ATOM     77  C   UNL A   1      47.579  26.592  31.781  1.00  0.00    -0.014 A 
ATOM     78  C   UNL A   1      48.774  26.796  31.070  1.00  0.00     0.010 A 
ATOM     79  C   UNL A   1      47.623  25.924  33.018  1.00  0.00     0.010 A 
ATOM     80  C   UNL A   1      49.985  26.303  31.564  1.00  0.00     0.020 A 
ATOM     81  C   UNL A   1      48.835  25.450  33.527  1.00  0.00     0.020 A 
ATOM     82  C   UNL A   1      50.006  25.625  32.787  1.00  0.00     0.054 A 
BRANCH  82  83
ATOM     83  S   UNL A   1      51.588  25.004  33.420  1.00  0.00     0.124 S 
ATOM     84  O   UNL A   1      51.184  24.364  34.670  1.00  0.00    -0.237 OA
ATOM     85  O   UNL A   1      52.027  24.096  32.363  1.00  0.00    -0.237 OA
ATOM     86  O   UNL A   1      52.397  26.211  33.570  1.00  0.00    -0.744 OA
ENDBRANCH  82  83
ENDBRANCH  56  77
ENDBRANCH  30  31
ENDBRANCH  22  25
ENDBRANCH  20  21
ENDBRANCH  19  20
ENDBRANCH   1  19
TORSDOF 18
ENDMDL
