MODEL 1
REMARK VINA RESULT:     -11.6      0.000      0.000
REMARK SMILES Cn1cc(C(=O)NCCCNC(=O)c2ccc(-c3c4nc(c(-c5ccc(S(=O)(=O)[O-])cc5)c5ccc([nH]5)c(-c5ccc(S(=O)(=O)[O-])cc5)c5nc(c(-c6ccc(S(=O)(=O)[O-])cc6)c6ccc3[nH]6)C=C5)C=C4)cc2)c(C(=O)Nc2ccc(-n3cncn3)cc2)n1
REMARK SMILES IDX 9 1 8 2 7 3 5 4 6 5 4 7 1 8 2 9 3 10 89 11 74 12 75 13 76 14
REMARK SMILES IDX 77 15 78 17 79 18 88 19 80 20 87 21 81 22 82 23 83 24 86 25
REMARK SMILES IDX 84 26 85 27 10 28 11 29 12 30 13 32 14 33 15 34 73 35 16 36
REMARK SMILES IDX 72 37 17 38 18 39 19 40 66 41 20 42 71 43 65 44 67 45 21 46
REMARK SMILES IDX 70 47 64 48 63 49 22 51 52 52 33 53 51 54 34 55 37 56 50 57
REMARK SMILES IDX 68 58 35 59 36 60 49 62 69 63 38 64 23 65 24 66 32 67 25 68
REMARK SMILES IDX 31 69 26 70 27 71 28 72 29 73 30 74 53 75 54 76 62 77 55 78
REMARK SMILES IDX 61 79 56 80 57 81 58 82 59 83 60 84 39 85 40 86 48 87 41 88
REMARK SMILES IDX 47 89 42 90 43 91 44 92 45 93 46 94
REMARK H PARENT 7 6 77 16 11 31 67 50 37 61
REMARK Flexibility Score: inf
ROOT
ATOM      1  C   UNL A   1      35.397  23.596  26.066  1.00  0.00     0.042 C 
ENDROOT
BRANCH   1   2
ATOM      2  C   UNL A   1      34.198  24.319  25.454  1.00  0.00     0.118 C 
BRANCH   2   3
ATOM      3  N   UNL A   1      34.262  25.770  25.457  1.00  0.00    -0.352 N 
ATOM      4  C   UNL A   1      33.697  26.740  24.668  1.00  0.00     0.255 C 
ATOM      5  O   UNL A   1      33.777  27.899  25.084  1.00  0.00    -0.269 OA
ATOM      6  H   UNL A   1      34.830  26.133  26.175  1.00  0.00     0.163 HD
BRANCH   4   7
ATOM      7  C   UNL A   1      33.059  26.441  23.396  1.00  0.00     0.090 A 
ATOM      8  C   UNL A   1      32.731  25.540  19.911  1.00  0.00     0.173 C 
ATOM      9  N   UNL A   1      32.610  25.911  21.301  1.00  0.00    -0.274 N 
ATOM     10  C   UNL A   1      33.619  26.275  22.142  1.00  0.00     0.123 A 
ATOM     11  N   UNL A   1      31.415  25.856  21.893  1.00  0.00    -0.167 NA
ATOM     12  C   UNL A   1      31.661  26.141  23.188  1.00  0.00     0.163 A 
BRANCH  12  13
ATOM     13  C   UNL A   1      30.569  26.035  24.175  1.00  0.00     0.276 C 
ATOM     14  O   UNL A   1      29.918  27.024  24.527  1.00  0.00    -0.267 OA
ATOM     15  N   UNL A   1      30.180  24.815  24.685  1.00  0.00    -0.321 N 
ATOM     16  H   UNL A   1      29.300  24.828  25.127  1.00  0.00     0.170 HD
BRANCH  15  17
ATOM     17  C   UNL A   1      30.799  23.561  24.693  1.00  0.00     0.041 A 
ATOM     18  C   UNL A   1      31.286  23.093  23.469  1.00  0.00     0.028 A 
ATOM     19  C   UNL A   1      30.941  22.771  25.833  1.00  0.00     0.028 A 
ATOM     20  C   UNL A   1      32.004  21.899  23.401  1.00  0.00     0.030 A 
ATOM     21  C   UNL A   1      31.629  21.551  25.767  1.00  0.00     0.030 A 
ATOM     22  C   UNL A   1      32.196  21.130  24.555  1.00  0.00     0.067 A 
BRANCH  22  23
ATOM     23  N   UNL A   1      33.004  19.968  24.485  1.00  0.00    -0.221 N 
ATOM     24  C   UNL A   1      32.620  18.660  24.326  1.00  0.00     0.225 A 
ATOM     25  N   UNL A   1      34.348  20.018  24.663  1.00  0.00    -0.155 NA
ATOM     26  N   UNL A   1      33.651  17.859  24.460  1.00  0.00    -0.223 NA
ATOM     27  C   UNL A   1      34.681  18.726  24.659  1.00  0.00     0.246 A 
ENDBRANCH  22  23
ENDBRANCH  15  17
ENDBRANCH  12  13
ENDBRANCH   4   7
ENDBRANCH   2   3
ENDBRANCH   1   2
BRANCH   1  28
ATOM     28  C   UNL A   1      36.661  23.579  25.204  1.00  0.00     0.118 C 
BRANCH  28  29
ATOM     29  N   UNL A   1      37.664  22.635  25.663  1.00  0.00    -0.352 N 
ATOM     30  C   UNL A   1      38.873  22.792  26.293  1.00  0.00     0.251 C 
ATOM     31  H   UNL A   1      37.431  21.695  25.486  1.00  0.00     0.163 HD
ATOM     32  O   UNL A   1      39.595  21.800  26.400  1.00  0.00    -0.269 OA
BRANCH  30  33
ATOM     33  C   UNL A   1      39.351  24.092  26.826  1.00  0.00     0.039 A 
ATOM     34  C   UNL A   1      38.961  24.449  28.125  1.00  0.00     0.014 A 
ATOM     35  C   UNL A   1      40.060  25.015  26.055  1.00  0.00     0.014 A 
ATOM     36  C   UNL A   1      39.324  25.689  28.662  1.00  0.00     0.010 A 
ATOM     37  C   UNL A   1      40.457  26.243  26.604  1.00  0.00     0.010 A 
ATOM     38  C   UNL A   1      40.097  26.590  27.913  1.00  0.00    -0.014 A 
BRANCH  38  39
ATOM     39  C   UNL A   1      40.546  27.876  28.506  1.00  0.00     0.031 A 
ATOM     40  C   UNL A   1      41.960  28.064  28.980  1.00  0.00     0.074 A 
ATOM     41  C   UNL A   1      39.667  28.887  28.641  1.00  0.00     0.049 A 
ATOM     42  N   UNL A   1      42.489  29.092  29.597  1.00  0.00    -0.248 NA
ATOM     43  C   UNL A   1      42.895  26.957  28.737  1.00  0.00     0.031 C 
ATOM     44  C   UNL A   1      38.263  28.847  28.232  1.00  0.00     0.029 A 
ATOM     45  N   UNL A   1      39.828  30.146  29.165  1.00  0.00    -0.354 N 
ATOM     46  C   UNL A   1      43.811  28.748  29.843  1.00  0.00     0.074 A 
ATOM     47  C   UNL A   1      44.007  27.419  29.297  1.00  0.00     0.031 C 
ATOM     48  C   UNL A   1      37.693  30.031  28.509  1.00  0.00     0.029 A 
ATOM     49  C   UNL A   1      38.684  30.903  29.135  1.00  0.00     0.049 A 
ATOM     50  H   UNL A   1      40.683  30.474  29.527  1.00  0.00     0.167 HD
ATOM     51  C   UNL A   1      44.778  29.465  30.467  1.00  0.00     0.031 A 
ATOM     52  C   UNL A   1      38.445  32.155  29.572  1.00  0.00     0.031 A 
ATOM     53  C   UNL A   1      44.613  30.794  30.992  1.00  0.00     0.049 A 
ATOM     54  C   UNL A   1      39.534  32.943  30.230  1.00  0.00     0.074 A 
ATOM     55  C   UNL A   1      45.544  31.588  31.640  1.00  0.00     0.029 A 
ATOM     56  N   UNL A   1      43.443  31.533  30.918  1.00  0.00    -0.354 N 
ATOM     57  N   UNL A   1      40.770  32.586  30.476  1.00  0.00    -0.248 NA
ATOM     58  C   UNL A   1      39.192  34.301  30.679  1.00  0.00     0.031 C 
ATOM     59  C   UNL A   1      44.935  32.810  31.960  1.00  0.00     0.029 A 
ATOM     60  C   UNL A   1      43.627  32.774  31.507  1.00  0.00     0.049 A 
ATOM     61  H   UNL A   1      42.604  31.223  30.507  1.00  0.00     0.167 HD
ATOM     62  C   UNL A   1      41.353  33.671  31.120  1.00  0.00     0.074 A 
ATOM     63  C   UNL A   1      40.339  34.702  31.213  1.00  0.00     0.031 C 
ATOM     64  C   UNL A   1      42.614  33.792  31.597  1.00  0.00     0.031 A 
BRANCH  51  65
ATOM     65  C   UNL A   1      46.110  28.796  30.631  1.00  0.00    -0.014 A 
ATOM     66  C   UNL A   1      47.106  28.935  29.651  1.00  0.00     0.010 A 
ATOM     67  C   UNL A   1      46.367  28.021  31.775  1.00  0.00     0.010 A 
ATOM     68  C   UNL A   1      48.331  28.279  29.793  1.00  0.00     0.020 A 
ATOM     69  C   UNL A   1      47.591  27.365  31.923  1.00  0.00     0.020 A 
ATOM     70  C   UNL A   1      48.559  27.482  30.920  1.00  0.00     0.054 A 
BRANCH  70  71
ATOM     71  S   UNL A   1      50.141  26.614  31.105  1.00  0.00     0.124 S 
ATOM     72  O   UNL A   1      50.177  25.800  29.893  1.00  0.00    -0.237 OA
ATOM     73  O   UNL A   1      51.117  27.699  31.159  1.00  0.00    -0.237 OA
ATOM     74  O   UNL A   1      49.971  25.873  32.353  1.00  0.00    -0.744 OA
ENDBRANCH  70  71
ENDBRANCH  51  65
BRANCH  52  75
ATOM     75  C   UNL A   1      37.085  32.721  29.409  1.00  0.00    -0.014 A 
ATOM     76  C   UNL A   1      36.211  32.786  30.507  1.00  0.00     0.010 A 
ATOM     77  C   UNL A   1      36.696  33.271  28.176  1.00  0.00     0.010 A 
ATOM     78  C   UNL A   1      34.970  33.415  30.381  1.00  0.00     0.020 A 
ATOM     79  C   UNL A   1      35.458  33.904  28.049  1.00  0.00     0.020 A 
ATOM     80  C   UNL A   1      34.605  33.977  29.154  1.00  0.00     0.054 A 
BRANCH  80  81
ATOM     81  S   UNL A   1      33.052  34.905  29.007  1.00  0.00     0.124 S 
ATOM     82  O   UNL A   1      32.551  34.875  30.376  1.00  0.00    -0.237 OA
ATOM     83  O   UNL A   1      33.488  36.212  28.521  1.00  0.00    -0.237 OA
ATOM     84  O   UNL A   1      32.296  34.115  28.038  1.00  0.00    -0.744 OA
ENDBRANCH  80  81
ENDBRANCH  52  75
BRANCH  64  85
ATOM     85  C   UNL A   1      42.962  35.086  32.273  1.00  0.00    -0.014 A 
ATOM     86  C   UNL A   1      42.632  35.288  33.624  1.00  0.00     0.010 A 
ATOM     87  C   UNL A   1      43.628  36.099  31.563  1.00  0.00     0.010 A 
ATOM     88  C   UNL A   1      42.944  36.496  34.253  1.00  0.00     0.020 A 
ATOM     89  C   UNL A   1      43.944  37.308  32.191  1.00  0.00     0.020 A 
ATOM     90  C   UNL A   1      43.587  37.504  33.528  1.00  0.00     0.054 A 
BRANCH  90  91
ATOM     91  S   UNL A   1      44.011  39.067  34.348  1.00  0.00     0.124 S 
ATOM     92  O   UNL A   1      42.906  39.931  33.942  1.00  0.00    -0.237 OA
ATOM     93  O   UNL A   1      44.038  38.708  35.764  1.00  0.00    -0.237 OA
ATOM     94  O   UNL A   1      45.313  39.403  33.774  1.00  0.00    -0.744 OA
ENDBRANCH  90  91
ENDBRANCH  64  85
ENDBRANCH  38  39
ENDBRANCH  30  33
ENDBRANCH  28  29
ENDBRANCH   1  28
TORSDOF 16
ENDMDL
MODEL 2
REMARK VINA RESULT:     -11.4      3.287      8.887
REMARK SMILES Cn1cc(C(=O)NCCCNC(=O)c2ccc(-c3c4nc(c(-c5ccc(S(=O)(=O)[O-])cc5)c5ccc([nH]5)c(-c5ccc(S(=O)(=O)[O-])cc5)c5nc(c(-c6ccc(S(=O)(=O)[O-])cc6)c6ccc3[nH]6)C=C5)C=C4)cc2)c(C(=O)Nc2ccc(-n3cncn3)cc2)n1
REMARK SMILES IDX 9 1 8 2 7 3 5 4 6 5 4 7 1 8 2 9 3 10 89 11 74 12 75 13 76 14
REMARK SMILES IDX 77 15 78 17 79 18 88 19 80 20 87 21 81 22 82 23 83 24 86 25
REMARK SMILES IDX 84 26 85 27 10 28 11 29 12 30 13 32 14 33 15 34 73 35 16 36
REMARK SMILES IDX 72 37 17 38 18 39 19 40 66 41 20 42 71 43 65 44 67 45 21 46
REMARK SMILES IDX 70 47 64 48 63 49 22 51 52 52 33 53 51 54 34 55 37 56 50 57
REMARK SMILES IDX 68 58 35 59 36 60 49 62 69 63 38 64 23 65 24 66 32 67 25 68
REMARK SMILES IDX 31 69 26 70 27 71 28 72 29 73 30 74 53 75 54 76 62 77 55 78
REMARK SMILES IDX 61 79 56 80 57 81 58 82 59 83 60 84 39 85 40 86 48 87 41 88
REMARK SMILES IDX 47 89 42 90 43 91 44 92 45 93 46 94
REMARK H PARENT 7 6 77 16 11 31 67 50 37 61
REMARK Flexibility Score: inf
ROOT
ATOM      1  C   UNL A   1      32.644  28.072  27.074  1.00  0.00     0.042 C 
ENDROOT
BRANCH   1   2
ATOM      2  C   UNL A   1      31.738  27.297  26.118  1.00  0.00     0.118 C 
BRANCH   2   3
ATOM      3  N   UNL A   1      31.353  25.965  26.550  1.00  0.00    -0.352 N 
ATOM      4  C   UNL A   1      31.983  24.745  26.515  1.00  0.00     0.255 C 
ATOM      5  O   UNL A   1      31.461  23.843  27.175  1.00  0.00    -0.269 OA
ATOM      6  H   UNL A   1      30.455  25.928  26.951  1.00  0.00     0.163 HD
BRANCH   4   7
ATOM      7  C   UNL A   1      33.181  24.505  25.728  1.00  0.00     0.090 A 
ATOM      8  C   UNL A   1      36.644  23.788  24.981  1.00  0.00     0.173 C 
ATOM      9  N   UNL A   1      35.231  24.083  25.029  1.00  0.00    -0.274 N 
ATOM     10  C   UNL A   1      34.501  24.415  26.131  1.00  0.00     0.123 A 
ATOM     11  N   UNL A   1      34.501  23.978  23.916  1.00  0.00    -0.167 NA
ATOM     12  C   UNL A   1      33.233  24.197  24.318  1.00  0.00     0.163 A 
BRANCH  12  13
ATOM     13  C   UNL A   1      32.126  24.021  23.357  1.00  0.00     0.276 C 
ATOM     14  O   UNL A   1      31.544  24.991  22.859  1.00  0.00    -0.267 OA
ATOM     15  N   UNL A   1      31.751  22.770  22.915  1.00  0.00    -0.321 N 
ATOM     16  H   UNL A   1      31.191  22.783  22.105  1.00  0.00     0.170 HD
BRANCH  15  17
ATOM     17  C   UNL A   1      32.017  21.486  23.401  1.00  0.00     0.041 A 
ATOM     18  C   UNL A   1      32.077  20.457  22.458  1.00  0.00     0.028 A 
ATOM     19  C   UNL A   1      32.210  21.191  24.751  1.00  0.00     0.028 A 
ATOM     20  C   UNL A   1      32.432  19.163  22.841  1.00  0.00     0.030 A 
ATOM     21  C   UNL A   1      32.531  19.886  25.149  1.00  0.00     0.030 A 
ATOM     22  C   UNL A   1      32.681  18.875  24.189  1.00  0.00     0.067 A 
BRANCH  22  23
ATOM     23  N   UNL A   1      33.129  17.579  24.547  1.00  0.00    -0.221 N 
ATOM     24  C   UNL A   1      34.240  16.901  24.113  1.00  0.00     0.225 A 
ATOM     25  N   UNL A   1      32.406  16.771  25.363  1.00  0.00    -0.155 NA
ATOM     26  N   UNL A   1      34.230  15.668  24.561  1.00  0.00    -0.223 NA
ATOM     27  C   UNL A   1      33.100  15.634  25.321  1.00  0.00     0.246 A 
ENDBRANCH  22  23
ENDBRANCH  15  17
ENDBRANCH  12  13
ENDBRANCH   4   7
ENDBRANCH   2   3
ENDBRANCH   1   2
BRANCH   1  28
ATOM     28  C   UNL A   1      33.719  28.930  26.405  1.00  0.00     0.118 C 
BRANCH  28  29
ATOM     29  N   UNL A   1      33.602  30.346  26.705  1.00  0.00    -0.352 N 
ATOM     30  C   UNL A   1      34.322  31.192  27.511  1.00  0.00     0.251 C 
ATOM     31  H   UNL A   1      32.857  30.787  26.237  1.00  0.00     0.163 HD
ATOM     32  O   UNL A   1      33.869  32.321  27.704  1.00  0.00    -0.269 OA
BRANCH  30  33
ATOM     33  C   UNL A   1      35.594  30.803  28.169  1.00  0.00     0.039 A 
ATOM     34  C   UNL A   1      35.548  29.788  29.135  1.00  0.00     0.014 A 
ATOM     35  C   UNL A   1      36.796  31.482  27.958  1.00  0.00     0.014 A 
ATOM     36  C   UNL A   1      36.700  29.420  29.838  1.00  0.00     0.010 A 
ATOM     37  C   UNL A   1      37.961  31.089  28.634  1.00  0.00     0.010 A 
ATOM     38  C   UNL A   1      37.925  30.052  29.576  1.00  0.00    -0.014 A 
BRANCH  38  39
ATOM     39  C   UNL A   1      39.165  29.615  30.267  1.00  0.00     0.031 A 
ATOM     40  C   UNL A   1      39.624  30.275  31.538  1.00  0.00     0.074 A 
ATOM     41  C   UNL A   1      39.906  28.623  29.737  1.00  0.00     0.049 A 
ATOM     42  N   UNL A   1      40.725  30.070  32.218  1.00  0.00    -0.248 NA
ATOM     43  C   UNL A   1      38.738  31.296  32.113  1.00  0.00     0.031 C 
ATOM     44  C   UNL A   1      39.589  27.895  28.508  1.00  0.00     0.029 A 
ATOM     45  N   UNL A   1      41.081  28.058  30.167  1.00  0.00    -0.354 N 
ATOM     46  C   UNL A   1      40.681  30.956  33.286  1.00  0.00     0.074 A 
ATOM     47  C   UNL A   1      39.438  31.692  33.169  1.00  0.00     0.031 C 
ATOM     48  C   UNL A   1      40.539  26.973  28.288  1.00  0.00     0.029 A 
ATOM     49  C   UNL A   1      41.543  27.060  29.346  1.00  0.00     0.049 A 
ATOM     50  H   UNL A   1      41.548  28.344  30.986  1.00  0.00     0.167 HD
ATOM     51  C   UNL A   1      41.591  31.146  34.274  1.00  0.00     0.031 A 
ATOM     52  C   UNL A   1      42.654  26.302  29.421  1.00  0.00     0.031 A 
ATOM     53  C   UNL A   1      42.816  30.409  34.423  1.00  0.00     0.049 A 
ATOM     54  C   UNL A   1      43.630  26.506  30.538  1.00  0.00     0.074 A 
ATOM     55  C   UNL A   1      43.792  30.544  35.397  1.00  0.00     0.029 A 
ATOM     56  N   UNL A   1      43.232  29.389  33.583  1.00  0.00    -0.354 N 
ATOM     57  N   UNL A   1      43.580  27.369  31.522  1.00  0.00    -0.248 NA
ATOM     58  C   UNL A   1      44.817  25.639  30.548  1.00  0.00     0.031 C 
ATOM     59  C   UNL A   1      44.801  29.604  35.144  1.00  0.00     0.029 A 
ATOM     60  C   UNL A   1      44.448  28.884  34.014  1.00  0.00     0.049 A 
ATOM     61  H   UNL A   1      42.737  29.070  32.794  1.00  0.00     0.167 HD
ATOM     62  C   UNL A   1      44.736  27.158  32.265  1.00  0.00     0.074 A 
ATOM     63  C   UNL A   1      45.458  26.076  31.624  1.00  0.00     0.031 C 
ATOM     64  C   UNL A   1      45.161  27.812  33.372  1.00  0.00     0.031 A 
BRANCH  51  65
ATOM     65  C   UNL A   1      41.285  32.227  35.268  1.00  0.00    -0.014 A 
ATOM     66  C   UNL A   1      40.453  31.971  36.370  1.00  0.00     0.010 A 
ATOM     67  C   UNL A   1      41.834  33.509  35.097  1.00  0.00     0.010 A 
ATOM     68  C   UNL A   1      40.143  32.993  37.271  1.00  0.00     0.020 A 
ATOM     69  C   UNL A   1      41.529  34.533  35.997  1.00  0.00     0.020 A 
ATOM     70  C   UNL A   1      40.669  34.273  37.068  1.00  0.00     0.054 A 
BRANCH  70  71
ATOM     71  S   UNL A   1      40.259  35.609  38.224  1.00  0.00     0.124 S 
ATOM     72  O   UNL A   1      41.547  35.851  38.869  1.00  0.00    -0.237 OA
ATOM     73  O   UNL A   1      39.787  36.680  37.349  1.00  0.00    -0.237 OA
ATOM     74  O   UNL A   1      39.235  35.011  39.077  1.00  0.00    -0.744 OA
ENDBRANCH  70  71
ENDBRANCH  51  65
BRANCH  52  75
ATOM     75  C   UNL A   1      42.898  25.287  28.370  1.00  0.00    -0.014 A 
ATOM     76  C   UNL A   1      43.854  25.525  27.367  1.00  0.00     0.010 A 
ATOM     77  C   UNL A   1      42.236  24.049  28.420  1.00  0.00     0.010 A 
ATOM     78  C   UNL A   1      44.162  24.527  26.439  1.00  0.00     0.020 A 
ATOM     79  C   UNL A   1      42.545  23.049  27.497  1.00  0.00     0.020 A 
ATOM     80  C   UNL A   1      43.510  23.293  26.514  1.00  0.00     0.054 A 
BRANCH  80  81
ATOM     81  S   UNL A   1      43.986  21.945  25.396  1.00  0.00     0.124 S 
ATOM     82  O   UNL A   1      43.506  22.435  24.110  1.00  0.00    -0.237 OA
ATOM     83  O   UNL A   1      45.438  21.883  25.546  1.00  0.00    -0.237 OA
ATOM     84  O   UNL A   1      43.266  20.800  25.948  1.00  0.00    -0.744 OA
ENDBRANCH  80  81
ENDBRANCH  52  75
BRANCH  64  85
ATOM     85  C   UNL A   1      46.474  27.378  33.954  1.00  0.00    -0.014 A 
ATOM     86  C   UNL A   1      47.669  27.988  33.534  1.00  0.00     0.010 A 
ATOM     87  C   UNL A   1      46.518  26.367  34.929  1.00  0.00     0.010 A 
ATOM     88  C   UNL A   1      48.894  27.578  34.065  1.00  0.00     0.020 A 
ATOM     89  C   UNL A   1      47.742  25.957  35.464  1.00  0.00     0.020 A 
ATOM     90  C   UNL A   1      48.924  26.556  35.018  1.00  0.00     0.054 A 
BRANCH  90  91
ATOM     91  S   UNL A   1      50.513  26.036  35.725  1.00  0.00     0.124 S 
ATOM     92  O   UNL A   1      50.144  24.810  36.428  1.00  0.00    -0.237 OA
ATOM     93  O   UNL A   1      51.360  25.852  34.550  1.00  0.00    -0.237 OA
ATOM     94  O   UNL A   1      50.883  27.162  36.581  1.00  0.00    -0.744 OA
ENDBRANCH  90  91
ENDBRANCH  64  85
ENDBRANCH  38  39
ENDBRANCH  30  33
ENDBRANCH  28  29
ENDBRANCH   1  28
TORSDOF 16
ENDMDL
MODEL 3
REMARK VINA RESULT:     -11.3      2.847      9.399
REMARK SMILES Cn1cc(C(=O)NCCCNC(=O)c2ccc(-c3c4nc(c(-c5ccc(S(=O)(=O)[O-])cc5)c5ccc([nH]5)c(-c5ccc(S(=O)(=O)[O-])cc5)c5nc(c(-c6ccc(S(=O)(=O)[O-])cc6)c6ccc3[nH]6)C=C5)C=C4)cc2)c(C(=O)Nc2ccc(-n3cncn3)cc2)n1
REMARK SMILES IDX 9 1 8 2 7 3 5 4 6 5 4 7 1 8 2 9 3 10 89 11 74 12 75 13 76 14
REMARK SMILES IDX 77 15 78 17 79 18 88 19 80 20 87 21 81 22 82 23 83 24 86 25
REMARK SMILES IDX 84 26 85 27 10 28 11 29 12 30 13 32 14 33 15 34 73 35 16 36
REMARK SMILES IDX 72 37 17 38 18 39 19 40 66 41 20 42 71 43 65 44 67 45 21 46
REMARK SMILES IDX 70 47 64 48 63 49 22 51 52 52 33 53 51 54 34 55 37 56 50 57
REMARK SMILES IDX 68 58 35 59 36 60 49 62 69 63 38 64 23 65 24 66 32 67 25 68
REMARK SMILES IDX 31 69 26 70 27 71 28 72 29 73 30 74 53 75 54 76 62 77 55 78
REMARK SMILES IDX 61 79 56 80 57 81 58 82 59 83 60 84 39 85 40 86 48 87 41 88
REMARK SMILES IDX 47 89 42 90 43 91 44 92 45 93 46 94
REMARK H PARENT 7 6 77 16 11 31 67 50 37 61
REMARK Flexibility Score: inf
ROOT
ATOM      1  C   UNL A   1      32.342  28.248  26.379  1.00  0.00     0.042 C 
ENDROOT
BRANCH   1   2
ATOM      2  C   UNL A   1      32.356  26.962  25.553  1.00  0.00     0.118 C 
BRANCH   2   3
ATOM      3  N   UNL A   1      33.449  26.045  25.826  1.00  0.00    -0.352 N 
ATOM      4  C   UNL A   1      33.527  24.679  25.938  1.00  0.00     0.255 C 
ATOM      5  O   UNL A   1      34.662  24.196  25.956  1.00  0.00    -0.269 OA
ATOM      6  H   UNL A   1      34.314  26.497  25.959  1.00  0.00     0.163 HD
BRANCH   4   7
ATOM      7  C   UNL A   1      32.349  23.835  26.059  1.00  0.00     0.090 A 
ATOM      8  C   UNL A   1      29.300  22.469  27.436  1.00  0.00     0.173 C 
ATOM      9  N   UNL A   1      30.483  22.848  26.701  1.00  0.00    -0.274 N 
ATOM     10  C   UNL A   1      31.479  23.677  27.122  1.00  0.00     0.123 A 
ATOM     11  N   UNL A   1      30.643  22.414  25.449  1.00  0.00    -0.167 NA
ATOM     12  C   UNL A   1      31.761  23.029  25.014  1.00  0.00     0.163 A 
BRANCH  12  13
ATOM     13  C   UNL A   1      32.169  22.885  23.603  1.00  0.00     0.276 C 
ATOM     14  O   UNL A   1      32.859  21.932  23.225  1.00  0.00    -0.267 OA
ATOM     15  N   UNL A   1      31.728  23.763  22.636  1.00  0.00    -0.321 N 
ATOM     16  H   UNL A   1      31.846  23.436  21.715  1.00  0.00     0.170 HD
BRANCH  15  17
ATOM     17  C   UNL A   1      31.146  25.031  22.717  1.00  0.00     0.041 A 
ATOM     18  C   UNL A   1      31.795  26.067  22.039  1.00  0.00     0.028 A 
ATOM     19  C   UNL A   1      29.982  25.307  23.435  1.00  0.00     0.028 A 
ATOM     20  C   UNL A   1      31.233  27.342  21.985  1.00  0.00     0.030 A 
ATOM     21  C   UNL A   1      29.429  26.596  23.416  1.00  0.00     0.030 A 
ATOM     22  C   UNL A   1      30.034  27.608  22.658  1.00  0.00     0.067 A 
BRANCH  22  23
ATOM     23  N   UNL A   1      29.431  28.883  22.518  1.00  0.00    -0.221 N 
ATOM     24  C   UNL A   1      28.295  29.369  23.114  1.00  0.00     0.225 A 
ATOM     25  N   UNL A   1      29.905  29.808  21.645  1.00  0.00    -0.155 NA
ATOM     26  N   UNL A   1      27.979  30.541  22.615  1.00  0.00    -0.223 NA
ATOM     27  C   UNL A   1      28.987  30.772  21.730  1.00  0.00     0.246 A 
ENDBRANCH  22  23
ENDBRANCH  15  17
ENDBRANCH  12  13
ENDBRANCH   4   7
ENDBRANCH   2   3
ENDBRANCH   1   2
BRANCH   1  28
ATOM     28  C   UNL A   1      33.718  28.823  26.718  1.00  0.00     0.118 C 
BRANCH  28  29
ATOM     29  N   UNL A   1      33.674  30.198  27.181  1.00  0.00    -0.352 N 
ATOM     30  C   UNL A   1      34.507  30.940  27.980  1.00  0.00     0.251 C 
ATOM     31  H   UNL A   1      32.890  30.698  26.859  1.00  0.00     0.163 HD
ATOM     32  O   UNL A   1      34.111  32.047  28.348  1.00  0.00    -0.269 OA
BRANCH  30  33
ATOM     33  C   UNL A   1      35.838  30.466  28.431  1.00  0.00     0.039 A 
ATOM     34  C   UNL A   1      36.916  30.599  27.544  1.00  0.00     0.014 A 
ATOM     35  C   UNL A   1      36.036  29.790  29.638  1.00  0.00     0.014 A 
ATOM     36  C   UNL A   1      38.183  30.113  27.883  1.00  0.00     0.010 A 
ATOM     37  C   UNL A   1      37.313  29.335  29.996  1.00  0.00     0.010 A 
ATOM     38  C   UNL A   1      38.399  29.496  29.125  1.00  0.00    -0.014 A 
BRANCH  38  39
ATOM     39  C   UNL A   1      39.759  29.044  29.519  1.00  0.00     0.031 A 
ATOM     40  C   UNL A   1      40.669  29.927  30.327  1.00  0.00     0.074 A 
ATOM     41  C   UNL A   1      40.194  27.831  29.129  1.00  0.00     0.049 A 
ATOM     42  N   UNL A   1      41.914  29.716  30.680  1.00  0.00    -0.248 NA
ATOM     43  C   UNL A   1      40.115  31.205  30.792  1.00  0.00     0.031 C 
ATOM     44  C   UNL A   1      39.424  26.871  28.337  1.00  0.00     0.029 A 
ATOM     45  N   UNL A   1      41.394  27.201  29.345  1.00  0.00    -0.354 N 
ATOM     46  C   UNL A   1      42.304  30.848  31.384  1.00  0.00     0.074 A 
ATOM     47  C   UNL A   1      41.159  31.737  31.417  1.00  0.00     0.031 C 
ATOM     48  C   UNL A   1      40.167  25.769  28.144  1.00  0.00     0.029 A 
ATOM     49  C   UNL A   1      41.470  25.954  28.777  1.00  0.00     0.049 A 
ATOM     50  H   UNL A   1      42.131  27.606  29.859  1.00  0.00     0.167 HD
ATOM     51  C   UNL A   1      43.504  31.129  31.949  1.00  0.00     0.031 A 
ATOM     52  C   UNL A   1      42.475  25.058  28.752  1.00  0.00     0.031 A 
ATOM     53  C   UNL A   1      44.643  30.252  31.950  1.00  0.00     0.049 A 
ATOM     54  C   UNL A   1      43.782  25.374  29.410  1.00  0.00     0.074 A 
ATOM     55  C   UNL A   1      45.897  30.465  32.501  1.00  0.00     0.029 A 
ATOM     56  N   UNL A   1      44.668  28.988  31.385  1.00  0.00    -0.354 N 
ATOM     57  N   UNL A   1      44.137  26.463  30.046  1.00  0.00    -0.248 NA
ATOM     58  C   UNL A   1      44.828  24.343  29.337  1.00  0.00     0.031 C 
ATOM     59  C   UNL A   1      46.680  29.326  32.266  1.00  0.00     0.029 A 
ATOM     60  C   UNL A   1      45.912  28.407  31.572  1.00  0.00     0.049 A 
ATOM     61  H   UNL A   1      43.912  28.564  30.918  1.00  0.00     0.167 HD
ATOM     62  C   UNL A   1      45.453  26.254  30.441  1.00  0.00     0.074 A 
ATOM     63  C   UNL A   1      45.827  24.930  29.985  1.00  0.00     0.031 C 
ATOM     64  C   UNL A   1      46.276  27.093  31.114  1.00  0.00     0.031 A 
BRANCH  51  65
ATOM     65  C   UNL A   1      43.640  32.472  32.603  1.00  0.00    -0.014 A 
ATOM     66  C   UNL A   1      44.033  33.595  31.857  1.00  0.00     0.010 A 
ATOM     67  C   UNL A   1      43.372  32.611  33.976  1.00  0.00     0.010 A 
ATOM     68  C   UNL A   1      44.192  34.835  32.481  1.00  0.00     0.020 A 
ATOM     69  C   UNL A   1      43.528  33.849  34.603  1.00  0.00     0.020 A 
ATOM     70  C   UNL A   1      43.957  34.950  33.855  1.00  0.00     0.054 A 
BRANCH  70  71
ATOM     71  S   UNL A   1      44.177  36.553  34.676  1.00  0.00     0.124 S 
ATOM     72  O   UNL A   1      43.615  37.472  33.690  1.00  0.00    -0.237 OA
ATOM     73  O   UNL A   1      43.405  36.409  35.908  1.00  0.00    -0.237 OA
ATOM     74  O   UNL A   1      45.623  36.638  34.860  1.00  0.00    -0.744 OA
ENDBRANCH  70  71
ENDBRANCH  51  65
BRANCH  52  75
ATOM     75  C   UNL A   1      42.269  23.773  28.044  1.00  0.00    -0.014 A 
ATOM     76  C   UNL A   1      42.797  23.583  26.756  1.00  0.00     0.010 A 
ATOM     77  C   UNL A   1      41.616  22.710  28.692  1.00  0.00     0.010 A 
ATOM     78  C   UNL A   1      42.695  22.338  26.131  1.00  0.00     0.020 A 
ATOM     79  C   UNL A   1      41.517  21.464  28.071  1.00  0.00     0.020 A 
ATOM     80  C   UNL A   1      42.061  21.284  26.796  1.00  0.00     0.054 A 
BRANCH  80  81
ATOM     81  S   UNL A   1      42.030  19.629  26.052  1.00  0.00     0.124 S 
ATOM     82  O   UNL A   1      42.953  19.782  24.934  1.00  0.00    -0.237 OA
ATOM     83  O   UNL A   1      42.490  18.765  27.137  1.00  0.00    -0.237 OA
ATOM     84  O   UNL A   1      40.623  19.464  25.695  1.00  0.00    -0.744 OA
ENDBRANCH  80  81
ENDBRANCH  52  75
BRANCH  64  85
ATOM     85  C   UNL A   1      47.668  26.602  31.387  1.00  0.00    -0.014 A 
ATOM     86  C   UNL A   1      48.678  26.772  30.425  1.00  0.00     0.010 A 
ATOM     87  C   UNL A   1      47.973  25.980  32.609  1.00  0.00     0.010 A 
ATOM     88  C   UNL A   1      49.972  26.306  30.670  1.00  0.00     0.020 A 
ATOM     89  C   UNL A   1      49.268  25.515  32.859  1.00  0.00     0.020 A 
ATOM     90  C   UNL A   1      50.256  25.669  31.882  1.00  0.00     0.054 A 
BRANCH  90  91
ATOM     91  S   UNL A   1      51.940  25.080  32.213  1.00  0.00     0.124 S 
ATOM     92  O   UNL A   1      51.784  23.634  32.095  1.00  0.00    -0.237 OA
ATOM     93  O   UNL A   1      52.731  25.712  31.159  1.00  0.00    -0.237 OA
ATOM     94  O   UNL A   1      52.208  25.574  33.563  1.00  0.00    -0.744 OA
ENDBRANCH  90  91
ENDBRANCH  64  85
ENDBRANCH  38  39
ENDBRANCH  30  33
ENDBRANCH  28  29
ENDBRANCH   1  28
TORSDOF 16
ENDMDL
