MODEL 1
REMARK VINA RESULT:     -11.2      0.000      0.000
REMARK SMILES Cc1cc(CS(=O)(=O)N[C@@H]2C=C[C@H](C(=O)NCCCNC(=O)c3ccc(-c4c5nc(c(-c6ccc(S(=O)(=O)[O-])cc6)c6ccc([nH]6)c(-c6ccc(S(=O)(=O)[O-])cc6)c6nc(c(-c7ccc(S(=O)(=O)[O-])cc7)c7ccc4[nH]7)C=C6)C=C5)cc3)C2)no1
REMARK SMILES IDX 17 1 16 2 14 3 15 4 13 6 10 7 11 8 83 9 12 10 9 11 6 13 7 14
REMARK SMILES IDX 8 15 5 16 4 17 1 18 2 19 3 20 85 21 84 22 18 23 19 24 20 25
REMARK SMILES IDX 21 26 22 28 23 29 24 30 82 31 25 32 81 33 26 34 27 35 28 36
REMARK SMILES IDX 75 37 29 38 80 39 74 40 76 41 30 42 79 43 73 44 72 45 31 47
REMARK SMILES IDX 61 48 42 49 60 50 43 51 46 52 59 53 77 54 44 55 45 56 58 58
REMARK SMILES IDX 78 59 47 60 32 61 33 62 41 63 34 64 40 65 35 66 36 67 37 68
REMARK SMILES IDX 38 69 39 70 62 71 63 72 71 73 64 74 70 75 65 76 66 77 67 78
REMARK SMILES IDX 68 79 69 80 48 81 49 82 57 83 50 84 56 85 51 86 52 87 53 88
REMARK SMILES IDX 54 89 55 90
REMARK H PARENT 16 5 9 12 20 27 76 46 46 57
REMARK Flexibility Score: inf
ROOT
ATOM      1  C   UNL A   1      37.707  22.394  25.524  1.00  0.00     0.117 C 
ENDROOT
BRANCH   1   2
ATOM      2  N   UNL A   1      36.483  21.911  26.145  1.00  0.00    -0.356 N 
ATOM      3  C   UNL A   1      35.173  21.962  25.798  1.00  0.00     0.226 C 
ATOM      4  O   UNL A   1      34.373  21.509  26.626  1.00  0.00    -0.274 OA
ATOM      5  H   UNL A   1      36.640  21.448  26.999  1.00  0.00     0.163 HD
BRANCH   3   6
ATOM      6  C   UNL A   1      34.641  22.451  24.446  1.00  0.00     0.103 C 
ATOM      7  C   UNL A   1      32.826  24.130  24.288  1.00  0.00     0.093 C 
ATOM      8  C   UNL A   1      32.389  22.749  23.932  1.00  0.00    -0.011 C 
ATOM      9  C   UNL A   1      34.328  23.961  24.532  1.00  0.00     0.042 C 
ATOM     10  C   UNL A   1      33.381  21.858  23.933  1.00  0.00    -0.016 C 
BRANCH   7  11
ATOM     11  N   UNL A   1      32.080  24.531  25.482  1.00  0.00    -0.208 NA
ATOM     12  H   UNL A   1      31.421  23.781  25.691  1.00  0.00     0.141 HD
BRANCH  11  13
ATOM     13  S   UNL A   1      31.202  25.967  25.430  1.00  0.00     0.218 S 
ATOM     14  O   UNL A   1      31.271  26.578  26.735  1.00  0.00    -0.212 OA
ATOM     15  O   UNL A   1      29.910  25.575  24.893  1.00  0.00    -0.212 OA
BRANCH  13  16
ATOM     16  C   UNL A   1      32.005  26.994  24.169  1.00  0.00     0.213 C 
BRANCH  16  17
ATOM     17  C   UNL A   1      31.103  27.943  23.475  1.00  0.00     0.100 A 
ATOM     18  C   UNL A   1      28.467  30.445  23.081  1.00  0.00     0.091 C 
ATOM     19  C   UNL A   1      29.589  29.488  23.071  1.00  0.00     0.133 A 
ATOM     20  C   UNL A   1      30.584  29.169  23.964  1.00  0.00     0.073 A 
ATOM     21  O   UNL A   1      29.650  28.635  22.016  1.00  0.00    -0.361 OA
ATOM     22  N   UNL A   1      30.634  27.690  22.246  1.00  0.00    -0.084 NA
ENDBRANCH  16  17
ENDBRANCH  13  16
ENDBRANCH  11  13
ENDBRANCH   7  11
ENDBRANCH   3   6
ENDBRANCH   1   2
BRANCH   1  23
ATOM     23  C   UNL A   1      38.126  23.751  26.082  1.00  0.00     0.042 C 
BRANCH  23  24
ATOM     24  C   UNL A   1      39.419  23.681  26.888  1.00  0.00     0.118 C 
BRANCH  24  25
ATOM     25  N   UNL A   1      40.573  24.100  26.099  1.00  0.00    -0.352 N 
ATOM     26  C   UNL A   1      41.279  25.275  26.119  1.00  0.00     0.251 C 
ATOM     27  H   UNL A   1      40.896  23.433  25.452  1.00  0.00     0.163 HD
ATOM     28  O   UNL A   1      42.049  25.528  25.198  1.00  0.00    -0.269 OA
BRANCH  26  29
ATOM     29  C   UNL A   1      41.113  26.226  27.235  1.00  0.00     0.039 A 
ATOM     30  C   UNL A   1      40.162  25.954  28.224  1.00  0.00     0.014 A 
ATOM     31  C   UNL A   1      41.861  27.405  27.287  1.00  0.00     0.014 A 
ATOM     32  C   UNL A   1      39.995  26.848  29.283  1.00  0.00     0.010 A 
ATOM     33  C   UNL A   1      41.761  28.242  28.390  1.00  0.00     0.010 A 
ATOM     34  C   UNL A   1      40.811  27.985  29.387  1.00  0.00    -0.014 A 
BRANCH  34  35
ATOM     35  C   UNL A   1      40.661  28.943  30.511  1.00  0.00     0.031 A 
ATOM     36  C   UNL A   1      41.551  28.825  31.720  1.00  0.00     0.074 A 
ATOM     37  C   UNL A   1      39.690  29.875  30.469  1.00  0.00     0.049 A 
ATOM     38  N   UNL A   1      41.538  29.526  32.825  1.00  0.00    -0.248 NA
ATOM     39  C   UNL A   1      42.566  27.757  31.700  1.00  0.00     0.031 C 
ATOM     40  C   UNL A   1      38.740  30.060  29.370  1.00  0.00     0.029 A 
ATOM     41  N   UNL A   1      39.337  30.839  31.378  1.00  0.00    -0.354 N 
ATOM     42  C   UNL A   1      42.525  28.972  33.634  1.00  0.00     0.074 A 
ATOM     43  C   UNL A   1      43.070  27.841  32.921  1.00  0.00     0.031 C 
ATOM     44  C   UNL A   1      37.934  31.096  29.656  1.00  0.00     0.029 A 
ATOM     45  C   UNL A   1      38.279  31.617  30.975  1.00  0.00     0.049 A 
ATOM     46  H   UNL A   1      39.799  30.962  32.239  1.00  0.00     0.167 HD
ATOM     47  C   UNL A   1      42.953  29.383  34.852  1.00  0.00     0.031 A 
ATOM     48  C   UNL A   1      37.653  32.634  31.597  1.00  0.00     0.031 A 
ATOM     49  C   UNL A   1      42.407  30.515  35.552  1.00  0.00     0.049 A 
ATOM     50  C   UNL A   1      38.140  33.071  32.951  1.00  0.00     0.074 A 
ATOM     51  C   UNL A   1      42.803  31.049  36.766  1.00  0.00     0.029 A 
ATOM     52  N   UNL A   1      41.345  31.286  35.102  1.00  0.00    -0.354 N 
ATOM     53  N   UNL A   1      39.116  32.575  33.675  1.00  0.00    -0.248 NA
ATOM     54  C   UNL A   1      37.455  34.216  33.562  1.00  0.00     0.031 C 
ATOM     55  C   UNL A   1      41.939  32.104  37.078  1.00  0.00     0.029 A 
ATOM     56  C   UNL A   1      41.054  32.276  36.025  1.00  0.00     0.049 A 
ATOM     57  H   UNL A   1      40.867  31.148  34.252  1.00  0.00     0.167 HD
ATOM     58  C   UNL A   1      39.185  33.372  34.814  1.00  0.00     0.074 A 
ATOM     59  C   UNL A   1      38.159  34.385  34.674  1.00  0.00     0.031 C 
ATOM     60  C   UNL A   1      40.027  33.276  35.873  1.00  0.00     0.031 A 
BRANCH  47  61
ATOM     61  C   UNL A   1      44.055  28.586  35.505  1.00  0.00    -0.014 A 
ATOM     62  C   UNL A   1      43.768  27.502  36.357  1.00  0.00     0.010 A 
ATOM     63  C   UNL A   1      45.398  28.916  35.254  1.00  0.00     0.010 A 
ATOM     64  C   UNL A   1      44.800  26.806  36.991  1.00  0.00     0.020 A 
ATOM     65  C   UNL A   1      46.436  28.198  35.857  1.00  0.00     0.020 A 
ATOM     66  C   UNL A   1      46.128  27.162  36.740  1.00  0.00     0.054 A 
BRANCH  66  67
ATOM     67  S   UNL A   1      47.447  26.239  37.576  1.00  0.00     0.124 S 
ATOM     68  O   UNL A   1      48.008  25.456  36.476  1.00  0.00    -0.237 OA
ATOM     69  O   UNL A   1      48.306  27.301  38.091  1.00  0.00    -0.237 OA
ATOM     70  O   UNL A   1      46.739  25.464  38.592  1.00  0.00    -0.744 OA
ENDBRANCH  66  67
ENDBRANCH  47  61
BRANCH  48  71
ATOM     71  C   UNL A   1      36.514  33.320  30.926  1.00  0.00    -0.014 A 
ATOM     72  C   UNL A   1      35.215  33.234  31.454  1.00  0.00     0.010 A 
ATOM     73  C   UNL A   1      36.732  34.096  29.772  1.00  0.00     0.010 A 
ATOM     74  C   UNL A   1      34.152  33.901  30.837  1.00  0.00     0.020 A 
ATOM     75  C   UNL A   1      35.679  34.789  29.170  1.00  0.00     0.020 A 
ATOM     76  C   UNL A   1      34.393  34.680  29.703  1.00  0.00     0.054 A 
BRANCH  76  77
ATOM     77  S   UNL A   1      33.012  35.596  28.962  1.00  0.00     0.124 S 
ATOM     78  O   UNL A   1      32.355  34.563  28.167  1.00  0.00    -0.237 OA
ATOM     79  O   UNL A   1      32.276  36.056  30.136  1.00  0.00    -0.237 OA
ATOM     80  O   UNL A   1      33.671  36.651  28.197  1.00  0.00    -0.744 OA
ENDBRANCH  76  77
ENDBRANCH  48  71
BRANCH  60  81
ATOM     81  C   UNL A   1      39.909  34.327  36.947  1.00  0.00    -0.014 A 
ATOM     82  C   UNL A   1      39.116  34.128  38.091  1.00  0.00     0.010 A 
ATOM     83  C   UNL A   1      40.649  35.518  36.826  1.00  0.00     0.010 A 
ATOM     84  C   UNL A   1      39.033  35.121  39.072  1.00  0.00     0.020 A 
ATOM     85  C   UNL A   1      40.597  36.497  37.820  1.00  0.00     0.020 A 
ATOM     86  C   UNL A   1      39.774  36.299  38.930  1.00  0.00     0.054 A 
BRANCH  86  87
ATOM     87  S   UNL A   1      39.672  37.556  40.232  1.00  0.00     0.124 S 
ATOM     88  O   UNL A   1      38.318  38.073  40.050  1.00  0.00    -0.237 OA
ATOM     89  O   UNL A   1      39.890  36.777  41.447  1.00  0.00    -0.237 OA
ATOM     90  O   UNL A   1      40.744  38.491  39.896  1.00  0.00    -0.744 OA
ENDBRANCH  86  87
ENDBRANCH  60  81
ENDBRANCH  34  35
ENDBRANCH  26  29
ENDBRANCH  24  25
ENDBRANCH  23  24
ENDBRANCH   1  23
TORSDOF 17
ENDMDL
MODEL 2
REMARK VINA RESULT:     -11.1      3.463      4.489
REMARK SMILES Cc1cc(CS(=O)(=O)N[C@@H]2C=C[C@H](C(=O)NCCCNC(=O)c3ccc(-c4c5nc(c(-c6ccc(S(=O)(=O)[O-])cc6)c6ccc([nH]6)c(-c6ccc(S(=O)(=O)[O-])cc6)c6nc(c(-c7ccc(S(=O)(=O)[O-])cc7)c7ccc4[nH]7)C=C6)C=C5)cc3)C2)no1
REMARK SMILES IDX 17 1 16 2 14 3 15 4 13 6 10 7 11 8 83 9 12 10 9 11 6 13 7 14
REMARK SMILES IDX 8 15 5 16 4 17 1 18 2 19 3 20 85 21 84 22 18 23 19 24 20 25
REMARK SMILES IDX 21 26 22 28 23 29 24 30 82 31 25 32 81 33 26 34 27 35 28 36
REMARK SMILES IDX 75 37 29 38 80 39 74 40 76 41 30 42 79 43 73 44 72 45 31 47
REMARK SMILES IDX 61 48 42 49 60 50 43 51 46 52 59 53 77 54 44 55 45 56 58 58
REMARK SMILES IDX 78 59 47 60 32 61 33 62 41 63 34 64 40 65 35 66 36 67 37 68
REMARK SMILES IDX 38 69 39 70 62 71 63 72 71 73 64 74 70 75 65 76 66 77 67 78
REMARK SMILES IDX 68 79 69 80 48 81 49 82 57 83 50 84 56 85 51 86 52 87 53 88
REMARK SMILES IDX 54 89 55 90
REMARK H PARENT 16 5 9 12 20 27 76 46 46 57
REMARK Flexibility Score: inf
ROOT
ATOM      1  C   UNL A   1      33.914  23.523  25.746  1.00  0.00     0.117 C 
ENDROOT
BRANCH   1   2
ATOM      2  N   UNL A   1      32.783  23.235  24.878  1.00  0.00    -0.356 N 
ATOM      3  C   UNL A   1      32.429  23.640  23.633  1.00  0.00     0.226 C 
ATOM      4  O   UNL A   1      31.328  23.250  23.225  1.00  0.00    -0.274 OA
ATOM      5  H   UNL A   1      32.135  22.613  25.281  1.00  0.00     0.163 HD
BRANCH   3   6
ATOM      6  C   UNL A   1      33.320  24.455  22.689  1.00  0.00     0.103 C 
ATOM      7  C   UNL A   1      32.589  26.632  21.759  1.00  0.00     0.093 C 
ATOM      8  C   UNL A   1      32.583  25.527  20.758  1.00  0.00    -0.011 C 
ATOM      9  C   UNL A   1      33.166  25.959  23.007  1.00  0.00     0.042 C 
ATOM     10  C   UNL A   1      33.057  24.374  21.231  1.00  0.00    -0.016 C 
BRANCH   7  11
ATOM     11  N   UNL A   1      31.205  27.081  21.923  1.00  0.00    -0.208 NA
ATOM     12  H   UNL A   1      30.757  27.016  21.009  1.00  0.00     0.141 HD
BRANCH  11  13
ATOM     13  S   UNL A   1      30.935  28.640  22.501  1.00  0.00     0.218 S 
ATOM     14  O   UNL A   1      29.729  29.139  21.886  1.00  0.00    -0.212 OA
ATOM     15  O   UNL A   1      32.193  29.328  22.269  1.00  0.00    -0.212 OA
BRANCH  13  16
ATOM     16  C   UNL A   1      30.750  28.476  24.298  1.00  0.00     0.213 C 
BRANCH  16  17
ATOM     17  C   UNL A   1      31.686  29.302  25.096  1.00  0.00     0.100 A 
ATOM     18  C   UNL A   1      34.335  30.063  27.497  1.00  0.00     0.091 C 
ATOM     19  C   UNL A   1      33.295  29.927  26.461  1.00  0.00     0.133 A 
ATOM     20  C   UNL A   1      32.997  28.969  25.522  1.00  0.00     0.073 A 
ATOM     21  O   UNL A   1      32.326  30.880  26.445  1.00  0.00    -0.361 OA
ATOM     22  N   UNL A   1      31.336  30.512  25.552  1.00  0.00    -0.084 NA
ENDBRANCH  16  17
ENDBRANCH  13  16
ENDBRANCH  11  13
ENDBRANCH   7  11
ENDBRANCH   3   6
ENDBRANCH   1   2
BRANCH   1  23
ATOM     23  C   UNL A   1      35.236  23.113  25.103  1.00  0.00     0.042 C 
BRANCH  23  24
ATOM     24  C   UNL A   1      36.447  23.689  25.832  1.00  0.00     0.118 C 
BRANCH  24  25
ATOM     25  N   UNL A   1      37.544  22.729  25.903  1.00  0.00    -0.352 N 
ATOM     26  C   UNL A   1      38.863  22.914  26.228  1.00  0.00     0.251 C 
ATOM     27  H   UNL A   1      37.297  21.802  25.683  1.00  0.00     0.163 HD
ATOM     28  O   UNL A   1      39.674  22.029  25.974  1.00  0.00    -0.269 OA
BRANCH  26  29
ATOM     29  C   UNL A   1      39.302  24.166  26.875  1.00  0.00     0.039 A 
ATOM     30  C   UNL A   1      38.939  24.408  28.203  1.00  0.00     0.014 A 
ATOM     31  C   UNL A   1      40.033  25.120  26.162  1.00  0.00     0.014 A 
ATOM     32  C   UNL A   1      39.347  25.589  28.825  1.00  0.00     0.010 A 
ATOM     33  C   UNL A   1      40.519  26.248  26.811  1.00  0.00     0.010 A 
ATOM     34  C   UNL A   1      40.161  26.506  28.141  1.00  0.00    -0.014 A 
BRANCH  34  35
ATOM     35  C   UNL A   1      40.619  27.763  28.785  1.00  0.00     0.031 A 
ATOM     36  C   UNL A   1      42.012  27.852  29.349  1.00  0.00     0.074 A 
ATOM     37  C   UNL A   1      39.764  28.796  28.915  1.00  0.00     0.049 A 
ATOM     38  N   UNL A   1      42.578  28.838  29.997  1.00  0.00    -0.248 NA
ATOM     39  C   UNL A   1      42.871  26.666  29.194  1.00  0.00     0.031 C 
ATOM     40  C   UNL A   1      38.377  28.812  28.445  1.00  0.00     0.029 A 
ATOM     41  N   UNL A   1      39.936  30.031  29.485  1.00  0.00    -0.354 N 
ATOM     42  C   UNL A   1      43.845  28.383  30.343  1.00  0.00     0.074 A 
ATOM     43  C   UNL A   1      43.942  27.015  29.890  1.00  0.00     0.031 C 
ATOM     44  C   UNL A   1      37.835  30.010  28.718  1.00  0.00     0.029 A 
ATOM     45  C   UNL A   1      38.819  30.828  29.422  1.00  0.00     0.049 A 
ATOM     46  H   UNL A   1      40.781  30.319  29.901  1.00  0.00     0.167 HD
ATOM     47  C   UNL A   1      44.848  29.052  30.962  1.00  0.00     0.031 A 
ATOM     48  C   UNL A   1      38.607  32.076  29.881  1.00  0.00     0.031 A 
ATOM     49  C   UNL A   1      44.744  30.417  31.405  1.00  0.00     0.049 A 
ATOM     50  C   UNL A   1      39.730  32.799  30.571  1.00  0.00     0.074 A 
ATOM     51  C   UNL A   1      45.715  31.207  31.995  1.00  0.00     0.029 A 
ATOM     52  N   UNL A   1      43.599  31.195  31.309  1.00  0.00    -0.354 N 
ATOM     53  N   UNL A   1      40.944  32.376  30.835  1.00  0.00    -0.248 NA
ATOM     54  C   UNL A   1      39.461  34.175  31.007  1.00  0.00     0.031 C 
ATOM     55  C   UNL A   1      45.138  32.442  32.311  1.00  0.00     0.029 A 
ATOM     56  C   UNL A   1      43.830  32.448  31.851  1.00  0.00     0.049 A 
ATOM     57  H   UNL A   1      42.747  30.899  30.915  1.00  0.00     0.167 HD
ATOM     58  C   UNL A   1      41.596  33.447  31.437  1.00  0.00     0.074 A 
ATOM     59  C   UNL A   1      40.643  34.538  31.487  1.00  0.00     0.031 C 
ATOM     60  C   UNL A   1      42.870  33.522  31.897  1.00  0.00     0.031 A 
BRANCH  47  61
ATOM     61  C   UNL A   1      46.133  28.303  31.209  1.00  0.00    -0.014 A 
ATOM     62  C   UNL A   1      47.172  28.298  30.258  1.00  0.00     0.010 A 
ATOM     63  C   UNL A   1      46.312  27.604  32.415  1.00  0.00     0.010 A 
ATOM     64  C   UNL A   1      48.336  27.559  30.483  1.00  0.00     0.020 A 
ATOM     65  C   UNL A   1      47.491  26.892  32.661  1.00  0.00     0.020 A 
ATOM     66  C   UNL A   1      48.486  26.856  31.682  1.00  0.00     0.054 A 
BRANCH  66  67
ATOM     67  S   UNL A   1      50.009  25.908  31.948  1.00  0.00     0.124 S 
ATOM     68  O   UNL A   1      50.865  26.893  32.604  1.00  0.00    -0.237 OA
ATOM     69  O   UNL A   1      49.557  24.807  32.794  1.00  0.00    -0.237 OA
ATOM     70  O   UNL A   1      50.421  25.527  30.598  1.00  0.00    -0.744 OA
ENDBRANCH  66  67
ENDBRANCH  47  61
BRANCH  48  71
ATOM     71  C   UNL A   1      37.281  32.722  29.676  1.00  0.00    -0.014 A 
ATOM     72  C   UNL A   1      36.328  32.746  30.709  1.00  0.00     0.010 A 
ATOM     73  C   UNL A   1      36.978  33.350  28.453  1.00  0.00     0.010 A 
ATOM     74  C   UNL A   1      35.095  33.377  30.523  1.00  0.00     0.020 A 
ATOM     75  C   UNL A   1      35.759  34.008  28.273  1.00  0.00     0.020 A 
ATOM     76  C   UNL A   1      34.821  34.010  29.307  1.00  0.00     0.054 A 
BRANCH  76  77
ATOM     77  S   UNL A   1      33.243  34.885  29.114  1.00  0.00     0.124 S 
ATOM     78  O   UNL A   1      32.720  34.874  30.477  1.00  0.00    -0.237 OA
ATOM     79  O   UNL A   1      33.667  36.188  28.608  1.00  0.00    -0.237 OA
ATOM     80  O   UNL A   1      32.511  34.063  28.155  1.00  0.00    -0.744 OA
ENDBRANCH  76  77
ENDBRANCH  48  71
BRANCH  60  81
ATOM     81  C   UNL A   1      43.328  34.846  32.454  1.00  0.00    -0.014 A 
ATOM     82  C   UNL A   1      43.831  35.862  31.623  1.00  0.00     0.010 A 
ATOM     83  C   UNL A   1      43.205  35.088  33.835  1.00  0.00     0.010 A 
ATOM     84  C   UNL A   1      44.242  37.082  32.170  1.00  0.00     0.020 A 
ATOM     85  C   UNL A   1      43.582  36.317  34.381  1.00  0.00     0.020 A 
ATOM     86  C   UNL A   1      44.115  37.301  33.546  1.00  0.00     0.054 A 
BRANCH  86  87
ATOM     87  S   UNL A   1      44.627  38.901  34.226  1.00  0.00     0.124 S 
ATOM     88  O   UNL A   1      46.074  38.864  34.035  1.00  0.00    -0.237 OA
ATOM     89  O   UNL A   1      43.905  39.852  33.385  1.00  0.00    -0.237 OA
ATOM     90  O   UNL A   1      44.182  38.845  35.617  1.00  0.00    -0.744 OA
ENDBRANCH  86  87
ENDBRANCH  60  81
ENDBRANCH  34  35
ENDBRANCH  26  29
ENDBRANCH  24  25
ENDBRANCH  23  24
ENDBRANCH   1  23
TORSDOF 17
ENDMDL
MODEL 3
REMARK VINA RESULT:     -11.0      6.294     12.226
REMARK SMILES Cc1cc(CS(=O)(=O)N[C@@H]2C=C[C@H](C(=O)NCCCNC(=O)c3ccc(-c4c5nc(c(-c6ccc(S(=O)(=O)[O-])cc6)c6ccc([nH]6)c(-c6ccc(S(=O)(=O)[O-])cc6)c6nc(c(-c7ccc(S(=O)(=O)[O-])cc7)c7ccc4[nH]7)C=C6)C=C5)cc3)C2)no1
REMARK SMILES IDX 17 1 16 2 14 3 15 4 13 6 10 7 11 8 83 9 12 10 9 11 6 13 7 14
REMARK SMILES IDX 8 15 5 16 4 17 1 18 2 19 3 20 85 21 84 22 18 23 19 24 20 25
REMARK SMILES IDX 21 26 22 28 23 29 24 30 82 31 25 32 81 33 26 34 27 35 28 36
REMARK SMILES IDX 75 37 29 38 80 39 74 40 76 41 30 42 79 43 73 44 72 45 31 47
REMARK SMILES IDX 61 48 42 49 60 50 43 51 46 52 59 53 77 54 44 55 45 56 58 58
REMARK SMILES IDX 78 59 47 60 32 61 33 62 41 63 34 64 40 65 35 66 36 67 37 68
REMARK SMILES IDX 38 69 39 70 62 71 63 72 71 73 64 74 70 75 65 76 66 77 67 78
REMARK SMILES IDX 68 79 69 80 48 81 49 82 57 83 50 84 56 85 51 86 52 87 53 88
REMARK SMILES IDX 54 89 55 90
REMARK H PARENT 16 5 9 12 20 27 76 46 46 57
REMARK Flexibility Score: inf
ROOT
ATOM      1  C   UNL A   1      33.475  30.009  27.106  1.00  0.00     0.117 C 
ENDROOT
BRANCH   1   2
ATOM      2  N   UNL A   1      33.645  29.879  25.667  1.00  0.00    -0.356 N 
ATOM      3  C   UNL A   1      32.893  29.333  24.679  1.00  0.00     0.226 C 
ATOM      4  O   UNL A   1      33.398  29.328  23.550  1.00  0.00    -0.274 OA
ATOM      5  H   UNL A   1      34.486  30.273  25.340  1.00  0.00     0.163 HD
BRANCH   3   6
ATOM      6  C   UNL A   1      31.461  28.815  24.851  1.00  0.00     0.103 C 
ATOM      7  C   UNL A   1      30.861  26.456  24.388  1.00  0.00     0.093 C 
ATOM      8  C   UNL A   1      30.366  27.407  23.354  1.00  0.00    -0.011 C 
ATOM      9  C   UNL A   1      31.497  27.382  25.429  1.00  0.00     0.042 C 
ATOM     10  C   UNL A   1      30.611  28.686  23.641  1.00  0.00    -0.016 C 
BRANCH   7  11
ATOM     11  N   UNL A   1      31.820  25.562  23.738  1.00  0.00    -0.208 NA
ATOM     12  H   UNL A   1      31.861  25.827  22.754  1.00  0.00     0.141 HD
BRANCH  11  13
ATOM     13  S   UNL A   1      31.530  23.903  23.794  1.00  0.00     0.218 S 
ATOM     14  O   UNL A   1      30.271  23.650  23.134  1.00  0.00    -0.212 OA
ATOM     15  O   UNL A   1      31.681  23.563  25.198  1.00  0.00    -0.212 OA
BRANCH  13  16
ATOM     16  C   UNL A   1      32.913  23.128  22.913  1.00  0.00     0.213 C 
BRANCH  16  17
ATOM     17  C   UNL A   1      33.748  22.226  23.741  1.00  0.00     0.100 A 
ATOM     18  C   UNL A   1      36.780  20.629  25.014  1.00  0.00     0.091 C 
ATOM     19  C   UNL A   1      35.474  21.213  24.655  1.00  0.00     0.133 A 
ATOM     20  C   UNL A   1      35.065  22.449  24.218  1.00  0.00     0.073 A 
ATOM     21  O   UNL A   1      34.414  20.363  24.639  1.00  0.00    -0.361 OA
ATOM     22  N   UNL A   1      33.314  21.013  24.107  1.00  0.00    -0.084 NA
ENDBRANCH  16  17
ENDBRANCH  13  16
ENDBRANCH  11  13
ENDBRANCH   7  11
ENDBRANCH   3   6
ENDBRANCH   1   2
BRANCH   1  23
ATOM     23  C   UNL A   1      34.235  31.212  27.657  1.00  0.00     0.042 C 
BRANCH  23  24
ATOM     24  C   UNL A   1      35.598  30.834  28.228  1.00  0.00     0.118 C 
BRANCH  24  25
ATOM     25  N   UNL A   1      35.563  30.717  29.682  1.00  0.00    -0.352 N 
ATOM     26  C   UNL A   1      36.456  30.135  30.545  1.00  0.00     0.251 C 
ATOM     27  H   UNL A   1      34.775  31.121  30.111  1.00  0.00     0.163 HD
ATOM     28  O   UNL A   1      36.114  29.915  31.703  1.00  0.00    -0.269 OA
BRANCH  26  29
ATOM     29  C   UNL A   1      37.812  29.777  30.085  1.00  0.00     0.039 A 
ATOM     30  C   UNL A   1      38.787  29.454  31.033  1.00  0.00     0.014 A 
ATOM     31  C   UNL A   1      38.135  29.802  28.726  1.00  0.00     0.014 A 
ATOM     32  C   UNL A   1      40.074  29.116  30.610  1.00  0.00     0.010 A 
ATOM     33  C   UNL A   1      39.386  29.372  28.303  1.00  0.00     0.010 A 
ATOM     34  C   UNL A   1      40.376  29.048  29.241  1.00  0.00    -0.014 A 
BRANCH  34  35
ATOM     35  C   UNL A   1      41.733  28.679  28.766  1.00  0.00     0.031 A 
ATOM     36  C   UNL A   1      42.806  29.730  28.673  1.00  0.00     0.074 A 
ATOM     37  C   UNL A   1      41.978  27.417  28.363  1.00  0.00     0.049 A 
ATOM     38  N   UNL A   1      44.033  29.620  28.230  1.00  0.00    -0.248 NA
ATOM     39  C   UNL A   1      42.445  31.092  29.103  1.00  0.00     0.031 C 
ATOM     40  C   UNL A   1      41.006  26.322  28.368  1.00  0.00     0.029 A 
ATOM     41  N   UNL A   1      43.121  26.845  27.867  1.00  0.00    -0.354 N 
ATOM     42  C   UNL A   1      44.578  30.896  28.309  1.00  0.00     0.074 A 
ATOM     43  C   UNL A   1      43.533  31.775  28.780  1.00  0.00     0.031 C 
ATOM     44  C   UNL A   1      41.603  25.203  27.927  1.00  0.00     0.029 A 
ATOM     45  C   UNL A   1      42.983  25.511  27.566  1.00  0.00     0.049 A 
ATOM     46  H   UNL A   1      43.961  27.343  27.738  1.00  0.00     0.167 HD
ATOM     47  C   UNL A   1      45.843  31.297  28.035  1.00  0.00     0.031 A 
ATOM     48  C   UNL A   1      43.868  24.634  27.053  1.00  0.00     0.031 A 
ATOM     49  C   UNL A   1      46.880  30.413  27.571  1.00  0.00     0.049 A 
ATOM     50  C   UNL A   1      45.265  25.101  26.749  1.00  0.00     0.074 A 
ATOM     51  C   UNL A   1      48.207  30.705  27.314  1.00  0.00     0.029 A 
ATOM     52  N   UNL A   1      46.703  29.066  27.292  1.00  0.00    -0.354 N 
ATOM     53  N   UNL A   1      45.783  26.299  26.889  1.00  0.00    -0.248 NA
ATOM     54  C   UNL A   1      46.202  24.093  26.240  1.00  0.00     0.031 C 
ATOM     55  C   UNL A   1      48.819  29.547  26.820  1.00  0.00     0.029 A 
ATOM     56  C   UNL A   1      47.891  28.516  26.841  1.00  0.00     0.049 A 
ATOM     57  H   UNL A   1      45.858  28.573  27.397  1.00  0.00     0.167 HD
ATOM     58  C   UNL A   1      47.118  26.180  26.517  1.00  0.00     0.074 A 
ATOM     59  C   UNL A   1      47.326  24.792  26.157  1.00  0.00     0.031 C 
ATOM     60  C   UNL A   1      48.083  27.132  26.484  1.00  0.00     0.031 A 
BRANCH  47  61
ATOM     61  C   UNL A   1      46.162  32.760  28.215  1.00  0.00    -0.014 A 
ATOM     62  C   UNL A   1      45.991  33.681  27.163  1.00  0.00     0.010 A 
ATOM     63  C   UNL A   1      46.627  33.226  29.457  1.00  0.00     0.010 A 
ATOM     64  C   UNL A   1      46.337  35.024  27.333  1.00  0.00     0.020 A 
ATOM     65  C   UNL A   1      46.939  34.576  29.644  1.00  0.00     0.020 A 
ATOM     66  C   UNL A   1      46.814  35.462  28.572  1.00  0.00     0.054 A 
BRANCH  66  67
ATOM     67  S   UNL A   1      47.252  37.212  28.764  1.00  0.00     0.124 S 
ATOM     68  O   UNL A   1      46.710  37.513  30.087  1.00  0.00    -0.237 OA
ATOM     69  O   UNL A   1      48.709  37.189  28.673  1.00  0.00    -0.237 OA
ATOM     70  O   UNL A   1      46.570  37.865  27.649  1.00  0.00    -0.744 OA
ENDBRANCH  66  67
ENDBRANCH  47  61
BRANCH  48  71
ATOM     71  C   UNL A   1      43.456  23.222  26.821  1.00  0.00    -0.014 A 
ATOM     72  C   UNL A   1      43.556  22.648  25.542  1.00  0.00     0.010 A 
ATOM     73  C   UNL A   1      42.994  22.432  27.890  1.00  0.00     0.010 A 
ATOM     74  C   UNL A   1      43.195  21.313  25.334  1.00  0.00     0.020 A 
ATOM     75  C   UNL A   1      42.660  21.090  27.692  1.00  0.00     0.020 A 
ATOM     76  C   UNL A   1      42.755  20.541  26.412  1.00  0.00     0.054 A 
BRANCH  76  77
ATOM     77  S   UNL A   1      42.360  18.792  26.131  1.00  0.00     0.124 S 
ATOM     78  O   UNL A   1      42.642  18.204  27.437  1.00  0.00    -0.237 OA
ATOM     79  O   UNL A   1      40.951  18.847  25.751  1.00  0.00    -0.237 OA
ATOM     80  O   UNL A   1      43.271  18.403  25.058  1.00  0.00    -0.744 OA
ENDBRANCH  76  77
ENDBRANCH  48  71
BRANCH  60  81
ATOM     81  C   UNL A   1      49.471  26.697  26.091  1.00  0.00    -0.014 A 
ATOM     82  C   UNL A   1      49.980  26.926  24.801  1.00  0.00     0.010 A 
ATOM     83  C   UNL A   1      50.298  26.088  27.055  1.00  0.00     0.010 A 
ATOM     84  C   UNL A   1      51.275  26.515  24.469  1.00  0.00     0.020 A 
ATOM     85  C   UNL A   1      51.603  25.708  26.738  1.00  0.00     0.020 A 
ATOM     86  C   UNL A   1      52.078  25.908  25.441  1.00  0.00     0.054 A 
BRANCH  86  87
ATOM     87  S   UNL A   1      53.763  25.412  24.994  1.00  0.00     0.124 S 
ATOM     88  O   UNL A   1      54.561  26.101  26.005  1.00  0.00    -0.237 OA
ATOM     89  O   UNL A   1      53.712  23.958  25.116  1.00  0.00    -0.237 OA
ATOM     90  O   UNL A   1      53.922  25.913  23.631  1.00  0.00    -0.744 OA
ENDBRANCH  86  87
ENDBRANCH  60  81
ENDBRANCH  34  35
ENDBRANCH  26  29
ENDBRANCH  24  25
ENDBRANCH  23  24
ENDBRANCH   1  23
TORSDOF 17
ENDMDL
