MODEL 1
REMARK VINA RESULT:     -12.0      0.000      0.000
REMARK SMILES Cn1cc(C(=O)NCCCNC(=O)c2ccc(-c3c4nc(c(-c5ccc(S(=O)(=O)[O-])cc5)c5ccc([nH]5)c(-c5ccc(S(=O)(=O)[O-])cc5)c5nc(c(-c6ccc(S(=O)(=O)[O-])cc6)c6ccc3[nH]6)C=C5)C=C4)cc2)c(C(=O)Nc2ccc(-c3nc4cc(Cl)ccc4o3)cc2)n1
REMARK SMILES IDX 9 1 8 2 7 3 5 4 6 5 4 7 1 8 2 9 3 10 94 11 74 12 75 13 76 14
REMARK SMILES IDX 77 15 78 17 79 18 93 19 80 20 92 21 81 22 82 23 83 24 91 25
REMARK SMILES IDX 84 26 90 27 85 28 89 29 86 30 88 31 87 32 10 33 11 34 12 35
REMARK SMILES IDX 13 37 14 38 15 39 73 40 16 41 72 42 17 43 18 44 19 45 66 46
REMARK SMILES IDX 20 47 71 48 65 49 67 50 21 51 70 52 64 53 63 54 22 56 52 57
REMARK SMILES IDX 33 58 51 59 34 60 37 61 50 62 68 63 35 64 36 65 49 67 69 68
REMARK SMILES IDX 38 69 23 70 24 71 32 72 25 73 31 74 26 75 27 76 28 77 29 78
REMARK SMILES IDX 30 79 53 80 54 81 62 82 55 83 61 84 56 85 57 86 58 87 59 88
REMARK SMILES IDX 60 89 39 90 40 91 48 92 41 93 47 94 42 95 43 96 44 97 45 98
REMARK SMILES IDX 46 99
REMARK H PARENT 7 6 77 16 11 36 67 55 37 66
REMARK Flexibility Score: inf
ROOT
ATOM      1  C   UNL A   1      33.280  27.477  26.398  1.00  0.00     0.042 C 
ENDROOT
BRANCH   1   2
ATOM      2  C   UNL A   1      33.376  26.235  25.514  1.00  0.00     0.118 C 
BRANCH   2   3
ATOM      3  N   UNL A   1      32.913  24.988  26.098  1.00  0.00    -0.352 N 
ATOM      4  C   UNL A   1      33.566  23.843  26.487  1.00  0.00     0.255 C 
ATOM      5  O   UNL A   1      32.958  23.099  27.260  1.00  0.00    -0.269 OA
ATOM      6  H   UNL A   1      31.941  24.957  26.243  1.00  0.00     0.163 HD
BRANCH   4   7
ATOM      7  C   UNL A   1      34.895  23.498  26.004  1.00  0.00     0.090 A 
ATOM      8  C   UNL A   1      38.504  23.484  25.862  1.00  0.00     0.173 C 
ATOM      9  N   UNL A   1      37.075  23.336  25.711  1.00  0.00    -0.274 N 
ATOM     10  C   UNL A   1      36.110  24.097  26.293  1.00  0.00     0.123 A 
ATOM     11  N   UNL A   1      36.595  22.311  25.006  1.00  0.00    -0.167 NA
ATOM     12  C   UNL A   1      35.259  22.357  25.191  1.00  0.00     0.163 A 
BRANCH  12  13
ATOM     13  C   UNL A   1      34.433  21.245  24.670  1.00  0.00     0.276 C 
ATOM     14  O   UNL A   1      34.753  20.066  24.865  1.00  0.00    -0.267 OA
ATOM     15  N   UNL A   1      33.236  21.451  24.019  1.00  0.00    -0.321 N 
ATOM     16  H   UNL A   1      32.689  20.639  23.923  1.00  0.00     0.170 HD
BRANCH  15  17
ATOM     17  C   UNL A   1      32.651  22.595  23.472  1.00  0.00     0.041 A 
ATOM     18  C   UNL A   1      31.290  22.786  23.732  1.00  0.00     0.027 A 
ATOM     19  C   UNL A   1      33.351  23.543  22.727  1.00  0.00     0.027 A 
ATOM     20  C   UNL A   1      30.675  23.991  23.398  1.00  0.00     0.016 A 
ATOM     21  C   UNL A   1      32.714  24.730  22.341  1.00  0.00     0.016 A 
ATOM     22  C   UNL A   1      31.395  24.990  22.737  1.00  0.00     0.037 A 
BRANCH  22  23
ATOM     23  C   UNL A   1      30.824  26.317  22.574  1.00  0.00     0.227 A 
ATOM     24  N   UNL A   1      31.386  27.454  22.212  1.00  0.00    -0.209 NA
ATOM     25  O   UNL A   1      29.532  26.433  23.024  1.00  0.00    -0.436 OA
ATOM     26  C   UNL A   1      30.389  28.383  22.402  1.00  0.00     0.111 A 
ATOM     27  C   UNL A   1      29.269  27.765  22.934  1.00  0.00     0.155 A 
ATOM     28  C   UNL A   1      30.365  29.767  22.192  1.00  0.00     0.053 A 
ATOM     29  C   UNL A   1      28.108  28.418  23.324  1.00  0.00     0.051 A 
ATOM     30  C   UNL A   1      29.211  30.461  22.582  1.00  0.00     0.043 A 
ATOM     31  C   UNL A   1      28.109  29.804  23.144  1.00  0.00     0.024 A 
ATOM     32  Cl  UNL A   1      29.152  32.171  22.385  1.00  0.00    -0.084 Cl
ENDBRANCH  22  23
ENDBRANCH  15  17
ENDBRANCH  12  13
ENDBRANCH   4   7
ENDBRANCH   2   3
ENDBRANCH   1   2
BRANCH   1  33
ATOM     33  C   UNL A   1      34.008  28.728  25.896  1.00  0.00     0.118 C 
BRANCH  33  34
ATOM     34  N   UNL A   1      33.736  29.927  26.668  1.00  0.00    -0.352 N 
ATOM     35  C   UNL A   1      34.432  30.579  27.654  1.00  0.00     0.251 C 
ATOM     36  H   UNL A   1      32.881  30.358  26.439  1.00  0.00     0.163 HD
ATOM     37  O   UNL A   1      33.898  31.558  28.175  1.00  0.00    -0.269 OA
BRANCH  35  38
ATOM     38  C   UNL A   1      35.777  30.157  28.123  1.00  0.00     0.039 A 
ATOM     39  C   UNL A   1      36.827  30.184  27.193  1.00  0.00     0.014 A 
ATOM     40  C   UNL A   1      36.017  29.648  29.401  1.00  0.00     0.014 A 
ATOM     41  C   UNL A   1      38.111  29.755  27.551  1.00  0.00     0.010 A 
ATOM     42  C   UNL A   1      37.304  29.232  29.766  1.00  0.00     0.010 A 
ATOM     43  C   UNL A   1      38.362  29.290  28.847  1.00  0.00    -0.014 A 
BRANCH  43  44
ATOM     44  C   UNL A   1      39.732  28.921  29.279  1.00  0.00     0.031 A 
ATOM     45  C   UNL A   1      40.619  29.911  29.975  1.00  0.00     0.074 A 
ATOM     46  C   UNL A   1      40.203  27.698  28.975  1.00  0.00     0.049 A 
ATOM     47  N   UNL A   1      41.879  29.793  30.312  1.00  0.00    -0.248 NA
ATOM     48  C   UNL A   1      40.015  31.201  30.333  1.00  0.00     0.031 C 
ATOM     49  C   UNL A   1      39.447  26.646  28.296  1.00  0.00     0.029 A 
ATOM     50  N   UNL A   1      41.444  27.145  29.175  1.00  0.00    -0.354 N 
ATOM     51  C   UNL A   1      42.226  30.997  30.908  1.00  0.00     0.074 A 
ATOM     52  C   UNL A   1      41.044  31.836  30.882  1.00  0.00     0.031 C 
ATOM     53  C   UNL A   1      40.245  25.583  28.111  1.00  0.00     0.029 A 
ATOM     54  C   UNL A   1      41.574  25.887  28.639  1.00  0.00     0.049 A 
ATOM     55  H   UNL A   1      42.169  27.604  29.657  1.00  0.00     0.167 HD
ATOM     56  C   UNL A   1      43.420  31.372  31.431  1.00  0.00     0.031 A 
ATOM     57  C   UNL A   1      42.644  25.076  28.554  1.00  0.00     0.031 A 
ATOM     58  C   UNL A   1      44.597  30.544  31.461  1.00  0.00     0.049 A 
ATOM     59  C   UNL A   1      43.959  25.513  29.126  1.00  0.00     0.074 A 
ATOM     60  C   UNL A   1      45.841  30.834  31.995  1.00  0.00     0.029 A 
ATOM     61  N   UNL A   1      44.678  29.265  30.934  1.00  0.00    -0.354 N 
ATOM     62  N   UNL A   1      44.262  26.649  29.705  1.00  0.00    -0.248 NA
ATOM     63  C   UNL A   1      45.073  24.559  29.038  1.00  0.00     0.031 C 
ATOM     64  C   UNL A   1      46.682  29.736  31.771  1.00  0.00     0.029 A 
ATOM     65  C   UNL A   1      45.952  28.756  31.119  1.00  0.00     0.049 A 
ATOM     66  H   UNL A   1      43.938  28.789  30.492  1.00  0.00     0.167 HD
ATOM     67  C   UNL A   1      45.601  26.542  30.062  1.00  0.00     0.074 A 
ATOM     68  C   UNL A   1      46.048  25.231  29.637  1.00  0.00     0.031 C 
ATOM     69  C   UNL A   1      46.385  27.451  30.689  1.00  0.00     0.031 A 
BRANCH  56  70
ATOM     70  C   UNL A   1      43.510  32.759  32.000  1.00  0.00    -0.014 A 
ATOM     71  C   UNL A   1      43.240  32.997  33.359  1.00  0.00     0.010 A 
ATOM     72  C   UNL A   1      43.889  33.830  31.173  1.00  0.00     0.010 A 
ATOM     73  C   UNL A   1      43.312  34.294  33.875  1.00  0.00     0.020 A 
ATOM     74  C   UNL A   1      43.974  35.127  31.688  1.00  0.00     0.020 A 
ATOM     75  C   UNL A   1      43.666  35.353  33.031  1.00  0.00     0.054 A 
BRANCH  75  76
ATOM     76  S   UNL A   1      43.760  37.034  33.711  1.00  0.00     0.124 S 
ATOM     77  O   UNL A   1      43.759  37.847  32.498  1.00  0.00    -0.237 OA
ATOM     78  O   UNL A   1      42.553  37.127  34.529  1.00  0.00    -0.237 OA
ATOM     79  O   UNL A   1      45.014  37.029  34.460  1.00  0.00    -0.744 OA
ENDBRANCH  75  76
ENDBRANCH  56  70
BRANCH  57  80
ATOM     80  C   UNL A   1      42.501  23.766  27.873  1.00  0.00    -0.014 A 
ATOM     81  C   UNL A   1      42.888  23.617  26.531  1.00  0.00     0.010 A 
ATOM     82  C   UNL A   1      42.050  22.646  28.594  1.00  0.00     0.010 A 
ATOM     83  C   UNL A   1      42.839  22.360  25.922  1.00  0.00     0.020 A 
ATOM     84  C   UNL A   1      42.012  21.387  27.991  1.00  0.00     0.020 A 
ATOM     85  C   UNL A   1      42.407  21.252  26.657  1.00  0.00     0.054 A 
BRANCH  85  86
ATOM     86  S   UNL A   1      42.456  19.604  25.897  1.00  0.00     0.124 S 
ATOM     87  O   UNL A   1      42.840  18.762  27.025  1.00  0.00    -0.237 OA
ATOM     88  O   UNL A   1      41.088  19.428  25.412  1.00  0.00    -0.237 OA
ATOM     89  O   UNL A   1      43.462  19.753  24.849  1.00  0.00    -0.744 OA
ENDBRANCH  85  86
ENDBRANCH  57  80
BRANCH  69  90
ATOM     90  C   UNL A   1      47.803  27.049  30.973  1.00  0.00    -0.014 A 
ATOM     91  C   UNL A   1      48.121  26.297  32.117  1.00  0.00     0.010 A 
ATOM     92  C   UNL A   1      48.821  27.395  30.069  1.00  0.00     0.010 A 
ATOM     93  C   UNL A   1      49.441  25.912  32.363  1.00  0.00     0.020 A 
ATOM     94  C   UNL A   1      50.142  27.005  30.307  1.00  0.00     0.020 A 
ATOM     95  C   UNL A   1      50.446  26.275  31.461  1.00  0.00     0.054 A 
BRANCH  95  96
ATOM     96  S   UNL A   1      52.153  25.739  31.767  1.00  0.00     0.124 S 
ATOM     97  O   UNL A   1      52.780  25.971  30.469  1.00  0.00    -0.237 OA
ATOM     98  O   UNL A   1      52.589  26.626  32.843  1.00  0.00    -0.237 OA
ATOM     99  O   UNL A   1      52.005  24.337  32.148  1.00  0.00    -0.744 OA
ENDBRANCH  95  96
ENDBRANCH  69  90
ENDBRANCH  43  44
ENDBRANCH  35  38
ENDBRANCH  33  34
ENDBRANCH   1  33
TORSDOF 16
ENDMDL
MODEL 2
REMARK VINA RESULT:     -11.9      3.197      9.505
REMARK SMILES Cn1cc(C(=O)NCCCNC(=O)c2ccc(-c3c4nc(c(-c5ccc(S(=O)(=O)[O-])cc5)c5ccc([nH]5)c(-c5ccc(S(=O)(=O)[O-])cc5)c5nc(c(-c6ccc(S(=O)(=O)[O-])cc6)c6ccc3[nH]6)C=C5)C=C4)cc2)c(C(=O)Nc2ccc(-c3nc4cc(Cl)ccc4o3)cc2)n1
REMARK SMILES IDX 9 1 8 2 7 3 5 4 6 5 4 7 1 8 2 9 3 10 94 11 74 12 75 13 76 14
REMARK SMILES IDX 77 15 78 17 79 18 93 19 80 20 92 21 81 22 82 23 83 24 91 25
REMARK SMILES IDX 84 26 90 27 85 28 89 29 86 30 88 31 87 32 10 33 11 34 12 35
REMARK SMILES IDX 13 37 14 38 15 39 73 40 16 41 72 42 17 43 18 44 19 45 66 46
REMARK SMILES IDX 20 47 71 48 65 49 67 50 21 51 70 52 64 53 63 54 22 56 52 57
REMARK SMILES IDX 33 58 51 59 34 60 37 61 50 62 68 63 35 64 36 65 49 67 69 68
REMARK SMILES IDX 38 69 23 70 24 71 32 72 25 73 31 74 26 75 27 76 28 77 29 78
REMARK SMILES IDX 30 79 53 80 54 81 62 82 55 83 61 84 56 85 57 86 58 87 59 88
REMARK SMILES IDX 60 89 39 90 40 91 48 92 41 93 47 94 42 95 43 96 44 97 45 98
REMARK SMILES IDX 46 99
REMARK H PARENT 7 6 77 16 11 36 67 55 37 66
REMARK Flexibility Score: inf
ROOT
ATOM      1  C   UNL A   1      35.432  23.756  26.102  1.00  0.00     0.042 C 
ENDROOT
BRANCH   1   2
ATOM      2  C   UNL A   1      34.123  24.307  25.542  1.00  0.00     0.118 C 
BRANCH   2   3
ATOM      3  N   UNL A   1      33.382  25.214  26.401  1.00  0.00    -0.352 N 
ATOM      4  C   UNL A   1      32.580  26.299  26.140  1.00  0.00     0.255 C 
ATOM      5  O   UNL A   1      31.819  26.650  27.043  1.00  0.00    -0.269 OA
ATOM      6  H   UNL A   1      33.472  25.011  27.360  1.00  0.00     0.163 HD
BRANCH   4   7
ATOM      7  C   UNL A   1      32.630  27.022  24.877  1.00  0.00     0.090 A 
ATOM      8  C   UNL A   1      34.096  28.541  21.948  1.00  0.00     0.173 C 
ATOM      9  N   UNL A   1      33.286  28.023  23.025  1.00  0.00    -0.274 N 
ATOM     10  C   UNL A   1      33.723  27.574  24.232  1.00  0.00     0.123 A 
ATOM     11  N   UNL A   1      31.975  27.866  22.839  1.00  0.00    -0.167 NA
ATOM     12  C   UNL A   1      31.542  27.222  23.944  1.00  0.00     0.163 A 
BRANCH  12  13
ATOM     13  C   UNL A   1      30.142  26.744  23.981  1.00  0.00     0.276 C 
ATOM     14  O   UNL A   1      29.195  27.540  24.004  1.00  0.00    -0.267 OA
ATOM     15  N   UNL A   1      29.812  25.408  23.911  1.00  0.00    -0.321 N 
ATOM     16  H   UNL A   1      28.860  25.242  23.724  1.00  0.00     0.170 HD
BRANCH  15  17
ATOM     17  C   UNL A   1      30.572  24.245  24.052  1.00  0.00     0.041 A 
ATOM     18  C   UNL A   1      30.469  23.577  25.277  1.00  0.00     0.027 A 
ATOM     19  C   UNL A   1      31.379  23.718  23.045  1.00  0.00     0.027 A 
ATOM     20  C   UNL A   1      31.031  22.312  25.435  1.00  0.00     0.016 A 
ATOM     21  C   UNL A   1      31.991  22.472  23.227  1.00  0.00     0.016 A 
ATOM     22  C   UNL A   1      31.761  21.730  24.394  1.00  0.00     0.037 A 
BRANCH  22  23
ATOM     23  C   UNL A   1      32.168  20.337  24.475  1.00  0.00     0.227 A 
ATOM     24  N   UNL A   1      32.484  19.595  25.519  1.00  0.00    -0.209 NA
ATOM     25  O   UNL A   1      32.418  19.752  23.258  1.00  0.00    -0.436 OA
ATOM     26  C   UNL A   1      32.943  18.426  24.957  1.00  0.00     0.111 A 
ATOM     27  C   UNL A   1      32.939  18.536  23.577  1.00  0.00     0.155 A 
ATOM     28  C   UNL A   1      33.420  17.246  25.542  1.00  0.00     0.053 A 
ATOM     29  C   UNL A   1      33.414  17.572  22.698  1.00  0.00     0.051 A 
ATOM     30  C   UNL A   1      33.915  16.253  24.687  1.00  0.00     0.043 A 
ATOM     31  C   UNL A   1      33.922  16.414  23.295  1.00  0.00     0.024 A 
ATOM     32  Cl  UNL A   1      34.554  14.804  25.361  1.00  0.00    -0.084 Cl
ENDBRANCH  22  23
ENDBRANCH  15  17
ENDBRANCH  12  13
ENDBRANCH   4   7
ENDBRANCH   2   3
ENDBRANCH   1   2
BRANCH   1  33
ATOM     33  C   UNL A   1      36.627  23.732  25.144  1.00  0.00     0.118 C 
BRANCH  33  34
ATOM     34  N   UNL A   1      37.658  22.773  25.499  1.00  0.00    -0.352 N 
ATOM     35  C   UNL A   1      38.854  22.892  26.161  1.00  0.00     0.251 C 
ATOM     36  H   UNL A   1      37.460  21.855  25.206  1.00  0.00     0.163 HD
ATOM     37  O   UNL A   1      39.556  21.885  26.251  1.00  0.00    -0.269 OA
BRANCH  35  38
ATOM     38  C   UNL A   1      39.338  24.164  26.756  1.00  0.00     0.039 A 
ATOM     39  C   UNL A   1      38.930  24.466  28.064  1.00  0.00     0.014 A 
ATOM     40  C   UNL A   1      40.086  25.105  26.045  1.00  0.00     0.014 A 
ATOM     41  C   UNL A   1      39.309  25.669  28.672  1.00  0.00     0.010 A 
ATOM     42  C   UNL A   1      40.478  26.303  26.656  1.00  0.00     0.010 A 
ATOM     43  C   UNL A   1      40.101  26.591  27.975  1.00  0.00    -0.014 A 
BRANCH  43  44
ATOM     44  C   UNL A   1      40.594  27.827  28.629  1.00  0.00     0.031 A 
ATOM     45  C   UNL A   1      41.962  27.888  29.242  1.00  0.00     0.074 A 
ATOM     46  C   UNL A   1      39.768  28.885  28.730  1.00  0.00     0.049 A 
ATOM     47  N   UNL A   1      42.503  28.845  29.953  1.00  0.00    -0.248 NA
ATOM     48  C   UNL A   1      42.831  26.722  29.034  1.00  0.00     0.031 C 
ATOM     49  C   UNL A   1      38.412  28.952  28.184  1.00  0.00     0.029 A 
ATOM     50  N   UNL A   1      39.940  30.095  29.354  1.00  0.00    -0.354 N 
ATOM     51  C   UNL A   1      43.771  28.393  30.293  1.00  0.00     0.074 A 
ATOM     52  C   UNL A   1      43.917  27.073  29.714  1.00  0.00     0.031 C 
ATOM     53  C   UNL A   1      37.865  30.131  28.518  1.00  0.00     0.029 A 
ATOM     54  C   UNL A   1      38.822  30.892  29.319  1.00  0.00     0.049 A 
ATOM     55  H   UNL A   1      40.783  30.367  29.783  1.00  0.00     0.167 HD
ATOM     56  C   UNL A   1      44.728  29.020  31.020  1.00  0.00     0.031 A 
ATOM     57  C   UNL A   1      38.578  32.087  29.887  1.00  0.00     0.031 A 
ATOM     58  C   UNL A   1      44.591  30.331  31.598  1.00  0.00     0.049 A 
ATOM     59  C   UNL A   1      39.644  32.759  30.699  1.00  0.00     0.074 A 
ATOM     60  C   UNL A   1      45.520  31.053  32.328  1.00  0.00     0.029 A 
ATOM     61  N   UNL A   1      43.453  31.117  31.515  1.00  0.00    -0.354 N 
ATOM     62  N   UNL A   1      40.846  32.324  30.992  1.00  0.00    -0.248 NA
ATOM     63  C   UNL A   1      39.325  34.082  31.252  1.00  0.00     0.031 C 
ATOM     64  C   UNL A   1      44.935  32.269  32.704  1.00  0.00     0.029 A 
ATOM     65  C   UNL A   1      43.650  32.311  32.187  1.00  0.00     0.049 A 
ATOM     66  H   UNL A   1      42.625  30.863  31.046  1.00  0.00     0.167 HD
ATOM     67  C   UNL A   1      41.432  33.326  31.755  1.00  0.00     0.074 A 
ATOM     68  C   UNL A   1      40.455  34.390  31.877  1.00  0.00     0.031 C 
ATOM     69  C   UNL A   1      42.671  33.360  32.302  1.00  0.00     0.031 A 
BRANCH  56  70
ATOM     70  C   UNL A   1      46.012  28.273  31.246  1.00  0.00    -0.014 A 
ATOM     71  C   UNL A   1      47.110  28.455  30.388  1.00  0.00     0.010 A 
ATOM     72  C   UNL A   1      46.128  27.398  32.341  1.00  0.00     0.010 A 
ATOM     73  C   UNL A   1      48.294  27.743  30.598  1.00  0.00     0.020 A 
ATOM     74  C   UNL A   1      47.316  26.695  32.561  1.00  0.00     0.020 A 
ATOM     75  C   UNL A   1      48.384  26.857  31.677  1.00  0.00     0.054 A 
BRANCH  75  76
ATOM     76  S   UNL A   1      49.928  25.940  31.944  1.00  0.00     0.124 S 
ATOM     77  O   UNL A   1      50.121  25.296  30.648  1.00  0.00    -0.237 OA
ATOM     78  O   UNL A   1      50.886  26.994  32.269  1.00  0.00    -0.237 OA
ATOM     79  O   UNL A   1      49.602  25.040  33.048  1.00  0.00    -0.744 OA
ENDBRANCH  75  76
ENDBRANCH  56  70
BRANCH  57  80
ATOM     80  C   UNL A   1      37.243  32.708  29.712  1.00  0.00    -0.014 A 
ATOM     81  C   UNL A   1      36.269  32.596  30.719  1.00  0.00     0.010 A 
ATOM     82  C   UNL A   1      36.972  33.479  28.568  1.00  0.00     0.010 A 
ATOM     83  C   UNL A   1      35.047  33.259  30.590  1.00  0.00     0.020 A 
ATOM     84  C   UNL A   1      35.755  34.153  28.443  1.00  0.00     0.020 A 
ATOM     85  C   UNL A   1      34.799  34.039  29.456  1.00  0.00     0.054 A 
BRANCH  85  86
ATOM     86  S   UNL A   1      33.258  34.991  29.347  1.00  0.00     0.124 S 
ATOM     87  O   UNL A   1      32.759  34.917  30.716  1.00  0.00    -0.237 OA
ATOM     88  O   UNL A   1      33.718  36.308  28.912  1.00  0.00    -0.237 OA
ATOM     89  O   UNL A   1      32.482  34.255  28.352  1.00  0.00    -0.744 OA
ENDBRANCH  85  86
ENDBRANCH  57  80
BRANCH  69  90
ATOM     90  C   UNL A   1      43.047  34.597  33.064  1.00  0.00    -0.014 A 
ATOM     91  C   UNL A   1      42.779  34.703  34.439  1.00  0.00     0.010 A 
ATOM     92  C   UNL A   1      43.710  35.647  32.406  1.00  0.00     0.010 A 
ATOM     93  C   UNL A   1      43.150  35.852  35.143  1.00  0.00     0.020 A 
ATOM     94  C   UNL A   1      44.090  36.795  33.108  1.00  0.00     0.020 A 
ATOM     95  C   UNL A   1      43.796  36.895  34.471  1.00  0.00     0.054 A 
BRANCH  95  96
ATOM     96  S   UNL A   1      44.309  38.368  35.399  1.00  0.00     0.124 S 
ATOM     97  O   UNL A   1      43.815  38.068  36.740  1.00  0.00    -0.237 OA
ATOM     98  O   UNL A   1      45.763  38.362  35.251  1.00  0.00    -0.237 OA
ATOM     99  O   UNL A   1      43.625  39.459  34.710  1.00  0.00    -0.744 OA
ENDBRANCH  95  96
ENDBRANCH  69  90
ENDBRANCH  43  44
ENDBRANCH  35  38
ENDBRANCH  33  34
ENDBRANCH   1  33
TORSDOF 16
ENDMDL
MODEL 3
REMARK VINA RESULT:     -11.4      2.934      5.308
REMARK SMILES Cn1cc(C(=O)NCCCNC(=O)c2ccc(-c3c4nc(c(-c5ccc(S(=O)(=O)[O-])cc5)c5ccc([nH]5)c(-c5ccc(S(=O)(=O)[O-])cc5)c5nc(c(-c6ccc(S(=O)(=O)[O-])cc6)c6ccc3[nH]6)C=C5)C=C4)cc2)c(C(=O)Nc2ccc(-c3nc4cc(Cl)ccc4o3)cc2)n1
REMARK SMILES IDX 9 1 8 2 7 3 5 4 6 5 4 7 1 8 2 9 3 10 94 11 74 12 75 13 76 14
REMARK SMILES IDX 77 15 78 17 79 18 93 19 80 20 92 21 81 22 82 23 83 24 91 25
REMARK SMILES IDX 84 26 90 27 85 28 89 29 86 30 88 31 87 32 10 33 11 34 12 35
REMARK SMILES IDX 13 37 14 38 15 39 73 40 16 41 72 42 17 43 18 44 19 45 66 46
REMARK SMILES IDX 20 47 71 48 65 49 67 50 21 51 70 52 64 53 63 54 22 56 52 57
REMARK SMILES IDX 33 58 51 59 34 60 37 61 50 62 68 63 35 64 36 65 49 67 69 68
REMARK SMILES IDX 38 69 23 70 24 71 32 72 25 73 31 74 26 75 27 76 28 77 29 78
REMARK SMILES IDX 30 79 53 80 54 81 62 82 55 83 61 84 56 85 57 86 58 87 59 88
REMARK SMILES IDX 60 89 39 90 40 91 48 92 41 93 47 94 42 95 43 96 44 97 45 98
REMARK SMILES IDX 46 99
REMARK H PARENT 7 6 77 16 11 36 67 55 37 66
REMARK Flexibility Score: inf
ROOT
ATOM      1  C   UNL A   1      33.174  28.507  25.238  1.00  0.00     0.042 C 
ENDROOT
BRANCH   1   2
ATOM      2  C   UNL A   1      31.743  28.841  25.656  1.00  0.00     0.118 C 
BRANCH   2   3
ATOM      3  N   UNL A   1      30.917  29.507  24.664  1.00  0.00    -0.352 N 
ATOM      4  C   UNL A   1      30.300  29.067  23.518  1.00  0.00     0.255 C 
ATOM      5  O   UNL A   1      29.392  29.775  23.076  1.00  0.00    -0.269 OA
ATOM      6  H   UNL A   1      30.772  30.462  24.850  1.00  0.00     0.163 HD
BRANCH   4   7
ATOM      7  C   UNL A   1      30.698  27.844  22.836  1.00  0.00     0.090 A 
ATOM      8  C   UNL A   1      32.706  25.669  20.768  1.00  0.00     0.173 C 
ATOM      9  N   UNL A   1      31.746  26.334  21.618  1.00  0.00    -0.274 N 
ATOM     10  C   UNL A   1      31.635  27.673  21.831  1.00  0.00     0.123 A 
ATOM     11  N   UNL A   1      30.913  25.604  22.360  1.00  0.00    -0.167 NA
ATOM     12  C   UNL A   1      30.276  26.495  23.148  1.00  0.00     0.163 A 
BRANCH  12  13
ATOM     13  C   UNL A   1      29.390  25.988  24.218  1.00  0.00     0.276 C 
ATOM     14  O   UNL A   1      28.207  26.343  24.291  1.00  0.00    -0.267 OA
ATOM     15  N   UNL A   1      29.798  25.041  25.133  1.00  0.00    -0.321 N 
ATOM     16  H   UNL A   1      29.060  24.634  25.642  1.00  0.00     0.170 HD
BRANCH  15  17
ATOM     17  C   UNL A   1      31.060  24.550  25.473  1.00  0.00     0.041 A 
ATOM     18  C   UNL A   1      31.403  23.298  24.953  1.00  0.00     0.027 A 
ATOM     19  C   UNL A   1      31.977  25.245  26.259  1.00  0.00     0.027 A 
ATOM     20  C   UNL A   1      32.707  22.821  25.074  1.00  0.00     0.016 A 
ATOM     21  C   UNL A   1      33.272  24.737  26.428  1.00  0.00     0.016 A 
ATOM     22  C   UNL A   1      33.664  23.560  25.777  1.00  0.00     0.037 A 
BRANCH  22  23
ATOM     23  C   UNL A   1      35.065  23.175  25.730  1.00  0.00     0.227 A 
ATOM     24  N   UNL A   1      35.625  21.995  25.545  1.00  0.00    -0.209 NA
ATOM     25  O   UNL A   1      35.935  24.172  26.096  1.00  0.00    -0.436 OA
ATOM     26  C   UNL A   1      36.961  22.231  25.772  1.00  0.00     0.111 A 
ATOM     27  C   UNL A   1      37.146  23.552  26.145  1.00  0.00     0.155 A 
ATOM     28  C   UNL A   1      38.071  21.378  25.724  1.00  0.00     0.053 A 
ATOM     29  C   UNL A   1      38.359  24.112  26.525  1.00  0.00     0.051 A 
ATOM     30  C   UNL A   1      39.311  21.906  26.109  1.00  0.00     0.043 A 
ATOM     31  C   UNL A   1      39.452  23.241  26.510  1.00  0.00     0.024 A 
ATOM     32  Cl  UNL A   1      40.695  20.883  26.111  1.00  0.00    -0.084 Cl
ENDBRANCH  22  23
ENDBRANCH  15  17
ENDBRANCH  12  13
ENDBRANCH   4   7
ENDBRANCH   2   3
ENDBRANCH   1   2
BRANCH   1  33
ATOM     33  C   UNL A   1      34.292  29.136  26.075  1.00  0.00     0.118 C 
BRANCH  33  34
ATOM     34  N   UNL A   1      33.945  30.412  26.672  1.00  0.00    -0.352 N 
ATOM     35  C   UNL A   1      34.520  31.163  27.666  1.00  0.00     0.251 C 
ATOM     36  H   UNL A   1      33.135  30.820  26.289  1.00  0.00     0.163 HD
ATOM     37  O   UNL A   1      33.941  32.196  28.006  1.00  0.00    -0.269 OA
BRANCH  35  38
ATOM     38  C   UNL A   1      35.784  30.788  28.349  1.00  0.00     0.039 A 
ATOM     39  C   UNL A   1      35.737  29.730  29.270  1.00  0.00     0.014 A 
ATOM     40  C   UNL A   1      36.978  31.497  28.194  1.00  0.00     0.014 A 
ATOM     41  C   UNL A   1      36.879  29.353  29.987  1.00  0.00     0.010 A 
ATOM     42  C   UNL A   1      38.125  31.113  28.899  1.00  0.00     0.010 A 
ATOM     43  C   UNL A   1      38.088  30.033  29.793  1.00  0.00    -0.014 A 
BRANCH  43  44
ATOM     44  C   UNL A   1      39.333  29.593  30.467  1.00  0.00     0.031 A 
ATOM     45  C   UNL A   1      39.847  30.300  31.686  1.00  0.00     0.074 A 
ATOM     46  C   UNL A   1      40.043  28.583  29.930  1.00  0.00     0.049 A 
ATOM     47  N   UNL A   1      40.975  30.122  32.326  1.00  0.00    -0.248 NA
ATOM     48  C   UNL A   1      38.987  31.346  32.255  1.00  0.00     0.031 C 
ATOM     49  C   UNL A   1      39.657  27.818  28.745  1.00  0.00     0.029 A 
ATOM     50  N   UNL A   1      41.253  28.049  30.297  1.00  0.00    -0.354 N 
ATOM     51  C   UNL A   1      40.971  31.043  33.365  1.00  0.00     0.074 A 
ATOM     52  C   UNL A   1      39.728  31.783  33.266  1.00  0.00     0.031 C 
ATOM     53  C   UNL A   1      40.623  26.929  28.465  1.00  0.00     0.029 A 
ATOM     54  C   UNL A   1      41.704  27.078  29.438  1.00  0.00     0.049 A 
ATOM     55  H   UNL A   1      41.748  28.334  31.099  1.00  0.00     0.167 HD
ATOM     56  C   UNL A   1      41.914  31.254  34.316  1.00  0.00     0.031 A 
ATOM     57  C   UNL A   1      42.866  26.399  29.414  1.00  0.00     0.031 A 
ATOM     58  C   UNL A   1      43.149  30.523  34.421  1.00  0.00     0.049 A 
ATOM     59  C   UNL A   1      43.902  26.655  30.465  1.00  0.00     0.074 A 
ATOM     60  C   UNL A   1      44.151  30.653  35.369  1.00  0.00     0.029 A 
ATOM     61  N   UNL A   1      43.555  29.526  33.548  1.00  0.00    -0.354 N 
ATOM     62  N   UNL A   1      43.871  27.517  31.453  1.00  0.00    -0.248 NA
ATOM     63  C   UNL A   1      45.127  25.846  30.404  1.00  0.00     0.031 C 
ATOM     64  C   UNL A   1      45.173  29.748  35.056  1.00  0.00     0.029 A 
ATOM     65  C   UNL A   1      44.795  29.040  33.926  1.00  0.00     0.049 A 
ATOM     66  H   UNL A   1      43.038  29.211  32.772  1.00  0.00     0.167 HD
ATOM     67  C   UNL A   1      45.066  27.346  32.139  1.00  0.00     0.074 A 
ATOM     68  C   UNL A   1      45.799  26.298  31.456  1.00  0.00     0.031 C 
ATOM     69  C   UNL A   1      45.514  27.999  33.238  1.00  0.00     0.031 A 
BRANCH  56  70
ATOM     70  C   UNL A   1      41.645  32.344  35.314  1.00  0.00    -0.014 A 
ATOM     71  C   UNL A   1      41.001  32.060  36.531  1.00  0.00     0.010 A 
ATOM     72  C   UNL A   1      42.059  33.659  35.042  1.00  0.00     0.010 A 
ATOM     73  C   UNL A   1      40.741  33.085  37.447  1.00  0.00     0.020 A 
ATOM     74  C   UNL A   1      41.812  34.683  35.960  1.00  0.00     0.020 A 
ATOM     75  C   UNL A   1      41.137  34.392  37.148  1.00  0.00     0.054 A 
BRANCH  75  76
ATOM     76  S   UNL A   1      40.799  35.716  38.344  1.00  0.00     0.124 S 
ATOM     77  O   UNL A   1      40.078  36.684  37.522  1.00  0.00    -0.237 OA
ATOM     78  O   UNL A   1      40.000  35.042  39.365  1.00  0.00    -0.237 OA
ATOM     79  O   UNL A   1      42.131  36.132  38.777  1.00  0.00    -0.744 OA
ENDBRANCH  75  76
ENDBRANCH  56  70
BRANCH  57  80
ATOM     80  C   UNL A   1      43.104  25.419  28.325  1.00  0.00    -0.014 A 
ATOM     81  C   UNL A   1      43.646  25.837  27.099  1.00  0.00     0.010 A 
ATOM     82  C   UNL A   1      42.859  24.052  28.546  1.00  0.00     0.010 A 
ATOM     83  C   UNL A   1      43.954  24.898  26.112  1.00  0.00     0.020 A 
ATOM     84  C   UNL A   1      43.178  23.111  27.565  1.00  0.00     0.020 A 
ATOM     85  C   UNL A   1      43.724  23.540  26.353  1.00  0.00     0.054 A 
BRANCH  85  86
ATOM     86  S   UNL A   1      44.234  22.315  25.114  1.00  0.00     0.124 S 
ATOM     87  O   UNL A   1      43.393  22.668  23.975  1.00  0.00    -0.237 OA
ATOM     88  O   UNL A   1      45.662  22.587  24.955  1.00  0.00    -0.237 OA
ATOM     89  O   UNL A   1      43.922  21.042  25.759  1.00  0.00    -0.744 OA
ENDBRANCH  85  86
ENDBRANCH  57  80
BRANCH  69  90
ATOM     90  C   UNL A   1      46.848  27.583  33.784  1.00  0.00    -0.014 A 
ATOM     91  C   UNL A   1      48.027  28.221  33.362  1.00  0.00     0.010 A 
ATOM     92  C   UNL A   1      46.920  26.570  34.756  1.00  0.00     0.010 A 
ATOM     93  C   UNL A   1      49.263  27.837  33.890  1.00  0.00     0.020 A 
ATOM     94  C   UNL A   1      48.153  26.190  35.292  1.00  0.00     0.020 A 
ATOM     95  C   UNL A   1      49.320  26.819  34.846  1.00  0.00     0.054 A 
BRANCH  95  96
ATOM     96  S   UNL A   1      50.924  26.353  35.555  1.00  0.00     0.124 S 
ATOM     97  O   UNL A   1      51.068  27.321  36.638  1.00  0.00    -0.237 OA
ATOM     98  O   UNL A   1      50.711  24.969  35.974  1.00  0.00    -0.237 OA
ATOM     99  O   UNL A   1      51.851  26.522  34.438  1.00  0.00    -0.744 OA
ENDBRANCH  95  96
ENDBRANCH  69  90
ENDBRANCH  43  44
ENDBRANCH  35  38
ENDBRANCH  33  34
ENDBRANCH   1  33
TORSDOF 16
ENDMDL
