MODEL 1
REMARK VINA RESULT:     -11.8      0.000      0.000
REMARK SMILES Cc1cc(C(=O)N2[C@@H](C(=O)NCCCNC(=O)c3ccc(-c4c5nc(c(-c6ccc(S(=O)(=O)[O-])cc6)c6ccc([nH]6)c(-c6ccc(S(=O)(=O)[O-])cc6)c6nc(c(-c7ccc(S(=O)(=O)[O-])cc7)c7ccc4[nH]7)C=C6)C=C5)cc3)C[C@H]3CCCC[C@H]32)c(C)s1
REMARK SMILES IDX 13 1 12 2 11 3 9 4 10 5 8 7 7 8 84 9 78 10 79 11 83 12 80 13
REMARK SMILES IDX 82 14 81 15 5 16 6 17 4 18 1 19 2 20 3 21 87 22 85 23 86 24
REMARK SMILES IDX 14 25 15 26 16 27 17 29 18 30 19 31 77 32 20 33 76 34 21 35
REMARK SMILES IDX 22 36 23 37 70 38 24 39 75 40 69 41 71 42 25 43 74 44 68 45
REMARK SMILES IDX 67 46 26 48 56 49 37 50 55 51 38 52 41 53 54 54 72 55 39 56
REMARK SMILES IDX 40 57 53 59 73 60 42 61 27 62 28 63 36 64 29 65 35 66 30 67
REMARK SMILES IDX 31 68 32 69 33 70 34 71 57 72 58 73 66 74 59 75 65 76 60 77
REMARK SMILES IDX 61 78 62 79 63 80 64 81 43 82 44 83 52 84 45 85 51 86 46 87
REMARK SMILES IDX 47 88 48 89 49 90 50 91
REMARK H PARENT 11 6 15 28 71 47 41 58
REMARK Flexibility Score: inf
ROOT
ATOM      1  C   UNL A   1      31.978  27.971  27.630  1.00  0.00     0.042 C 
ENDROOT
BRANCH   1   2
ATOM      2  C   UNL A   1      31.064  27.480  26.510  1.00  0.00     0.117 C 
BRANCH   2   3
ATOM      3  N   UNL A   1      31.019  26.032  26.391  1.00  0.00    -0.354 N 
ATOM      4  C   UNL A   1      31.910  25.094  25.980  1.00  0.00     0.242 C 
ATOM      5  O   UNL A   1      31.551  23.917  26.139  1.00  0.00    -0.273 OA
ATOM      6  H   UNL A   1      30.156  25.648  26.670  1.00  0.00     0.163 HD
BRANCH   4   7
ATOM      7  C   UNL A   1      33.251  25.362  25.254  1.00  0.00     0.175 C 
ATOM      8  N   UNL A   1      33.536  24.849  23.908  1.00  0.00    -0.323 N 
ATOM      9  C   UNL A   1      34.656  23.909  23.926  1.00  0.00     0.089 C 
ATOM     10  C   UNL A   1      34.393  24.786  26.126  1.00  0.00     0.041 C 
ATOM     11  C   UNL A   1      35.480  24.420  25.111  1.00  0.00     0.014 C 
ATOM     12  C   UNL A   1      34.193  22.462  24.109  1.00  0.00     0.025 C 
ATOM     13  C   UNL A   1      36.539  23.444  25.613  1.00  0.00     0.006 C 
ATOM     14  C   UNL A   1      35.341  21.533  24.482  1.00  0.00     0.002 C 
ATOM     15  C   UNL A   1      36.038  22.010  25.753  1.00  0.00     0.000 C 
BRANCH   8  16
ATOM     16  C   UNL A   1      33.068  25.337  22.695  1.00  0.00     0.255 C 
ATOM     17  O   UNL A   1      33.385  24.818  21.626  1.00  0.00    -0.269 OA
BRANCH  16  18
ATOM     18  C   UNL A   1      32.201  26.515  22.720  1.00  0.00     0.053 A 
ATOM     19  C   UNL A   1      28.755  28.080  23.058  1.00  0.00     0.056 C 
ATOM     20  C   UNL A   1      30.196  27.731  22.913  1.00  0.00     0.003 A 
ATOM     21  C   UNL A   1      30.766  26.481  22.831  1.00  0.00     0.029 A 
ATOM     22  S   UNL A   1      31.380  28.957  22.877  1.00  0.00    -0.145 S 
ATOM     23  C   UNL A   1      32.663  27.822  22.790  1.00  0.00     0.014 A 
ATOM     24  C   UNL A   1      34.068  28.328  22.823  1.00  0.00     0.057 C 
ENDBRANCH  16  18
ENDBRANCH   8  16
ENDBRANCH   4   7
ENDBRANCH   2   3
ENDBRANCH   1   2
BRANCH   1  25
ATOM     25  C   UNL A   1      33.292  28.584  27.162  1.00  0.00     0.118 C 
BRANCH  25  26
ATOM     26  N   UNL A   1      33.406  29.991  27.504  1.00  0.00    -0.352 N 
ATOM     27  C   UNL A   1      34.415  30.713  28.094  1.00  0.00     0.251 C 
ATOM     28  H   UNL A   1      32.614  30.527  27.270  1.00  0.00     0.163 HD
ATOM     29  O   UNL A   1      34.162  31.861  28.460  1.00  0.00    -0.269 OA
BRANCH  27  30
ATOM     30  C   UNL A   1      35.781  30.168  28.307  1.00  0.00     0.039 A 
ATOM     31  C   UNL A   1      36.101  29.664  29.576  1.00  0.00     0.014 A 
ATOM     32  C   UNL A   1      36.786  30.242  27.340  1.00  0.00     0.014 A 
ATOM     33  C   UNL A   1      37.399  29.225  29.863  1.00  0.00     0.010 A 
ATOM     34  C   UNL A   1      38.061  29.728  27.599  1.00  0.00     0.010 A 
ATOM     35  C   UNL A   1      38.392  29.244  28.872  1.00  0.00    -0.014 A 
BRANCH  35  36
ATOM     36  C   UNL A   1      39.796  28.850  29.174  1.00  0.00     0.031 A 
ATOM     37  C   UNL A   1      40.712  29.815  29.887  1.00  0.00     0.074 A 
ATOM     38  C   UNL A   1      40.271  27.648  28.790  1.00  0.00     0.049 A 
ATOM     39  N   UNL A   1      41.990  29.704  30.152  1.00  0.00    -0.248 NA
ATOM     40  C   UNL A   1      40.118  31.086  30.335  1.00  0.00     0.031 C 
ATOM     41  C   UNL A   1      39.512  26.622  28.072  1.00  0.00     0.029 A 
ATOM     42  N   UNL A   1      41.514  27.088  28.956  1.00  0.00    -0.354 N 
ATOM     43  C   UNL A   1      42.361  30.904  30.746  1.00  0.00     0.074 A 
ATOM     44  C   UNL A   1      41.178  31.738  30.786  1.00  0.00     0.031 C 
ATOM     45  C   UNL A   1      40.297  25.546  27.889  1.00  0.00     0.029 A 
ATOM     46  C   UNL A   1      41.617  25.815  28.448  1.00  0.00     0.049 A 
ATOM     47  H   UNL A   1      42.260  27.555  29.396  1.00  0.00     0.167 HD
ATOM     48  C   UNL A   1      43.571  31.284  31.226  1.00  0.00     0.031 A 
ATOM     49  C   UNL A   1      42.656  24.958  28.439  1.00  0.00     0.031 A 
ATOM     50  C   UNL A   1      44.736  30.444  31.248  1.00  0.00     0.049 A 
ATOM     51  C   UNL A   1      43.963  25.364  29.059  1.00  0.00     0.074 A 
ATOM     52  C   UNL A   1      45.998  30.729  31.742  1.00  0.00     0.029 A 
ATOM     53  N   UNL A   1      44.775  29.141  30.781  1.00  0.00    -0.354 N 
ATOM     54  N   UNL A   1      44.292  26.508  29.608  1.00  0.00    -0.248 NA
ATOM     55  C   UNL A   1      45.035  24.358  29.066  1.00  0.00     0.031 C 
ATOM     56  C   UNL A   1      46.801  29.595  31.572  1.00  0.00     0.029 A 
ATOM     57  C   UNL A   1      46.031  28.600  30.990  1.00  0.00     0.049 A 
ATOM     58  H   UNL A   1      44.019  28.667  30.363  1.00  0.00     0.167 HD
ATOM     59  C   UNL A   1      45.606  26.354  30.037  1.00  0.00     0.074 A 
ATOM     60  C   UNL A   1      46.006  25.005  29.697  1.00  0.00     0.031 C 
ATOM     61  C   UNL A   1      46.409  27.254  30.655  1.00  0.00     0.031 A 
BRANCH  48  62
ATOM     62  C   UNL A   1      43.681  32.683  31.763  1.00  0.00    -0.014 A 
ATOM     63  C   UNL A   1      43.432  32.960  33.118  1.00  0.00     0.010 A 
ATOM     64  C   UNL A   1      44.027  33.736  30.897  1.00  0.00     0.010 A 
ATOM     65  C   UNL A   1      43.473  34.275  33.589  1.00  0.00     0.020 A 
ATOM     66  C   UNL A   1      44.089  35.050  31.369  1.00  0.00     0.020 A 
ATOM     67  C   UNL A   1      43.786  35.314  32.706  1.00  0.00     0.054 A 
BRANCH  67  68
ATOM     68  S   UNL A   1      43.819  37.020  33.324  1.00  0.00     0.124 S 
ATOM     69  O   UNL A   1      45.090  37.053  34.042  1.00  0.00    -0.237 OA
ATOM     70  O   UNL A   1      43.771  37.815  32.099  1.00  0.00    -0.237 OA
ATOM     71  O   UNL A   1      42.625  37.102  34.161  1.00  0.00    -0.744 OA
ENDBRANCH  67  68
ENDBRANCH  48  62
BRANCH  49  72
ATOM     72  C   UNL A   1      42.492  23.603  27.852  1.00  0.00    -0.014 A 
ATOM     73  C   UNL A   1      42.777  23.388  26.492  1.00  0.00     0.010 A 
ATOM     74  C   UNL A   1      42.062  22.527  28.647  1.00  0.00     0.010 A 
ATOM     75  C   UNL A   1      42.621  22.117  25.931  1.00  0.00     0.020 A 
ATOM     76  C   UNL A   1      41.920  21.253  28.092  1.00  0.00     0.020 A 
ATOM     77  C   UNL A   1      42.190  21.058  26.735  1.00  0.00     0.054 A 
BRANCH  77  78
ATOM     78  S   UNL A   1      42.045  19.401  26.010  1.00  0.00     0.124 S 
ATOM     79  O   UNL A   1      42.539  18.554  27.091  1.00  0.00    -0.237 OA
ATOM     80  O   UNL A   1      40.616  19.294  25.724  1.00  0.00    -0.237 OA
ATOM     81  O   UNL A   1      42.902  19.476  24.829  1.00  0.00    -0.744 OA
ENDBRANCH  77  78
ENDBRANCH  49  72
BRANCH  61  82
ATOM     82  C   UNL A   1      47.789  26.795  31.026  1.00  0.00    -0.014 A 
ATOM     83  C   UNL A   1      48.050  26.249  32.295  1.00  0.00     0.010 A 
ATOM     84  C   UNL A   1      48.830  26.882  30.084  1.00  0.00     0.010 A 
ATOM     85  C   UNL A   1      49.337  25.821  32.627  1.00  0.00     0.020 A 
ATOM     86  C   UNL A   1      50.115  26.443  30.408  1.00  0.00     0.020 A 
ATOM     87  C   UNL A   1      50.365  25.929  31.683  1.00  0.00     0.054 A 
BRANCH  87  88
ATOM     88  S   UNL A   1      52.026  25.337  32.112  1.00  0.00     0.124 S 
ATOM     89  O   UNL A   1      52.827  25.861  31.010  1.00  0.00    -0.237 OA
ATOM     90  O   UNL A   1      52.269  25.954  33.414  1.00  0.00    -0.237 OA
ATOM     91  O   UNL A   1      51.873  23.884  32.140  1.00  0.00    -0.744 OA
ENDBRANCH  87  88
ENDBRANCH  61  82
ENDBRANCH  35  36
ENDBRANCH  27  30
ENDBRANCH  25  26
ENDBRANCH   1  25
TORSDOF 15
ENDMDL
MODEL 2
REMARK VINA RESULT:     -11.2      1.133      3.162
REMARK SMILES Cc1cc(C(=O)N2[C@@H](C(=O)NCCCNC(=O)c3ccc(-c4c5nc(c(-c6ccc(S(=O)(=O)[O-])cc6)c6ccc([nH]6)c(-c6ccc(S(=O)(=O)[O-])cc6)c6nc(c(-c7ccc(S(=O)(=O)[O-])cc7)c7ccc4[nH]7)C=C6)C=C5)cc3)C[C@H]3CCCC[C@H]32)c(C)s1
REMARK SMILES IDX 13 1 12 2 11 3 9 4 10 5 8 7 7 8 84 9 78 10 79 11 83 12 80 13
REMARK SMILES IDX 82 14 81 15 5 16 6 17 4 18 1 19 2 20 3 21 87 22 85 23 86 24
REMARK SMILES IDX 14 25 15 26 16 27 17 29 18 30 19 31 77 32 20 33 76 34 21 35
REMARK SMILES IDX 22 36 23 37 70 38 24 39 75 40 69 41 71 42 25 43 74 44 68 45
REMARK SMILES IDX 67 46 26 48 56 49 37 50 55 51 38 52 41 53 54 54 72 55 39 56
REMARK SMILES IDX 40 57 53 59 73 60 42 61 27 62 28 63 36 64 29 65 35 66 30 67
REMARK SMILES IDX 31 68 32 69 33 70 34 71 57 72 58 73 66 74 59 75 65 76 60 77
REMARK SMILES IDX 61 78 62 79 63 80 64 81 43 82 44 83 52 84 45 85 51 86 46 87
REMARK SMILES IDX 47 88 48 89 49 90 50 91
REMARK H PARENT 11 6 15 28 71 47 41 58
REMARK Flexibility Score: inf
ROOT
ATOM      1  C   UNL A   1      32.973  28.095  27.226  1.00  0.00     0.042 C 
ENDROOT
BRANCH   1   2
ATOM      2  C   UNL A   1      31.471  28.162  26.964  1.00  0.00     0.117 C 
BRANCH   2   3
ATOM      3  N   UNL A   1      30.856  26.857  26.781  1.00  0.00    -0.354 N 
ATOM      4  C   UNL A   1      30.593  26.086  25.695  1.00  0.00     0.242 C 
ATOM      5  O   UNL A   1      30.160  24.951  25.945  1.00  0.00    -0.273 OA
ATOM      6  H   UNL A   1      30.569  26.444  27.627  1.00  0.00     0.163 HD
BRANCH   4   7
ATOM      7  C   UNL A   1      30.684  26.529  24.214  1.00  0.00     0.175 C 
ATOM      8  N   UNL A   1      31.613  27.570  23.756  1.00  0.00    -0.323 N 
ATOM      9  C   UNL A   1      30.892  28.723  23.220  1.00  0.00     0.089 C 
ATOM     10  C   UNL A   1      29.292  27.049  23.782  1.00  0.00     0.041 C 
ATOM     11  C   UNL A   1      29.608  28.079  22.693  1.00  0.00     0.014 C 
ATOM     12  C   UNL A   1      30.623  29.784  24.291  1.00  0.00     0.025 C 
ATOM     13  C   UNL A   1      28.486  29.064  22.382  1.00  0.00     0.006 C 
ATOM     14  C   UNL A   1      29.584  30.803  23.843  1.00  0.00     0.002 C 
ATOM     15  C   UNL A   1      28.274  30.118  23.464  1.00  0.00     0.000 C 
BRANCH   8  16
ATOM     16  C   UNL A   1      32.981  27.456  23.547  1.00  0.00     0.255 C 
ATOM     17  O   UNL A   1      33.663  28.421  23.204  1.00  0.00    -0.269 OA
BRANCH  16  18
ATOM     18  C   UNL A   1      33.593  26.139  23.718  1.00  0.00     0.053 A 
ATOM     19  C   UNL A   1      35.328  23.554  25.897  1.00  0.00     0.056 C 
ATOM     20  C   UNL A   1      34.654  24.368  24.848  1.00  0.00     0.003 A 
ATOM     21  C   UNL A   1      34.231  25.676  24.922  1.00  0.00     0.029 A 
ATOM     22  S   UNL A   1      34.271  23.678  23.337  1.00  0.00    -0.145 S 
ATOM     23  C   UNL A   1      33.504  25.111  22.789  1.00  0.00     0.014 A 
ATOM     24  C   UNL A   1      32.836  25.098  21.453  1.00  0.00     0.057 C 
ENDBRANCH  16  18
ENDBRANCH   8  16
ENDBRANCH   4   7
ENDBRANCH   2   3
ENDBRANCH   1   2
BRANCH   1  25
ATOM     25  C   UNL A   1      33.783  29.227  26.606  1.00  0.00     0.118 C 
BRANCH  25  26
ATOM     26  N   UNL A   1      33.773  30.432  27.416  1.00  0.00    -0.352 N 
ATOM     27  C   UNL A   1      34.663  30.923  28.340  1.00  0.00     0.251 C 
ATOM     28  H   UNL A   1      32.983  31.002  27.278  1.00  0.00     0.163 HD
ATOM     29  O   UNL A   1      34.300  31.871  29.038  1.00  0.00    -0.269 OA
BRANCH  27  30
ATOM     30  C   UNL A   1      36.025  30.360  28.530  1.00  0.00     0.039 A 
ATOM     31  C   UNL A   1      36.329  29.769  29.764  1.00  0.00     0.014 A 
ATOM     32  C   UNL A   1      37.041  30.500  27.582  1.00  0.00     0.014 A 
ATOM     33  C   UNL A   1      37.623  29.307  30.034  1.00  0.00     0.010 A 
ATOM     34  C   UNL A   1      38.311  29.965  27.818  1.00  0.00     0.010 A 
ATOM     35  C   UNL A   1      38.627  29.392  29.059  1.00  0.00    -0.014 A 
BRANCH  35  36
ATOM     36  C   UNL A   1      40.027  28.974  29.348  1.00  0.00     0.031 A 
ATOM     37  C   UNL A   1      40.959  29.914  30.073  1.00  0.00     0.074 A 
ATOM     38  C   UNL A   1      40.483  27.772  28.942  1.00  0.00     0.049 A 
ATOM     39  N   UNL A   1      42.236  29.781  30.330  1.00  0.00    -0.248 NA
ATOM     40  C   UNL A   1      40.384  31.185  30.543  1.00  0.00     0.031 C 
ATOM     41  C   UNL A   1      39.707  26.768  28.211  1.00  0.00     0.029 A 
ATOM     42  N   UNL A   1      41.719  27.192  29.093  1.00  0.00    -0.354 N 
ATOM     43  C   UNL A   1      42.626  30.967  30.941  1.00  0.00     0.074 A 
ATOM     44  C   UNL A   1      41.456  31.815  31.001  1.00  0.00     0.031 C 
ATOM     45  C   UNL A   1      40.476  25.684  28.007  1.00  0.00     0.029 A 
ATOM     46  C   UNL A   1      41.802  25.926  28.565  1.00  0.00     0.049 A 
ATOM     47  H   UNL A   1      42.473  27.641  29.538  1.00  0.00     0.167 HD
ATOM     48  C   UNL A   1      43.843  31.321  31.422  1.00  0.00     0.031 A 
ATOM     49  C   UNL A   1      42.829  25.055  28.538  1.00  0.00     0.031 A 
ATOM     50  C   UNL A   1      44.997  30.465  31.426  1.00  0.00     0.049 A 
ATOM     51  C   UNL A   1      44.144  25.433  29.158  1.00  0.00     0.074 A 
ATOM     52  C   UNL A   1      46.265  30.725  31.919  1.00  0.00     0.029 A 
ATOM     53  N   UNL A   1      45.015  29.169  30.937  1.00  0.00    -0.354 N 
ATOM     54  N   UNL A   1      44.492  26.563  29.724  1.00  0.00    -0.248 NA
ATOM     55  C   UNL A   1      45.202  24.412  29.144  1.00  0.00     0.031 C 
ATOM     56  C   UNL A   1      47.052  29.582  31.727  1.00  0.00     0.029 A 
ATOM     57  C   UNL A   1      46.266  28.608  31.132  1.00  0.00     0.049 A 
ATOM     58  H   UNL A   1      44.252  28.713  30.515  1.00  0.00     0.167 HD
ATOM     59  C   UNL A   1      45.805  26.384  30.145  1.00  0.00     0.074 A 
ATOM     60  C   UNL A   1      46.185  25.035  29.781  1.00  0.00     0.031 C 
ATOM     61  C   UNL A   1      46.623  27.262  30.773  1.00  0.00     0.031 A 
BRANCH  48  62
ATOM     62  C   UNL A   1      43.976  32.710  31.981  1.00  0.00    -0.014 A 
ATOM     63  C   UNL A   1      43.719  32.971  33.338  1.00  0.00     0.010 A 
ATOM     64  C   UNL A   1      44.349  33.769  31.134  1.00  0.00     0.010 A 
ATOM     65  C   UNL A   1      43.781  34.279  33.829  1.00  0.00     0.020 A 
ATOM     66  C   UNL A   1      44.432  35.074  31.627  1.00  0.00     0.020 A 
ATOM     67  C   UNL A   1      44.122  35.324  32.965  1.00  0.00     0.054 A 
BRANCH  67  68
ATOM     68  S   UNL A   1      44.181  37.019  33.609  1.00  0.00     0.124 S 
ATOM     69  O   UNL A   1      43.131  36.990  34.623  1.00  0.00    -0.237 OA
ATOM     70  O   UNL A   1      45.545  37.130  34.122  1.00  0.00    -0.237 OA
ATOM     71  O   UNL A   1      43.894  37.840  32.435  1.00  0.00    -0.744 OA
ENDBRANCH  67  68
ENDBRANCH  48  62
BRANCH  49  72
ATOM     72  C   UNL A   1      42.644  23.712  27.929  1.00  0.00    -0.014 A 
ATOM     73  C   UNL A   1      42.186  22.641  28.716  1.00  0.00     0.010 A 
ATOM     74  C   UNL A   1      42.914  23.502  26.566  1.00  0.00     0.010 A 
ATOM     75  C   UNL A   1      42.014  21.374  28.152  1.00  0.00     0.020 A 
ATOM     76  C   UNL A   1      42.727  22.240  25.996  1.00  0.00     0.020 A 
ATOM     77  C   UNL A   1      42.289  21.181  26.795  1.00  0.00     0.054 A 
BRANCH  77  78
ATOM     78  S   UNL A   1      42.008  19.546  26.060  1.00  0.00     0.124 S 
ATOM     79  O   UNL A   1      42.853  19.599  24.872  1.00  0.00    -0.237 OA
ATOM     80  O   UNL A   1      42.450  18.635  27.113  1.00  0.00    -0.237 OA
ATOM     81  O   UNL A   1      40.568  19.537  25.807  1.00  0.00    -0.744 OA
ENDBRANCH  77  78
ENDBRANCH  49  72
BRANCH  61  82
ATOM     82  C   UNL A   1      47.998  26.778  31.131  1.00  0.00    -0.014 A 
ATOM     83  C   UNL A   1      48.248  26.175  32.376  1.00  0.00     0.010 A 
ATOM     84  C   UNL A   1      49.044  26.900  30.199  1.00  0.00     0.010 A 
ATOM     85  C   UNL A   1      49.531  25.724  32.695  1.00  0.00     0.020 A 
ATOM     86  C   UNL A   1      50.326  26.440  30.511  1.00  0.00     0.020 A 
ATOM     87  C   UNL A   1      50.565  25.867  31.763  1.00  0.00     0.054 A 
BRANCH  87  88
ATOM     88  S   UNL A   1      52.220  25.246  32.174  1.00  0.00     0.124 S 
ATOM     89  O   UNL A   1      52.498  25.938  33.429  1.00  0.00    -0.237 OA
ATOM     90  O   UNL A   1      52.012  23.804  32.283  1.00  0.00    -0.237 OA
ATOM     91  O   UNL A   1      53.033  25.665  31.034  1.00  0.00    -0.744 OA
ENDBRANCH  87  88
ENDBRANCH  61  82
ENDBRANCH  35  36
ENDBRANCH  27  30
ENDBRANCH  25  26
ENDBRANCH   1  25
TORSDOF 15
ENDMDL
MODEL 3
REMARK VINA RESULT:     -11.1      2.618      4.276
REMARK SMILES Cc1cc(C(=O)N2[C@@H](C(=O)NCCCNC(=O)c3ccc(-c4c5nc(c(-c6ccc(S(=O)(=O)[O-])cc6)c6ccc([nH]6)c(-c6ccc(S(=O)(=O)[O-])cc6)c6nc(c(-c7ccc(S(=O)(=O)[O-])cc7)c7ccc4[nH]7)C=C6)C=C5)cc3)C[C@H]3CCCC[C@H]32)c(C)s1
REMARK SMILES IDX 13 1 12 2 11 3 9 4 10 5 8 7 7 8 84 9 78 10 79 11 83 12 80 13
REMARK SMILES IDX 82 14 81 15 5 16 6 17 4 18 1 19 2 20 3 21 87 22 85 23 86 24
REMARK SMILES IDX 14 25 15 26 16 27 17 29 18 30 19 31 77 32 20 33 76 34 21 35
REMARK SMILES IDX 22 36 23 37 70 38 24 39 75 40 69 41 71 42 25 43 74 44 68 45
REMARK SMILES IDX 67 46 26 48 56 49 37 50 55 51 38 52 41 53 54 54 72 55 39 56
REMARK SMILES IDX 40 57 53 59 73 60 42 61 27 62 28 63 36 64 29 65 35 66 30 67
REMARK SMILES IDX 31 68 32 69 33 70 34 71 57 72 58 73 66 74 59 75 65 76 60 77
REMARK SMILES IDX 61 78 62 79 63 80 64 81 43 82 44 83 52 84 45 85 51 86 46 87
REMARK SMILES IDX 47 88 48 89 49 90 50 91
REMARK H PARENT 11 6 15 28 71 47 41 58
REMARK Flexibility Score: inf
ROOT
ATOM      1  C   UNL A   1      33.184  28.276  27.271  1.00  0.00     0.042 C 
ENDROOT
BRANCH   1   2
ATOM      2  C   UNL A   1      31.719  28.479  26.896  1.00  0.00     0.117 C 
BRANCH   2   3
ATOM      3  N   UNL A   1      30.954  27.244  26.860  1.00  0.00    -0.354 N 
ATOM      4  C   UNL A   1      30.523  26.434  25.860  1.00  0.00     0.242 C 
ATOM      5  O   UNL A   1      29.990  25.376  26.228  1.00  0.00    -0.273 OA
ATOM      6  H   UNL A   1      30.692  26.926  27.754  1.00  0.00     0.163 HD
BRANCH   4   7
ATOM      7  C   UNL A   1      30.543  26.758  24.346  1.00  0.00     0.175 C 
ATOM      8  N   UNL A   1      31.414  27.790  23.770  1.00  0.00    -0.323 N 
ATOM      9  C   UNL A   1      30.631  28.871  23.174  1.00  0.00     0.089 C 
ATOM     10  C   UNL A   1      29.117  27.192  23.930  1.00  0.00     0.041 C 
ATOM     11  C   UNL A   1      29.354  28.141  22.750  1.00  0.00     0.014 C 
ATOM     12  C   UNL A   1      30.362  30.004  24.167  1.00  0.00     0.025 C 
ATOM     13  C   UNL A   1      28.185  29.058  22.406  1.00  0.00     0.006 C 
ATOM     14  C   UNL A   1      29.269  30.947  23.680  1.00  0.00     0.002 C 
ATOM     15  C   UNL A   1      27.973  30.188  23.409  1.00  0.00     0.000 C 
BRANCH   8  16
ATOM     16  C   UNL A   1      32.777  27.708  23.517  1.00  0.00     0.255 C 
ATOM     17  O   UNL A   1      33.430  28.694  23.179  1.00  0.00    -0.269 OA
BRANCH  16  18
ATOM     18  C   UNL A   1      33.418  26.398  23.636  1.00  0.00     0.053 A 
ATOM     19  C   UNL A   1      35.169  23.749  25.723  1.00  0.00     0.056 C 
ATOM     20  C   UNL A   1      34.498  24.598  24.699  1.00  0.00     0.003 A 
ATOM     21  C   UNL A   1      34.041  25.890  24.830  1.00  0.00     0.029 A 
ATOM     22  S   UNL A   1      34.166  23.977  23.147  1.00  0.00    -0.145 S 
ATOM     23  C   UNL A   1      33.376  25.417  22.655  1.00  0.00     0.014 A 
ATOM     24  C   UNL A   1      32.737  25.456  21.305  1.00  0.00     0.057 C 
ENDBRANCH  16  18
ENDBRANCH   8  16
ENDBRANCH   4   7
ENDBRANCH   2   3
ENDBRANCH   1   2
BRANCH   1  25
ATOM     25  C   UNL A   1      34.166  29.179  26.535  1.00  0.00     0.118 C 
BRANCH  25  26
ATOM     26  N   UNL A   1      33.987  30.584  26.859  1.00  0.00    -0.352 N 
ATOM     27  C   UNL A   1      34.585  31.392  27.795  1.00  0.00     0.251 C 
ATOM     28  H   UNL A   1      33.314  31.041  26.306  1.00  0.00     0.163 HD
ATOM     29  O   UNL A   1      34.089  32.501  27.996  1.00  0.00    -0.269 OA
BRANCH  27  30
ATOM     30  C   UNL A   1      35.787  30.983  28.568  1.00  0.00     0.039 A 
ATOM     31  C   UNL A   1      36.957  31.741  28.419  1.00  0.00     0.014 A 
ATOM     32  C   UNL A   1      35.833  29.818  29.337  1.00  0.00     0.014 A 
ATOM     33  C   UNL A   1      38.146  31.349  29.047  1.00  0.00     0.010 A 
ATOM     34  C   UNL A   1      36.997  29.471  30.031  1.00  0.00     0.010 A 
ATOM     35  C   UNL A   1      38.175  30.213  29.868  1.00  0.00    -0.014 A 
BRANCH  35  36
ATOM     36  C   UNL A   1      39.443  29.736  30.488  1.00  0.00     0.031 A 
ATOM     37  C   UNL A   1      39.947  30.377  31.759  1.00  0.00     0.074 A 
ATOM     38  C   UNL A   1      40.165  28.756  29.910  1.00  0.00     0.049 A 
ATOM     39  N   UNL A   1      41.072  30.177  32.398  1.00  0.00    -0.248 NA
ATOM     40  C   UNL A   1      39.083  31.398  32.374  1.00  0.00     0.031 C 
ATOM     41  C   UNL A   1      39.818  28.060  28.669  1.00  0.00     0.029 A 
ATOM     42  N   UNL A   1      41.347  28.174  30.298  1.00  0.00    -0.354 N 
ATOM     43  C   UNL A   1      41.075  31.081  33.454  1.00  0.00     0.074 A 
ATOM     44  C   UNL A   1      39.848  31.842  33.360  1.00  0.00     0.031 C 
ATOM     45  C   UNL A   1      40.749  27.124  28.416  1.00  0.00     0.029 A 
ATOM     46  C   UNL A   1      41.770  27.172  29.458  1.00  0.00     0.049 A 
ATOM     47  H   UNL A   1      41.844  28.450  31.101  1.00  0.00     0.167 HD
ATOM     48  C   UNL A   1      42.004  31.260  34.425  1.00  0.00     0.031 A 
ATOM     49  C   UNL A   1      42.856  26.377  29.521  1.00  0.00     0.031 A 
ATOM     50  C   UNL A   1      43.195  30.470  34.565  1.00  0.00     0.049 A 
ATOM     51  C   UNL A   1      43.827  26.531  30.657  1.00  0.00     0.074 A 
ATOM     52  C   UNL A   1      44.181  30.557  35.534  1.00  0.00     0.029 A 
ATOM     53  N   UNL A   1      43.549  29.425  33.728  1.00  0.00    -0.354 N 
ATOM     54  N   UNL A   1      43.812  27.398  31.640  1.00  0.00    -0.248 NA
ATOM     55  C   UNL A   1      44.957  25.591  30.695  1.00  0.00     0.031 C 
ATOM     56  C   UNL A   1      45.133  29.561  35.281  1.00  0.00     0.029 A 
ATOM     57  C   UNL A   1      44.727  28.846  34.165  1.00  0.00     0.049 A 
ATOM     58  H   UNL A   1      43.037  29.135  32.938  1.00  0.00     0.167 HD
ATOM     59  C   UNL A   1      44.923  27.099  32.421  1.00  0.00     0.074 A 
ATOM     60  C   UNL A   1      45.580  25.965  31.804  1.00  0.00     0.031 C 
ATOM     61  C   UNL A   1      45.361  27.713  33.546  1.00  0.00     0.031 A 
BRANCH  48  62
ATOM     62  C   UNL A   1      41.756  32.369  35.408  1.00  0.00    -0.014 A 
ATOM     63  C   UNL A   1      41.006  32.147  36.576  1.00  0.00     0.010 A 
ATOM     64  C   UNL A   1      42.269  33.654  35.153  1.00  0.00     0.010 A 
ATOM     65  C   UNL A   1      40.726  33.203  37.447  1.00  0.00     0.020 A 
ATOM     66  C   UNL A   1      42.008  34.708  36.033  1.00  0.00     0.020 A 
ATOM     67  C   UNL A   1      41.217  34.481  37.161  1.00  0.00     0.054 A 
BRANCH  67  68
ATOM     68  S   UNL A   1      40.832  35.849  38.289  1.00  0.00     0.124 S 
ATOM     69  O   UNL A   1      42.164  36.366  38.595  1.00  0.00    -0.237 OA
ATOM     70  O   UNL A   1      39.993  36.724  37.474  1.00  0.00    -0.237 OA
ATOM     71  O   UNL A   1      40.146  35.193  39.399  1.00  0.00    -0.744 OA
ENDBRANCH  67  68
ENDBRANCH  48  62
BRANCH  49  72
ATOM     72  C   UNL A   1      43.065  25.328  28.490  1.00  0.00    -0.014 A 
ATOM     73  C   UNL A   1      42.518  24.045  28.672  1.00  0.00     0.010 A 
ATOM     74  C   UNL A   1      43.799  25.607  27.325  1.00  0.00     0.010 A 
ATOM     75  C   UNL A   1      42.715  23.052  27.709  1.00  0.00     0.020 A 
ATOM     76  C   UNL A   1      43.984  24.620  26.354  1.00  0.00     0.020 A 
ATOM     77  C   UNL A   1      43.450  23.345  26.557  1.00  0.00     0.054 A 
BRANCH  77  78
ATOM     78  S   UNL A   1      43.650  22.065  25.286  1.00  0.00     0.124 S 
ATOM     79  O   UNL A   1      45.016  21.613  25.526  1.00  0.00    -0.237 OA
ATOM     80  O   UNL A   1      42.598  21.108  25.619  1.00  0.00    -0.237 OA
ATOM     81  O   UNL A   1      43.439  22.797  24.039  1.00  0.00    -0.744 OA
ENDBRANCH  77  78
ENDBRANCH  49  72
BRANCH  61  82
ATOM     82  C   UNL A   1      46.592  27.151  34.196  1.00  0.00    -0.014 A 
ATOM     83  C   UNL A   1      47.869  27.625  33.852  1.00  0.00     0.010 A 
ATOM     84  C   UNL A   1      46.466  26.160  35.186  1.00  0.00     0.010 A 
ATOM     85  C   UNL A   1      49.007  27.099  34.467  1.00  0.00     0.020 A 
ATOM     86  C   UNL A   1      47.601  25.639  35.813  1.00  0.00     0.020 A 
ATOM     87  C   UNL A   1      48.866  26.102  35.440  1.00  0.00     0.054 A 
BRANCH  87  88
ATOM     88  S   UNL A   1      50.347  25.449  36.259  1.00  0.00     0.124 S 
ATOM     89  O   UNL A   1      50.885  26.643  36.907  1.00  0.00    -0.237 OA
ATOM     90  O   UNL A   1      49.805  24.436  37.161  1.00  0.00    -0.237 OA
ATOM     91  O   UNL A   1      51.145  24.924  35.153  1.00  0.00    -0.744 OA
ENDBRANCH  87  88
ENDBRANCH  61  82
ENDBRANCH  35  36
ENDBRANCH  27  30
ENDBRANCH  25  26
ENDBRANCH   1  25
TORSDOF 15
ENDMDL
