MODEL 1
REMARK VINA RESULT:     -11.8      0.000      0.000
REMARK SMILES O=C(NCCCNC(=O)[C@H]1CC[C@H]2CCCC[C@@H]2[N@H+]1[C@@H]1CCCSC1)c1ccc(-c2c3nc(c(-c4ccc(S(=O)(=O)[O-])cc4)c4ccc([nH]4)c(-c4ccc(S(=O)(=O)[O-])cc4)c4nc(c(-c5ccc(S(=O)(=O)[O-])cc5)c5ccc2[nH]5)C=C4)C=C3)cc1
REMARK SMILES IDX 4 1 3 2 1 3 2 4 26 6 27 7 85 8 28 9 84 10 29 11 30 12 31 13
REMARK SMILES IDX 78 14 32 15 83 16 77 17 79 18 33 19 82 20 76 21 75 22 34 24
REMARK SMILES IDX 64 25 45 26 63 27 46 28 49 29 62 30 80 31 47 32 48 33 61 35
REMARK SMILES IDX 81 36 50 37 35 38 36 39 44 40 37 41 43 42 38 43 39 44 40 45
REMARK SMILES IDX 41 46 42 47 65 48 66 49 74 50 67 51 73 52 68 53 69 54 70 55
REMARK SMILES IDX 71 56 72 57 51 58 52 59 60 60 53 61 59 62 54 63 55 64 56 65
REMARK SMILES IDX 57 66 58 67 5 68 6 69 7 70 8 71 9 73 10 74 11 75 19 76 12 77
REMARK SMILES IDX 18 78 13 80 17 81 14 82 16 83 15 84 20 85 21 86 25 87 22 88
REMARK SMILES IDX 24 89 23 90
REMARK H PARENT 3 5 79 23 49 34 7 72 19 79
REMARK Flexibility Score: inf
ROOT
ATOM      1  C   UNL A   1      35.415  30.290  27.642  1.00  0.00     0.118 C 
ENDROOT
BRANCH   1   2
ATOM      2  N   UNL A   1      35.367  30.238  29.099  1.00  0.00    -0.352 N 
ATOM      3  O   UNL A   1      36.000  29.703  31.190  1.00  0.00    -0.269 OA
ATOM      4  C   UNL A   1      36.313  29.824  30.007  1.00  0.00     0.251 C 
ATOM      5  H   UNL A   1      34.523  30.549  29.497  1.00  0.00     0.163 HD
BRANCH   4   6
ATOM      6  C   UNL A   1      37.691  29.508  29.570  1.00  0.00     0.039 A 
ATOM      7  C   UNL A   1      38.601  28.919  30.448  1.00  0.00     0.014 A 
ATOM      8  C   UNL A   1      38.071  29.774  28.250  1.00  0.00     0.014 A 
ATOM      9  C   UNL A   1      39.924  28.748  30.062  1.00  0.00     0.010 A 
ATOM     10  C   UNL A   1      39.379  29.506  27.832  1.00  0.00     0.010 A 
ATOM     11  C   UNL A   1      40.326  29.017  28.743  1.00  0.00    -0.014 A 
BRANCH  11  12
ATOM     12  C   UNL A   1      41.719  28.695  28.341  1.00  0.00     0.031 A 
ATOM     13  C   UNL A   1      42.808  29.732  28.375  1.00  0.00     0.074 A 
ATOM     14  C   UNL A   1      42.004  27.422  27.994  1.00  0.00     0.049 A 
ATOM     15  N   UNL A   1      44.084  29.587  28.118  1.00  0.00    -0.248 NA
ATOM     16  C   UNL A   1      42.423  31.105  28.737  1.00  0.00     0.031 C 
ATOM     17  C   UNL A   1      41.026  26.332  27.911  1.00  0.00     0.029 A 
ATOM     18  N   UNL A   1      43.194  26.821  27.680  1.00  0.00    -0.354 N 
ATOM     19  C   UNL A   1      44.652  30.846  28.275  1.00  0.00     0.074 A 
ATOM     20  C   UNL A   1      43.577  31.751  28.624  1.00  0.00     0.031 C 
ATOM     21  C   UNL A   1      41.664  25.187  27.632  1.00  0.00     0.029 A 
ATOM     22  C   UNL A   1      43.082  25.469  27.449  1.00  0.00     0.049 A 
ATOM     23  H   UNL A   1      44.048  27.308  27.624  1.00  0.00     0.167 HD
ATOM     24  C   UNL A   1      45.951  31.210  28.148  1.00  0.00     0.031 A 
ATOM     25  C   UNL A   1      44.011  24.555  27.114  1.00  0.00     0.031 A 
ATOM     26  C   UNL A   1      47.017  30.304  27.800  1.00  0.00     0.049 A 
ATOM     27  C   UNL A   1      45.437  24.995  26.959  1.00  0.00     0.074 A 
ATOM     28  C   UNL A   1      48.368  30.577  27.664  1.00  0.00     0.029 A 
ATOM     29  N   UNL A   1      46.855  28.953  27.534  1.00  0.00    -0.354 N 
ATOM     30  N   UNL A   1      45.955  26.186  27.138  1.00  0.00    -0.248 NA
ATOM     31  C   UNL A   1      46.405  23.966  26.557  1.00  0.00     0.031 C 
ATOM     32  C   UNL A   1      49.016  29.401  27.271  1.00  0.00     0.029 A 
ATOM     33  C   UNL A   1      48.078  28.384  27.214  1.00  0.00     0.049 A 
ATOM     34  H   UNL A   1      45.999  28.469  27.568  1.00  0.00     0.167 HD
ATOM     35  C   UNL A   1      47.312  26.049  26.876  1.00  0.00     0.074 A 
ATOM     36  C   UNL A   1      47.539  24.653  26.560  1.00  0.00     0.031 C 
ATOM     37  C   UNL A   1      48.282  26.995  26.889  1.00  0.00     0.031 A 
BRANCH  24  38
ATOM     38  C   UNL A   1      46.302  32.659  28.369  1.00  0.00    -0.014 A 
ATOM     39  C   UNL A   1      46.678  33.129  29.641  1.00  0.00     0.010 A 
ATOM     40  C   UNL A   1      46.335  33.546  27.277  1.00  0.00     0.010 A 
ATOM     41  C   UNL A   1      47.057  34.463  29.820  1.00  0.00     0.020 A 
ATOM     42  C   UNL A   1      46.735  34.875  27.448  1.00  0.00     0.020 A 
ATOM     43  C   UNL A   1      47.084  35.328  28.721  1.00  0.00     0.054 A 
BRANCH  43  44
ATOM     44  S   UNL A   1      47.623  37.042  28.976  1.00  0.00     0.124 S 
ATOM     45  O   UNL A   1      48.764  36.869  29.872  1.00  0.00    -0.237 OA
ATOM     46  O   UNL A   1      47.950  37.480  27.621  1.00  0.00    -0.237 OA
ATOM     47  O   UNL A   1      46.457  37.688  29.572  1.00  0.00    -0.744 OA
ENDBRANCH  43  44
ENDBRANCH  24  38
BRANCH  25  48
ATOM     48  C   UNL A   1      43.611  23.142  26.875  1.00  0.00    -0.014 A 
ATOM     49  C   UNL A   1      43.026  22.375  27.897  1.00  0.00     0.010 A 
ATOM     50  C   UNL A   1      43.811  22.561  25.610  1.00  0.00     0.010 A 
ATOM     51  C   UNL A   1      42.673  21.042  27.664  1.00  0.00     0.020 A 
ATOM     52  C   UNL A   1      43.431  21.240  25.365  1.00  0.00     0.020 A 
ATOM     53  C   UNL A   1      42.881  20.483  26.400  1.00  0.00     0.054 A 
BRANCH  53  54
ATOM     54  S   UNL A   1      42.388  18.762  26.106  1.00  0.00     0.124 S 
ATOM     55  O   UNL A   1      43.280  18.375  25.018  1.00  0.00    -0.237 OA
ATOM     56  O   UNL A   1      42.651  18.130  27.396  1.00  0.00    -0.237 OA
ATOM     57  O   UNL A   1      40.974  18.868  25.751  1.00  0.00    -0.744 OA
ENDBRANCH  53  54
ENDBRANCH  25  48
BRANCH  37  58
ATOM     58  C   UNL A   1      49.678  26.539  26.563  1.00  0.00    -0.014 A 
ATOM     59  C   UNL A   1      50.561  26.126  27.577  1.00  0.00     0.010 A 
ATOM     60  C   UNL A   1      50.107  26.508  25.224  1.00  0.00     0.010 A 
ATOM     61  C   UNL A   1      51.864  25.735  27.261  1.00  0.00     0.020 A 
ATOM     62  C   UNL A   1      51.400  26.091  24.902  1.00  0.00     0.020 A 
ATOM     63  C   UNL A   1      52.277  25.725  25.926  1.00  0.00     0.054 A 
BRANCH  63  64
ATOM     64  S   UNL A   1      53.968  25.196  25.538  1.00  0.00     0.124 S 
ATOM     65  O   UNL A   1      53.736  24.080  24.626  1.00  0.00    -0.237 OA
ATOM     66  O   UNL A   1      54.549  26.393  24.934  1.00  0.00    -0.237 OA
ATOM     67  O   UNL A   1      54.523  24.832  26.840  1.00  0.00    -0.744 OA
ENDBRANCH  63  64
ENDBRANCH  37  58
ENDBRANCH  11  12
ENDBRANCH   4   6
ENDBRANCH   1   2
BRANCH   1  68
ATOM     68  C   UNL A   1      35.108  28.947  26.989  1.00  0.00     0.042 C 
BRANCH  68  69
ATOM     69  C   UNL A   1      33.814  28.933  26.191  1.00  0.00     0.118 C 
BRANCH  69  70
ATOM     70  N   UNL A   1      32.636  28.778  27.030  1.00  0.00    -0.351 N 
ATOM     71  C   UNL A   1      31.693  27.784  27.033  1.00  0.00     0.278 C 
ATOM     72  H   UNL A   1      32.496  29.492  27.693  1.00  0.00     0.163 HD
ATOM     73  O   UNL A   1      30.784  27.846  27.864  1.00  0.00    -0.268 OA
BRANCH  71  74
ATOM     74  C   UNL A   1      31.800  26.642  26.007  1.00  0.00     0.274 C 
ATOM     75  C   UNL A   1      30.971  25.406  26.406  1.00  0.00     0.076 C 
ATOM     76  N   UNL A   1      31.598  27.113  24.613  1.00  0.00    -0.319 N 
ATOM     77  C   UNL A   1      30.878  24.373  25.275  1.00  0.00     0.016 C 
ATOM     78  C   UNL A   1      31.835  26.036  23.630  1.00  0.00     0.188 C 
ATOM     79  H   UNL A   1      32.329  27.811  24.475  1.00  0.00     0.349 HD
ATOM     80  C   UNL A   1      31.980  24.621  24.247  1.00  0.00     0.048 C 
ATOM     81  C   UNL A   1      33.108  26.328  22.816  1.00  0.00     0.065 C 
ATOM     82  C   UNL A   1      32.009  23.587  23.118  1.00  0.00     0.010 C 
ATOM     83  C   UNL A   1      33.287  25.287  21.705  1.00  0.00     0.006 C 
ATOM     84  C   UNL A   1      33.213  23.844  22.209  1.00  0.00     0.001 C 
BRANCH  76  85
ATOM     85  C   UNL A   1      30.375  27.940  24.352  1.00  0.00     0.194 C 
ATOM     86  C   UNL A   1      29.280  27.242  23.510  1.00  0.00     0.067 C 
ATOM     87  C   UNL A   1      30.776  29.308  23.738  1.00  0.00     0.134 C 
ATOM     88  C   UNL A   1      28.027  28.084  23.271  1.00  0.00     0.017 C 
ATOM     89  S   UNL A   1      29.378  30.453  23.499  1.00  0.00    -0.156 SA
ATOM     90  C   UNL A   1      28.308  29.373  22.519  1.00  0.00     0.070 C 
ENDBRANCH  76  85
ENDBRANCH  71  74
ENDBRANCH  69  70
ENDBRANCH  68  69
ENDBRANCH   1  68
TORSDOF 14
ENDMDL
MODEL 2
REMARK VINA RESULT:     -11.8      3.162      9.193
REMARK SMILES O=C(NCCCNC(=O)[C@H]1CC[C@H]2CCCC[C@@H]2[N@H+]1[C@@H]1CCCSC1)c1ccc(-c2c3nc(c(-c4ccc(S(=O)(=O)[O-])cc4)c4ccc([nH]4)c(-c4ccc(S(=O)(=O)[O-])cc4)c4nc(c(-c5ccc(S(=O)(=O)[O-])cc5)c5ccc2[nH]5)C=C4)C=C3)cc1
REMARK SMILES IDX 4 1 3 2 1 3 2 4 26 6 27 7 85 8 28 9 84 10 29 11 30 12 31 13
REMARK SMILES IDX 78 14 32 15 83 16 77 17 79 18 33 19 82 20 76 21 75 22 34 24
REMARK SMILES IDX 64 25 45 26 63 27 46 28 49 29 62 30 80 31 47 32 48 33 61 35
REMARK SMILES IDX 81 36 50 37 35 38 36 39 44 40 37 41 43 42 38 43 39 44 40 45
REMARK SMILES IDX 41 46 42 47 65 48 66 49 74 50 67 51 73 52 68 53 69 54 70 55
REMARK SMILES IDX 71 56 72 57 51 58 52 59 60 60 53 61 59 62 54 63 55 64 56 65
REMARK SMILES IDX 57 66 58 67 5 68 6 69 7 70 8 71 9 73 10 74 11 75 19 76 12 77
REMARK SMILES IDX 18 78 13 80 17 81 14 82 16 83 15 84 20 85 21 86 25 87 22 88
REMARK SMILES IDX 24 89 23 90
REMARK H PARENT 3 5 79 23 49 34 7 72 19 79
REMARK Flexibility Score: inf
ROOT
ATOM      1  C   UNL A   1      33.634  28.169  27.238  1.00  0.00     0.118 C 
ENDROOT
BRANCH   1   2
ATOM      2  N   UNL A   1      33.487  29.600  27.479  1.00  0.00    -0.352 N 
ATOM      3  O   UNL A   1      33.968  31.639  28.297  1.00  0.00    -0.269 OA
ATOM      4  C   UNL A   1      34.363  30.506  28.028  1.00  0.00     0.251 C 
ATOM      5  H   UNL A   1      32.620  29.979  27.206  1.00  0.00     0.163 HD
BRANCH   4   6
ATOM      6  C   UNL A   1      35.764  30.124  28.311  1.00  0.00     0.039 A 
ATOM      7  C   UNL A   1      36.131  29.635  29.565  1.00  0.00     0.014 A 
ATOM      8  C   UNL A   1      36.722  30.222  27.296  1.00  0.00     0.014 A 
ATOM      9  C   UNL A   1      37.470  29.403  29.853  1.00  0.00     0.010 A 
ATOM     10  C   UNL A   1      38.056  29.889  27.559  1.00  0.00     0.010 A 
ATOM     11  C   UNL A   1      38.446  29.504  28.849  1.00  0.00    -0.014 A 
BRANCH  11  12
ATOM     12  C   UNL A   1      39.845  29.119  29.170  1.00  0.00     0.031 A 
ATOM     13  C   UNL A   1      40.396  27.771  28.796  1.00  0.00     0.074 A 
ATOM     14  C   UNL A   1      40.638  30.037  29.761  1.00  0.00     0.049 A 
ATOM     15  N   UNL A   1      41.614  27.314  28.949  1.00  0.00    -0.248 NA
ATOM     16  C   UNL A   1      39.470  26.809  28.178  1.00  0.00     0.031 C 
ATOM     17  C   UNL A   1      40.209  31.375  30.183  1.00  0.00     0.029 A 
ATOM     18  N   UNL A   1      41.970  30.003  30.080  1.00  0.00    -0.354 N 
ATOM     19  C   UNL A   1      41.600  26.013  28.460  1.00  0.00     0.074 A 
ATOM     20  C   UNL A   1      40.245  25.742  28.027  1.00  0.00     0.031 C 
ATOM     21  C   UNL A   1      41.270  32.053  30.645  1.00  0.00     0.029 A 
ATOM     22  C   UNL A   1      42.436  31.180  30.617  1.00  0.00     0.049 A 
ATOM     23  H   UNL A   1      42.539  29.211  29.940  1.00  0.00     0.167 HD
ATOM     24  C   UNL A   1      42.625  25.130  28.371  1.00  0.00     0.031 A 
ATOM     25  C   UNL A   1      43.662  31.523  31.051  1.00  0.00     0.031 A 
ATOM     26  C   UNL A   1      43.972  25.407  28.803  1.00  0.00     0.049 A 
ATOM     27  C   UNL A   1      44.771  30.515  30.961  1.00  0.00     0.074 A 
ATOM     28  C   UNL A   1      45.082  24.582  28.738  1.00  0.00     0.029 A 
ATOM     29  N   UNL A   1      44.393  26.596  29.378  1.00  0.00    -0.354 N 
ATOM     30  N   UNL A   1      44.739  29.300  30.469  1.00  0.00    -0.248 NA
ATOM     31  C   UNL A   1      46.081  30.926  31.482  1.00  0.00     0.031 C 
ATOM     32  C   UNL A   1      46.164  25.254  29.316  1.00  0.00     0.029 A 
ATOM     33  C   UNL A   1      45.741  26.519  29.692  1.00  0.00     0.049 A 
ATOM     34  H   UNL A   1      43.820  27.380  29.539  1.00  0.00     0.167 HD
ATOM     35  C   UNL A   1      46.028  28.802  30.617  1.00  0.00     0.074 A 
ATOM     36  C   UNL A   1      46.820  29.859  31.211  1.00  0.00     0.031 C 
ATOM     37  C   UNL A   1      46.510  27.576  30.296  1.00  0.00     0.031 A 
BRANCH  24  38
ATOM     38  C   UNL A   1      42.334  23.767  27.798  1.00  0.00    -0.014 A 
ATOM     39  C   UNL A   1      42.395  23.534  26.412  1.00  0.00     0.010 A 
ATOM     40  C   UNL A   1      42.074  22.687  28.661  1.00  0.00     0.010 A 
ATOM     41  C   UNL A   1      42.180  22.251  25.899  1.00  0.00     0.020 A 
ATOM     42  C   UNL A   1      41.881  21.397  28.154  1.00  0.00     0.020 A 
ATOM     43  C   UNL A   1      41.925  21.190  26.774  1.00  0.00     0.054 A 
BRANCH  43  44
ATOM     44  S   UNL A   1      41.694  19.528  26.082  1.00  0.00     0.124 S 
ATOM     45  O   UNL A   1      42.576  19.561  24.918  1.00  0.00    -0.237 OA
ATOM     46  O   UNL A   1      42.131  18.662  27.175  1.00  0.00    -0.237 OA
ATOM     47  O   UNL A   1      40.266  19.472  25.780  1.00  0.00    -0.744 OA
ENDBRANCH  43  44
ENDBRANCH  24  38
BRANCH  25  48
ATOM     48  C   UNL A   1      43.894  32.870  31.638  1.00  0.00    -0.014 A 
ATOM     49  C   UNL A   1      44.298  33.948  30.833  1.00  0.00     0.010 A 
ATOM     50  C   UNL A   1      43.701  33.078  33.016  1.00  0.00     0.010 A 
ATOM     51  C   UNL A   1      44.531  35.205  31.401  1.00  0.00     0.020 A 
ATOM     52  C   UNL A   1      43.902  34.339  33.582  1.00  0.00     0.020 A 
ATOM     53  C   UNL A   1      44.334  35.390  32.773  1.00  0.00     0.054 A 
BRANCH  53  54
ATOM     54  S   UNL A   1      44.610  37.034  33.488  1.00  0.00     0.124 S 
ATOM     55  O   UNL A   1      43.511  37.802  32.911  1.00  0.00    -0.237 OA
ATOM     56  O   UNL A   1      44.518  36.777  34.923  1.00  0.00    -0.237 OA
ATOM     57  O   UNL A   1      45.944  37.393  33.013  1.00  0.00    -0.744 OA
ENDBRANCH  53  54
ENDBRANCH  25  48
BRANCH  37  58
ATOM     58  C   UNL A   1      47.967  27.327  30.573  1.00  0.00    -0.014 A 
ATOM     59  C   UNL A   1      48.387  26.754  31.787  1.00  0.00     0.010 A 
ATOM     60  C   UNL A   1      48.928  27.655  29.600  1.00  0.00     0.010 A 
ATOM     61  C   UNL A   1      49.746  26.558  32.042  1.00  0.00     0.020 A 
ATOM     62  C   UNL A   1      50.286  27.435  29.840  1.00  0.00     0.020 A 
ATOM     63  C   UNL A   1      50.688  26.905  31.068  1.00  0.00     0.054 A 
BRANCH  63  64
ATOM     64  S   UNL A   1      52.445  26.624  31.414  1.00  0.00     0.124 S 
ATOM     65  O   UNL A   1      52.778  27.773  32.252  1.00  0.00    -0.237 OA
ATOM     66  O   UNL A   1      52.437  25.331  32.095  1.00  0.00    -0.237 OA
ATOM     67  O   UNL A   1      53.062  26.619  30.089  1.00  0.00    -0.744 OA
ENDBRANCH  63  64
ENDBRANCH  37  58
ENDBRANCH  11  12
ENDBRANCH   4   6
ENDBRANCH   1   2
BRANCH   1  68
ATOM     68  C   UNL A   1      34.162  27.853  25.844  1.00  0.00     0.042 C 
BRANCH  68  69
ATOM     69  C   UNL A   1      33.149  28.088  24.734  1.00  0.00     0.118 C 
BRANCH  69  70
ATOM     70  N   UNL A   1      33.642  27.683  23.427  1.00  0.00    -0.351 N 
ATOM     71  C   UNL A   1      33.471  26.498  22.761  1.00  0.00     0.278 C 
ATOM     72  H   UNL A   1      34.176  28.359  22.951  1.00  0.00     0.163 HD
ATOM     73  O   UNL A   1      33.962  26.386  21.635  1.00  0.00    -0.268 OA
BRANCH  71  74
ATOM     74  C   UNL A   1      32.684  25.360  23.435  1.00  0.00     0.274 C 
ATOM     75  C   UNL A   1      32.128  24.341  22.424  1.00  0.00     0.076 C 
ATOM     76  N   UNL A   1      33.415  24.772  24.587  1.00  0.00    -0.319 N 
ATOM     77  C   UNL A   1      31.562  23.087  23.106  1.00  0.00     0.016 C 
ATOM     78  C   UNL A   1      32.596  23.776  25.307  1.00  0.00     0.188 C 
ATOM     79  H   UNL A   1      33.559  25.558  25.221  1.00  0.00     0.349 HD
ATOM     80  C   UNL A   1      31.287  23.372  24.581  1.00  0.00     0.048 C 
ATOM     81  C   UNL A   1      32.216  24.306  26.701  1.00  0.00     0.065 C 
ATOM     82  C   UNL A   1      30.649  22.195  25.323  1.00  0.00     0.010 C 
ATOM     83  C   UNL A   1      31.481  23.227  27.506  1.00  0.00     0.006 C 
ATOM     84  C   UNL A   1      30.299  22.612  26.754  1.00  0.00     0.001 C 
BRANCH  76  85
ATOM     85  C   UNL A   1      34.833  24.354  24.340  1.00  0.00     0.194 C 
ATOM     86  C   UNL A   1      35.006  23.165  23.365  1.00  0.00     0.067 C 
ATOM     87  C   UNL A   1      35.555  24.089  25.690  1.00  0.00     0.134 C 
ATOM     88  C   UNL A   1      36.457  22.763  23.100  1.00  0.00     0.017 C 
ATOM     89  S   UNL A   1      37.327  23.700  25.520  1.00  0.00    -0.156 SA
ATOM     90  C   UNL A   1      37.192  22.323  24.354  1.00  0.00     0.070 C 
ENDBRANCH  76  85
ENDBRANCH  71  74
ENDBRANCH  69  70
ENDBRANCH  68  69
ENDBRANCH   1  68
TORSDOF 14
ENDMDL
MODEL 3
REMARK VINA RESULT:     -11.8      3.156      9.091
REMARK SMILES O=C(NCCCNC(=O)[C@H]1CC[C@H]2CCCC[C@@H]2[N@H+]1[C@@H]1CCCSC1)c1ccc(-c2c3nc(c(-c4ccc(S(=O)(=O)[O-])cc4)c4ccc([nH]4)c(-c4ccc(S(=O)(=O)[O-])cc4)c4nc(c(-c5ccc(S(=O)(=O)[O-])cc5)c5ccc2[nH]5)C=C4)C=C3)cc1
REMARK SMILES IDX 4 1 3 2 1 3 2 4 26 6 27 7 85 8 28 9 84 10 29 11 30 12 31 13
REMARK SMILES IDX 78 14 32 15 83 16 77 17 79 18 33 19 82 20 76 21 75 22 34 24
REMARK SMILES IDX 64 25 45 26 63 27 46 28 49 29 62 30 80 31 47 32 48 33 61 35
REMARK SMILES IDX 81 36 50 37 35 38 36 39 44 40 37 41 43 42 38 43 39 44 40 45
REMARK SMILES IDX 41 46 42 47 65 48 66 49 74 50 67 51 73 52 68 53 69 54 70 55
REMARK SMILES IDX 71 56 72 57 51 58 52 59 60 60 53 61 59 62 54 63 55 64 56 65
REMARK SMILES IDX 57 66 58 67 5 68 6 69 7 70 8 71 9 73 10 74 11 75 19 76 12 77
REMARK SMILES IDX 18 78 13 80 17 81 14 82 16 83 15 84 20 85 21 86 25 87 22 88
REMARK SMILES IDX 24 89 23 90
REMARK H PARENT 3 5 79 23 49 34 7 72 19 79
REMARK Flexibility Score: inf
ROOT
ATOM      1  C   UNL A   1      33.602  27.970  26.696  1.00  0.00     0.118 C 
ENDROOT
BRANCH   1   2
ATOM      2  N   UNL A   1      33.334  29.369  27.012  1.00  0.00    -0.352 N 
ATOM      3  O   UNL A   1      33.609  31.378  27.985  1.00  0.00    -0.269 OA
ATOM      4  C   UNL A   1      34.102  30.294  27.678  1.00  0.00     0.251 C 
ATOM      5  H   UNL A   1      32.464  29.705  26.698  1.00  0.00     0.163 HD
BRANCH   4   6
ATOM      6  C   UNL A   1      35.504  29.989  28.041  1.00  0.00     0.039 A 
ATOM      7  C   UNL A   1      36.530  30.126  27.106  1.00  0.00     0.014 A 
ATOM      8  C   UNL A   1      35.804  29.593  29.349  1.00  0.00     0.014 A 
ATOM      9  C   UNL A   1      37.817  29.714  27.425  1.00  0.00     0.010 A 
ATOM     10  C   UNL A   1      37.122  29.276  29.698  1.00  0.00     0.010 A 
ATOM     11  C   UNL A   1      38.135  29.306  28.731  1.00  0.00    -0.014 A 
BRANCH  11  12
ATOM     12  C   UNL A   1      39.552  29.001  29.059  1.00  0.00     0.031 A 
ATOM     13  C   UNL A   1      40.177  27.682  28.695  1.00  0.00     0.074 A 
ATOM     14  C   UNL A   1      40.291  29.964  29.646  1.00  0.00     0.049 A 
ATOM     15  N   UNL A   1      41.418  27.293  28.854  1.00  0.00    -0.248 NA
ATOM     16  C   UNL A   1      39.307  26.667  28.080  1.00  0.00     0.031 C 
ATOM     17  C   UNL A   1      39.789  31.279  30.058  1.00  0.00     0.029 A 
ATOM     18  N   UNL A   1      41.623  30.004  29.969  1.00  0.00    -0.354 N 
ATOM     19  C   UNL A   1      41.476  25.990  28.372  1.00  0.00     0.074 A 
ATOM     20  C   UNL A   1      40.140  25.643  27.938  1.00  0.00     0.031 C 
ATOM     21  C   UNL A   1      40.809  32.016  30.519  1.00  0.00     0.029 A 
ATOM     22  C   UNL A   1      42.022  31.209  30.499  1.00  0.00     0.049 A 
ATOM     23  H   UNL A   1      42.235  29.244  29.835  1.00  0.00     0.167 HD
ATOM     24  C   UNL A   1      42.548  25.165  28.292  1.00  0.00     0.031 A 
ATOM     25  C   UNL A   1      43.226  31.621  30.935  1.00  0.00     0.031 A 
ATOM     26  C   UNL A   1      43.877  25.517  28.726  1.00  0.00     0.049 A 
ATOM     27  C   UNL A   1      44.389  30.675  30.854  1.00  0.00     0.074 A 
ATOM     28  C   UNL A   1      45.031  24.753  28.669  1.00  0.00     0.029 A 
ATOM     29  N   UNL A   1      44.230  26.731  29.295  1.00  0.00    -0.354 N 
ATOM     30  N   UNL A   1      44.425  29.456  30.370  1.00  0.00    -0.248 NA
ATOM     31  C   UNL A   1      45.673  31.160  31.377  1.00  0.00     0.031 C 
ATOM     32  C   UNL A   1      46.072  25.488  29.246  1.00  0.00     0.029 A 
ATOM     33  C   UNL A   1      45.580  26.729  29.613  1.00  0.00     0.049 A 
ATOM     34  H   UNL A   1      43.615  27.483  29.450  1.00  0.00     0.167 HD
ATOM     35  C   UNL A   1      45.738  29.031  30.524  1.00  0.00     0.074 A 
ATOM     36  C   UNL A   1      46.470  30.133  31.114  1.00  0.00     0.031 C 
ATOM     37  C   UNL A   1      46.288  27.831  30.213  1.00  0.00     0.031 A 
BRANCH  24  38
ATOM     38  C   UNL A   1      42.334  23.784  27.727  1.00  0.00    -0.014 A 
ATOM     39  C   UNL A   1      42.536  23.520  26.360  1.00  0.00     0.010 A 
ATOM     40  C   UNL A   1      42.004  22.720  28.586  1.00  0.00     0.010 A 
ATOM     41  C   UNL A   1      42.390  22.222  25.860  1.00  0.00     0.020 A 
ATOM     42  C   UNL A   1      41.880  21.416  28.094  1.00  0.00     0.020 A 
ATOM     43  C   UNL A   1      42.063  21.178  26.731  1.00  0.00     0.054 A 
BRANCH  43  44
ATOM     44  S   UNL A   1      41.925  19.497  26.061  1.00  0.00     0.124 S 
ATOM     45  O   UNL A   1      40.491  19.392  25.805  1.00  0.00    -0.237 OA
ATOM     46  O   UNL A   1      42.772  19.554  24.873  1.00  0.00    -0.237 OA
ATOM     47  O   UNL A   1      42.427  18.650  27.141  1.00  0.00    -0.744 OA
ENDBRANCH  43  44
ENDBRANCH  24  38
BRANCH  25  48
ATOM     48  C   UNL A   1      43.382  32.982  31.514  1.00  0.00    -0.014 A 
ATOM     49  C   UNL A   1      43.266  33.196  32.897  1.00  0.00     0.010 A 
ATOM     50  C   UNL A   1      43.656  34.076  30.672  1.00  0.00     0.010 A 
ATOM     51  C   UNL A   1      43.395  34.484  33.427  1.00  0.00     0.020 A 
ATOM     52  C   UNL A   1      43.817  35.359  31.200  1.00  0.00     0.020 A 
ATOM     53  C   UNL A   1      43.666  35.557  32.573  1.00  0.00     0.054 A 
BRANCH  53  54
ATOM     54  S   UNL A   1      43.862  37.216  33.278  1.00  0.00     0.124 S 
ATOM     55  O   UNL A   1      45.140  37.099  33.973  1.00  0.00    -0.237 OA
ATOM     56  O   UNL A   1      43.862  38.069  32.093  1.00  0.00    -0.237 OA
ATOM     57  O   UNL A   1      42.690  37.362  34.139  1.00  0.00    -0.744 OA
ENDBRANCH  53  54
ENDBRANCH  25  48
BRANCH  37  58
ATOM     58  C   UNL A   1      47.756  27.664  30.495  1.00  0.00    -0.014 A 
ATOM     59  C   UNL A   1      48.720  27.944  29.511  1.00  0.00     0.010 A 
ATOM     60  C   UNL A   1      48.177  27.237  31.768  1.00  0.00     0.010 A 
ATOM     61  C   UNL A   1      50.078  27.754  29.779  1.00  0.00     0.020 A 
ATOM     62  C   UNL A   1      49.535  27.072  32.048  1.00  0.00     0.020 A 
ATOM     63  C   UNL A   1      50.476  27.314  31.044  1.00  0.00     0.054 A 
BRANCH  63  64
ATOM     64  S   UNL A   1      52.245  27.091  31.375  1.00  0.00     0.124 S 
ATOM     65  O   UNL A   1      52.406  25.649  31.211  1.00  0.00    -0.237 OA
ATOM     66  O   UNL A   1      52.872  27.916  30.344  1.00  0.00    -0.237 OA
ATOM     67  O   UNL A   1      52.406  27.585  32.741  1.00  0.00    -0.744 OA
ENDBRANCH  63  64
ENDBRANCH  37  58
ENDBRANCH  11  12
ENDBRANCH   4   6
ENDBRANCH   1   2
BRANCH   1  68
ATOM     68  C   UNL A   1      32.337  27.123  26.631  1.00  0.00     0.042 C 
BRANCH  68  69
ATOM     69  C   UNL A   1      32.552  25.665  27.009  1.00  0.00     0.118 C 
BRANCH  69  70
ATOM     70  N   UNL A   1      31.440  24.813  26.619  1.00  0.00    -0.351 N 
ATOM     71  C   UNL A   1      31.455  23.533  26.128  1.00  0.00     0.278 C 
ATOM     72  H   UNL A   1      30.547  25.213  26.723  1.00  0.00     0.163 HD
ATOM     73  O   UNL A   1      30.374  22.989  25.889  1.00  0.00    -0.268 OA
BRANCH  71  74
ATOM     74  C   UNL A   1      32.803  22.832  25.890  1.00  0.00     0.274 C 
ATOM     75  C   UNL A   1      32.654  21.316  25.664  1.00  0.00     0.076 C 
ATOM     76  N   UNL A   1      33.640  23.540  24.887  1.00  0.00    -0.319 N 
ATOM     77  C   UNL A   1      33.957  20.663  25.185  1.00  0.00     0.016 C 
ATOM     78  C   UNL A   1      34.982  22.935  24.767  1.00  0.00     0.188 C 
ATOM     79  H   UNL A   1      33.766  24.474  25.278  1.00  0.00     0.349 HD
ATOM     80  C   UNL A   1      35.144  21.574  25.492  1.00  0.00     0.048 C 
ATOM     81  C   UNL A   1      36.051  23.894  25.321  1.00  0.00     0.065 C 
ATOM     82  C   UNL A   1      36.497  20.967  25.115  1.00  0.00     0.010 C 
ATOM     83  C   UNL A   1      37.457  23.333  25.078  1.00  0.00     0.006 C 
ATOM     84  C   UNL A   1      37.627  21.894  25.569  1.00  0.00     0.001 C 
BRANCH  76  85
ATOM     85  C   UNL A   1      32.986  23.874  23.580  1.00  0.00     0.194 C 
ATOM     86  C   UNL A   1      33.629  23.214  22.337  1.00  0.00     0.067 C 
ATOM     87  C   UNL A   1      32.880  25.414  23.413  1.00  0.00     0.134 C 
ATOM     88  C   UNL A   1      32.940  23.540  21.013  1.00  0.00     0.017 C 
ATOM     89  S   UNL A   1      31.981  25.939  21.917  1.00  0.00    -0.156 SA
ATOM     90  C   UNL A   1      32.942  25.024  20.688  1.00  0.00     0.070 C 
ENDBRANCH  76  85
ENDBRANCH  71  74
ENDBRANCH  69  70
ENDBRANCH  68  69
ENDBRANCH   1  68
TORSDOF 14
ENDMDL
