MODEL 1
REMARK VINA RESULT:     -13.2      0.000      0.000
REMARK SMILES COc1ccccc1[C@@H]1C[N@@H+](Cc2cn3cc(C)ccc3n2)C[C@H]1C(=O)NCCCNC(=O)c1ccc(-c2c3nc(c(-c4ccc(S(=O)(=O)[O-])cc4)c4ccc([nH]4)c(-c4ccc(S(=O)(=O)[O-])cc4)c4nc(c(-c5ccc(S(=O)(=O)[O-])cc5)c5ccc2[nH]5)C=C4)C=C3)cc1
REMARK SMILES IDX 29 1 28 2 27 3 25 4 26 5 24 7 9 8 10 9 11 10 23 11 8 13 3 14
REMARK SMILES IDX 4 15 5 16 7 17 6 18 2 19 1 20 12 21 13 22 14 23 22 24 15 25
REMARK SMILES IDX 21 26 16 27 20 28 17 29 19 30 18 31 30 32 31 33 32 34 33 36
REMARK SMILES IDX 34 37 35 38 93 39 36 40 92 41 37 42 38 43 39 44 86 45 40 46
REMARK SMILES IDX 91 47 85 48 87 49 41 50 90 51 84 52 83 53 42 55 72 56 53 57
REMARK SMILES IDX 71 58 54 59 57 60 70 61 88 62 55 63 56 64 69 66 89 67 58 68
REMARK SMILES IDX 43 69 44 70 52 71 45 72 51 73 46 74 47 75 48 76 49 77 50 78
REMARK SMILES IDX 73 79 74 80 82 81 75 82 81 83 76 84 77 85 78 86 79 87 80 88
REMARK SMILES IDX 59 89 60 90 68 91 61 92 67 93 62 94 63 95 64 96 65 97 66 98
REMARK H PARENT 27 6 11 12 31 35 87 54 57 65
REMARK Flexibility Score: inf
ROOT
ATOM      1  C   UNL A   1      32.192  30.488  26.892  1.00  0.00     0.042 C 
ENDROOT
BRANCH   1   2
ATOM      2  C   UNL A   1      31.764  29.035  27.207  1.00  0.00     0.117 C 
BRANCH   2   3
ATOM      3  N   UNL A   1      32.592  27.909  26.752  1.00  0.00    -0.356 N 
ATOM      4  C   UNL A   1      32.443  26.716  26.107  1.00  0.00     0.229 C 
ATOM      5  O   UNL A   1      33.523  26.142  25.880  1.00  0.00    -0.275 OA
ATOM      6  H   UNL A   1      33.536  28.061  26.982  1.00  0.00     0.163 HD
BRANCH   4   7
ATOM      7  C   UNL A   1      31.162  26.021  25.590  1.00  0.00     0.146 C 
ATOM      8  C   UNL A   1      30.758  26.365  24.118  1.00  0.00     0.096 C 
ATOM      9  C   UNL A   1      30.235  25.045  23.528  1.00  0.00     0.272 C 
ATOM     10  N   UNL A   1      30.970  23.989  24.234  1.00  0.00    -0.329 N 
ATOM     11  C   UNL A   1      31.075  24.498  25.612  1.00  0.00     0.276 C 
ATOM     12  H   UNL A   1      30.481  23.094  24.209  1.00  0.00     0.348 HD
BRANCH   8  13
ATOM     13  C   UNL A   1      30.016  27.599  23.632  1.00  0.00     0.004 A 
ATOM     14  C   UNL A   1      30.506  28.904  23.503  1.00  0.00     0.122 A 
ATOM     15  C   UNL A   1      29.627  29.965  23.203  1.00  0.00     0.047 A 
ATOM     16  C   UNL A   1      28.254  29.760  23.060  1.00  0.00     0.004 A 
ATOM     17  C   UNL A   1      28.609  27.432  23.484  1.00  0.00     0.008 A 
ATOM     18  C   UNL A   1      27.740  28.487  23.220  1.00  0.00     0.001 A 
BRANCH  14  19
ATOM     19  O   UNL A   1      31.768  29.310  23.841  1.00  0.00    -0.496 OA
ATOM     20  C   UNL A   1      32.789  28.829  22.983  1.00  0.00     0.278 C 
ENDBRANCH  14  19
ENDBRANCH   8  13
BRANCH  10  21
ATOM     21  C   UNL A   1      32.242  23.559  23.590  1.00  0.00     0.321 C 
BRANCH  21  22
ATOM     22  C   UNL A   1      32.646  22.110  23.729  1.00  0.00     0.114 A 
ATOM     23  C   UNL A   1      33.368  21.433  24.699  1.00  0.00     0.122 A 
ATOM     24  N   UNL A   1      32.293  21.220  22.754  1.00  0.00    -0.228 NA
ATOM     25  N   UNL A   1      33.315  20.092  24.356  1.00  0.00    -0.306 N 
ATOM     26  C   UNL A   1      32.575  20.019  23.193  1.00  0.00     0.137 A 
ATOM     27  C   UNL A   1      33.835  18.958  24.978  1.00  0.00     0.096 A 
ATOM     28  C   UNL A   1      32.209  18.740  22.697  1.00  0.00     0.048 A 
ATOM     29  C   UNL A   1      33.564  17.736  24.467  1.00  0.00    -0.034 A 
ATOM     30  C   UNL A   1      32.674  17.640  23.310  1.00  0.00     0.009 A 
ATOM     31  C   UNL A   1      34.092  16.460  25.034  1.00  0.00     0.046 C 
ENDBRANCH  21  22
ENDBRANCH  10  21
ENDBRANCH   4   7
ENDBRANCH   2   3
ENDBRANCH   1   2
BRANCH   1  32
ATOM     32  C   UNL A   1      33.604  30.825  27.314  1.00  0.00     0.118 C 
BRANCH  32  33
ATOM     33  N   UNL A   1      33.686  31.709  28.473  1.00  0.00    -0.352 N 
ATOM     34  C   UNL A   1      34.697  31.913  29.398  1.00  0.00     0.251 C 
ATOM     35  H   UNL A   1      32.882  32.255  28.625  1.00  0.00     0.163 HD
ATOM     36  O   UNL A   1      34.478  32.646  30.347  1.00  0.00    -0.269 OA
BRANCH  34  37
ATOM     37  C   UNL A   1      36.038  31.281  29.243  1.00  0.00     0.039 A 
ATOM     38  C   UNL A   1      36.155  29.886  29.134  1.00  0.00     0.014 A 
ATOM     39  C   UNL A   1      37.198  32.043  29.278  1.00  0.00     0.014 A 
ATOM     40  C   UNL A   1      37.423  29.298  29.179  1.00  0.00     0.010 A 
ATOM     41  C   UNL A   1      38.429  31.491  29.109  1.00  0.00     0.010 A 
ATOM     42  C   UNL A   1      38.546  30.126  29.238  1.00  0.00    -0.014 A 
BRANCH  42  43
ATOM     43  C   UNL A   1      39.906  29.654  29.405  1.00  0.00     0.031 A 
ATOM     44  C   UNL A   1      40.254  29.340  30.802  1.00  0.00     0.074 A 
ATOM     45  C   UNL A   1      40.640  29.193  28.366  1.00  0.00     0.049 A 
ATOM     46  N   UNL A   1      41.005  30.012  31.603  1.00  0.00    -0.248 NA
ATOM     47  C   UNL A   1      39.523  28.237  31.442  1.00  0.00     0.031 C 
ATOM     48  C   UNL A   1      40.261  29.052  26.951  1.00  0.00     0.029 A 
ATOM     49  N   UNL A   1      41.863  28.610  28.398  1.00  0.00    -0.354 N 
ATOM     50  C   UNL A   1      41.034  29.275  32.779  1.00  0.00     0.074 A 
ATOM     51  C   UNL A   1      39.921  28.363  32.707  1.00  0.00     0.031 C 
ATOM     52  C   UNL A   1      41.138  28.234  26.323  1.00  0.00     0.029 A 
ATOM     53  C   UNL A   1      42.225  27.936  27.238  1.00  0.00     0.049 A 
ATOM     54  H   UNL A   1      42.452  28.660  29.186  1.00  0.00     0.167 HD
ATOM     55  C   UNL A   1      42.133  29.258  33.582  1.00  0.00     0.031 A 
ATOM     56  C   UNL A   1      43.328  27.164  27.067  1.00  0.00     0.031 A 
ATOM     57  C   UNL A   1      43.090  30.264  33.191  1.00  0.00     0.049 A 
ATOM     58  C   UNL A   1      44.282  27.547  28.141  1.00  0.00     0.074 A 
ATOM     59  C   UNL A   1      43.050  31.638  33.057  1.00  0.00     0.029 A 
ATOM     60  N   UNL A   1      44.159  29.841  32.431  1.00  0.00    -0.354 N 
ATOM     61  N   UNL A   1      44.817  28.734  28.234  1.00  0.00    -0.248 NA
ATOM     62  C   UNL A   1      44.273  26.775  29.374  1.00  0.00     0.031 C 
ATOM     63  C   UNL A   1      43.768  31.908  31.854  1.00  0.00     0.029 A 
ATOM     64  C   UNL A   1      44.279  30.702  31.366  1.00  0.00     0.049 A 
ATOM     65  H   UNL A   1      44.733  29.063  32.616  1.00  0.00     0.167 HD
ATOM     66  C   UNL A   1      44.815  29.025  29.592  1.00  0.00     0.074 A 
ATOM     67  C   UNL A   1      44.566  27.742  30.249  1.00  0.00     0.031 C 
ATOM     68  C   UNL A   1      44.727  30.315  30.041  1.00  0.00     0.031 A 
BRANCH  55  69
ATOM     69  C   UNL A   1      42.517  28.082  34.443  1.00  0.00    -0.014 A 
ATOM     70  C   UNL A   1      42.925  28.320  35.769  1.00  0.00     0.010 A 
ATOM     71  C   UNL A   1      42.735  26.786  33.929  1.00  0.00     0.010 A 
ATOM     72  C   UNL A   1      43.573  27.330  36.517  1.00  0.00     0.020 A 
ATOM     73  C   UNL A   1      43.336  25.778  34.681  1.00  0.00     0.020 A 
ATOM     74  C   UNL A   1      43.785  26.068  35.959  1.00  0.00     0.054 A 
BRANCH  74  75
ATOM     75  S   UNL A   1      44.724  24.833  36.888  1.00  0.00     0.124 S 
ATOM     76  O   UNL A   1      46.087  25.338  36.759  1.00  0.00    -0.237 OA
ATOM     77  O   UNL A   1      44.131  24.933  38.219  1.00  0.00    -0.237 OA
ATOM     78  O   UNL A   1      44.444  23.588  36.178  1.00  0.00    -0.744 OA
ENDBRANCH  74  75
ENDBRANCH  55  69
BRANCH  56  79
ATOM     79  C   UNL A   1      43.491  25.937  26.244  1.00  0.00    -0.014 A 
ATOM     80  C   UNL A   1      44.673  25.702  25.517  1.00  0.00     0.010 A 
ATOM     81  C   UNL A   1      42.596  24.858  26.403  1.00  0.00     0.010 A 
ATOM     82  C   UNL A   1      44.981  24.419  25.028  1.00  0.00     0.020 A 
ATOM     83  C   UNL A   1      42.895  23.578  25.915  1.00  0.00     0.020 A 
ATOM     84  C   UNL A   1      44.099  23.359  25.251  1.00  0.00     0.054 A 
BRANCH  84  85
ATOM     85  S   UNL A   1      44.594  21.670  24.788  1.00  0.00     0.124 S 
ATOM     86  O   UNL A   1      44.648  21.749  23.332  1.00  0.00    -0.237 OA
ATOM     87  O   UNL A   1      45.881  21.520  25.461  1.00  0.00    -0.237 OA
ATOM     88  O   UNL A   1      43.519  20.837  25.325  1.00  0.00    -0.744 OA
ENDBRANCH  84  85
ENDBRANCH  56  79
BRANCH  68  89
ATOM     89  C   UNL A   1      44.878  31.437  29.032  1.00  0.00    -0.014 A 
ATOM     90  C   UNL A   1      45.963  32.338  29.016  1.00  0.00     0.010 A 
ATOM     91  C   UNL A   1      43.972  31.476  27.959  1.00  0.00     0.010 A 
ATOM     92  C   UNL A   1      46.121  33.263  27.970  1.00  0.00     0.020 A 
ATOM     93  C   UNL A   1      44.133  32.381  26.905  1.00  0.00     0.020 A 
ATOM     94  C   UNL A   1      45.202  33.277  26.919  1.00  0.00     0.054 A 
BRANCH  94  95
ATOM     95  S   UNL A   1      45.433  34.438  25.543  1.00  0.00     0.124 S 
ATOM     96  O   UNL A   1      45.002  35.707  26.121  1.00  0.00    -0.237 OA
ATOM     97  O   UNL A   1      46.863  34.329  25.260  1.00  0.00    -0.237 OA
ATOM     98  O   UNL A   1      44.562  33.911  24.492  1.00  0.00    -0.744 OA
ENDBRANCH  94  95
ENDBRANCH  68  89
ENDBRANCH  42  43
ENDBRANCH  34  37
ENDBRANCH  32  33
ENDBRANCH   1  32
TORSDOF 17
ENDMDL
MODEL 2
REMARK VINA RESULT:     -13.1      1.555      4.746
REMARK SMILES COc1ccccc1[C@@H]1C[N@@H+](Cc2cn3cc(C)ccc3n2)C[C@H]1C(=O)NCCCNC(=O)c1ccc(-c2c3nc(c(-c4ccc(S(=O)(=O)[O-])cc4)c4ccc([nH]4)c(-c4ccc(S(=O)(=O)[O-])cc4)c4nc(c(-c5ccc(S(=O)(=O)[O-])cc5)c5ccc2[nH]5)C=C4)C=C3)cc1
REMARK SMILES IDX 29 1 28 2 27 3 25 4 26 5 24 7 9 8 10 9 11 10 23 11 8 13 3 14
REMARK SMILES IDX 4 15 5 16 7 17 6 18 2 19 1 20 12 21 13 22 14 23 22 24 15 25
REMARK SMILES IDX 21 26 16 27 20 28 17 29 19 30 18 31 30 32 31 33 32 34 33 36
REMARK SMILES IDX 34 37 35 38 93 39 36 40 92 41 37 42 38 43 39 44 86 45 40 46
REMARK SMILES IDX 91 47 85 48 87 49 41 50 90 51 84 52 83 53 42 55 72 56 53 57
REMARK SMILES IDX 71 58 54 59 57 60 70 61 88 62 55 63 56 64 69 66 89 67 58 68
REMARK SMILES IDX 43 69 44 70 52 71 45 72 51 73 46 74 47 75 48 76 49 77 50 78
REMARK SMILES IDX 73 79 74 80 82 81 75 82 81 83 76 84 77 85 78 86 79 87 80 88
REMARK SMILES IDX 59 89 60 90 68 91 61 92 67 93 62 94 63 95 64 96 65 97 66 98
REMARK H PARENT 27 6 11 12 31 35 87 54 57 65
REMARK Flexibility Score: inf
ROOT
ATOM      1  C   UNL A   1      33.751  28.608  24.916  1.00  0.00     0.042 C 
ENDROOT
BRANCH   1   2
ATOM      2  C   UNL A   1      33.746  27.103  24.560  1.00  0.00     0.117 C 
BRANCH   2   3
ATOM      3  N   UNL A   1      33.712  26.680  23.153  1.00  0.00    -0.356 N 
ATOM      4  C   UNL A   1      33.282  25.622  22.405  1.00  0.00     0.229 C 
ATOM      5  O   UNL A   1      33.423  25.795  21.182  1.00  0.00    -0.275 OA
ATOM      6  H   UNL A   1      34.124  27.364  22.578  1.00  0.00     0.163 HD
BRANCH   4   7
ATOM      7  C   UNL A   1      32.619  24.298  22.851  1.00  0.00     0.146 C 
ATOM      8  C   UNL A   1      32.987  23.814  24.292  1.00  0.00     0.096 C 
ATOM      9  C   UNL A   1      31.684  23.229  24.861  1.00  0.00     0.272 C 
ATOM     10  N   UNL A   1      30.605  23.982  24.211  1.00  0.00    -0.329 N 
ATOM     11  C   UNL A   1      31.098  24.180  22.837  1.00  0.00     0.276 C 
ATOM     12  H   UNL A   1      29.721  23.474  24.215  1.00  0.00     0.348 HD
BRANCH   8  13
ATOM     13  C   UNL A   1      34.241  23.070  24.722  1.00  0.00     0.004 A 
ATOM     14  C   UNL A   1      34.473  21.689  24.700  1.00  0.00     0.122 A 
ATOM     15  C   UNL A   1      35.631  21.156  25.302  1.00  0.00     0.047 A 
ATOM     16  C   UNL A   1      36.554  21.969  25.960  1.00  0.00     0.004 A 
ATOM     17  C   UNL A   1      35.203  23.865  25.407  1.00  0.00     0.008 A 
ATOM     18  C   UNL A   1      36.329  23.331  26.029  1.00  0.00     0.001 A 
BRANCH  14  19
ATOM     19  O   UNL A   1      33.565  20.742  24.311  1.00  0.00    -0.496 OA
ATOM     20  C   UNL A   1      33.181  19.841  25.336  1.00  0.00     0.278 C 
ENDBRANCH  14  19
ENDBRANCH   8  13
BRANCH  10  21
ATOM     21  C   UNL A   1      30.156  25.204  24.934  1.00  0.00     0.321 C 
BRANCH  21  22
ATOM     22  C   UNL A   1      29.744  26.399  24.106  1.00  0.00     0.114 A 
ATOM     23  C   UNL A   1      28.508  26.969  23.844  1.00  0.00     0.122 A 
ATOM     24  N   UNL A   1      30.698  27.111  23.435  1.00  0.00    -0.228 NA
ATOM     25  N   UNL A   1      28.759  28.123  23.120  1.00  0.00    -0.306 N 
ATOM     26  C   UNL A   1      30.129  28.193  22.968  1.00  0.00     0.137 A 
ATOM     27  C   UNL A   1      27.903  29.100  22.615  1.00  0.00     0.096 A 
ATOM     28  C   UNL A   1      30.692  29.370  22.408  1.00  0.00     0.048 A 
ATOM     29  C   UNL A   1      28.423  30.186  22.002  1.00  0.00    -0.034 A 
ATOM     30  C   UNL A   1      29.877  30.335  21.950  1.00  0.00     0.009 A 
ATOM     31  C   UNL A   1      27.601  31.277  21.400  1.00  0.00     0.046 C 
ENDBRANCH  21  22
ENDBRANCH  10  21
ENDBRANCH   4   7
ENDBRANCH   2   3
ENDBRANCH   1   2
BRANCH   1  32
ATOM     32  C   UNL A   1      34.285  28.919  26.295  1.00  0.00     0.118 C 
BRANCH  32  33
ATOM     33  N   UNL A   1      34.073  30.298  26.723  1.00  0.00    -0.352 N 
ATOM     34  C   UNL A   1      34.802  31.116  27.571  1.00  0.00     0.251 C 
ATOM     35  H   UNL A   1      33.270  30.721  26.342  1.00  0.00     0.163 HD
ATOM     36  O   UNL A   1      34.352  32.214  27.849  1.00  0.00    -0.269 OA
BRANCH  34  37
ATOM     37  C   UNL A   1      36.120  30.693  28.123  1.00  0.00     0.039 A 
ATOM     38  C   UNL A   1      36.978  31.637  28.709  1.00  0.00     0.014 A 
ATOM     39  C   UNL A   1      36.560  29.381  28.004  1.00  0.00     0.014 A 
ATOM     40  C   UNL A   1      38.282  31.262  29.048  1.00  0.00     0.010 A 
ATOM     41  C   UNL A   1      37.745  28.968  28.526  1.00  0.00     0.010 A 
ATOM     42  C   UNL A   1      38.663  29.929  28.880  1.00  0.00    -0.014 A 
BRANCH  42  43
ATOM     43  C   UNL A   1      40.009  29.428  29.081  1.00  0.00     0.031 A 
ATOM     44  C   UNL A   1      40.362  29.239  30.500  1.00  0.00     0.074 A 
ATOM     45  C   UNL A   1      40.715  28.845  28.086  1.00  0.00     0.049 A 
ATOM     46  N   UNL A   1      41.143  29.960  31.226  1.00  0.00    -0.248 NA
ATOM     47  C   UNL A   1      39.602  28.228  31.248  1.00  0.00     0.031 C 
ATOM     48  C   UNL A   1      40.316  28.581  26.694  1.00  0.00     0.029 A 
ATOM     49  N   UNL A   1      41.919  28.227  28.164  1.00  0.00    -0.354 N 
ATOM     50  C   UNL A   1      41.161  29.338  32.467  1.00  0.00     0.074 A 
ATOM     51  C   UNL A   1      40.018  28.461  32.493  1.00  0.00     0.031 C 
ATOM     52  C   UNL A   1      41.159  27.678  26.141  1.00  0.00     0.029 A 
ATOM     53  C   UNL A   1      42.246  27.432  27.072  1.00  0.00     0.049 A 
ATOM     54  H   UNL A   1      42.518  28.333  28.939  1.00  0.00     0.167 HD
ATOM     55  C   UNL A   1      42.267  29.361  33.260  1.00  0.00     0.031 A 
ATOM     56  C   UNL A   1      43.321  26.611  26.968  1.00  0.00     0.031 A 
ATOM     57  C   UNL A   1      43.253  30.292  32.765  1.00  0.00     0.049 A 
ATOM     58  C   UNL A   1      44.298  27.063  27.992  1.00  0.00     0.074 A 
ATOM     59  C   UNL A   1      43.256  31.647  32.500  1.00  0.00     0.029 A 
ATOM     60  N   UNL A   1      44.299  29.762  32.041  1.00  0.00    -0.354 N 
ATOM     61  N   UNL A   1      44.873  28.235  27.966  1.00  0.00    -0.248 NA
ATOM     62  C   UNL A   1      44.278  26.414  29.294  1.00  0.00     0.031 C 
ATOM     63  C   UNL A   1      43.969  31.776  31.271  1.00  0.00     0.029 A 
ATOM     64  C   UNL A   1      44.435  30.512  30.898  1.00  0.00     0.049 A 
ATOM     65  H   UNL A   1      44.849  28.987  32.296  1.00  0.00     0.167 HD
ATOM     66  C   UNL A   1      44.896  28.655  29.290  1.00  0.00     0.074 A 
ATOM     67  C   UNL A   1      44.612  27.450  30.070  1.00  0.00     0.031 C 
ATOM     68  C   UNL A   1      44.856  29.984  29.613  1.00  0.00     0.031 A 
BRANCH  55  69
ATOM     69  C   UNL A   1      42.622  28.261  34.227  1.00  0.00    -0.014 A 
ATOM     70  C   UNL A   1      43.137  28.612  35.489  1.00  0.00     0.010 A 
ATOM     71  C   UNL A   1      42.707  26.903  33.855  1.00  0.00     0.010 A 
ATOM     72  C   UNL A   1      43.761  27.661  36.306  1.00  0.00     0.020 A 
ATOM     73  C   UNL A   1      43.282  25.939  34.682  1.00  0.00     0.020 A 
ATOM     74  C   UNL A   1      43.839  26.332  35.888  1.00  0.00     0.054 A 
BRANCH  74  75
ATOM     75  S   UNL A   1      44.746  25.136  36.896  1.00  0.00     0.124 S 
ATOM     76  O   UNL A   1      46.114  25.630  36.784  1.00  0.00    -0.237 OA
ATOM     77  O   UNL A   1      44.117  25.296  38.204  1.00  0.00    -0.237 OA
ATOM     78  O   UNL A   1      44.481  23.862  36.233  1.00  0.00    -0.744 OA
ENDBRANCH  74  75
ENDBRANCH  55  69
BRANCH  56  79
ATOM     79  C   UNL A   1      43.434  25.307  26.266  1.00  0.00    -0.014 A 
ATOM     80  C   UNL A   1      44.367  25.118  25.229  1.00  0.00     0.010 A 
ATOM     81  C   UNL A   1      42.822  24.157  26.810  1.00  0.00     0.010 A 
ATOM     82  C   UNL A   1      44.726  23.827  24.801  1.00  0.00     0.020 A 
ATOM     83  C   UNL A   1      43.172  22.868  26.386  1.00  0.00     0.020 A 
ATOM     84  C   UNL A   1      44.142  22.708  25.400  1.00  0.00     0.054 A 
BRANCH  84  85
ATOM     85  S   UNL A   1      44.753  21.046  24.978  1.00  0.00     0.124 S 
ATOM     86  O   UNL A   1      46.098  21.055  25.545  1.00  0.00    -0.237 OA
ATOM     87  O   UNL A   1      43.791  20.175  25.648  1.00  0.00    -0.237 OA
ATOM     88  O   UNL A   1      44.695  21.018  23.517  1.00  0.00    -0.744 OA
ENDBRANCH  84  85
ENDBRANCH  56  79
BRANCH  68  89
ATOM     89  C   UNL A   1      45.032  30.999  28.499  1.00  0.00    -0.014 A 
ATOM     90  C   UNL A   1      43.989  31.420  27.649  1.00  0.00     0.010 A 
ATOM     91  C   UNL A   1      46.263  31.672  28.419  1.00  0.00     0.010 A 
ATOM     92  C   UNL A   1      44.181  32.468  26.732  1.00  0.00     0.020 A 
ATOM     93  C   UNL A   1      46.456  32.729  27.523  1.00  0.00     0.020 A 
ATOM     94  C   UNL A   1      45.416  33.117  26.677  1.00  0.00     0.054 A 
BRANCH  94  95
ATOM     95  S   UNL A   1      45.649  34.503  25.528  1.00  0.00     0.124 S 
ATOM     96  O   UNL A   1      45.206  35.648  26.318  1.00  0.00    -0.237 OA
ATOM     97  O   UNL A   1      47.082  34.453  25.242  1.00  0.00    -0.237 OA
ATOM     98  O   UNL A   1      44.789  34.165  24.394  1.00  0.00    -0.744 OA
ENDBRANCH  94  95
ENDBRANCH  68  89
ENDBRANCH  42  43
ENDBRANCH  34  37
ENDBRANCH  32  33
ENDBRANCH   1  32
TORSDOF 17
ENDMDL
MODEL 3
REMARK VINA RESULT:     -13.1      2.530      9.675
REMARK SMILES COc1ccccc1[C@@H]1C[N@@H+](Cc2cn3cc(C)ccc3n2)C[C@H]1C(=O)NCCCNC(=O)c1ccc(-c2c3nc(c(-c4ccc(S(=O)(=O)[O-])cc4)c4ccc([nH]4)c(-c4ccc(S(=O)(=O)[O-])cc4)c4nc(c(-c5ccc(S(=O)(=O)[O-])cc5)c5ccc2[nH]5)C=C4)C=C3)cc1
REMARK SMILES IDX 29 1 28 2 27 3 25 4 26 5 24 7 9 8 10 9 11 10 23 11 8 13 3 14
REMARK SMILES IDX 4 15 5 16 7 17 6 18 2 19 1 20 12 21 13 22 14 23 22 24 15 25
REMARK SMILES IDX 21 26 16 27 20 28 17 29 19 30 18 31 30 32 31 33 32 34 33 36
REMARK SMILES IDX 34 37 35 38 93 39 36 40 92 41 37 42 38 43 39 44 86 45 40 46
REMARK SMILES IDX 91 47 85 48 87 49 41 50 90 51 84 52 83 53 42 55 72 56 53 57
REMARK SMILES IDX 71 58 54 59 57 60 70 61 88 62 55 63 56 64 69 66 89 67 58 68
REMARK SMILES IDX 43 69 44 70 52 71 45 72 51 73 46 74 47 75 48 76 49 77 50 78
REMARK SMILES IDX 73 79 74 80 82 81 75 82 81 83 76 84 77 85 78 86 79 87 80 88
REMARK SMILES IDX 59 89 60 90 68 91 61 92 67 93 62 94 63 95 64 96 65 97 66 98
REMARK H PARENT 27 6 11 12 31 35 87 54 57 65
REMARK Flexibility Score: inf
ROOT
ATOM      1  C   UNL A   1      38.383  23.583  26.058  1.00  0.00     0.042 C 
ENDROOT
BRANCH   1   2
ATOM      2  C   UNL A   1      37.145  23.276  25.184  1.00  0.00     0.117 C 
BRANCH   2   3
ATOM      3  N   UNL A   1      35.795  23.378  25.756  1.00  0.00    -0.356 N 
ATOM      4  C   UNL A   1      34.497  23.211  25.370  1.00  0.00     0.229 C 
ATOM      5  O   UNL A   1      33.685  23.347  26.303  1.00  0.00    -0.275 OA
ATOM      6  H   UNL A   1      35.842  23.646  26.702  1.00  0.00     0.163 HD
BRANCH   4   7
ATOM      7  C   UNL A   1      33.914  22.841  23.987  1.00  0.00     0.146 C 
ATOM      8  C   UNL A   1      32.881  21.666  23.986  1.00  0.00     0.096 C 
ATOM      9  C   UNL A   1      31.812  22.075  22.960  1.00  0.00     0.272 C 
ATOM     10  N   UNL A   1      31.787  23.542  22.991  1.00  0.00    -0.329 N 
ATOM     11  C   UNL A   1      33.203  23.911  23.163  1.00  0.00     0.276 C 
ATOM     12  H   UNL A   1      31.405  23.942  22.134  1.00  0.00     0.348 HD
BRANCH   8  13
ATOM     13  C   UNL A   1      33.182  20.176  24.008  1.00  0.00     0.004 A 
ATOM     14  C   UNL A   1      34.267  19.526  24.607  1.00  0.00     0.122 A 
ATOM     15  C   UNL A   1      34.482  18.152  24.379  1.00  0.00     0.047 A 
ATOM     16  C   UNL A   1      33.657  17.411  23.533  1.00  0.00     0.004 A 
ATOM     17  C   UNL A   1      32.365  19.388  23.148  1.00  0.00     0.008 A 
ATOM     18  C   UNL A   1      32.601  18.038  22.899  1.00  0.00     0.001 A 
BRANCH  14  19
ATOM     19  O   UNL A   1      35.294  20.146  25.264  1.00  0.00    -0.496 OA
ATOM     20  C   UNL A   1      36.587  19.774  24.817  1.00  0.00     0.278 C 
ENDBRANCH  14  19
ENDBRANCH   8  13
BRANCH  10  21
ATOM     21  C   UNL A   1      30.826  24.143  23.957  1.00  0.00     0.321 C 
BRANCH  21  22
ATOM     22  C   UNL A   1      31.153  25.507  24.518  1.00  0.00     0.114 A 
ATOM     23  C   UNL A   1      31.235  26.760  23.933  1.00  0.00     0.122 A 
ATOM     24  N   UNL A   1      31.456  25.631  25.846  1.00  0.00    -0.228 NA
ATOM     25  N   UNL A   1      31.451  27.658  24.965  1.00  0.00    -0.306 N 
ATOM     26  C   UNL A   1      31.501  26.909  26.124  1.00  0.00     0.137 A 
ATOM     27  C   UNL A   1      31.584  29.045  24.970  1.00  0.00     0.096 A 
ATOM     28  C   UNL A   1      31.542  27.586  27.371  1.00  0.00     0.048 A 
ATOM     29  C   UNL A   1      31.711  29.696  26.148  1.00  0.00    -0.034 A 
ATOM     30  C   UNL A   1      31.634  28.925  27.389  1.00  0.00     0.009 A 
ATOM     31  C   UNL A   1      31.888  31.174  26.268  1.00  0.00     0.046 C 
ENDBRANCH  21  22
ENDBRANCH  10  21
ENDBRANCH   4   7
ENDBRANCH   2   3
ENDBRANCH   1   2
BRANCH   1  32
ATOM     32  C   UNL A   1      39.064  22.357  26.623  1.00  0.00     0.118 C 
BRANCH  32  33
ATOM     33  N   UNL A   1      40.303  21.993  25.942  1.00  0.00    -0.352 N 
ATOM     34  C   UNL A   1      41.525  22.639  25.860  1.00  0.00     0.251 C 
ATOM     35  H   UNL A   1      40.261  21.139  25.454  1.00  0.00     0.163 HD
ATOM     36  O   UNL A   1      42.384  22.169  25.133  1.00  0.00    -0.269 OA
BRANCH  34  37
ATOM     37  C   UNL A   1      41.815  23.868  26.651  1.00  0.00     0.039 A 
ATOM     38  C   UNL A   1      42.401  23.769  27.924  1.00  0.00     0.014 A 
ATOM     39  C   UNL A   1      41.447  25.123  26.187  1.00  0.00     0.014 A 
ATOM     40  C   UNL A   1      42.492  24.909  28.728  1.00  0.00     0.010 A 
ATOM     41  C   UNL A   1      41.728  26.259  26.879  1.00  0.00     0.010 A 
ATOM     42  C   UNL A   1      42.081  26.137  28.203  1.00  0.00    -0.014 A 
BRANCH  42  43
ATOM     43  C   UNL A   1      42.012  27.371  28.959  1.00  0.00     0.031 A 
ATOM     44  C   UNL A   1      43.138  28.285  28.700  1.00  0.00     0.074 A 
ATOM     45  C   UNL A   1      40.866  27.797  29.538  1.00  0.00     0.049 A 
ATOM     46  N   UNL A   1      44.139  28.550  29.466  1.00  0.00    -0.248 NA
ATOM     47  C   UNL A   1      43.257  28.829  27.340  1.00  0.00     0.031 C 
ATOM     48  C   UNL A   1      39.530  27.178  29.521  1.00  0.00     0.029 A 
ATOM     49  N   UNL A   1      40.630  28.978  30.160  1.00  0.00    -0.354 N 
ATOM     50  C   UNL A   1      44.889  29.490  28.772  1.00  0.00     0.074 A 
ATOM     51  C   UNL A   1      44.451  29.420  27.401  1.00  0.00     0.031 C 
ATOM     52  C   UNL A   1      38.603  28.085  29.906  1.00  0.00     0.029 A 
ATOM     53  C   UNL A   1      39.288  29.282  30.357  1.00  0.00     0.049 A 
ATOM     54  H   UNL A   1      41.356  29.577  30.450  1.00  0.00     0.167 HD
ATOM     55  C   UNL A   1      45.593  30.458  29.420  1.00  0.00     0.031 A 
ATOM     56  C   UNL A   1      38.791  30.454  30.829  1.00  0.00     0.031 A 
ATOM     57  C   UNL A   1      45.654  30.207  30.840  1.00  0.00     0.049 A 
ATOM     58  C   UNL A   1      39.912  31.141  31.520  1.00  0.00     0.074 A 
ATOM     59  C   UNL A   1      46.118  29.166  31.619  1.00  0.00     0.029 A 
ATOM     60  N   UNL A   1      44.772  30.909  31.632  1.00  0.00    -0.354 N 
ATOM     61  N   UNL A   1      40.495  30.666  32.588  1.00  0.00    -0.248 NA
ATOM     62  C   UNL A   1      40.700  32.102  30.763  1.00  0.00     0.031 C 
ATOM     63  C   UNL A   1      45.134  29.010  32.641  1.00  0.00     0.029 A 
ATOM     64  C   UNL A   1      44.173  30.013  32.483  1.00  0.00     0.049 A 
ATOM     65  H   UNL A   1      44.601  31.878  31.595  1.00  0.00     0.167 HD
ATOM     66  C   UNL A   1      41.847  30.923  32.406  1.00  0.00     0.074 A 
ATOM     67  C   UNL A   1      41.899  31.900  31.318  1.00  0.00     0.031 C 
ATOM     68  C   UNL A   1      42.803  30.111  32.953  1.00  0.00     0.031 A 
BRANCH  55  69
ATOM     69  C   UNL A   1      45.867  31.820  28.837  1.00  0.00    -0.014 A 
ATOM     70  C   UNL A   1      44.804  32.739  28.739  1.00  0.00     0.010 A 
ATOM     71  C   UNL A   1      47.058  32.143  28.152  1.00  0.00     0.010 A 
ATOM     72  C   UNL A   1      44.911  33.887  27.946  1.00  0.00     0.020 A 
ATOM     73  C   UNL A   1      47.191  33.309  27.399  1.00  0.00     0.020 A 
ATOM     74  C   UNL A   1      46.102  34.156  27.271  1.00  0.00     0.054 A 
BRANCH  74  75
ATOM     75  S   UNL A   1      46.192  35.580  26.160  1.00  0.00     0.124 S 
ATOM     76  O   UNL A   1      47.429  36.219  26.595  1.00  0.00    -0.237 OA
ATOM     77  O   UNL A   1      46.232  34.943  24.847  1.00  0.00    -0.237 OA
ATOM     78  O   UNL A   1      44.965  36.318  26.452  1.00  0.00    -0.744 OA
ENDBRANCH  74  75
ENDBRANCH  55  69
BRANCH  56  79
ATOM     79  C   UNL A   1      37.522  31.139  30.472  1.00  0.00    -0.014 A 
ATOM     80  C   UNL A   1      36.649  31.617  31.468  1.00  0.00     0.010 A 
ATOM     81  C   UNL A   1      37.307  31.582  29.149  1.00  0.00     0.010 A 
ATOM     82  C   UNL A   1      35.644  32.554  31.164  1.00  0.00     0.020 A 
ATOM     83  C   UNL A   1      36.306  32.512  28.839  1.00  0.00     0.020 A 
ATOM     84  C   UNL A   1      35.495  33.014  29.854  1.00  0.00     0.054 A 
BRANCH  84  85
ATOM     85  S   UNL A   1      34.327  34.366  29.507  1.00  0.00     0.124 S 
ATOM     86  O   UNL A   1      35.057  35.165  28.527  1.00  0.00    -0.237 OA
ATOM     87  O   UNL A   1      33.159  33.654  28.998  1.00  0.00    -0.237 OA
ATOM     88  O   UNL A   1      34.140  35.002  30.811  1.00  0.00    -0.744 OA
ENDBRANCH  84  85
ENDBRANCH  56  79
BRANCH  68  89
ATOM     89  C   UNL A   1      42.366  29.068  33.963  1.00  0.00    -0.014 A 
ATOM     90  C   UNL A   1      41.973  27.758  33.619  1.00  0.00     0.010 A 
ATOM     91  C   UNL A   1      42.518  29.375  35.326  1.00  0.00     0.010 A 
ATOM     92  C   UNL A   1      41.719  26.794  34.609  1.00  0.00     0.020 A 
ATOM     93  C   UNL A   1      42.285  28.416  36.317  1.00  0.00     0.020 A 
ATOM     94  C   UNL A   1      41.877  27.131  35.955  1.00  0.00     0.054 A 
BRANCH  94  95
ATOM     95  S   UNL A   1      41.597  25.872  37.232  1.00  0.00     0.124 S 
ATOM     96  O   UNL A   1      42.612  26.200  38.229  1.00  0.00    -0.237 OA
ATOM     97  O   UNL A   1      40.215  26.120  37.637  1.00  0.00    -0.237 OA
ATOM     98  O   UNL A   1      41.810  24.608  36.528  1.00  0.00    -0.744 OA
ENDBRANCH  94  95
ENDBRANCH  68  89
ENDBRANCH  42  43
ENDBRANCH  34  37
ENDBRANCH  32  33
ENDBRANCH   1  32
TORSDOF 17
ENDMDL
