MODEL 1
REMARK VINA RESULT:     -10.7      0.000      0.000
REMARK SMILES CC[C@H]([NH3+])C(=O)N(C)c1snc(C)c1C(=O)NCCCNC(=O)c1ccc(-c2c3nc(c(-c4ccc(S(=O)(=O)[O-])cc4)c4ccc([nH]4)c(-c4ccc(S(=O)(=O)[O-])cc4)c4nc(c(-c5ccc(S(=O)(=O)[O-])cc5)c5ccc2[nH]5)C=C4)C=C3)cc1
REMARK SMILES IDX 18 1 17 2 15 3 16 4 14 6 9 7 10 8 11 9 12 10 13 11 7 12 8 13
REMARK SMILES IDX 5 14 6 15 3 16 2 17 1 18 4 19 19 23 20 24 21 25 22 26 23 28
REMARK SMILES IDX 24 29 25 30 83 31 26 32 82 33 27 34 28 35 29 36 76 37 30 38
REMARK SMILES IDX 81 39 75 40 77 41 31 42 80 43 74 44 73 45 32 47 62 48 43 49
REMARK SMILES IDX 61 50 44 51 47 52 60 53 78 54 45 55 46 56 59 58 79 59 48 60
REMARK SMILES IDX 33 61 34 62 42 63 35 64 41 65 36 66 37 67 38 68 39 69 40 70
REMARK SMILES IDX 63 71 64 72 72 73 65 74 71 75 66 76 67 77 68 78 69 79 70 80
REMARK SMILES IDX 49 81 50 82 58 83 51 84 57 85 52 86 53 87 54 88 55 89 56 90
REMARK H PARENT 17 5 4 20 4 21 4 22 21 27 77 46 47 57
REMARK Flexibility Score: inf
ROOT
ATOM      1  C   UNL A   1      36.123  23.652  23.960  1.00  0.00     0.118 C 
ENDROOT
BRANCH   1   2
ATOM      2  N   UNL A   1      35.367  24.319  24.977  1.00  0.00    -0.352 N 
ATOM      3  C   UNL A   1      34.182  23.843  25.484  1.00  0.00     0.256 C 
ATOM      4  O   UNL A   1      34.140  23.675  26.706  1.00  0.00    -0.269 OA
ATOM      5  H   UNL A   1      35.717  25.169  25.332  1.00  0.00     0.163 HD
BRANCH   3   6
ATOM      6  C   UNL A   1      32.953  23.903  24.690  1.00  0.00     0.097 A 
ATOM      7  C   UNL A   1      31.971  24.883  24.470  1.00  0.00     0.131 A 
ATOM      8  S   UNL A   1      30.841  24.216  23.332  1.00  0.00    -0.017 S 
ATOM      9  N   UNL A   1      31.463  22.719  23.238  1.00  0.00    -0.195 NA
ATOM     10  C   UNL A   1      32.542  22.659  24.008  1.00  0.00     0.066 A 
ATOM     11  C   UNL A   1      33.184  21.308  24.122  1.00  0.00     0.069 C 
BRANCH   7  12
ATOM     12  N   UNL A   1      31.661  26.229  24.847  1.00  0.00    -0.300 N 
ATOM     13  C   UNL A   1      30.612  26.469  25.841  1.00  0.00     0.154 C 
BRANCH  12  14
ATOM     14  C   UNL A   1      32.246  27.292  24.149  1.00  0.00     0.285 C 
ATOM     15  O   UNL A   1      31.889  27.581  22.998  1.00  0.00    -0.268 OA
BRANCH  14  16
ATOM     16  C   UNL A   1      33.408  28.158  24.811  1.00  0.00     0.271 C 
BRANCH  16  17
ATOM     17  C   UNL A   1      33.764  27.939  26.301  1.00  0.00     0.072 C 
ATOM     18  C   UNL A   1      34.743  28.967  26.869  1.00  0.00     0.011 C 
ENDBRANCH  16  17
BRANCH  16  19
ATOM     19  N   UNL A   1      33.235  29.589  24.510  1.00  0.00    -0.347 N 
ATOM     20  H   UNL A   1      33.419  29.752  23.521  1.00  0.00     0.345 HD
ATOM     21  H   UNL A   1      33.887  30.136  25.072  1.00  0.00     0.345 HD
ATOM     22  H   UNL A   1      32.279  29.869  24.729  1.00  0.00     0.345 HD
ENDBRANCH  16  19
ENDBRANCH  14  16
ENDBRANCH  12  14
ENDBRANCH   7  12
ENDBRANCH   3   6
ENDBRANCH   1   2
BRANCH   1  23
ATOM     23  C   UNL A   1      37.073  22.590  24.473  1.00  0.00     0.042 C 
BRANCH  23  24
ATOM     24  C   UNL A   1      37.830  23.078  25.709  1.00  0.00     0.118 C 
BRANCH  24  25
ATOM     25  N   UNL A   1      38.612  22.053  26.433  1.00  0.00    -0.352 N 
ATOM     26  C   UNL A   1      39.949  22.062  26.830  1.00  0.00     0.251 C 
ATOM     27  H   UNL A   1      38.112  21.239  26.672  1.00  0.00     0.163 HD
ATOM     28  O   UNL A   1      40.536  21.087  27.185  1.00  0.00    -0.269 OA
BRANCH  26  29
ATOM     29  C   UNL A   1      40.583  23.389  26.854  1.00  0.00     0.039 A 
ATOM     30  C   UNL A   1      39.950  24.522  26.338  1.00  0.00     0.014 A 
ATOM     31  C   UNL A   1      41.679  23.459  27.692  1.00  0.00     0.014 A 
ATOM     32  C   UNL A   1      40.344  25.770  26.817  1.00  0.00     0.010 A 
ATOM     33  C   UNL A   1      41.876  24.647  28.327  1.00  0.00     0.010 A 
ATOM     34  C   UNL A   1      41.272  25.823  27.865  1.00  0.00    -0.014 A 
BRANCH  34  35
ATOM     35  C   UNL A   1      41.547  27.042  28.627  1.00  0.00     0.031 A 
ATOM     36  C   UNL A   1      42.722  27.862  28.200  1.00  0.00     0.074 A 
ATOM     37  C   UNL A   1      40.579  27.570  29.413  1.00  0.00     0.049 A 
ATOM     38  N   UNL A   1      43.729  28.231  28.923  1.00  0.00    -0.248 NA
ATOM     39  C   UNL A   1      42.841  28.264  26.788  1.00  0.00     0.031 C 
ATOM     40  C   UNL A   1      39.241  27.013  29.683  1.00  0.00     0.029 A 
ATOM     41  N   UNL A   1      40.486  28.817  29.942  1.00  0.00    -0.354 N 
ATOM     42  C   UNL A   1      44.495  29.086  28.131  1.00  0.00     0.074 A 
ATOM     43  C   UNL A   1      44.004  28.921  26.787  1.00  0.00     0.031 C 
ATOM     44  C   UNL A   1      38.396  28.013  30.003  1.00  0.00     0.029 A 
ATOM     45  C   UNL A   1      39.178  29.216  30.199  1.00  0.00     0.049 A 
ATOM     46  H   UNL A   1      41.270  29.385  30.124  1.00  0.00     0.167 HD
ATOM     47  C   UNL A   1      45.308  30.038  28.675  1.00  0.00     0.031 A 
ATOM     48  C   UNL A   1      38.747  30.454  30.536  1.00  0.00     0.031 A 
ATOM     49  C   UNL A   1      45.454  29.858  30.098  1.00  0.00     0.049 A 
ATOM     50  C   UNL A   1      39.920  31.173  31.084  1.00  0.00     0.074 A 
ATOM     51  C   UNL A   1      45.911  28.841  30.912  1.00  0.00     0.029 A 
ATOM     52  N   UNL A   1      44.711  30.688  30.907  1.00  0.00    -0.354 N 
ATOM     53  N   UNL A   1      40.533  30.803  32.176  1.00  0.00    -0.248 NA
ATOM     54  C   UNL A   1      40.697  32.027  30.201  1.00  0.00     0.031 C 
ATOM     55  C   UNL A   1      45.028  28.847  32.031  1.00  0.00     0.029 A 
ATOM     56  C   UNL A   1      44.135  29.911  31.880  1.00  0.00     0.049 A 
ATOM     57  H   UNL A   1      44.610  31.663  30.806  1.00  0.00     0.167 HD
ATOM     58  C   UNL A   1      41.881  30.978  31.900  1.00  0.00     0.074 A 
ATOM     59  C   UNL A   1      41.911  31.865  30.739  1.00  0.00     0.031 C 
ATOM     60  C   UNL A   1      42.826  30.157  32.451  1.00  0.00     0.031 A 
BRANCH  47  61
ATOM     61  C   UNL A   1      45.655  31.359  28.019  1.00  0.00    -0.014 A 
ATOM     62  C   UNL A   1      47.010  31.760  27.970  1.00  0.00     0.010 A 
ATOM     63  C   UNL A   1      44.694  32.340  27.709  1.00  0.00     0.010 A 
ATOM     64  C   UNL A   1      47.372  33.091  27.716  1.00  0.00     0.020 A 
ATOM     65  C   UNL A   1      45.047  33.659  27.409  1.00  0.00     0.020 A 
ATOM     66  C   UNL A   1      46.381  34.036  27.458  1.00  0.00     0.054 A 
BRANCH  66  67
ATOM     67  S   UNL A   1      46.838  35.779  27.273  1.00  0.00     0.124 S 
ATOM     68  O   UNL A   1      48.200  35.786  27.794  1.00  0.00    -0.237 OA
ATOM     69  O   UNL A   1      46.706  35.983  25.833  1.00  0.00    -0.237 OA
ATOM     70  O   UNL A   1      45.849  36.478  28.090  1.00  0.00    -0.744 OA
ENDBRANCH  66  67
ENDBRANCH  47  61
BRANCH  48  71
ATOM     71  C   UNL A   1      37.445  31.089  30.224  1.00  0.00    -0.014 A 
ATOM     72  C   UNL A   1      36.711  31.755  31.219  1.00  0.00     0.010 A 
ATOM     73  C   UNL A   1      37.038  31.261  28.883  1.00  0.00     0.010 A 
ATOM     74  C   UNL A   1      35.657  32.619  30.882  1.00  0.00     0.020 A 
ATOM     75  C   UNL A   1      35.980  32.111  28.538  1.00  0.00     0.020 A 
ATOM     76  C   UNL A   1      35.314  32.810  29.540  1.00  0.00     0.054 A 
BRANCH  76  77
ATOM     77  S   UNL A   1      34.098  34.089  29.103  1.00  0.00     0.124 S 
ATOM     78  O   UNL A   1      34.946  35.164  28.597  1.00  0.00    -0.237 OA
ATOM     79  O   UNL A   1      33.271  33.412  28.109  1.00  0.00    -0.237 OA
ATOM     80  O   UNL A   1      33.427  34.371  30.372  1.00  0.00    -0.744 OA
ENDBRANCH  76  77
ENDBRANCH  48  71
BRANCH  60  81
ATOM     81  C   UNL A   1      42.409  29.230  33.577  1.00  0.00    -0.014 A 
ATOM     82  C   UNL A   1      41.815  27.970  33.366  1.00  0.00     0.010 A 
ATOM     83  C   UNL A   1      42.790  29.573  34.885  1.00  0.00     0.010 A 
ATOM     84  C   UNL A   1      41.584  27.090  34.435  1.00  0.00     0.020 A 
ATOM     85  C   UNL A   1      42.581  28.694  35.953  1.00  0.00     0.020 A 
ATOM     86  C   UNL A   1      41.971  27.461  35.725  1.00  0.00     0.054 A 
BRANCH  86  87
ATOM     87  S   UNL A   1      41.722  26.298  37.096  1.00  0.00     0.124 S 
ATOM     88  O   UNL A   1      42.875  26.567  37.951  1.00  0.00    -0.237 OA
ATOM     89  O   UNL A   1      40.428  26.706  37.640  1.00  0.00    -0.237 OA
ATOM     90  O   UNL A   1      41.724  24.989  36.447  1.00  0.00    -0.744 OA
ENDBRANCH  86  87
ENDBRANCH  60  81
ENDBRANCH  34  35
ENDBRANCH  26  29
ENDBRANCH  24  25
ENDBRANCH  23  24
ENDBRANCH   1  23
TORSDOF 18
ENDMDL
MODEL 2
REMARK VINA RESULT:     -10.6      1.784      2.415
REMARK SMILES CC[C@H]([NH3+])C(=O)N(C)c1snc(C)c1C(=O)NCCCNC(=O)c1ccc(-c2c3nc(c(-c4ccc(S(=O)(=O)[O-])cc4)c4ccc([nH]4)c(-c4ccc(S(=O)(=O)[O-])cc4)c4nc(c(-c5ccc(S(=O)(=O)[O-])cc5)c5ccc2[nH]5)C=C4)C=C3)cc1
REMARK SMILES IDX 18 1 17 2 15 3 16 4 14 6 9 7 10 8 11 9 12 10 13 11 7 12 8 13
REMARK SMILES IDX 5 14 6 15 3 16 2 17 1 18 4 19 19 23 20 24 21 25 22 26 23 28
REMARK SMILES IDX 24 29 25 30 83 31 26 32 82 33 27 34 28 35 29 36 76 37 30 38
REMARK SMILES IDX 81 39 75 40 77 41 31 42 80 43 74 44 73 45 32 47 62 48 43 49
REMARK SMILES IDX 61 50 44 51 47 52 60 53 78 54 45 55 46 56 59 58 79 59 48 60
REMARK SMILES IDX 33 61 34 62 42 63 35 64 41 65 36 66 37 67 38 68 39 69 40 70
REMARK SMILES IDX 63 71 64 72 72 73 65 74 71 75 66 76 67 77 68 78 69 79 70 80
REMARK SMILES IDX 49 81 50 82 58 83 51 84 57 85 52 86 53 87 54 88 55 89 56 90
REMARK H PARENT 17 5 4 20 4 21 4 22 21 27 77 46 47 57
REMARK Flexibility Score: inf
ROOT
ATOM      1  C   UNL A   1      36.269  20.896  25.031  1.00  0.00     0.118 C 
ENDROOT
BRANCH   1   2
ATOM      2  N   UNL A   1      35.043  21.311  25.642  1.00  0.00    -0.352 N 
ATOM      3  C   UNL A   1      33.852  20.641  25.496  1.00  0.00     0.256 C 
ATOM      4  O   UNL A   1      33.300  20.275  26.537  1.00  0.00    -0.269 OA
ATOM      5  H   UNL A   1      35.054  22.123  26.199  1.00  0.00     0.163 HD
BRANCH   3   6
ATOM      6  C   UNL A   1      33.111  20.703  24.233  1.00  0.00     0.097 A 
ATOM      7  C   UNL A   1      32.689  21.745  23.392  1.00  0.00     0.131 A 
ATOM      8  S   UNL A   1      31.910  21.005  22.028  1.00  0.00    -0.017 S 
ATOM      9  N   UNL A   1      31.960  19.465  22.539  1.00  0.00    -0.195 NA
ATOM     10  C   UNL A   1      32.580  19.427  23.712  1.00  0.00     0.066 A 
ATOM     11  C   UNL A   1      32.621  18.087  24.383  1.00  0.00     0.069 C 
BRANCH   7  12
ATOM     12  N   UNL A   1      32.750  23.173  23.298  1.00  0.00    -0.300 N 
ATOM     13  C   UNL A   1      33.159  23.789  22.033  1.00  0.00     0.154 C 
BRANCH  12  14
ATOM     14  C   UNL A   1      32.575  23.947  24.450  1.00  0.00     0.285 C 
ATOM     15  O   UNL A   1      33.515  24.167  25.228  1.00  0.00    -0.268 OA
BRANCH  14  16
ATOM     16  C   UNL A   1      31.148  24.559  24.810  1.00  0.00     0.271 C 
BRANCH  16  17
ATOM     17  C   UNL A   1      30.510  24.241  26.183  1.00  0.00     0.072 C 
ATOM     18  C   UNL A   1      30.683  22.790  26.633  1.00  0.00     0.011 C 
ENDBRANCH  16  17
BRANCH  16  19
ATOM     19  N   UNL A   1      30.189  24.340  23.714  1.00  0.00    -0.347 N 
ATOM     20  H   UNL A   1      30.004  23.342  23.620  1.00  0.00     0.345 HD
ATOM     21  H   UNL A   1      30.581  24.697  22.843  1.00  0.00     0.345 HD
ATOM     22  H   UNL A   1      29.319  24.830  23.921  1.00  0.00     0.345 HD
ENDBRANCH  16  19
ENDBRANCH  14  16
ENDBRANCH  12  14
ENDBRANCH   7  12
ENDBRANCH   3   6
ENDBRANCH   1   2
BRANCH   1  23
ATOM     23  C   UNL A   1      37.046  22.005  24.355  1.00  0.00     0.042 C 
BRANCH  23  24
ATOM     24  C   UNL A   1      37.913  22.764  25.361  1.00  0.00     0.118 C 
BRANCH  24  25
ATOM     25  N   UNL A   1      38.627  21.933  26.353  1.00  0.00    -0.352 N 
ATOM     26  C   UNL A   1      39.801  22.194  27.060  1.00  0.00     0.251 C 
ATOM     27  H   UNL A   1      38.210  21.062  26.544  1.00  0.00     0.163 HD
ATOM     28  O   UNL A   1      40.416  21.356  27.644  1.00  0.00    -0.269 OA
BRANCH  26  29
ATOM     29  C   UNL A   1      40.201  23.608  27.104  1.00  0.00     0.039 A 
ATOM     30  C   UNL A   1      39.264  24.641  27.180  1.00  0.00     0.014 A 
ATOM     31  C   UNL A   1      41.542  23.792  27.378  1.00  0.00     0.014 A 
ATOM     32  C   UNL A   1      39.675  25.863  27.707  1.00  0.00     0.010 A 
ATOM     33  C   UNL A   1      41.861  24.892  28.113  1.00  0.00     0.010 A 
ATOM     34  C   UNL A   1      40.969  25.965  28.233  1.00  0.00    -0.014 A 
BRANCH  34  35
ATOM     35  C   UNL A   1      41.412  27.095  29.053  1.00  0.00     0.031 A 
ATOM     36  C   UNL A   1      42.566  27.895  28.542  1.00  0.00     0.074 A 
ATOM     37  C   UNL A   1      40.587  27.591  30.005  1.00  0.00     0.049 A 
ATOM     38  N   UNL A   1      43.679  28.150  29.151  1.00  0.00    -0.248 NA
ATOM     39  C   UNL A   1      42.521  28.421  27.166  1.00  0.00     0.031 C 
ATOM     40  C   UNL A   1      39.265  27.074  30.405  1.00  0.00     0.029 A 
ATOM     41  N   UNL A   1      40.636  28.787  30.646  1.00  0.00    -0.354 N 
ATOM     42  C   UNL A   1      44.382  29.039  28.338  1.00  0.00     0.074 A 
ATOM     43  C   UNL A   1      43.710  29.022  27.064  1.00  0.00     0.031 C 
ATOM     44  C   UNL A   1      38.529  28.077  30.922  1.00  0.00     0.029 A 
ATOM     45  C   UNL A   1      39.398  29.219  31.112  1.00  0.00     0.049 A 
ATOM     46  H   UNL A   1      41.469  29.299  30.768  1.00  0.00     0.167 HD
ATOM     47  C   UNL A   1      45.313  29.898  28.847  1.00  0.00     0.031 A 
ATOM     48  C   UNL A   1      39.087  30.439  31.609  1.00  0.00     0.031 A 
ATOM     49  C   UNL A   1      45.633  29.581  30.216  1.00  0.00     0.049 A 
ATOM     50  C   UNL A   1      40.361  31.051  32.052  1.00  0.00     0.074 A 
ATOM     51  C   UNL A   1      46.133  28.473  30.870  1.00  0.00     0.029 A 
ATOM     52  N   UNL A   1      45.051  30.366  31.186  1.00  0.00    -0.354 N 
ATOM     53  N   UNL A   1      41.089  30.553  33.015  1.00  0.00    -0.248 NA
ATOM     54  C   UNL A   1      41.064  31.946  31.148  1.00  0.00     0.031 C 
ATOM     55  C   UNL A   1      45.406  28.415  32.095  1.00  0.00     0.029 A 
ATOM     56  C   UNL A   1      44.565  29.529  32.158  1.00  0.00     0.049 A 
ATOM     57  H   UNL A   1      44.995  31.349  31.183  1.00  0.00     0.167 HD
ATOM     58  C   UNL A   1      42.398  30.692  32.575  1.00  0.00     0.074 A 
ATOM     59  C   UNL A   1      42.326  31.680  31.501  1.00  0.00     0.031 C 
ATOM     60  C   UNL A   1      43.358  29.780  32.920  1.00  0.00     0.031 A 
BRANCH  47  61
ATOM     61  C   UNL A   1      45.647  31.257  28.265  1.00  0.00    -0.014 A 
ATOM     62  C   UNL A   1      44.681  32.287  28.341  1.00  0.00     0.010 A 
ATOM     63  C   UNL A   1      46.742  31.478  27.407  1.00  0.00     0.010 A 
ATOM     64  C   UNL A   1      44.763  33.429  27.532  1.00  0.00     0.020 A 
ATOM     65  C   UNL A   1      46.857  32.635  26.631  1.00  0.00     0.020 A 
ATOM     66  C   UNL A   1      45.844  33.582  26.665  1.00  0.00     0.054 A 
BRANCH  66  67
ATOM     67  S   UNL A   1      45.876  34.985  25.519  1.00  0.00     0.124 S 
ATOM     68  O   UNL A   1      47.304  35.273  25.444  1.00  0.00    -0.237 OA
ATOM     69  O   UNL A   1      45.277  34.417  24.315  1.00  0.00    -0.237 OA
ATOM     70  O   UNL A   1      45.066  35.995  26.196  1.00  0.00    -0.744 OA
ENDBRANCH  66  67
ENDBRANCH  47  61
BRANCH  48  71
ATOM     71  C   UNL A   1      37.794  31.160  31.531  1.00  0.00    -0.014 A 
ATOM     72  C   UNL A   1      36.851  31.060  32.567  1.00  0.00     0.010 A 
ATOM     73  C   UNL A   1      37.588  32.153  30.549  1.00  0.00     0.010 A 
ATOM     74  C   UNL A   1      35.783  31.967  32.660  1.00  0.00     0.020 A 
ATOM     75  C   UNL A   1      36.518  33.053  30.627  1.00  0.00     0.020 A 
ATOM     76  C   UNL A   1      35.638  32.974  31.702  1.00  0.00     0.054 A 
BRANCH  76  77
ATOM     77  S   UNL A   1      34.386  34.268  31.949  1.00  0.00     0.124 S 
ATOM     78  O   UNL A   1      35.176  35.363  32.504  1.00  0.00    -0.237 OA
ATOM     79  O   UNL A   1      33.875  34.477  30.597  1.00  0.00    -0.237 OA
ATOM     80  O   UNL A   1      33.437  33.653  32.876  1.00  0.00    -0.744 OA
ENDBRANCH  76  77
ENDBRANCH  48  71
BRANCH  60  81
ATOM     81  C   UNL A   1      43.039  28.773  34.008  1.00  0.00    -0.014 A 
ATOM     82  C   UNL A   1      43.475  28.905  35.342  1.00  0.00     0.010 A 
ATOM     83  C   UNL A   1      42.124  27.749  33.708  1.00  0.00     0.010 A 
ATOM     84  C   UNL A   1      43.031  28.025  36.340  1.00  0.00     0.020 A 
ATOM     85  C   UNL A   1      41.661  26.880  34.701  1.00  0.00     0.020 A 
ATOM     86  C   UNL A   1      42.123  27.015  36.011  1.00  0.00     0.054 A 
BRANCH  86  87
ATOM     87  S   UNL A   1      41.508  25.913  37.314  1.00  0.00     0.124 S 
ATOM     88  O   UNL A   1      41.364  24.641  36.611  1.00  0.00    -0.237 OA
ATOM     89  O   UNL A   1      42.573  25.962  38.314  1.00  0.00    -0.237 OA
ATOM     90  O   UNL A   1      40.252  26.536  37.731  1.00  0.00    -0.744 OA
ENDBRANCH  86  87
ENDBRANCH  60  81
ENDBRANCH  34  35
ENDBRANCH  26  29
ENDBRANCH  24  25
ENDBRANCH  23  24
ENDBRANCH   1  23
TORSDOF 18
ENDMDL
MODEL 3
REMARK VINA RESULT:      -9.8      1.528      2.068
REMARK SMILES CC[C@H]([NH3+])C(=O)N(C)c1snc(C)c1C(=O)NCCCNC(=O)c1ccc(-c2c3nc(c(-c4ccc(S(=O)(=O)[O-])cc4)c4ccc([nH]4)c(-c4ccc(S(=O)(=O)[O-])cc4)c4nc(c(-c5ccc(S(=O)(=O)[O-])cc5)c5ccc2[nH]5)C=C4)C=C3)cc1
REMARK SMILES IDX 18 1 17 2 15 3 16 4 14 6 9 7 10 8 11 9 12 10 13 11 7 12 8 13
REMARK SMILES IDX 5 14 6 15 3 16 2 17 1 18 4 19 19 23 20 24 21 25 22 26 23 28
REMARK SMILES IDX 24 29 25 30 83 31 26 32 82 33 27 34 28 35 29 36 76 37 30 38
REMARK SMILES IDX 81 39 75 40 77 41 31 42 80 43 74 44 73 45 32 47 62 48 43 49
REMARK SMILES IDX 61 50 44 51 47 52 60 53 78 54 45 55 46 56 59 58 79 59 48 60
REMARK SMILES IDX 33 61 34 62 42 63 35 64 41 65 36 66 37 67 38 68 39 69 40 70
REMARK SMILES IDX 63 71 64 72 72 73 65 74 71 75 66 76 67 77 68 78 69 79 70 80
REMARK SMILES IDX 49 81 50 82 58 83 51 84 57 85 52 86 53 87 54 88 55 89 56 90
REMARK H PARENT 17 5 4 20 4 21 4 22 21 27 77 46 47 57
REMARK Flexibility Score: inf
ROOT
ATOM      1  C   UNL A   1      35.556  22.804  25.977  1.00  0.00     0.118 C 
ENDROOT
BRANCH   1   2
ATOM      2  N   UNL A   1      34.279  22.178  25.813  1.00  0.00    -0.352 N 
ATOM      3  C   UNL A   1      33.290  22.663  24.991  1.00  0.00     0.256 C 
ATOM      4  O   UNL A   1      32.871  21.890  24.126  1.00  0.00    -0.269 OA
ATOM      5  H   UNL A   1      34.099  21.353  26.319  1.00  0.00     0.163 HD
BRANCH   3   6
ATOM      6  C   UNL A   1      32.530  23.859  25.364  1.00  0.00     0.097 A 
ATOM      7  C   UNL A   1      32.384  25.142  24.813  1.00  0.00     0.131 A 
ATOM      8  S   UNL A   1      31.241  25.989  25.810  1.00  0.00    -0.017 S 
ATOM      9  N   UNL A   1      31.055  24.861  26.961  1.00  0.00    -0.195 NA
ATOM     10  C   UNL A   1      31.795  23.806  26.644  1.00  0.00     0.066 A 
ATOM     11  C   UNL A   1      31.824  22.703  27.660  1.00  0.00     0.069 C 
BRANCH   7  12
ATOM     12  N   UNL A   1      32.836  25.915  23.695  1.00  0.00    -0.300 N 
ATOM     13  C   UNL A   1      33.249  25.224  22.470  1.00  0.00     0.154 C 
BRANCH  12  14
ATOM     14  C   UNL A   1      33.029  27.293  23.843  1.00  0.00     0.285 C 
ATOM     15  O   UNL A   1      34.013  27.745  24.445  1.00  0.00    -0.268 OA
BRANCH  14  16
ATOM     16  C   UNL A   1      31.972  28.329  23.252  1.00  0.00     0.271 C 
BRANCH  16  17
ATOM     17  C   UNL A   1      30.952  28.999  24.203  1.00  0.00     0.072 C 
ATOM     18  C   UNL A   1      31.583  29.908  25.259  1.00  0.00     0.011 C 
ENDBRANCH  16  17
BRANCH  16  19
ATOM     19  N   UNL A   1      31.306  27.780  22.059  1.00  0.00    -0.347 N 
ATOM     20  H   UNL A   1      31.666  26.845  21.870  1.00  0.00     0.345 HD
ATOM     21  H   UNL A   1      31.490  28.384  21.258  1.00  0.00     0.345 HD
ATOM     22  H   UNL A   1      30.300  27.731  22.224  1.00  0.00     0.345 HD
ENDBRANCH  16  19
ENDBRANCH  14  16
ENDBRANCH  12  14
ENDBRANCH   7  12
ENDBRANCH   3   6
ENDBRANCH   1   2
BRANCH   1  23
ATOM     23  C   UNL A   1      36.397  22.864  24.719  1.00  0.00     0.042 C 
BRANCH  23  24
ATOM     24  C   UNL A   1      37.863  23.147  25.049  1.00  0.00     0.118 C 
BRANCH  24  25
ATOM     25  N   UNL A   1      38.442  22.350  26.151  1.00  0.00    -0.352 N 
ATOM     26  C   UNL A   1      39.518  22.635  26.993  1.00  0.00     0.251 C 
ATOM     27  H   UNL A   1      38.001  21.486  26.317  1.00  0.00     0.163 HD
ATOM     28  O   UNL A   1      40.050  21.816  27.678  1.00  0.00    -0.269 OA
BRANCH  26  29
ATOM     29  C   UNL A   1      39.915  24.049  27.040  1.00  0.00     0.039 A 
ATOM     30  C   UNL A   1      38.978  25.078  27.159  1.00  0.00     0.014 A 
ATOM     31  C   UNL A   1      41.264  24.234  27.271  1.00  0.00     0.014 A 
ATOM     32  C   UNL A   1      39.402  26.296  27.686  1.00  0.00     0.010 A 
ATOM     33  C   UNL A   1      41.604  25.327  28.009  1.00  0.00     0.010 A 
ATOM     34  C   UNL A   1      40.713  26.395  28.171  1.00  0.00    -0.014 A 
BRANCH  34  35
ATOM     35  C   UNL A   1      41.180  27.517  28.988  1.00  0.00     0.031 A 
ATOM     36  C   UNL A   1      42.193  28.430  28.378  1.00  0.00     0.074 A 
ATOM     37  C   UNL A   1      40.457  27.901  30.067  1.00  0.00     0.049 A 
ATOM     38  N   UNL A   1      43.357  28.742  28.849  1.00  0.00    -0.248 NA
ATOM     39  C   UNL A   1      41.926  29.014  27.052  1.00  0.00     0.031 C 
ATOM     40  C   UNL A   1      39.242  27.263  30.606  1.00  0.00     0.029 A 
ATOM     41  N   UNL A   1      40.506  29.066  30.763  1.00  0.00    -0.354 N 
ATOM     42  C   UNL A   1      43.878  29.721  28.003  1.00  0.00     0.074 A 
ATOM     43  C   UNL A   1      43.044  29.711  26.829  1.00  0.00     0.031 C 
ATOM     44  C   UNL A   1      38.512  28.180  31.271  1.00  0.00     0.029 A 
ATOM     45  C   UNL A   1      39.313  29.377  31.411  1.00  0.00     0.049 A 
ATOM     46  H   UNL A   1      41.308  29.636  30.805  1.00  0.00     0.167 HD
ATOM     47  C   UNL A   1      44.805  30.627  28.434  1.00  0.00     0.031 A 
ATOM     48  C   UNL A   1      38.985  30.544  32.013  1.00  0.00     0.031 A 
ATOM     49  C   UNL A   1      45.329  30.272  29.729  1.00  0.00     0.049 A 
ATOM     50  C   UNL A   1      40.260  31.233  32.320  1.00  0.00     0.074 A 
ATOM     51  C   UNL A   1      45.991  29.178  30.248  1.00  0.00     0.029 A 
ATOM     52  N   UNL A   1      44.828  30.962  30.810  1.00  0.00    -0.354 N 
ATOM     53  N   UNL A   1      41.145  30.750  33.149  1.00  0.00    -0.248 NA
ATOM     54  C   UNL A   1      40.768  32.222  31.384  1.00  0.00     0.031 C 
ATOM     55  C   UNL A   1      45.441  29.006  31.552  1.00  0.00     0.029 A 
ATOM     56  C   UNL A   1      44.538  30.045  31.788  1.00  0.00     0.049 A 
ATOM     57  H   UNL A   1      44.701  31.937  30.871  1.00  0.00     0.167 HD
ATOM     58  C   UNL A   1      42.369  31.012  32.551  1.00  0.00     0.074 A 
ATOM     59  C   UNL A   1      42.082  32.040  31.553  1.00  0.00     0.031 C 
ATOM     60  C   UNL A   1      43.430  30.164  32.715  1.00  0.00     0.031 A 
BRANCH  47  61
ATOM     61  C   UNL A   1      44.959  32.033  27.892  1.00  0.00    -0.014 A 
ATOM     62  C   UNL A   1      46.236  32.463  27.464  1.00  0.00     0.010 A 
ATOM     63  C   UNL A   1      43.976  33.030  28.049  1.00  0.00     0.010 A 
ATOM     64  C   UNL A   1      46.533  33.823  27.295  1.00  0.00     0.020 A 
ATOM     65  C   UNL A   1      44.250  34.384  27.838  1.00  0.00     0.020 A 
ATOM     66  C   UNL A   1      45.539  34.776  27.506  1.00  0.00     0.054 A 
BRANCH  66  67
ATOM     67  S   UNL A   1      45.959  36.536  27.428  1.00  0.00     0.124 S 
ATOM     68  O   UNL A   1      46.532  36.763  28.750  1.00  0.00    -0.237 OA
ATOM     69  O   UNL A   1      46.899  36.582  26.311  1.00  0.00    -0.237 OA
ATOM     70  O   UNL A   1      44.672  37.183  27.181  1.00  0.00    -0.744 OA
ENDBRANCH  66  67
ENDBRANCH  47  61
BRANCH  48  71
ATOM     71  C   UNL A   1      37.645  31.163  32.146  1.00  0.00    -0.014 A 
ATOM     72  C   UNL A   1      37.231  31.729  33.362  1.00  0.00     0.010 A 
ATOM     73  C   UNL A   1      36.862  31.424  31.000  1.00  0.00     0.010 A 
ATOM     74  C   UNL A   1      36.119  32.586  33.418  1.00  0.00     0.020 A 
ATOM     75  C   UNL A   1      35.745  32.265  31.050  1.00  0.00     0.020 A 
ATOM     76  C   UNL A   1      35.397  32.868  32.256  1.00  0.00     0.054 A 
BRANCH  76  77
ATOM     77  S   UNL A   1      34.099  34.140  32.297  1.00  0.00     0.124 S 
ATOM     78  O   UNL A   1      33.066  33.503  33.108  1.00  0.00    -0.237 OA
ATOM     79  O   UNL A   1      34.784  35.271  32.915  1.00  0.00    -0.237 OA
ATOM     80  O   UNL A   1      33.757  34.324  30.887  1.00  0.00    -0.744 OA
ENDBRANCH  76  77
ENDBRANCH  48  71
BRANCH  60  81
ATOM     81  C   UNL A   1      43.334  29.085  33.776  1.00  0.00    -0.014 A 
ATOM     82  C   UNL A   1      43.954  29.179  35.038  1.00  0.00     0.010 A 
ATOM     83  C   UNL A   1      42.446  28.019  33.551  1.00  0.00     0.010 A 
ATOM     84  C   UNL A   1      43.713  28.222  36.036  1.00  0.00     0.020 A 
ATOM     85  C   UNL A   1      42.186  27.073  34.547  1.00  0.00     0.020 A 
ATOM     86  C   UNL A   1      42.827  27.173  35.782  1.00  0.00     0.054 A 
BRANCH  86  87
ATOM     87  S   UNL A   1      42.476  25.969  37.093  1.00  0.00     0.124 S 
ATOM     88  O   UNL A   1      41.015  25.936  37.109  1.00  0.00    -0.237 OA
ATOM     89  O   UNL A   1      43.127  24.755  36.606  1.00  0.00    -0.237 OA
ATOM     90  O   UNL A   1      43.094  26.557  38.280  1.00  0.00    -0.744 OA
ENDBRANCH  86  87
ENDBRANCH  60  81
ENDBRANCH  34  35
ENDBRANCH  26  29
ENDBRANCH  24  25
ENDBRANCH  23  24
ENDBRANCH   1  23
TORSDOF 18
ENDMDL
