MODEL 1
REMARK VINA RESULT:     -11.9      0.000      0.000
REMARK SMILES O=C(NCCCNC(=O)c1ccc(-c2c3nc(c(-c4ccc(S(=O)(=O)[O-])cc4)c4ccc([nH]4)c(-c4ccc(S(=O)(=O)[O-])cc4)c4nc(c(-c5ccc(S(=O)(=O)[O-])cc5)c5ccc2[nH]5)C=C4)C=C3)cc1)c1ccc(-c2ccc(=O)[nH]c2)cc1
REMARK SMILES IDX 6 1 5 2 4 3 3 4 1 5 2 6 70 8 71 9 82 10 72 11 81 12 73 13
REMARK SMILES IDX 74 14 75 15 80 16 76 17 79 18 77 19 78 21 7 22 8 23 9 25
REMARK SMILES IDX 10 26 11 27 69 28 12 29 68 30 13 31 14 32 15 33 62 34 16 35
REMARK SMILES IDX 67 36 61 37 63 38 17 39 66 40 60 41 59 42 18 44 48 45 29 46
REMARK SMILES IDX 47 47 30 48 33 49 46 50 64 51 31 52 32 53 45 55 65 56 34 57
REMARK SMILES IDX 19 58 20 59 28 60 21 61 27 62 22 63 23 64 24 65 25 66 26 67
REMARK SMILES IDX 49 68 50 69 58 70 51 71 57 72 52 73 53 74 54 75 55 76 56 77
REMARK SMILES IDX 35 78 36 79 44 80 37 81 43 82 38 83 39 84 40 85 41 86 42 87
REMARK H PARENT 3 7 79 20 7 24 63 43 33 54
REMARK Flexibility Score: inf
ROOT
ATOM      1  C   UNL A   1      33.603  28.462  26.885  1.00  0.00     0.118 C 
ENDROOT
BRANCH   1   2
ATOM      2  C   UNL A   1      33.296  28.273  25.408  1.00  0.00     0.042 C 
BRANCH   2   3
ATOM      3  C   UNL A   1      33.653  26.896  24.871  1.00  0.00     0.118 C 
BRANCH   3   4
ATOM      4  N   UNL A   1      33.581  26.819  23.417  1.00  0.00    -0.352 N 
ATOM      5  O   UNL A   1      33.616  25.832  21.385  1.00  0.00    -0.269 OA
ATOM      6  C   UNL A   1      33.520  25.715  22.602  1.00  0.00     0.251 C 
ATOM      7  H   UNL A   1      33.575  27.686  22.950  1.00  0.00     0.163 HD
BRANCH   6   8
ATOM      8  C   UNL A   1      33.354  24.375  23.200  1.00  0.00     0.039 A 
ATOM      9  C   UNL A   1      34.467  23.638  23.608  1.00  0.00     0.014 A 
ATOM     10  C   UNL A   1      32.069  23.846  23.339  1.00  0.00     0.014 A 
ATOM     11  C   UNL A   1      34.304  22.323  24.039  1.00  0.00     0.009 A 
ATOM     12  C   UNL A   1      31.906  22.539  23.809  1.00  0.00     0.009 A 
ATOM     13  C   UNL A   1      33.024  21.756  24.139  1.00  0.00    -0.017 A 
BRANCH  13  14
ATOM     14  C   UNL A   1      32.869  20.347  24.557  1.00  0.00    -0.002 A 
ATOM     15  C   UNL A   1      32.607  19.259  23.622  1.00  0.00     0.016 A 
ATOM     16  C   UNL A   1      33.009  20.037  25.860  1.00  0.00     0.094 A 
ATOM     17  C   UNL A   1      32.517  17.986  24.034  1.00  0.00     0.072 A 
ATOM     18  N   UNL A   1      32.922  18.738  26.296  1.00  0.00    -0.328 N 
ATOM     19  C   UNL A   1      32.685  17.667  25.472  1.00  0.00     0.247 A 
ATOM     20  H   UNL A   1      33.039  18.565  27.257  1.00  0.00     0.169 HD
ATOM     21  O   UNL A   1      32.611  16.516  25.888  1.00  0.00    -0.270 OA
ENDBRANCH  13  14
ENDBRANCH   6   8
ENDBRANCH   3   4
ENDBRANCH   2   3
ENDBRANCH   1   2
BRANCH   1  22
ATOM     22  N   UNL A   1      33.556  29.860  27.299  1.00  0.00    -0.352 N 
ATOM     23  C   UNL A   1      34.468  30.616  27.994  1.00  0.00     0.251 C 
ATOM     24  H   UNL A   1      32.736  30.339  27.037  1.00  0.00     0.163 HD
ATOM     25  O   UNL A   1      34.145  31.730  28.398  1.00  0.00    -0.269 OA
BRANCH  23  26
ATOM     26  C   UNL A   1      35.820  30.088  28.277  1.00  0.00     0.039 A 
ATOM     27  C   UNL A   1      36.796  30.152  27.279  1.00  0.00     0.014 A 
ATOM     28  C   UNL A   1      36.130  29.525  29.517  1.00  0.00     0.014 A 
ATOM     29  C   UNL A   1      38.101  29.731  27.555  1.00  0.00     0.010 A 
ATOM     30  C   UNL A   1      37.447  29.199  29.822  1.00  0.00     0.010 A 
ATOM     31  C   UNL A   1      38.448  29.296  28.845  1.00  0.00    -0.014 A 
BRANCH  31  32
ATOM     32  C   UNL A   1      39.847  28.941  29.198  1.00  0.00     0.031 A 
ATOM     33  C   UNL A   1      40.742  29.957  29.856  1.00  0.00     0.074 A 
ATOM     34  C   UNL A   1      40.336  27.730  28.858  1.00  0.00     0.049 A 
ATOM     35  N   UNL A   1      42.012  29.866  30.157  1.00  0.00    -0.248 NA
ATOM     36  C   UNL A   1      40.137  31.256  30.198  1.00  0.00     0.031 C 
ATOM     37  C   UNL A   1      39.582  26.668  28.187  1.00  0.00     0.029 A 
ATOM     38  N   UNL A   1      41.587  27.190  29.025  1.00  0.00    -0.354 N 
ATOM     39  C   UNL A   1      42.360  31.095  30.706  1.00  0.00     0.074 A 
ATOM     40  C   UNL A   1      41.184  31.933  30.645  1.00  0.00     0.031 C 
ATOM     41  C   UNL A   1      40.376  25.597  28.028  1.00  0.00     0.029 A 
ATOM     42  C   UNL A   1      41.707  25.910  28.538  1.00  0.00     0.049 A 
ATOM     43  H   UNL A   1      42.329  27.675  29.455  1.00  0.00     0.167 HD
ATOM     44  C   UNL A   1      43.544  31.485  31.234  1.00  0.00     0.031 A 
ATOM     45  C   UNL A   1      42.770  25.084  28.493  1.00  0.00     0.031 A 
ATOM     46  C   UNL A   1      44.711  30.645  31.300  1.00  0.00     0.049 A 
ATOM     47  C   UNL A   1      44.085  25.551  29.056  1.00  0.00     0.074 A 
ATOM     48  C   UNL A   1      45.946  30.931  31.858  1.00  0.00     0.029 A 
ATOM     49  N   UNL A   1      44.790  29.356  30.795  1.00  0.00    -0.354 N 
ATOM     50  N   UNL A   1      44.378  26.698  29.622  1.00  0.00    -0.248 NA
ATOM     51  C   UNL A   1      45.211  24.611  28.980  1.00  0.00     0.031 C 
ATOM     52  C   UNL A   1      46.787  29.835  31.640  1.00  0.00     0.029 A 
ATOM     53  C   UNL A   1      46.058  28.843  31.004  1.00  0.00     0.049 A 
ATOM     54  H   UNL A   1      44.052  28.877  30.351  1.00  0.00     0.167 HD
ATOM     55  C   UNL A   1      45.713  26.604  29.998  1.00  0.00     0.074 A 
ATOM     56  C   UNL A   1      46.166  25.284  29.608  1.00  0.00     0.031 C 
ATOM     57  C   UNL A   1      46.494  27.525  30.613  1.00  0.00     0.031 A 
BRANCH  44  58
ATOM     58  C   UNL A   1      43.637  32.885  31.784  1.00  0.00    -0.014 A 
ATOM     59  C   UNL A   1      44.008  33.963  30.960  1.00  0.00     0.010 A 
ATOM     60  C   UNL A   1      43.306  33.134  33.128  1.00  0.00     0.010 A 
ATOM     61  C   UNL A   1      44.091  35.256  31.481  1.00  0.00     0.020 A 
ATOM     62  C   UNL A   1      43.356  34.431  33.646  1.00  0.00     0.020 A 
ATOM     63  C   UNL A   1      43.766  35.482  32.822  1.00  0.00     0.054 A 
BRANCH  63  64
ATOM     64  S   UNL A   1      43.858  37.176  33.462  1.00  0.00     0.124 S 
ATOM     65  O   UNL A   1      45.121  37.152  34.197  1.00  0.00    -0.237 OA
ATOM     66  O   UNL A   1      43.857  37.980  32.243  1.00  0.00    -0.237 OA
ATOM     67  O   UNL A   1      42.660  37.301  34.289  1.00  0.00    -0.744 OA
ENDBRANCH  63  64
ENDBRANCH  44  58
BRANCH  45  68
ATOM     68  C   UNL A   1      42.636  23.723  27.900  1.00  0.00    -0.014 A 
ATOM     69  C   UNL A   1      42.893  23.514  26.534  1.00  0.00     0.010 A 
ATOM     70  C   UNL A   1      42.250  22.630  28.697  1.00  0.00     0.010 A 
ATOM     71  C   UNL A   1      42.745  22.243  25.971  1.00  0.00     0.020 A 
ATOM     72  C   UNL A   1      42.130  21.353  28.145  1.00  0.00     0.020 A 
ATOM     73  C   UNL A   1      42.365  21.170  26.781  1.00  0.00     0.054 A 
BRANCH  73  74
ATOM     74  S   UNL A   1      42.217  19.522  26.036  1.00  0.00     0.124 S 
ATOM     75  O   UNL A   1      43.084  19.639  24.868  1.00  0.00    -0.237 OA
ATOM     76  O   UNL A   1      42.702  18.651  27.102  1.00  0.00    -0.237 OA
ATOM     77  O   UNL A   1      40.789  19.405  25.748  1.00  0.00    -0.744 OA
ENDBRANCH  73  74
ENDBRANCH  45  68
BRANCH  57  78
ATOM     78  C   UNL A   1      47.910  27.132  30.940  1.00  0.00    -0.014 A 
ATOM     79  C   UNL A   1      48.225  26.457  32.133  1.00  0.00     0.010 A 
ATOM     80  C   UNL A   1      48.931  27.383  30.005  1.00  0.00     0.010 A 
ATOM     81  C   UNL A   1      49.540  26.065  32.396  1.00  0.00     0.020 A 
ATOM     82  C   UNL A   1      50.241  26.967  30.251  1.00  0.00     0.020 A 
ATOM     83  C   UNL A   1      50.539  26.321  31.451  1.00  0.00     0.054 A 
BRANCH  83  84
ATOM     84  S   UNL A   1      52.227  25.751  31.793  1.00  0.00     0.124 S 
ATOM     85  O   UNL A   1      52.613  26.598  32.917  1.00  0.00    -0.237 OA
ATOM     86  O   UNL A   1      52.030  24.337  32.109  1.00  0.00    -0.237 OA
ATOM     87  O   UNL A   1      52.940  26.009  30.544  1.00  0.00    -0.744 OA
ENDBRANCH  83  84
ENDBRANCH  57  78
ENDBRANCH  31  32
ENDBRANCH  23  26
ENDBRANCH   1  22
TORSDOF 14
ENDMDL
MODEL 2
REMARK VINA RESULT:     -11.8      3.177      9.755
REMARK SMILES O=C(NCCCNC(=O)c1ccc(-c2c3nc(c(-c4ccc(S(=O)(=O)[O-])cc4)c4ccc([nH]4)c(-c4ccc(S(=O)(=O)[O-])cc4)c4nc(c(-c5ccc(S(=O)(=O)[O-])cc5)c5ccc2[nH]5)C=C4)C=C3)cc1)c1ccc(-c2ccc(=O)[nH]c2)cc1
REMARK SMILES IDX 6 1 5 2 4 3 3 4 1 5 2 6 70 8 71 9 82 10 72 11 81 12 73 13
REMARK SMILES IDX 74 14 75 15 80 16 76 17 79 18 77 19 78 21 7 22 8 23 9 25
REMARK SMILES IDX 10 26 11 27 69 28 12 29 68 30 13 31 14 32 15 33 62 34 16 35
REMARK SMILES IDX 67 36 61 37 63 38 17 39 66 40 60 41 59 42 18 44 48 45 29 46
REMARK SMILES IDX 47 47 30 48 33 49 46 50 64 51 31 52 32 53 45 55 65 56 34 57
REMARK SMILES IDX 19 58 20 59 28 60 21 61 27 62 22 63 23 64 24 65 25 66 26 67
REMARK SMILES IDX 49 68 50 69 58 70 51 71 57 72 52 73 53 74 54 75 55 76 56 77
REMARK SMILES IDX 35 78 36 79 44 80 37 81 43 82 38 83 39 84 40 85 41 86 42 87
REMARK H PARENT 3 7 79 20 7 24 63 43 33 54
REMARK Flexibility Score: inf
ROOT
ATOM      1  C   UNL A   1      36.792  23.721  25.078  1.00  0.00     0.118 C 
ENDROOT
BRANCH   1   2
ATOM      2  C   UNL A   1      35.629  23.685  26.058  1.00  0.00     0.042 C 
BRANCH   2   3
ATOM      3  C   UNL A   1      34.262  23.810  25.403  1.00  0.00     0.118 C 
BRANCH   3   4
ATOM      4  N   UNL A   1      33.170  23.454  26.301  1.00  0.00    -0.352 N 
ATOM      5  O   UNL A   1      31.206  23.712  27.387  1.00  0.00    -0.269 OA
ATOM      6  C   UNL A   1      31.949  24.059  26.475  1.00  0.00     0.251 C 
ATOM      7  H   UNL A   1      33.332  22.664  26.866  1.00  0.00     0.163 HD
BRANCH   6   8
ATOM      8  C   UNL A   1      31.536  25.146  25.565  1.00  0.00     0.039 A 
ATOM      9  C   UNL A   1      31.790  26.479  25.892  1.00  0.00     0.014 A 
ATOM     10  C   UNL A   1      30.875  24.825  24.377  1.00  0.00     0.014 A 
ATOM     11  C   UNL A   1      31.272  27.496  25.093  1.00  0.00     0.009 A 
ATOM     12  C   UNL A   1      30.390  25.849  23.557  1.00  0.00     0.009 A 
ATOM     13  C   UNL A   1      30.562  27.195  23.921  1.00  0.00    -0.017 A 
BRANCH  13  14
ATOM     14  C   UNL A   1      29.981  28.282  23.106  1.00  0.00    -0.002 A 
ATOM     15  C   UNL A   1      28.560  28.607  23.101  1.00  0.00     0.016 A 
ATOM     16  C   UNL A   1      30.803  29.039  22.353  1.00  0.00     0.094 A 
ATOM     17  C   UNL A   1      28.077  29.632  22.382  1.00  0.00     0.072 A 
ATOM     18  N   UNL A   1      30.323  30.092  21.615  1.00  0.00    -0.328 N 
ATOM     19  C   UNL A   1      29.001  30.457  21.569  1.00  0.00     0.247 A 
ATOM     20  H   UNL A   1      30.967  30.617  21.088  1.00  0.00     0.169 HD
ATOM     21  O   UNL A   1      28.599  31.403  20.900  1.00  0.00    -0.270 OA
ENDBRANCH  13  14
ENDBRANCH   6   8
ENDBRANCH   3   4
ENDBRANCH   2   3
ENDBRANCH   1   2
BRANCH   1  22
ATOM     22  N   UNL A   1      37.842  22.765  25.410  1.00  0.00    -0.352 N 
ATOM     23  C   UNL A   1      39.032  22.941  26.073  1.00  0.00     0.251 C 
ATOM     24  H   UNL A   1      37.668  21.843  25.110  1.00  0.00     0.163 HD
ATOM     25  O   UNL A   1      39.857  22.032  26.082  1.00  0.00    -0.269 OA
BRANCH  23  26
ATOM     26  C   UNL A   1      39.333  24.222  26.748  1.00  0.00     0.039 A 
ATOM     27  C   UNL A   1      38.881  24.422  28.055  1.00  0.00     0.014 A 
ATOM     28  C   UNL A   1      40.052  25.229  26.099  1.00  0.00     0.014 A 
ATOM     29  C   UNL A   1      39.224  25.594  28.737  1.00  0.00     0.010 A 
ATOM     30  C   UNL A   1      40.474  26.347  26.810  1.00  0.00     0.010 A 
ATOM     31  C   UNL A   1      40.064  26.545  28.136  1.00  0.00    -0.014 A 
BRANCH  31  32
ATOM     32  C   UNL A   1      40.531  27.749  28.871  1.00  0.00     0.031 A 
ATOM     33  C   UNL A   1      41.886  27.756  29.527  1.00  0.00     0.074 A 
ATOM     34  C   UNL A   1      39.706  28.807  29.012  1.00  0.00     0.049 A 
ATOM     35  N   UNL A   1      42.430  28.673  30.285  1.00  0.00    -0.248 NA
ATOM     36  C   UNL A   1      42.730  26.566  29.327  1.00  0.00     0.031 C 
ATOM     37  C   UNL A   1      38.355  28.912  28.454  1.00  0.00     0.029 A 
ATOM     38  N   UNL A   1      39.881  29.996  29.676  1.00  0.00    -0.354 N 
ATOM     39  C   UNL A   1      43.668  28.166  30.664  1.00  0.00     0.074 A 
ATOM     40  C   UNL A   1      43.771  26.839  30.099  1.00  0.00     0.031 C 
ATOM     41  C   UNL A   1      37.838  30.110  28.773  1.00  0.00     0.029 A 
ATOM     42  C   UNL A   1      38.796  30.838  29.599  1.00  0.00     0.049 A 
ATOM     43  H   UNL A   1      40.706  30.225  30.162  1.00  0.00     0.167 HD
ATOM     44  C   UNL A   1      44.642  28.758  31.395  1.00  0.00     0.031 A 
ATOM     45  C   UNL A   1      38.587  32.054  30.141  1.00  0.00     0.031 A 
ATOM     46  C   UNL A   1      44.539  30.083  31.949  1.00  0.00     0.049 A 
ATOM     47  C   UNL A   1      39.671  32.678  30.978  1.00  0.00     0.074 A 
ATOM     48  C   UNL A   1      45.489  30.790  32.666  1.00  0.00     0.029 A 
ATOM     49  N   UNL A   1      43.424  30.900  31.847  1.00  0.00    -0.354 N 
ATOM     50  N   UNL A   1      40.857  32.204  31.277  1.00  0.00    -0.248 NA
ATOM     51  C   UNL A   1      39.390  34.003  31.546  1.00  0.00     0.031 C 
ATOM     52  C   UNL A   1      44.926  32.013  33.045  1.00  0.00     0.029 A 
ATOM     53  C   UNL A   1      43.651  32.094  32.509  1.00  0.00     0.049 A 
ATOM     54  H   UNL A   1      42.592  30.665  31.374  1.00  0.00     0.167 HD
ATOM     55  C   UNL A   1      41.476  33.187  32.041  1.00  0.00     0.074 A 
ATOM     56  C   UNL A   1      40.539  34.287  32.146  1.00  0.00     0.031 C 
ATOM     57  C   UNL A   1      42.709  33.182  32.603  1.00  0.00     0.031 A 
BRANCH  44  58
ATOM     58  C   UNL A   1      45.905  27.975  31.639  1.00  0.00    -0.014 A 
ATOM     59  C   UNL A   1      46.012  27.094  32.731  1.00  0.00     0.010 A 
ATOM     60  C   UNL A   1      46.984  28.086  30.743  1.00  0.00     0.010 A 
ATOM     61  C   UNL A   1      47.189  26.373  32.947  1.00  0.00     0.020 A 
ATOM     62  C   UNL A   1      48.152  27.344  30.938  1.00  0.00     0.020 A 
ATOM     63  C   UNL A   1      48.253  26.504  32.050  1.00  0.00     0.054 A 
BRANCH  63  64
ATOM     64  S   UNL A   1      49.758  25.537  32.344  1.00  0.00     0.124 S 
ATOM     65  O   UNL A   1      50.086  25.073  30.998  1.00  0.00    -0.237 OA
ATOM     66  O   UNL A   1      50.672  26.528  32.907  1.00  0.00    -0.237 OA
ATOM     67  O   UNL A   1      49.325  24.495  33.272  1.00  0.00    -0.744 OA
ENDBRANCH  63  64
ENDBRANCH  44  58
BRANCH  45  68
ATOM     68  C   UNL A   1      37.302  32.768  29.902  1.00  0.00    -0.014 A 
ATOM     69  C   UNL A   1      36.218  32.594  30.781  1.00  0.00     0.010 A 
ATOM     70  C   UNL A   1      37.154  33.626  28.797  1.00  0.00     0.010 A 
ATOM     71  C   UNL A   1      35.003  33.245  30.546  1.00  0.00     0.020 A 
ATOM     72  C   UNL A   1      35.952  34.303  28.576  1.00  0.00     0.020 A 
ATOM     73  C   UNL A   1      34.878  34.096  29.445  1.00  0.00     0.054 A 
BRANCH  73  74
ATOM     74  S   UNL A   1      33.306  34.962  29.183  1.00  0.00     0.124 S 
ATOM     75  O   UNL A   1      32.736  34.969  30.527  1.00  0.00    -0.237 OA
ATOM     76  O   UNL A   1      33.741  36.258  28.671  1.00  0.00    -0.237 OA
ATOM     77  O   UNL A   1      32.610  34.119  28.212  1.00  0.00    -0.744 OA
ENDBRANCH  73  74
ENDBRANCH  45  68
BRANCH  57  78
ATOM     78  C   UNL A   1      43.138  34.415  33.352  1.00  0.00    -0.014 A 
ATOM     79  C   UNL A   1      42.985  34.514  34.747  1.00  0.00     0.010 A 
ATOM     80  C   UNL A   1      43.767  35.464  32.655  1.00  0.00     0.010 A 
ATOM     81  C   UNL A   1      43.429  35.651  35.426  1.00  0.00     0.020 A 
ATOM     82  C   UNL A   1      44.238  36.589  33.335  1.00  0.00     0.020 A 
ATOM     83  C   UNL A   1      44.055  36.681  34.715  1.00  0.00     0.054 A 
BRANCH  83  84
ATOM     84  S   UNL A   1      44.671  38.120  35.630  1.00  0.00     0.124 S 
ATOM     85  O   UNL A   1      46.109  37.869  35.661  1.00  0.00    -0.237 OA
ATOM     86  O   UNL A   1      44.247  39.239  34.792  1.00  0.00    -0.237 OA
ATOM     87  O   UNL A   1      43.995  38.026  36.922  1.00  0.00    -0.744 OA
ENDBRANCH  83  84
ENDBRANCH  57  78
ENDBRANCH  31  32
ENDBRANCH  23  26
ENDBRANCH   1  22
TORSDOF 14
ENDMDL
MODEL 3
REMARK VINA RESULT:     -11.7      4.014      6.802
REMARK SMILES O=C(NCCCNC(=O)c1ccc(-c2c3nc(c(-c4ccc(S(=O)(=O)[O-])cc4)c4ccc([nH]4)c(-c4ccc(S(=O)(=O)[O-])cc4)c4nc(c(-c5ccc(S(=O)(=O)[O-])cc5)c5ccc2[nH]5)C=C4)C=C3)cc1)c1ccc(-c2ccc(=O)[nH]c2)cc1
REMARK SMILES IDX 6 1 5 2 4 3 3 4 1 5 2 6 70 8 71 9 82 10 72 11 81 12 73 13
REMARK SMILES IDX 74 14 75 15 80 16 76 17 79 18 77 19 78 21 7 22 8 23 9 25
REMARK SMILES IDX 10 26 11 27 69 28 12 29 68 30 13 31 14 32 15 33 62 34 16 35
REMARK SMILES IDX 67 36 61 37 63 38 17 39 66 40 60 41 59 42 18 44 48 45 29 46
REMARK SMILES IDX 47 47 30 48 33 49 46 50 64 51 31 52 32 53 45 55 65 56 34 57
REMARK SMILES IDX 19 58 20 59 28 60 21 61 27 62 22 63 23 64 24 65 25 66 26 67
REMARK SMILES IDX 49 68 50 69 58 70 51 71 57 72 52 73 53 74 54 75 55 76 56 77
REMARK SMILES IDX 35 78 36 79 44 80 37 81 43 82 38 83 39 84 40 85 41 86 42 87
REMARK H PARENT 3 7 79 20 7 24 63 43 33 54
REMARK Flexibility Score: inf
ROOT
ATOM      1  C   UNL A   1      34.500  32.540  28.048  1.00  0.00     0.118 C 
ENDROOT
BRANCH   1   2
ATOM      2  C   UNL A   1      33.482  33.626  28.359  1.00  0.00     0.042 C 
BRANCH   2   3
ATOM      3  C   UNL A   1      34.061  34.832  29.081  1.00  0.00     0.118 C 
BRANCH   3   4
ATOM      4  N   UNL A   1      33.340  35.158  30.306  1.00  0.00    -0.352 N 
ATOM      5  O   UNL A   1      32.761  34.989  32.483  1.00  0.00    -0.269 OA
ATOM      6  C   UNL A   1      33.563  34.731  31.592  1.00  0.00     0.251 C 
ATOM      7  H   UNL A   1      32.581  35.776  30.194  1.00  0.00     0.163 HD
BRANCH   6   8
ATOM      8  C   UNL A   1      34.772  33.940  31.898  1.00  0.00     0.039 A 
ATOM      9  C   UNL A   1      34.759  32.549  31.778  1.00  0.00     0.014 A 
ATOM     10  C   UNL A   1      35.927  34.599  32.325  1.00  0.00     0.014 A 
ATOM     11  C   UNL A   1      35.859  31.809  32.204  1.00  0.00     0.009 A 
ATOM     12  C   UNL A   1      37.045  33.854  32.715  1.00  0.00     0.009 A 
ATOM     13  C   UNL A   1      37.012  32.451  32.682  1.00  0.00    -0.017 A 
BRANCH  13  14
ATOM     14  C   UNL A   1      38.156  31.653  33.171  1.00  0.00    -0.002 A 
ATOM     15  C   UNL A   1      39.393  32.246  33.665  1.00  0.00     0.016 A 
ATOM     16  C   UNL A   1      38.046  30.311  33.199  1.00  0.00     0.094 A 
ATOM     17  C   UNL A   1      40.392  31.489  34.143  1.00  0.00     0.072 A 
ATOM     18  N   UNL A   1      39.059  29.524  33.688  1.00  0.00    -0.328 N 
ATOM     19  C   UNL A   1      40.245  30.015  34.173  1.00  0.00     0.247 A 
ATOM     20  H   UNL A   1      38.925  28.549  33.692  1.00  0.00     0.169 HD
ATOM     21  O   UNL A   1      41.135  29.289  34.603  1.00  0.00    -0.270 OA
ENDBRANCH  13  14
ENDBRANCH   6   8
ENDBRANCH   3   4
ENDBRANCH   2   3
ENDBRANCH   1   2
BRANCH   1  22
ATOM     22  N   UNL A   1      33.892  31.226  27.876  1.00  0.00    -0.352 N 
ATOM     23  C   UNL A   1      34.460  29.975  27.858  1.00  0.00     0.251 C 
ATOM     24  H   UNL A   1      32.915  31.238  27.753  1.00  0.00     0.163 HD
ATOM     25  O   UNL A   1      33.783  29.011  27.512  1.00  0.00    -0.269 OA
BRANCH  23  26
ATOM     26  C   UNL A   1      35.881  29.791  28.225  1.00  0.00     0.039 A 
ATOM     27  C   UNL A   1      36.199  29.382  29.523  1.00  0.00     0.014 A 
ATOM     28  C   UNL A   1      36.902  30.024  27.300  1.00  0.00     0.014 A 
ATOM     29  C   UNL A   1      37.530  29.125  29.864  1.00  0.00     0.010 A 
ATOM     30  C   UNL A   1      38.212  29.675  27.611  1.00  0.00     0.010 A 
ATOM     31  C   UNL A   1      38.542  29.224  28.896  1.00  0.00    -0.014 A 
BRANCH  31  32
ATOM     32  C   UNL A   1      39.950  28.858  29.200  1.00  0.00     0.031 A 
ATOM     33  C   UNL A   1      40.876  29.868  29.826  1.00  0.00     0.074 A 
ATOM     34  C   UNL A   1      40.418  27.644  28.843  1.00  0.00     0.049 A 
ATOM     35  N   UNL A   1      42.155  29.767  30.082  1.00  0.00    -0.248 NA
ATOM     36  C   UNL A   1      40.293  31.171  30.189  1.00  0.00     0.031 C 
ATOM     37  C   UNL A   1      39.633  26.588  28.199  1.00  0.00     0.029 A 
ATOM     38  N   UNL A   1      41.670  27.095  28.966  1.00  0.00    -0.354 N 
ATOM     39  C   UNL A   1      42.532  30.993  30.618  1.00  0.00     0.074 A 
ATOM     40  C   UNL A   1      41.360  31.841  30.599  1.00  0.00     0.031 C 
ATOM     41  C   UNL A   1      40.413  25.511  28.012  1.00  0.00     0.029 A 
ATOM     42  C   UNL A   1      41.763  25.814  28.474  1.00  0.00     0.049 A 
ATOM     43  H   UNL A   1      42.430  27.574  29.369  1.00  0.00     0.167 HD
ATOM     44  C   UNL A   1      43.737  31.374  31.104  1.00  0.00     0.031 A 
ATOM     45  C   UNL A   1      42.818  24.980  28.392  1.00  0.00     0.031 A 
ATOM     46  C   UNL A   1      44.899  30.526  31.129  1.00  0.00     0.049 A 
ATOM     47  C   UNL A   1      44.155  25.437  28.909  1.00  0.00     0.074 A 
ATOM     48  C   UNL A   1      46.154  30.803  31.642  1.00  0.00     0.029 A 
ATOM     49  N   UNL A   1      44.950  29.236  30.621  1.00  0.00    -0.354 N 
ATOM     50  N   UNL A   1      44.477  26.582  29.464  1.00  0.00    -0.248 NA
ATOM     51  C   UNL A   1      45.271  24.489  28.793  1.00  0.00     0.031 C 
ATOM     52  C   UNL A   1      46.979  29.701  31.395  1.00  0.00     0.029 A 
ATOM     53  C   UNL A   1      46.221  28.714  30.785  1.00  0.00     0.049 A 
ATOM     54  H   UNL A   1      44.194  28.763  30.204  1.00  0.00     0.167 HD
ATOM     55  C   UNL A   1      45.824  26.477  29.792  1.00  0.00     0.074 A 
ATOM     56  C   UNL A   1      46.253  25.155  29.386  1.00  0.00     0.031 C 
ATOM     57  C   UNL A   1      46.633  27.393  30.379  1.00  0.00     0.031 A 
BRANCH  44  58
ATOM     58  C   UNL A   1      43.859  32.774  31.650  1.00  0.00    -0.014 A 
ATOM     59  C   UNL A   1      43.605  33.047  33.006  1.00  0.00     0.010 A 
ATOM     60  C   UNL A   1      44.274  33.821  30.807  1.00  0.00     0.010 A 
ATOM     61  C   UNL A   1      43.721  34.348  33.500  1.00  0.00     0.020 A 
ATOM     62  C   UNL A   1      44.421  35.119  31.305  1.00  0.00     0.020 A 
ATOM     63  C   UNL A   1      44.127  35.377  32.645  1.00  0.00     0.054 A 
BRANCH  63  64
ATOM     64  S   UNL A   1      44.292  37.051  33.322  1.00  0.00     0.124 S 
ATOM     65  O   UNL A   1      43.015  37.225  34.010  1.00  0.00    -0.237 OA
ATOM     66  O   UNL A   1      45.461  36.933  34.190  1.00  0.00    -0.237 OA
ATOM     67  O   UNL A   1      44.479  37.888  32.139  1.00  0.00    -0.744 OA
ENDBRANCH  63  64
ENDBRANCH  44  58
BRANCH  45  68
ATOM     68  C   UNL A   1      42.653  23.621  27.805  1.00  0.00    -0.014 A 
ATOM     69  C   UNL A   1      42.295  22.532  28.620  1.00  0.00     0.010 A 
ATOM     70  C   UNL A   1      42.850  23.407  26.429  1.00  0.00     0.010 A 
ATOM     71  C   UNL A   1      42.163  21.252  28.075  1.00  0.00     0.020 A 
ATOM     72  C   UNL A   1      42.688  22.135  25.874  1.00  0.00     0.020 A 
ATOM     73  C   UNL A   1      42.360  21.061  26.704  1.00  0.00     0.054 A 
BRANCH  73  74
ATOM     74  S   UNL A   1      42.143  19.398  26.012  1.00  0.00     0.124 S 
ATOM     75  O   UNL A   1      40.702  19.352  25.782  1.00  0.00    -0.237 OA
ATOM     76  O   UNL A   1      42.975  19.445  24.815  1.00  0.00    -0.237 OA
ATOM     77  O   UNL A   1      42.637  18.521  27.072  1.00  0.00    -0.744 OA
ENDBRANCH  73  74
ENDBRANCH  45  68
BRANCH  57  78
ATOM     78  C   UNL A   1      48.056  26.989  30.656  1.00  0.00    -0.014 A 
ATOM     79  C   UNL A   1      49.085  27.260  29.736  1.00  0.00     0.010 A 
ATOM     80  C   UNL A   1      48.378  26.389  31.888  1.00  0.00     0.010 A 
ATOM     81  C   UNL A   1      50.406  26.913  30.032  1.00  0.00     0.020 A 
ATOM     82  C   UNL A   1      49.701  26.067  32.199  1.00  0.00     0.020 A 
ATOM     83  C   UNL A   1      50.705  26.320  31.264  1.00  0.00     0.054 A 
BRANCH  83  84
ATOM     84  S   UNL A   1      52.435  25.932  31.645  1.00  0.00     0.124 S 
ATOM     85  O   UNL A   1      52.341  24.554  32.120  1.00  0.00    -0.237 OA
ATOM     86  O   UNL A   1      53.096  26.108  30.353  1.00  0.00    -0.237 OA
ATOM     87  O   UNL A   1      52.796  26.918  32.661  1.00  0.00    -0.744 OA
ENDBRANCH  83  84
ENDBRANCH  57  78
ENDBRANCH  31  32
ENDBRANCH  23  26
ENDBRANCH   1  22
TORSDOF 14
ENDMDL
