MODEL 1
REMARK VINA RESULT:     -11.8      0.000      0.000
REMARK SMILES O=C(NCCCNC(=O)c1cn(C[C@@H]2CCS(=O)(=O)C2)c(=O)[nH]c1=O)c1ccc(-c2c3nc(c(-c4ccc(S(=O)(=O)[O-])cc4)c4ccc([nH]4)c(-c4ccc(S(=O)(=O)[O-])cc4)c4nc(c(-c5ccc(S(=O)(=O)[O-])cc5)c5ccc2[nH]5)C=C4)C=C3)cc1
REMARK SMILES IDX 4 1 3 2 1 3 2 4 26 6 27 7 85 8 28 9 84 10 29 11 30 12 31 13
REMARK SMILES IDX 78 14 32 15 83 16 77 17 79 18 33 19 82 20 76 21 75 22 34 24
REMARK SMILES IDX 64 25 45 26 63 27 46 28 49 29 62 30 80 31 47 32 48 33 61 35
REMARK SMILES IDX 81 36 50 37 35 38 36 39 44 40 37 41 43 42 38 43 39 44 40 45
REMARK SMILES IDX 41 46 42 47 65 48 66 49 74 50 67 51 73 52 68 53 69 54 70 55
REMARK SMILES IDX 71 56 72 57 51 58 52 59 60 60 53 61 59 62 54 63 55 64 56 65
REMARK SMILES IDX 57 66 58 67 5 68 6 69 7 70 8 71 9 73 10 74 11 75 24 76 12 77
REMARK SMILES IDX 23 78 25 79 21 80 22 82 13 83 14 84 15 85 20 86 16 87 17 88
REMARK SMILES IDX 18 89 19 90
REMARK H PARENT 3 5 79 23 49 34 7 72 23 81
REMARK Flexibility Score: inf
ROOT
ATOM      1  C   UNL A   1      33.500  28.368  26.972  1.00  0.00     0.118 C 
ENDROOT
BRANCH   1   2
ATOM      2  N   UNL A   1      33.399  29.786  27.299  1.00  0.00    -0.352 N 
ATOM      3  O   UNL A   1      33.868  31.728  28.318  1.00  0.00    -0.269 OA
ATOM      4  C   UNL A   1      34.262  30.617  27.967  1.00  0.00     0.251 C 
ATOM      5  H   UNL A   1      32.572  30.220  26.987  1.00  0.00     0.163 HD
BRANCH   4   6
ATOM      6  C   UNL A   1      35.642  30.186  28.271  1.00  0.00     0.039 A 
ATOM      7  C   UNL A   1      36.614  30.257  27.270  1.00  0.00     0.014 A 
ATOM      8  C   UNL A   1      35.977  29.676  29.528  1.00  0.00     0.014 A 
ATOM      9  C   UNL A   1      37.921  29.853  27.548  1.00  0.00     0.010 A 
ATOM     10  C   UNL A   1      37.302  29.406  29.841  1.00  0.00     0.010 A 
ATOM     11  C   UNL A   1      38.283  29.448  28.845  1.00  0.00    -0.014 A 
BRANCH  11  12
ATOM     12  C   UNL A   1      39.665  29.008  29.158  1.00  0.00     0.031 A 
ATOM     13  C   UNL A   1      40.592  29.918  29.924  1.00  0.00     0.074 A 
ATOM     14  C   UNL A   1      40.094  27.803  28.739  1.00  0.00     0.049 A 
ATOM     15  N   UNL A   1      41.826  29.703  30.303  1.00  0.00    -0.248 NA
ATOM     16  C   UNL A   1      40.082  31.252  30.288  1.00  0.00     0.031 C 
ATOM     17  C   UNL A   1      39.308  26.858  27.943  1.00  0.00     0.029 A 
ATOM     18  N   UNL A   1      41.289  27.156  28.937  1.00  0.00    -0.354 N 
ATOM     19  C   UNL A   1      42.229  30.867  30.946  1.00  0.00     0.074 A 
ATOM     20  C   UNL A   1      41.152  31.819  30.820  1.00  0.00     0.031 C 
ATOM     21  C   UNL A   1      40.015  25.732  27.775  1.00  0.00     0.029 A 
ATOM     22  C   UNL A   1      41.322  25.887  28.407  1.00  0.00     0.049 A 
ATOM     23  H   UNL A   1      42.049  27.562  29.413  1.00  0.00     0.167 HD
ATOM     24  C   UNL A   1      43.373  31.107  31.629  1.00  0.00     0.031 A 
ATOM     25  C   UNL A   1      42.287  24.947  28.438  1.00  0.00     0.031 A 
ATOM     26  C   UNL A   1      44.436  30.146  31.766  1.00  0.00     0.049 A 
ATOM     27  C   UNL A   1      43.556  25.232  29.191  1.00  0.00     0.074 A 
ATOM     28  C   UNL A   1      45.621  30.273  32.466  1.00  0.00     0.029 A 
ATOM     29  N   UNL A   1      44.438  28.878  31.200  1.00  0.00    -0.354 N 
ATOM     30  N   UNL A   1      43.894  26.316  29.849  1.00  0.00    -0.248 NA
ATOM     31  C   UNL A   1      44.564  24.165  29.224  1.00  0.00     0.031 C 
ATOM     32  C   UNL A   1      46.371  29.111  32.264  1.00  0.00     0.029 A 
ATOM     33  C   UNL A   1      45.619  28.224  31.509  1.00  0.00     0.049 A 
ATOM     34  H   UNL A   1      43.706  28.500  30.660  1.00  0.00     0.167 HD
ATOM     35  C   UNL A   1      45.156  26.063  30.376  1.00  0.00     0.074 A 
ATOM     36  C   UNL A   1      45.498  24.707  29.995  1.00  0.00     0.031 C 
ATOM     37  C   UNL A   1      45.961  26.883  31.098  1.00  0.00     0.031 A 
BRANCH  24  38
ATOM     38  C   UNL A   1      43.519  32.444  32.315  1.00  0.00    -0.014 A 
ATOM     39  C   UNL A   1      43.060  32.620  33.632  1.00  0.00     0.010 A 
ATOM     40  C   UNL A   1      44.039  33.556  31.622  1.00  0.00     0.010 A 
ATOM     41  C   UNL A   1      43.092  33.882  34.234  1.00  0.00     0.020 A 
ATOM     42  C   UNL A   1      44.111  34.810  32.233  1.00  0.00     0.020 A 
ATOM     43  C   UNL A   1      43.612  34.970  33.527  1.00  0.00     0.054 A 
BRANCH  43  44
ATOM     44  S   UNL A   1      43.627  36.603  34.316  1.00  0.00     0.124 S 
ATOM     45  O   UNL A   1      42.255  36.723  34.800  1.00  0.00    -0.237 OA
ATOM     46  O   UNL A   1      44.650  36.450  35.347  1.00  0.00    -0.237 OA
ATOM     47  O   UNL A   1      43.986  37.507  33.225  1.00  0.00    -0.744 OA
ENDBRANCH  43  44
ENDBRANCH  24  38
BRANCH  25  48
ATOM     48  C   UNL A   1      42.029  23.633  27.784  1.00  0.00    -0.014 A 
ATOM     49  C   UNL A   1      41.586  22.534  28.546  1.00  0.00     0.010 A 
ATOM     50  C   UNL A   1      42.353  23.435  26.431  1.00  0.00     0.010 A 
ATOM     51  C   UNL A   1      41.555  21.252  27.993  1.00  0.00     0.020 A 
ATOM     52  C   UNL A   1      42.289  22.158  25.863  1.00  0.00     0.020 A 
ATOM     53  C   UNL A   1      41.930  21.069  26.660  1.00  0.00     0.054 A 
BRANCH  53  54
ATOM     54  S   UNL A   1      41.996  19.380  26.000  1.00  0.00     0.124 S 
ATOM     55  O   UNL A   1      42.499  18.632  27.150  1.00  0.00    -0.237 OA
ATOM     56  O   UNL A   1      40.604  19.123  25.643  1.00  0.00    -0.237 OA
ATOM     57  O   UNL A   1      42.919  19.486  24.873  1.00  0.00    -0.744 OA
ENDBRANCH  53  54
ENDBRANCH  25  48
BRANCH  37  58
ATOM     58  C   UNL A   1      47.318  26.361  31.498  1.00  0.00    -0.014 A 
ATOM     59  C   UNL A   1      48.386  26.387  30.581  1.00  0.00     0.010 A 
ATOM     60  C   UNL A   1      47.510  25.749  32.751  1.00  0.00     0.010 A 
ATOM     61  C   UNL A   1      49.609  25.790  30.897  1.00  0.00     0.020 A 
ATOM     62  C   UNL A   1      48.745  25.187  33.086  1.00  0.00     0.020 A 
ATOM     63  C   UNL A   1      49.779  25.190  32.147  1.00  0.00     0.054 A 
BRANCH  63  64
ATOM     64  S   UNL A   1      51.374  24.421  32.540  1.00  0.00     0.124 S 
ATOM     65  O   UNL A   1      52.295  25.173  31.693  1.00  0.00    -0.237 OA
ATOM     66  O   UNL A   1      51.500  24.662  33.976  1.00  0.00    -0.237 OA
ATOM     67  O   UNL A   1      51.181  23.022  32.166  1.00  0.00    -0.744 OA
ENDBRANCH  63  64
ENDBRANCH  37  58
ENDBRANCH  11  12
ENDBRANCH   4   6
ENDBRANCH   1   2
BRANCH   1  68
ATOM     68  C   UNL A   1      33.369  28.104  25.484  1.00  0.00     0.042 C 
BRANCH  68  69
ATOM     69  C   UNL A   1      33.616  26.655  25.106  1.00  0.00     0.118 C 
BRANCH  69  70
ATOM     70  N   UNL A   1      33.940  26.466  23.695  1.00  0.00    -0.352 N 
ATOM     71  C   UNL A   1      33.122  26.220  22.619  1.00  0.00     0.258 C 
ATOM     72  H   UNL A   1      34.898  26.524  23.480  1.00  0.00     0.163 HD
ATOM     73  O   UNL A   1      33.606  26.092  21.501  1.00  0.00    -0.269 OA
BRANCH  71  74
ATOM     74  C   UNL A   1      31.674  26.109  22.872  1.00  0.00     0.121 A 
ATOM     75  C   UNL A   1      30.881  27.146  22.565  1.00  0.00     0.110 A 
ATOM     76  C   UNL A   1      31.073  24.942  23.539  1.00  0.00     0.266 A 
ATOM     77  N   UNL A   1      29.593  27.260  23.057  1.00  0.00    -0.299 N 
ATOM     78  N   UNL A   1      29.787  25.119  23.973  1.00  0.00    -0.273 N 
ATOM     79  O   UNL A   1      31.677  23.899  23.754  1.00  0.00    -0.268 OA
ATOM     80  C   UNL A   1      29.044  26.261  23.858  1.00  0.00     0.328 A 
ATOM     81  H   UNL A   1      29.355  24.350  24.412  1.00  0.00     0.175 HD
ATOM     82  O   UNL A   1      27.958  26.361  24.423  1.00  0.00    -0.248 OA
BRANCH  77  83
ATOM     83  C   UNL A   1      28.894  28.536  22.919  1.00  0.00     0.131 C 
BRANCH  83  84
ATOM     84  C   UNL A   1      29.754  29.773  22.610  1.00  0.00     0.025 C 
ATOM     85  C   UNL A   1      30.414  30.445  23.822  1.00  0.00     0.022 C 
ATOM     86  C   UNL A   1      29.026  30.880  21.845  1.00  0.00     0.142 C 
ATOM     87  C   UNL A   1      29.456  31.471  24.415  1.00  0.00     0.137 C 
ATOM     88  S   UNL A   1      28.476  32.070  23.054  1.00  0.00     0.150 S 
ATOM     89  O   UNL A   1      27.075  31.829  23.341  1.00  0.00    -0.229 OA
ATOM     90  O   UNL A   1      28.964  33.374  22.666  1.00  0.00    -0.229 OA
ENDBRANCH  83  84
ENDBRANCH  77  83
ENDBRANCH  71  74
ENDBRANCH  69  70
ENDBRANCH  68  69
ENDBRANCH   1  68
TORSDOF 15
ENDMDL
MODEL 2
REMARK VINA RESULT:     -11.7      3.475     10.222
REMARK SMILES O=C(NCCCNC(=O)c1cn(C[C@@H]2CCS(=O)(=O)C2)c(=O)[nH]c1=O)c1ccc(-c2c3nc(c(-c4ccc(S(=O)(=O)[O-])cc4)c4ccc([nH]4)c(-c4ccc(S(=O)(=O)[O-])cc4)c4nc(c(-c5ccc(S(=O)(=O)[O-])cc5)c5ccc2[nH]5)C=C4)C=C3)cc1
REMARK SMILES IDX 4 1 3 2 1 3 2 4 26 6 27 7 85 8 28 9 84 10 29 11 30 12 31 13
REMARK SMILES IDX 78 14 32 15 83 16 77 17 79 18 33 19 82 20 76 21 75 22 34 24
REMARK SMILES IDX 64 25 45 26 63 27 46 28 49 29 62 30 80 31 47 32 48 33 61 35
REMARK SMILES IDX 81 36 50 37 35 38 36 39 44 40 37 41 43 42 38 43 39 44 40 45
REMARK SMILES IDX 41 46 42 47 65 48 66 49 74 50 67 51 73 52 68 53 69 54 70 55
REMARK SMILES IDX 71 56 72 57 51 58 52 59 60 60 53 61 59 62 54 63 55 64 56 65
REMARK SMILES IDX 57 66 58 67 5 68 6 69 7 70 8 71 9 73 10 74 11 75 24 76 12 77
REMARK SMILES IDX 23 78 25 79 21 80 22 82 13 83 14 84 15 85 20 86 16 87 17 88
REMARK SMILES IDX 18 89 19 90
REMARK H PARENT 3 5 79 23 49 34 7 72 23 81
REMARK Flexibility Score: inf
ROOT
ATOM      1  C   UNL A   1      36.799  23.602  25.448  1.00  0.00     0.118 C 
ENDROOT
BRANCH   1   2
ATOM      2  N   UNL A   1      37.881  22.644  25.654  1.00  0.00    -0.352 N 
ATOM      3  O   UNL A   1      39.965  21.903  26.018  1.00  0.00    -0.269 OA
ATOM      4  C   UNL A   1      39.153  22.817  26.139  1.00  0.00     0.251 C 
ATOM      5  H   UNL A   1      37.661  21.718  25.402  1.00  0.00     0.163 HD
BRANCH   4   6
ATOM      6  C   UNL A   1      39.546  24.084  26.790  1.00  0.00     0.039 A 
ATOM      7  C   UNL A   1      40.192  25.066  26.035  1.00  0.00     0.014 A 
ATOM      8  C   UNL A   1      39.317  24.296  28.152  1.00  0.00     0.014 A 
ATOM      9  C   UNL A   1      40.567  26.267  26.641  1.00  0.00     0.010 A 
ATOM     10  C   UNL A   1      39.565  25.539  28.716  1.00  0.00     0.010 A 
ATOM     11  C   UNL A   1      40.233  26.524  27.982  1.00  0.00    -0.014 A 
BRANCH  11  12
ATOM     12  C   UNL A   1      40.629  27.791  28.646  1.00  0.00     0.031 A 
ATOM     13  C   UNL A   1      42.044  27.979  29.131  1.00  0.00     0.074 A 
ATOM     14  C   UNL A   1      39.716  28.764  28.828  1.00  0.00     0.049 A 
ATOM     15  N   UNL A   1      42.580  29.018  29.719  1.00  0.00    -0.248 NA
ATOM     16  C   UNL A   1      42.972  26.846  28.966  1.00  0.00     0.031 C 
ATOM     17  C   UNL A   1      38.305  28.677  28.449  1.00  0.00     0.029 A 
ATOM     18  N   UNL A   1      39.840  30.023  29.360  1.00  0.00    -0.354 N 
ATOM     19  C   UNL A   1      43.897  28.662  29.985  1.00  0.00     0.074 A 
ATOM     20  C   UNL A   1      44.054  27.283  29.590  1.00  0.00     0.031 C 
ATOM     21  C   UNL A   1      37.710  29.851  28.703  1.00  0.00     0.029 A 
ATOM     22  C   UNL A   1      38.681  30.761  29.306  1.00  0.00     0.049 A 
ATOM     23  H   UNL A   1      40.680  30.366  29.745  1.00  0.00     0.167 HD
ATOM     24  C   UNL A   1      44.902  29.429  30.466  1.00  0.00     0.031 A 
ATOM     25  C   UNL A   1      38.427  32.029  29.682  1.00  0.00     0.031 A 
ATOM     26  C   UNL A   1      44.743  30.810  30.841  1.00  0.00     0.049 A 
ATOM     27  C   UNL A   1      39.552  32.866  30.224  1.00  0.00     0.074 A 
ATOM     28  C   UNL A   1      45.704  31.688  31.305  1.00  0.00     0.029 A 
ATOM     29  N   UNL A   1      43.548  31.514  30.786  1.00  0.00    -0.354 N 
ATOM     30  N   UNL A   1      40.808  32.532  30.409  1.00  0.00    -0.248 NA
ATOM     31  C   UNL A   1      39.235  34.251  30.590  1.00  0.00     0.031 C 
ATOM     32  C   UNL A   1      45.077  32.902  31.598  1.00  0.00     0.029 A 
ATOM     33  C   UNL A   1      43.742  32.809  31.238  1.00  0.00     0.049 A 
ATOM     34  H   UNL A   1      42.690  31.148  30.471  1.00  0.00     0.167 HD
ATOM     35  C   UNL A   1      41.433  33.666  30.913  1.00  0.00     0.074 A 
ATOM     36  C   UNL A   1      40.425  34.707  30.961  1.00  0.00     0.031 C 
ATOM     37  C   UNL A   1      42.721  33.828  31.310  1.00  0.00     0.031 A 
BRANCH  24  38
ATOM     38  C   UNL A   1      46.274  28.807  30.576  1.00  0.00    -0.014 A 
ATOM     39  C   UNL A   1      47.142  28.805  29.470  1.00  0.00     0.010 A 
ATOM     40  C   UNL A   1      46.674  28.149  31.755  1.00  0.00     0.010 A 
ATOM     41  C   UNL A   1      48.370  28.136  29.531  1.00  0.00     0.020 A 
ATOM     42  C   UNL A   1      47.915  27.513  31.834  1.00  0.00     0.020 A 
ATOM     43  C   UNL A   1      48.744  27.489  30.712  1.00  0.00     0.054 A 
BRANCH  43  44
ATOM     44  S   UNL A   1      50.330  26.609  30.765  1.00  0.00     0.124 S 
ATOM     45  O   UNL A   1      50.648  26.636  32.189  1.00  0.00    -0.237 OA
ATOM     46  O   UNL A   1      49.986  25.300  30.218  1.00  0.00    -0.237 OA
ATOM     47  O   UNL A   1      51.199  27.420  29.915  1.00  0.00    -0.744 OA
ENDBRANCH  43  44
ENDBRANCH  24  38
BRANCH  25  48
ATOM     48  C   UNL A   1      37.056  32.577  29.479  1.00  0.00    -0.014 A 
ATOM     49  C   UNL A   1      36.698  33.162  28.248  1.00  0.00     0.010 A 
ATOM     50  C   UNL A   1      36.150  32.643  30.551  1.00  0.00     0.010 A 
ATOM     51  C   UNL A   1      35.503  33.872  28.120  1.00  0.00     0.020 A 
ATOM     52  C   UNL A   1      34.935  33.323  30.416  1.00  0.00     0.020 A 
ATOM     53  C   UNL A   1      34.639  33.968  29.213  1.00  0.00     0.054 A 
BRANCH  53  54
ATOM     54  S   UNL A   1      33.152  34.995  29.057  1.00  0.00     0.124 S 
ATOM     55  O   UNL A   1      32.395  34.270  28.039  1.00  0.00    -0.237 OA
ATOM     56  O   UNL A   1      32.592  34.952  30.405  1.00  0.00    -0.237 OA
ATOM     57  O   UNL A   1      33.672  36.294  28.640  1.00  0.00    -0.744 OA
ENDBRANCH  53  54
ENDBRANCH  25  48
BRANCH  37  58
ATOM     58  C   UNL A   1      43.119  35.168  31.875  1.00  0.00    -0.014 A 
ATOM     59  C   UNL A   1      42.799  35.500  33.206  1.00  0.00     0.010 A 
ATOM     60  C   UNL A   1      43.721  36.142  31.056  1.00  0.00     0.010 A 
ATOM     61  C   UNL A   1      43.048  36.783  33.698  1.00  0.00     0.020 A 
ATOM     62  C   UNL A   1      44.008  37.414  31.557  1.00  0.00     0.020 A 
ATOM     63  C   UNL A   1      43.648  37.734  32.869  1.00  0.00     0.054 A 
BRANCH  63  64
ATOM     64  S   UNL A   1      43.965  39.394  33.526  1.00  0.00     0.124 S 
ATOM     65  O   UNL A   1      44.782  39.991  32.474  1.00  0.00    -0.237 OA
ATOM     66  O   UNL A   1      42.618  39.945  33.666  1.00  0.00    -0.237 OA
ATOM     67  O   UNL A   1      44.658  39.138  34.787  1.00  0.00    -0.744 OA
ENDBRANCH  63  64
ENDBRANCH  37  58
ENDBRANCH  11  12
ENDBRANCH   4   6
ENDBRANCH   1   2
BRANCH   1  68
ATOM     68  C   UNL A   1      35.479  23.119  26.020  1.00  0.00     0.042 C 
BRANCH  68  69
ATOM     69  C   UNL A   1      34.336  24.091  25.797  1.00  0.00     0.118 C 
BRANCH  69  70
ATOM     70  N   UNL A   1      33.227  23.913  26.730  1.00  0.00    -0.352 N 
ATOM     71  C   UNL A   1      32.008  23.302  26.557  1.00  0.00     0.258 C 
ATOM     72  H   UNL A   1      33.376  24.291  27.626  1.00  0.00     0.163 HD
ATOM     73  O   UNL A   1      31.209  23.262  27.486  1.00  0.00    -0.269 OA
BRANCH  71  74
ATOM     74  C   UNL A   1      31.715  22.724  25.234  1.00  0.00     0.121 A 
ATOM     75  C   UNL A   1      31.949  21.420  25.030  1.00  0.00     0.110 A 
ATOM     76  C   UNL A   1      31.264  23.541  24.095  1.00  0.00     0.266 A 
ATOM     77  N   UNL A   1      32.015  20.872  23.761  1.00  0.00    -0.299 N 
ATOM     78  N   UNL A   1      31.331  22.923  22.874  1.00  0.00    -0.273 N 
ATOM     79  O   UNL A   1      30.908  24.708  24.196  1.00  0.00    -0.268 OA
ATOM     80  C   UNL A   1      31.783  21.656  22.633  1.00  0.00     0.328 A 
ATOM     81  H   UNL A   1      31.024  23.442  22.096  1.00  0.00     0.175 HD
ATOM     82  O   UNL A   1      31.948  21.260  21.482  1.00  0.00    -0.248 OA
BRANCH  77  83
ATOM     83  C   UNL A   1      32.550  19.522  23.601  1.00  0.00     0.131 C 
BRANCH  83  84
ATOM     84  C   UNL A   1      33.043  18.810  24.872  1.00  0.00     0.025 C 
ATOM     85  C   UNL A   1      34.536  18.973  25.189  1.00  0.00     0.022 C 
ATOM     86  C   UNL A   1      32.752  17.309  24.916  1.00  0.00     0.142 C 
ATOM     87  C   UNL A   1      35.325  17.880  24.478  1.00  0.00     0.137 C 
ATOM     88  S   UNL A   1      34.233  16.479  24.369  1.00  0.00     0.150 S 
ATOM     89  O   UNL A   1      34.074  16.113  22.974  1.00  0.00    -0.229 OA
ATOM     90  O   UNL A   1      34.611  15.512  25.374  1.00  0.00    -0.229 OA
ENDBRANCH  83  84
ENDBRANCH  77  83
ENDBRANCH  71  74
ENDBRANCH  69  70
ENDBRANCH  68  69
ENDBRANCH   1  68
TORSDOF 15
ENDMDL
MODEL 3
REMARK VINA RESULT:     -11.7      2.294      3.979
REMARK SMILES O=C(NCCCNC(=O)c1cn(C[C@@H]2CCS(=O)(=O)C2)c(=O)[nH]c1=O)c1ccc(-c2c3nc(c(-c4ccc(S(=O)(=O)[O-])cc4)c4ccc([nH]4)c(-c4ccc(S(=O)(=O)[O-])cc4)c4nc(c(-c5ccc(S(=O)(=O)[O-])cc5)c5ccc2[nH]5)C=C4)C=C3)cc1
REMARK SMILES IDX 4 1 3 2 1 3 2 4 26 6 27 7 85 8 28 9 84 10 29 11 30 12 31 13
REMARK SMILES IDX 78 14 32 15 83 16 77 17 79 18 33 19 82 20 76 21 75 22 34 24
REMARK SMILES IDX 64 25 45 26 63 27 46 28 49 29 62 30 80 31 47 32 48 33 61 35
REMARK SMILES IDX 81 36 50 37 35 38 36 39 44 40 37 41 43 42 38 43 39 44 40 45
REMARK SMILES IDX 41 46 42 47 65 48 66 49 74 50 67 51 73 52 68 53 69 54 70 55
REMARK SMILES IDX 71 56 72 57 51 58 52 59 60 60 53 61 59 62 54 63 55 64 56 65
REMARK SMILES IDX 57 66 58 67 5 68 6 69 7 70 8 71 9 73 10 74 11 75 24 76 12 77
REMARK SMILES IDX 23 78 25 79 21 80 22 82 13 83 14 84 15 85 20 86 16 87 17 88
REMARK SMILES IDX 18 89 19 90
REMARK H PARENT 3 5 79 23 49 34 7 72 23 81
REMARK Flexibility Score: inf
ROOT
ATOM      1  C   UNL A   1      33.965  28.792  26.136  1.00  0.00     0.118 C 
ENDROOT
BRANCH   1   2
ATOM      2  N   UNL A   1      33.748  30.074  26.799  1.00  0.00    -0.352 N 
ATOM      3  O   UNL A   1      33.980  31.691  28.333  1.00  0.00    -0.269 OA
ATOM      4  C   UNL A   1      34.474  30.719  27.767  1.00  0.00     0.251 C 
ATOM      5  H   UNL A   1      32.943  30.557  26.500  1.00  0.00     0.163 HD
BRANCH   4   6
ATOM      6  C   UNL A   1      35.827  30.251  28.133  1.00  0.00     0.039 A 
ATOM      7  C   UNL A   1      36.876  30.423  27.225  1.00  0.00     0.014 A 
ATOM      8  C   UNL A   1      36.063  29.610  29.351  1.00  0.00     0.014 A 
ATOM      9  C   UNL A   1      38.158  29.985  27.562  1.00  0.00     0.010 A 
ATOM     10  C   UNL A   1      37.359  29.302  29.738  1.00  0.00     0.010 A 
ATOM     11  C   UNL A   1      38.416  29.444  28.834  1.00  0.00    -0.014 A 
BRANCH  11  12
ATOM     12  C   UNL A   1      39.771  28.967  29.208  1.00  0.00     0.031 A 
ATOM     13  C   UNL A   1      40.671  29.834  30.053  1.00  0.00     0.074 A 
ATOM     14  C   UNL A   1      40.200  27.766  28.775  1.00  0.00     0.049 A 
ATOM     15  N   UNL A   1      41.878  29.583  30.492  1.00  0.00    -0.248 NA
ATOM     16  C   UNL A   1      40.166  31.166  30.430  1.00  0.00     0.031 C 
ATOM     17  C   UNL A   1      39.442  26.863  27.908  1.00  0.00     0.029 A 
ATOM     18  N   UNL A   1      41.370  27.090  29.018  1.00  0.00    -0.354 N 
ATOM     19  C   UNL A   1      42.266  30.718  31.192  1.00  0.00     0.074 A 
ATOM     20  C   UNL A   1      41.216  31.695  31.038  1.00  0.00     0.031 C 
ATOM     21  C   UNL A   1      40.137  25.728  27.743  1.00  0.00     0.029 A 
ATOM     22  C   UNL A   1      41.409  25.838  28.451  1.00  0.00     0.049 A 
ATOM     23  H   UNL A   1      42.111  27.466  29.547  1.00  0.00     0.167 HD
ATOM     24  C   UNL A   1      43.375  30.914  31.943  1.00  0.00     0.031 A 
ATOM     25  C   UNL A   1      42.353  24.877  28.504  1.00  0.00     0.031 A 
ATOM     26  C   UNL A   1      44.410  29.928  32.108  1.00  0.00     0.049 A 
ATOM     27  C   UNL A   1      43.584  25.113  29.334  1.00  0.00     0.074 A 
ATOM     28  C   UNL A   1      45.557  30.009  32.876  1.00  0.00     0.029 A 
ATOM     29  N   UNL A   1      44.420  28.678  31.503  1.00  0.00    -0.354 N 
ATOM     30  N   UNL A   1      43.905  26.170  30.044  1.00  0.00    -0.248 NA
ATOM     31  C   UNL A   1      44.569  24.026  29.388  1.00  0.00     0.031 C 
ATOM     32  C   UNL A   1      46.295  28.839  32.679  1.00  0.00     0.029 A 
ATOM     33  C   UNL A   1      45.570  27.991  31.856  1.00  0.00     0.049 A 
ATOM     34  H   UNL A   1      43.713  28.331  30.912  1.00  0.00     0.167 HD
ATOM     35  C   UNL A   1      45.131  25.876  30.631  1.00  0.00     0.074 A 
ATOM     36  C   UNL A   1      45.469  24.525  30.226  1.00  0.00     0.031 C 
ATOM     37  C   UNL A   1      45.910  26.656  31.421  1.00  0.00     0.031 A 
BRANCH  24  38
ATOM     38  C   UNL A   1      43.507  32.226  32.678  1.00  0.00    -0.014 A 
ATOM     39  C   UNL A   1      42.941  32.384  33.956  1.00  0.00     0.010 A 
ATOM     40  C   UNL A   1      44.125  33.335  32.067  1.00  0.00     0.010 A 
ATOM     41  C   UNL A   1      42.965  33.628  34.595  1.00  0.00     0.020 A 
ATOM     42  C   UNL A   1      44.187  34.569  32.718  1.00  0.00     0.020 A 
ATOM     43  C   UNL A   1      43.583  34.714  33.968  1.00  0.00     0.054 A 
BRANCH  43  44
ATOM     44  S   UNL A   1      43.586  36.324  34.803  1.00  0.00     0.124 S 
ATOM     45  O   UNL A   1      44.400  36.055  35.985  1.00  0.00    -0.237 OA
ATOM     46  O   UNL A   1      44.191  37.201  33.804  1.00  0.00    -0.237 OA
ATOM     47  O   UNL A   1      42.170  36.577  35.064  1.00  0.00    -0.744 OA
ENDBRANCH  43  44
ENDBRANCH  24  38
BRANCH  25  48
ATOM     48  C   UNL A   1      42.107  23.589  27.796  1.00  0.00    -0.014 A 
ATOM     49  C   UNL A   1      41.368  22.565  28.418  1.00  0.00     0.010 A 
ATOM     50  C   UNL A   1      42.723  23.328  26.560  1.00  0.00     0.010 A 
ATOM     51  C   UNL A   1      41.320  21.285  27.863  1.00  0.00     0.020 A 
ATOM     52  C   UNL A   1      42.648  22.056  25.982  1.00  0.00     0.020 A 
ATOM     53  C   UNL A   1      41.982  21.033  26.659  1.00  0.00     0.054 A 
BRANCH  53  54
ATOM     54  S   UNL A   1      42.005  19.335  26.020  1.00  0.00     0.124 S 
ATOM     55  O   UNL A   1      42.592  18.604  27.141  1.00  0.00    -0.237 OA
ATOM     56  O   UNL A   1      40.592  19.069  25.768  1.00  0.00    -0.237 OA
ATOM     57  O   UNL A   1      42.844  19.426  24.828  1.00  0.00    -0.744 OA
ENDBRANCH  53  54
ENDBRANCH  25  48
BRANCH  37  58
ATOM     58  C   UNL A   1      47.233  26.095  31.879  1.00  0.00    -0.014 A 
ATOM     59  C   UNL A   1      48.368  26.195  31.052  1.00  0.00     0.010 A 
ATOM     60  C   UNL A   1      47.329  25.376  33.085  1.00  0.00     0.010 A 
ATOM     61  C   UNL A   1      49.564  25.567  31.409  1.00  0.00     0.020 A 
ATOM     62  C   UNL A   1      48.535  24.781  33.464  1.00  0.00     0.020 A 
ATOM     63  C   UNL A   1      49.639  24.860  32.612  1.00  0.00     0.054 A 
BRANCH  63  64
ATOM     64  S   UNL A   1      51.199  24.053  33.059  1.00  0.00     0.124 S 
ATOM     65  O   UNL A   1      51.351  24.431  34.460  1.00  0.00    -0.237 OA
ATOM     66  O   UNL A   1      50.910  22.641  32.814  1.00  0.00    -0.237 OA
ATOM     67  O   UNL A   1      52.169  24.649  32.141  1.00  0.00    -0.744 OA
ENDBRANCH  63  64
ENDBRANCH  37  58
ENDBRANCH  11  12
ENDBRANCH   4   6
ENDBRANCH   1   2
BRANCH   1  68
ATOM     68  C   UNL A   1      33.158  27.670  26.762  1.00  0.00     0.042 C 
BRANCH  68  69
ATOM     69  C   UNL A   1      31.713  27.639  26.300  1.00  0.00     0.118 C 
BRANCH  69  70
ATOM     70  N   UNL A   1      30.972  26.474  26.775  1.00  0.00    -0.352 N 
ATOM     71  C   UNL A   1      30.769  25.248  26.189  1.00  0.00     0.258 C 
ATOM     72  H   UNL A   1      30.550  26.585  27.657  1.00  0.00     0.163 HD
ATOM     73  O   UNL A   1      30.105  24.397  26.769  1.00  0.00    -0.269 OA
BRANCH  71  74
ATOM     74  C   UNL A   1      31.364  25.019  24.860  1.00  0.00     0.121 A 
ATOM     75  C   UNL A   1      32.612  24.536  24.783  1.00  0.00     0.110 A 
ATOM     76  C   UNL A   1      30.679  25.390  23.611  1.00  0.00     0.266 A 
ATOM     77  N   UNL A   1      33.356  24.598  23.618  1.00  0.00    -0.299 N 
ATOM     78  N   UNL A   1      31.472  25.401  22.494  1.00  0.00    -0.273 N 
ATOM     79  O   UNL A   1      29.503  25.726  23.556  1.00  0.00    -0.268 OA
ATOM     80  C   UNL A   1      32.809  25.121  22.450  1.00  0.00     0.328 A 
ATOM     81  H   UNL A   1      31.037  25.634  21.642  1.00  0.00     0.175 HD
ATOM     82  O   UNL A   1      33.455  25.316  21.423  1.00  0.00    -0.248 OA
BRANCH  77  83
ATOM     83  C   UNL A   1      34.789  24.318  23.680  1.00  0.00     0.131 C 
BRANCH  83  84
ATOM     84  C   UNL A   1      35.225  22.856  23.485  1.00  0.00     0.025 C 
ATOM     85  C   UNL A   1      34.649  21.850  24.492  1.00  0.00     0.022 C 
ATOM     86  C   UNL A   1      36.739  22.638  23.474  1.00  0.00     0.142 C 
ATOM     87  C   UNL A   1      35.559  21.780  25.712  1.00  0.00     0.137 C 
ATOM     88  S   UNL A   1      37.201  22.130  25.120  1.00  0.00     0.150 S 
ATOM     89  O   UNL A   1      37.724  23.279  25.834  1.00  0.00    -0.229 OA
ATOM     90  O   UNL A   1      37.937  20.889  25.025  1.00  0.00    -0.229 OA
ENDBRANCH  83  84
ENDBRANCH  77  83
ENDBRANCH  71  74
ENDBRANCH  69  70
ENDBRANCH  68  69
ENDBRANCH   1  68
TORSDOF 15
ENDMDL
