MODEL 1
REMARK VINA RESULT:      -9.0      0.000      0.000
REMARK SMILES COc1ccc(C(=O)/C=C/c2c(F)cccc2F)cc1CC(=O)NCCCNC(=O)c1ccc(-c2c3nc(c(-c4ccc(S(=O)(=O)[O-])cc4)c4ccc([nH]4)c(-c4ccc(S(=O)(=O)[O-])cc4)c4nc(c(-c5ccc(S(=O)(=O)[O-])cc5)c5ccc2[nH]5)C=C4)C=C3)cc1
REMARK SMILES IDX 25 1 24 2 22 3 23 4 21 6 20 7 3 8 4 9 5 10 19 11 6 12 2 13
REMARK SMILES IDX 1 14 7 15 8 16 9 17 10 18 11 19 12 20 17 21 13 22 14 23
REMARK SMILES IDX 16 24 18 25 15 26 26 27 27 28 28 29 29 30 30 32 31 33 32 34
REMARK SMILES IDX 90 35 33 36 89 37 34 38 35 39 36 40 83 41 37 42 88 43 82 44
REMARK SMILES IDX 84 45 38 46 87 47 81 48 80 49 39 51 69 52 50 53 68 54 51 55
REMARK SMILES IDX 54 56 67 57 85 58 52 59 53 60 66 62 86 63 55 64 40 65 41 66
REMARK SMILES IDX 49 67 42 68 48 69 43 70 44 71 45 72 46 73 47 74 70 75 71 76
REMARK SMILES IDX 79 77 72 78 78 79 73 80 74 81 75 82 76 83 77 84 56 85 57 86
REMARK SMILES IDX 65 87 58 88 64 89 59 90 60 91 61 92 62 93 63 94
REMARK H PARENT 24 5 28 31 84 50 54 61
REMARK Flexibility Score: inf
ROOT
ATOM      1  C   UNL A   1      34.829  34.011  31.314  1.00  0.00     0.117 C 
ENDROOT
BRANCH   1   2
ATOM      2  N   UNL A   1      34.691  33.896  32.753  1.00  0.00    -0.356 N 
ATOM      3  C   UNL A   1      35.648  34.082  33.707  1.00  0.00     0.224 C 
ATOM      4  O   UNL A   1      35.358  33.919  34.893  1.00  0.00    -0.275 OA
ATOM      5  H   UNL A   1      33.796  33.654  33.084  1.00  0.00     0.163 HD
BRANCH   3   6
ATOM      6  C   UNL A   1      37.034  34.529  33.287  1.00  0.00     0.139 C 
BRANCH   6   7
ATOM      7  C   UNL A   1      38.168  33.766  33.933  1.00  0.00     0.004 A 
ATOM      8  C   UNL A   1      39.094  34.321  34.828  1.00  0.00     0.122 A 
ATOM      9  C   UNL A   1      40.106  33.520  35.370  1.00  0.00     0.047 A 
ATOM     10  C   UNL A   1      40.191  32.159  35.059  1.00  0.00     0.016 A 
ATOM     11  C   UNL A   1      38.301  32.399  33.597  1.00  0.00     0.020 A 
ATOM     12  C   UNL A   1      39.286  31.580  34.165  1.00  0.00     0.022 A 
BRANCH   8  13
ATOM     13  O   UNL A   1      39.224  35.656  35.099  1.00  0.00    -0.496 OA
ATOM     14  C   UNL A   1      40.502  36.084  35.553  1.00  0.00     0.278 C 
ENDBRANCH   8  13
BRANCH  12  15
ATOM     15  C   UNL A   1      39.463  30.137  33.811  1.00  0.00     0.185 C 
ATOM     16  O   UNL A   1      38.492  29.460  33.483  1.00  0.00    -0.289 OA
BRANCH  15  17
ATOM     17  C   UNL A   1      40.790  29.469  33.906  1.00  0.00     0.053 C 
ATOM     18  C   UNL A   1      41.183  28.729  34.953  1.00  0.00     0.018 C 
BRANCH  18  19
ATOM     19  C   UNL A   1      42.464  28.022  34.981  1.00  0.00     0.046 A 
ATOM     20  C   UNL A   1      43.669  28.728  35.058  1.00  0.00     0.133 A 
ATOM     21  C   UNL A   1      42.523  26.633  34.878  1.00  0.00     0.133 A 
ATOM     22  F   UNL A   1      43.660  30.066  35.161  1.00  0.00    -0.206 F 
ATOM     23  C   UNL A   1      44.899  28.073  35.010  1.00  0.00     0.040 A 
ATOM     24  C   UNL A   1      43.745  25.962  34.837  1.00  0.00     0.040 A 
ATOM     25  F   UNL A   1      41.393  25.913  34.797  1.00  0.00    -0.206 F 
ATOM     26  C   UNL A   1      44.938  26.683  34.895  1.00  0.00     0.006 A 
ENDBRANCH  18  19
ENDBRANCH  15  17
ENDBRANCH  12  15
ENDBRANCH   6   7
ENDBRANCH   3   6
ENDBRANCH   1   2
BRANCH   1  27
ATOM     27  C   UNL A   1      34.785  32.654  30.618  1.00  0.00     0.042 C 
BRANCH  27  28
ATOM     28  C   UNL A   1      34.808  32.743  29.096  1.00  0.00     0.118 C 
BRANCH  28  29
ATOM     29  N   UNL A   1      34.105  31.633  28.471  1.00  0.00    -0.352 N 
ATOM     30  C   UNL A   1      34.575  30.444  27.979  1.00  0.00     0.251 C 
ATOM     31  H   UNL A   1      33.132  31.756  28.390  1.00  0.00     0.163 HD
ATOM     32  O   UNL A   1      33.822  29.749  27.302  1.00  0.00    -0.269 OA
BRANCH  30  33
ATOM     33  C   UNL A   1      35.957  29.991  28.252  1.00  0.00     0.039 A 
ATOM     34  C   UNL A   1      36.243  29.468  29.518  1.00  0.00     0.014 A 
ATOM     35  C   UNL A   1      36.984  30.149  27.317  1.00  0.00     0.014 A 
ATOM     36  C   UNL A   1      37.547  29.089  29.836  1.00  0.00     0.010 A 
ATOM     37  C   UNL A   1      38.272  29.704  27.611  1.00  0.00     0.010 A 
ATOM     38  C   UNL A   1      38.571  29.192  28.881  1.00  0.00    -0.014 A 
BRANCH  38  39
ATOM     39  C   UNL A   1      39.963  28.802  29.220  1.00  0.00     0.031 A 
ATOM     40  C   UNL A   1      40.860  29.758  29.961  1.00  0.00     0.074 A 
ATOM     41  C   UNL A   1      40.426  27.596  28.840  1.00  0.00     0.049 A 
ATOM     42  N   UNL A   1      42.098  29.591  30.352  1.00  0.00    -0.248 NA
ATOM     43  C   UNL A   1      40.303  31.080  30.288  1.00  0.00     0.031 C 
ATOM     44  C   UNL A   1      39.668  26.600  28.078  1.00  0.00     0.029 A 
ATOM     45  N   UNL A   1      41.644  27.002  29.046  1.00  0.00    -0.354 N 
ATOM     46  C   UNL A   1      42.471  30.788  30.952  1.00  0.00     0.074 A 
ATOM     47  C   UNL A   1      41.346  31.689  30.832  1.00  0.00     0.031 C 
ATOM     48  C   UNL A   1      40.428  25.505  27.910  1.00  0.00     0.029 A 
ATOM     49  C   UNL A   1      41.732  25.732  28.525  1.00  0.00     0.049 A 
ATOM     50  H   UNL A   1      42.385  27.441  29.522  1.00  0.00     0.167 HD
ATOM     51  C   UNL A   1      43.637  31.104  31.566  1.00  0.00     0.031 A 
ATOM     52  C   UNL A   1      42.746  24.846  28.547  1.00  0.00     0.031 A 
ATOM     53  C   UNL A   1      44.750  30.202  31.697  1.00  0.00     0.049 A 
ATOM     54  C   UNL A   1      44.021  25.210  29.257  1.00  0.00     0.074 A 
ATOM     55  C   UNL A   1      45.956  30.408  32.346  1.00  0.00     0.029 A 
ATOM     56  N   UNL A   1      44.792  28.918  31.174  1.00  0.00    -0.354 N 
ATOM     57  N   UNL A   1      44.332  26.326  29.873  1.00  0.00    -0.248 NA
ATOM     58  C   UNL A   1      45.073  24.186  29.293  1.00  0.00     0.031 C 
ATOM     59  C   UNL A   1      46.742  29.262  32.181  1.00  0.00     0.029 A 
ATOM     60  C   UNL A   1      46.007  28.325  31.473  1.00  0.00     0.049 A 
ATOM     61  H   UNL A   1      44.066  28.492  30.663  1.00  0.00     0.167 HD
ATOM     62  C   UNL A   1      45.607  26.129  30.390  1.00  0.00     0.074 A 
ATOM     63  C   UNL A   1      46.000  24.781  30.030  1.00  0.00     0.031 C 
ATOM     64  C   UNL A   1      46.383  26.985  31.100  1.00  0.00     0.031 A 
BRANCH  51  65
ATOM     65  C   UNL A   1      43.764  32.492  32.140  1.00  0.00    -0.014 A 
ATOM     66  C   UNL A   1      43.424  32.757  33.480  1.00  0.00     0.010 A 
ATOM     67  C   UNL A   1      44.251  33.540  31.338  1.00  0.00     0.010 A 
ATOM     68  C   UNL A   1      43.524  34.052  33.993  1.00  0.00     0.020 A 
ATOM     69  C   UNL A   1      44.378  34.833  31.857  1.00  0.00     0.020 A 
ATOM     70  C   UNL A   1      43.995  35.084  33.176  1.00  0.00     0.054 A 
BRANCH  70  71
ATOM     71  S   UNL A   1      44.126  36.755  33.871  1.00  0.00     0.124 S 
ATOM     72  O   UNL A   1      45.455  37.164  33.422  1.00  0.00    -0.237 OA
ATOM     73  O   UNL A   1      43.009  37.455  33.242  1.00  0.00    -0.237 OA
ATOM     74  O   UNL A   1      43.992  36.543  35.310  1.00  0.00    -0.744 OA
ENDBRANCH  70  71
ENDBRANCH  51  65
BRANCH  52  75
ATOM     75  C   UNL A   1      42.581  23.515  27.907  1.00  0.00    -0.014 A 
ATOM     76  C   UNL A   1      43.062  23.287  26.605  1.00  0.00     0.010 A 
ATOM     77  C   UNL A   1      41.959  22.462  28.602  1.00  0.00     0.010 A 
ATOM     78  C   UNL A   1      42.908  22.035  26.002  1.00  0.00     0.020 A 
ATOM     79  C   UNL A   1      41.825  21.202  28.011  1.00  0.00     0.020 A 
ATOM     80  C   UNL A   1      42.290  21.000  26.710  1.00  0.00     0.054 A 
BRANCH  80  81
ATOM     81  S   UNL A   1      42.149  19.368  25.930  1.00  0.00     0.124 S 
ATOM     82  O   UNL A   1      40.711  19.262  25.708  1.00  0.00    -0.237 OA
ATOM     83  O   UNL A   1      42.965  19.519  24.727  1.00  0.00    -0.237 OA
ATOM     84  O   UNL A   1      42.700  18.461  26.934  1.00  0.00    -0.744 OA
ENDBRANCH  80  81
ENDBRANCH  52  75
BRANCH  64  85
ATOM     85  C   UNL A   1      47.723  26.473  31.558  1.00  0.00    -0.014 A 
ATOM     86  C   UNL A   1      48.872  26.623  30.762  1.00  0.00     0.010 A 
ATOM     87  C   UNL A   1      47.834  25.851  32.815  1.00  0.00     0.010 A 
ATOM     88  C   UNL A   1      50.100  26.115  31.193  1.00  0.00     0.020 A 
ATOM     89  C   UNL A   1      49.065  25.365  33.261  1.00  0.00     0.020 A 
ATOM     90  C   UNL A   1      50.187  25.482  32.437  1.00  0.00     0.054 A 
BRANCH  90  91
ATOM     91  S   UNL A   1      51.793  24.841  32.985  1.00  0.00     0.124 S 
ATOM     92  O   UNL A   1      52.722  25.780  32.365  1.00  0.00    -0.237 OA
ATOM     93  O   UNL A   1      51.694  24.923  34.440  1.00  0.00    -0.237 OA
ATOM     94  O   UNL A   1      51.825  23.483  32.446  1.00  0.00    -0.744 OA
ENDBRANCH  90  91
ENDBRANCH  64  85
ENDBRANCH  38  39
ENDBRANCH  30  33
ENDBRANCH  28  29
ENDBRANCH  27  28
ENDBRANCH   1  27
TORSDOF 18
ENDMDL
MODEL 2
REMARK VINA RESULT:      -8.8      2.324      4.110
REMARK SMILES COc1ccc(C(=O)/C=C/c2c(F)cccc2F)cc1CC(=O)NCCCNC(=O)c1ccc(-c2c3nc(c(-c4ccc(S(=O)(=O)[O-])cc4)c4ccc([nH]4)c(-c4ccc(S(=O)(=O)[O-])cc4)c4nc(c(-c5ccc(S(=O)(=O)[O-])cc5)c5ccc2[nH]5)C=C4)C=C3)cc1
REMARK SMILES IDX 25 1 24 2 22 3 23 4 21 6 20 7 3 8 4 9 5 10 19 11 6 12 2 13
REMARK SMILES IDX 1 14 7 15 8 16 9 17 10 18 11 19 12 20 17 21 13 22 14 23
REMARK SMILES IDX 16 24 18 25 15 26 26 27 27 28 28 29 29 30 30 32 31 33 32 34
REMARK SMILES IDX 90 35 33 36 89 37 34 38 35 39 36 40 83 41 37 42 88 43 82 44
REMARK SMILES IDX 84 45 38 46 87 47 81 48 80 49 39 51 69 52 50 53 68 54 51 55
REMARK SMILES IDX 54 56 67 57 85 58 52 59 53 60 66 62 86 63 55 64 40 65 41 66
REMARK SMILES IDX 49 67 42 68 48 69 43 70 44 71 45 72 46 73 47 74 70 75 71 76
REMARK SMILES IDX 79 77 72 78 78 79 73 80 74 81 75 82 76 83 77 84 56 85 57 86
REMARK SMILES IDX 65 87 58 88 64 89 59 90 60 91 61 92 62 93 63 94
REMARK H PARENT 24 5 28 31 84 50 54 61
REMARK Flexibility Score: inf
ROOT
ATOM      1  C   UNL A   1      34.475  33.325  31.663  1.00  0.00     0.117 C 
ENDROOT
BRANCH   1   2
ATOM      2  N   UNL A   1      34.691  33.020  33.065  1.00  0.00    -0.356 N 
ATOM      3  C   UNL A   1      35.485  33.679  33.957  1.00  0.00     0.224 C 
ATOM      4  O   UNL A   1      35.567  33.265  35.113  1.00  0.00    -0.275 OA
ATOM      5  H   UNL A   1      34.203  32.241  33.418  1.00  0.00     0.163 HD
BRANCH   3   6
ATOM      6  C   UNL A   1      36.212  34.933  33.514  1.00  0.00     0.139 C 
BRANCH   6   7
ATOM      7  C   UNL A   1      37.655  34.722  33.117  1.00  0.00     0.004 A 
ATOM      8  C   UNL A   1      38.697  34.454  34.017  1.00  0.00     0.122 A 
ATOM      9  C   UNL A   1      40.001  34.272  33.539  1.00  0.00     0.047 A 
ATOM     10  C   UNL A   1      40.279  34.320  32.169  1.00  0.00     0.016 A 
ATOM     11  C   UNL A   1      37.967  34.812  31.742  1.00  0.00     0.020 A 
ATOM     12  C   UNL A   1      39.260  34.591  31.251  1.00  0.00     0.022 A 
BRANCH   8  13
ATOM     13  O   UNL A   1      38.600  34.531  35.379  1.00  0.00    -0.496 OA
ATOM     14  C   UNL A   1      39.633  33.893  36.121  1.00  0.00     0.278 C 
ENDBRANCH   8  13
BRANCH  12  15
ATOM     15  C   UNL A   1      39.622  34.702  29.803  1.00  0.00     0.185 C 
ATOM     16  O   UNL A   1      38.831  34.330  28.939  1.00  0.00    -0.289 OA
BRANCH  15  17
ATOM     17  C   UNL A   1      40.957  35.199  29.370  1.00  0.00     0.053 C 
ATOM     18  C   UNL A   1      41.283  35.460  28.096  1.00  0.00     0.018 C 
BRANCH  18  19
ATOM     19  C   UNL A   1      42.579  36.020  27.712  1.00  0.00     0.046 A 
ATOM     20  C   UNL A   1      43.641  35.185  27.351  1.00  0.00     0.133 A 
ATOM     21  C   UNL A   1      42.809  37.395  27.749  1.00  0.00     0.133 A 
ATOM     22  F   UNL A   1      43.465  33.856  27.300  1.00  0.00    -0.206 F 
ATOM     23  C   UNL A   1      44.903  35.700  27.056  1.00  0.00     0.040 A 
ATOM     24  C   UNL A   1      44.063  37.927  27.449  1.00  0.00     0.040 A 
ATOM     25  F   UNL A   1      41.823  38.236  28.095  1.00  0.00    -0.206 F 
ATOM     26  C   UNL A   1      45.117  37.077  27.110  1.00  0.00     0.006 A 
ENDBRANCH  18  19
ENDBRANCH  15  17
ENDBRANCH  12  15
ENDBRANCH   6   7
ENDBRANCH   3   6
ENDBRANCH   1   2
BRANCH   1  27
ATOM     27  C   UNL A   1      34.920  32.188  30.748  1.00  0.00     0.042 C 
BRANCH  27  28
ATOM     28  C   UNL A   1      34.737  32.486  29.265  1.00  0.00     0.118 C 
BRANCH  28  29
ATOM     29  N   UNL A   1      34.067  31.399  28.566  1.00  0.00    -0.352 N 
ATOM     30  C   UNL A   1      34.575  30.276  27.970  1.00  0.00     0.251 C 
ATOM     31  H   UNL A   1      33.088  31.486  28.515  1.00  0.00     0.163 HD
ATOM     32  O   UNL A   1      33.836  29.605  27.253  1.00  0.00    -0.269 OA
BRANCH  30  33
ATOM     33  C   UNL A   1      35.981  29.863  28.177  1.00  0.00     0.039 A 
ATOM     34  C   UNL A   1      36.334  29.320  29.417  1.00  0.00     0.014 A 
ATOM     35  C   UNL A   1      36.964  30.079  27.207  1.00  0.00     0.014 A 
ATOM     36  C   UNL A   1      37.662  28.977  29.674  1.00  0.00     0.010 A 
ATOM     37  C   UNL A   1      38.276  29.670  27.439  1.00  0.00     0.010 A 
ATOM     38  C   UNL A   1      38.643  29.138  28.683  1.00  0.00    -0.014 A 
BRANCH  38  39
ATOM     39  C   UNL A   1      40.059  28.788  28.957  1.00  0.00     0.031 A 
ATOM     40  C   UNL A   1      40.978  29.790  29.604  1.00  0.00     0.074 A 
ATOM     41  C   UNL A   1      40.524  27.575  28.602  1.00  0.00     0.049 A 
ATOM     42  N   UNL A   1      42.239  29.663  29.930  1.00  0.00    -0.248 NA
ATOM     43  C   UNL A   1      40.413  31.116  29.907  1.00  0.00     0.031 C 
ATOM     44  C   UNL A   1      39.744  26.534  27.928  1.00  0.00     0.029 A 
ATOM     45  N   UNL A   1      41.763  27.011  28.762  1.00  0.00    -0.354 N 
ATOM     46  C   UNL A   1      42.622  30.891  30.457  1.00  0.00     0.074 A 
ATOM     47  C   UNL A   1      41.474  31.766  30.364  1.00  0.00     0.031 C 
ATOM     48  C   UNL A   1      40.515  25.447  27.762  1.00  0.00     0.029 A 
ATOM     49  C   UNL A   1      41.847  25.722  28.291  1.00  0.00     0.049 A 
ATOM     50  H   UNL A   1      42.522  27.484  29.176  1.00  0.00     0.167 HD
ATOM     51  C   UNL A   1      43.814  31.253  30.989  1.00  0.00     0.031 A 
ATOM     52  C   UNL A   1      42.878  24.856  28.292  1.00  0.00     0.031 A 
ATOM     53  C   UNL A   1      44.950  30.377  31.094  1.00  0.00     0.049 A 
ATOM     54  C   UNL A   1      44.183  25.272  28.912  1.00  0.00     0.074 A 
ATOM     55  C   UNL A   1      46.186  30.632  31.663  1.00  0.00     0.029 A 
ATOM     56  N   UNL A   1      44.988  29.073  30.623  1.00  0.00    -0.354 N 
ATOM     57  N   UNL A   1      44.507  26.419  29.461  1.00  0.00    -0.248 NA
ATOM     58  C   UNL A   1      45.256  24.269  28.929  1.00  0.00     0.031 C 
ATOM     59  C   UNL A   1      46.985  29.494  31.501  1.00  0.00     0.029 A 
ATOM     60  C   UNL A   1      46.229  28.515  30.876  1.00  0.00     0.049 A 
ATOM     61  H   UNL A   1      44.243  28.613  30.173  1.00  0.00     0.167 HD
ATOM     62  C   UNL A   1      45.813  26.267  29.911  1.00  0.00     0.074 A 
ATOM     63  C   UNL A   1      46.212  24.912  29.586  1.00  0.00     0.031 C 
ATOM     64  C   UNL A   1      46.611  27.166  30.539  1.00  0.00     0.031 A 
BRANCH  51  65
ATOM     65  C   UNL A   1      43.946  32.666  31.495  1.00  0.00    -0.014 A 
ATOM     66  C   UNL A   1      43.727  32.974  32.852  1.00  0.00     0.010 A 
ATOM     67  C   UNL A   1      44.314  33.697  30.612  1.00  0.00     0.010 A 
ATOM     68  C   UNL A   1      43.830  34.292  33.304  1.00  0.00     0.020 A 
ATOM     69  C   UNL A   1      44.444  35.012  31.067  1.00  0.00     0.020 A 
ATOM     70  C   UNL A   1      44.182  35.305  32.407  1.00  0.00     0.054 A 
BRANCH  70  71
ATOM     71  S   UNL A   1      44.319  37.006  33.023  1.00  0.00     0.124 S 
ATOM     72  O   UNL A   1      43.218  37.068  33.981  1.00  0.00    -0.237 OA
ATOM     73  O   UNL A   1      45.659  37.032  33.604  1.00  0.00    -0.237 OA
ATOM     74  O   UNL A   1      44.149  37.822  31.823  1.00  0.00    -0.744 OA
ENDBRANCH  70  71
ENDBRANCH  51  65
BRANCH  52  75
ATOM     75  C   UNL A   1      42.703  23.496  27.719  1.00  0.00    -0.014 A 
ATOM     76  C   UNL A   1      43.184  23.199  26.431  1.00  0.00     0.010 A 
ATOM     77  C   UNL A   1      42.072  22.484  28.465  1.00  0.00     0.010 A 
ATOM     78  C   UNL A   1      43.022  21.920  25.892  1.00  0.00     0.020 A 
ATOM     79  C   UNL A   1      41.930  21.197  27.938  1.00  0.00     0.020 A 
ATOM     80  C   UNL A   1      42.395  20.927  26.649  1.00  0.00     0.054 A 
BRANCH  80  81
ATOM     81  S   UNL A   1      42.242  19.259  25.951  1.00  0.00     0.124 S 
ATOM     82  O   UNL A   1      43.058  19.359  24.745  1.00  0.00    -0.237 OA
ATOM     83  O   UNL A   1      42.786  18.418  27.015  1.00  0.00    -0.237 OA
ATOM     84  O   UNL A   1      40.806  19.112  25.728  1.00  0.00    -0.744 OA
ENDBRANCH  80  81
ENDBRANCH  52  75
BRANCH  64  85
ATOM     85  C   UNL A   1      47.984  26.698  30.941  1.00  0.00    -0.014 A 
ATOM     86  C   UNL A   1      48.200  26.034  32.161  1.00  0.00     0.010 A 
ATOM     87  C   UNL A   1      49.070  26.911  30.072  1.00  0.00     0.010 A 
ATOM     88  C   UNL A   1      49.487  25.634  32.528  1.00  0.00     0.020 A 
ATOM     89  C   UNL A   1      50.354  26.488  30.424  1.00  0.00     0.020 A 
ATOM     90  C   UNL A   1      50.557  25.870  31.660  1.00  0.00     0.054 A 
BRANCH  90  91
ATOM     91  S   UNL A   1      52.219  25.332  32.149  1.00  0.00     0.124 S 
ATOM     92  O   UNL A   1      53.016  25.720  30.989  1.00  0.00    -0.237 OA
ATOM     93  O   UNL A   1      52.464  26.104  33.365  1.00  0.00    -0.237 OA
ATOM     94  O   UNL A   1      52.072  23.894  32.352  1.00  0.00    -0.744 OA
ENDBRANCH  90  91
ENDBRANCH  64  85
ENDBRANCH  38  39
ENDBRANCH  30  33
ENDBRANCH  28  29
ENDBRANCH  27  28
ENDBRANCH   1  27
TORSDOF 18
ENDMDL
MODEL 3
REMARK VINA RESULT:      -8.5      5.093     11.300
REMARK SMILES COc1ccc(C(=O)/C=C/c2c(F)cccc2F)cc1CC(=O)NCCCNC(=O)c1ccc(-c2c3nc(c(-c4ccc(S(=O)(=O)[O-])cc4)c4ccc([nH]4)c(-c4ccc(S(=O)(=O)[O-])cc4)c4nc(c(-c5ccc(S(=O)(=O)[O-])cc5)c5ccc2[nH]5)C=C4)C=C3)cc1
REMARK SMILES IDX 25 1 24 2 22 3 23 4 21 6 20 7 3 8 4 9 5 10 19 11 6 12 2 13
REMARK SMILES IDX 1 14 7 15 8 16 9 17 10 18 11 19 12 20 17 21 13 22 14 23
REMARK SMILES IDX 16 24 18 25 15 26 26 27 27 28 28 29 29 30 30 32 31 33 32 34
REMARK SMILES IDX 90 35 33 36 89 37 34 38 35 39 36 40 83 41 37 42 88 43 82 44
REMARK SMILES IDX 84 45 38 46 87 47 81 48 80 49 39 51 69 52 50 53 68 54 51 55
REMARK SMILES IDX 54 56 67 57 85 58 52 59 53 60 66 62 86 63 55 64 40 65 41 66
REMARK SMILES IDX 49 67 42 68 48 69 43 70 44 71 45 72 46 73 47 74 70 75 71 76
REMARK SMILES IDX 79 77 72 78 78 79 73 80 74 81 75 82 76 83 77 84 56 85 57 86
REMARK SMILES IDX 65 87 58 88 64 89 59 90 60 91 61 92 62 93 63 94
REMARK H PARENT 24 5 28 31 84 50 54 61
REMARK Flexibility Score: inf
ROOT
ATOM      1  C   UNL A   1      34.039  29.612  27.240  1.00  0.00     0.117 C 
ENDROOT
BRANCH   1   2
ATOM      2  N   UNL A   1      32.851  30.412  27.009  1.00  0.00    -0.356 N 
ATOM      3  C   UNL A   1      32.049  30.427  25.907  1.00  0.00     0.224 C 
ATOM      4  O   UNL A   1      31.085  31.193  25.872  1.00  0.00    -0.275 OA
ATOM      5  H   UNL A   1      32.592  31.020  27.738  1.00  0.00     0.163 HD
BRANCH   3   6
ATOM      6  C   UNL A   1      32.335  29.467  24.769  1.00  0.00     0.139 C 
BRANCH   6   7
ATOM      7  C   UNL A   1      31.260  28.432  24.528  1.00  0.00     0.004 A 
ATOM      8  C   UNL A   1      30.283  28.517  23.526  1.00  0.00     0.122 A 
ATOM      9  C   UNL A   1      29.334  27.497  23.390  1.00  0.00     0.047 A 
ATOM     10  C   UNL A   1      29.364  26.370  24.218  1.00  0.00     0.016 A 
ATOM     11  C   UNL A   1      31.244  27.307  25.384  1.00  0.00     0.020 A 
ATOM     12  C   UNL A   1      30.323  26.262  25.229  1.00  0.00     0.022 A 
BRANCH   8  13
ATOM     13  O   UNL A   1      30.042  29.620  22.754  1.00  0.00    -0.496 OA
ATOM     14  C   UNL A   1      28.979  30.465  23.178  1.00  0.00     0.278 C 
ENDBRANCH   8  13
BRANCH  12  15
ATOM     15  C   UNL A   1      30.269  25.071  26.134  1.00  0.00     0.185 C 
ATOM     16  O   UNL A   1      29.309  24.911  26.884  1.00  0.00    -0.289 OA
BRANCH  15  17
ATOM     17  C   UNL A   1      31.388  24.092  26.201  1.00  0.00     0.053 C 
ATOM     18  C   UNL A   1      32.100  23.693  25.138  1.00  0.00     0.018 C 
BRANCH  18  19
ATOM     19  C   UNL A   1      33.244  22.788  25.250  1.00  0.00     0.046 A 
ATOM     20  C   UNL A   1      34.523  23.281  25.523  1.00  0.00     0.133 A 
ATOM     21  C   UNL A   1      33.102  21.417  25.034  1.00  0.00     0.133 A 
ATOM     22  F   UNL A   1      34.706  24.593  25.740  1.00  0.00    -0.206 F 
ATOM     23  C   UNL A   1      35.635  22.440  25.559  1.00  0.00     0.040 A 
ATOM     24  C   UNL A   1      34.203  20.561  25.073  1.00  0.00     0.040 A 
ATOM     25  F   UNL A   1      31.896  20.898  24.762  1.00  0.00    -0.206 F 
ATOM     26  C   UNL A   1      35.475  21.074  25.328  1.00  0.00     0.006 A 
ENDBRANCH  18  19
ENDBRANCH  15  17
ENDBRANCH  12  15
ENDBRANCH   6   7
ENDBRANCH   3   6
ENDBRANCH   1   2
BRANCH   1  27
ATOM     27  C   UNL A   1      35.143  30.400  27.939  1.00  0.00     0.042 C 
BRANCH  27  28
ATOM     28  C   UNL A   1      35.754  29.675  29.132  1.00  0.00     0.118 C 
BRANCH  28  29
ATOM     29  N   UNL A   1      35.879  30.542  30.294  1.00  0.00    -0.352 N 
ATOM     30  C   UNL A   1      36.974  30.864  31.052  1.00  0.00     0.251 C 
ATOM     31  H   UNL A   1      35.040  30.967  30.583  1.00  0.00     0.163 HD
ATOM     32  O   UNL A   1      36.800  31.450  32.118  1.00  0.00    -0.269 OA
BRANCH  30  33
ATOM     33  C   UNL A   1      38.344  30.524  30.608  1.00  0.00     0.039 A 
ATOM     34  C   UNL A   1      38.681  30.754  29.271  1.00  0.00     0.014 A 
ATOM     35  C   UNL A   1      39.265  29.909  31.462  1.00  0.00     0.014 A 
ATOM     36  C   UNL A   1      39.942  30.389  28.798  1.00  0.00     0.010 A 
ATOM     37  C   UNL A   1      40.548  29.610  31.006  1.00  0.00     0.010 A 
ATOM     38  C   UNL A   1      40.891  29.824  29.664  1.00  0.00    -0.014 A 
BRANCH  38  39
ATOM     39  C   UNL A   1      42.228  29.421  29.162  1.00  0.00     0.031 A 
ATOM     40  C   UNL A   1      42.455  28.029  28.637  1.00  0.00     0.074 A 
ATOM     41  C   UNL A   1      43.246  30.303  29.200  1.00  0.00     0.049 A 
ATOM     42  N   UNL A   1      43.547  27.499  28.149  1.00  0.00    -0.248 NA
ATOM     43  C   UNL A   1      41.311  27.103  28.685  1.00  0.00     0.031 C 
ATOM     44  C   UNL A   1      43.164  31.668  29.727  1.00  0.00     0.029 A 
ATOM     45  N   UNL A   1      44.546  30.185  28.784  1.00  0.00    -0.354 N 
ATOM     46  C   UNL A   1      43.229  26.179  27.849  1.00  0.00     0.074 A 
ATOM     47  C   UNL A   1      41.855  25.974  28.254  1.00  0.00     0.031 C 
ATOM     48  C   UNL A   1      44.354  32.270  29.572  1.00  0.00     0.029 A 
ATOM     49  C   UNL A   1      45.288  31.329  28.962  1.00  0.00     0.049 A 
ATOM     50  H   UNL A   1      44.916  29.360  28.393  1.00  0.00     0.167 HD
ATOM     51  C   UNL A   1      44.002  25.228  27.271  1.00  0.00     0.031 A 
ATOM     52  C   UNL A   1      46.574  31.593  28.662  1.00  0.00     0.031 A 
ATOM     53  C   UNL A   1      45.363  25.437  26.855  1.00  0.00     0.049 A 
ATOM     54  C   UNL A   1      47.404  30.531  27.997  1.00  0.00     0.074 A 
ATOM     55  C   UNL A   1      46.215  24.555  26.214  1.00  0.00     0.029 A 
ATOM     56  N   UNL A   1      46.071  26.616  27.036  1.00  0.00    -0.354 N 
ATOM     57  N   UNL A   1      47.066  29.307  27.666  1.00  0.00    -0.248 NA
ATOM     58  C   UNL A   1      48.784  30.892  27.647  1.00  0.00     0.031 C 
ATOM     59  C   UNL A   1      47.451  25.188  26.041  1.00  0.00     0.029 A 
ATOM     60  C   UNL A   1      47.353  26.480  26.531  1.00  0.00     0.049 A 
ATOM     61  H   UNL A   1      45.715  27.430  27.462  1.00  0.00     0.167 HD
ATOM     62  C   UNL A   1      48.183  28.760  27.047  1.00  0.00     0.074 A 
ATOM     63  C   UNL A   1      49.200  29.793  27.033  1.00  0.00     0.031 C 
ATOM     64  C   UNL A   1      48.354  27.517  26.533  1.00  0.00     0.031 A 
BRANCH  51  65
ATOM     65  C   UNL A   1      43.386  23.869  27.059  1.00  0.00    -0.014 A 
ATOM     66  C   UNL A   1      43.274  22.949  28.119  1.00  0.00     0.010 A 
ATOM     67  C   UNL A   1      42.891  23.514  25.791  1.00  0.00     0.010 A 
ATOM     68  C   UNL A   1      42.722  21.684  27.904  1.00  0.00     0.020 A 
ATOM     69  C   UNL A   1      42.313  22.258  25.578  1.00  0.00     0.020 A 
ATOM     70  C   UNL A   1      42.250  21.343  26.632  1.00  0.00     0.054 A 
BRANCH  70  71
ATOM     71  S   UNL A   1      41.528  19.699  26.382  1.00  0.00     0.124 S 
ATOM     72  O   UNL A   1      41.750  19.072  27.683  1.00  0.00    -0.237 OA
ATOM     73  O   UNL A   1      40.136  20.003  26.061  1.00  0.00    -0.237 OA
ATOM     74  O   UNL A   1      42.310  19.142  25.280  1.00  0.00    -0.744 OA
ENDBRANCH  70  71
ENDBRANCH  51  65
BRANCH  52  75
ATOM     75  C   UNL A   1      47.142  32.936  28.955  1.00  0.00    -0.014 A 
ATOM     76  C   UNL A   1      47.048  33.971  28.007  1.00  0.00     0.010 A 
ATOM     77  C   UNL A   1      47.763  33.192  30.191  1.00  0.00     0.010 A 
ATOM     78  C   UNL A   1      47.581  35.233  28.282  1.00  0.00     0.020 A 
ATOM     79  C   UNL A   1      48.274  34.460  30.479  1.00  0.00     0.020 A 
ATOM     80  C   UNL A   1      48.191  35.470  29.517  1.00  0.00     0.054 A 
BRANCH  80  81
ATOM     81  S   UNL A   1      48.828  37.131  29.875  1.00  0.00     0.124 S 
ATOM     82  O   UNL A   1      50.259  36.883  30.015  1.00  0.00    -0.237 OA
ATOM     83  O   UNL A   1      48.429  37.886  28.690  1.00  0.00    -0.237 OA
ATOM     84  O   UNL A   1      48.132  37.506  31.104  1.00  0.00    -0.744 OA
ENDBRANCH  80  81
ENDBRANCH  52  75
BRANCH  64  85
ATOM     85  C   UNL A   1      49.681  27.220  25.887  1.00  0.00    -0.014 A 
ATOM     86  C   UNL A   1      49.906  27.492  24.526  1.00  0.00     0.010 A 
ATOM     87  C   UNL A   1      50.723  26.680  26.661  1.00  0.00     0.010 A 
ATOM     88  C   UNL A   1      51.136  27.181  23.939  1.00  0.00     0.020 A 
ATOM     89  C   UNL A   1      51.962  26.393  26.084  1.00  0.00     0.020 A 
ATOM     90  C   UNL A   1      52.153  26.627  24.720  1.00  0.00     0.054 A 
BRANCH  90  91
ATOM     91  S   UNL A   1      53.747  26.242  23.943  1.00  0.00     0.124 S 
ATOM     92  O   UNL A   1      53.358  26.009  22.556  1.00  0.00    -0.237 OA
ATOM     93  O   UNL A   1      54.524  27.456  24.182  1.00  0.00    -0.237 OA
ATOM     94  O   UNL A   1      54.210  25.062  24.669  1.00  0.00    -0.744 OA
ENDBRANCH  90  91
ENDBRANCH  64  85
ENDBRANCH  38  39
ENDBRANCH  30  33
ENDBRANCH  28  29
ENDBRANCH  27  28
ENDBRANCH   1  27
TORSDOF 18
ENDMDL
