MODEL 1
REMARK VINA RESULT:      -8.4      0.000      0.000
REMARK SMILES C#CCN(CC(=O)NCCCNC(=O)c1ccc(-c2c3nc(c(-c4ccc(S(=O)(=O)[O-])cc4)c4ccc([nH]4)c(-c4ccc(S(=O)(=O)[O-])cc4)c4nc(c(-c5ccc(S(=O)(=O)[O-])cc5)c5ccc2[nH]5)C=C4)C=C3)cc1)C(=O)NCC[C@@H]1CCCO1
REMARK SMILES IDX 9 1 8 2 6 3 7 4 5 6 4 7 3 8 2 9 1 10 75 11 76 12 77 13 78 15
REMARK SMILES IDX 79 16 80 17 81 18 84 19 82 20 83 21 10 22 11 23 12 24 13 25
REMARK SMILES IDX 14 27 15 28 16 29 74 30 17 31 73 32 18 33 19 34 20 35 67 36
REMARK SMILES IDX 21 37 72 38 66 39 68 40 22 41 71 42 65 43 64 44 23 46 53 47
REMARK SMILES IDX 34 48 52 49 35 50 38 51 51 52 69 53 36 54 37 55 50 57 70 58
REMARK SMILES IDX 39 59 24 60 25 61 33 62 26 63 32 64 27 65 28 66 29 67 30 68
REMARK SMILES IDX 31 69 54 70 55 71 63 72 56 73 62 74 57 75 58 76 59 77 60 78
REMARK SMILES IDX 61 79 40 80 41 81 49 82 42 83 48 84 43 85 44 86 45 87 46 88
REMARK SMILES IDX 47 89
REMARK H PARENT 8 5 77 14 12 26 68 45 38 56
REMARK Flexibility Score: inf
ROOT
ATOM      1  C   UNL A   1      34.133  34.889  30.264  1.00  0.00     0.117 C 
ENDROOT
BRANCH   1   2
ATOM      2  N   UNL A   1      33.750  33.949  31.297  1.00  0.00    -0.354 N 
ATOM      3  C   UNL A   1      34.342  33.689  32.497  1.00  0.00     0.239 C 
ATOM      4  O   UNL A   1      33.638  33.165  33.367  1.00  0.00    -0.273 OA
ATOM      5  H   UNL A   1      32.942  33.420  31.104  1.00  0.00     0.163 HD
BRANCH   3   6
ATOM      6  C   UNL A   1      35.768  34.163  32.826  1.00  0.00     0.222 C 
BRANCH   6   7
ATOM      7  N   UNL A   1      36.833  33.496  32.084  1.00  0.00    -0.304 N 
BRANCH   7   8
ATOM      8  C   UNL A   1      36.689  32.053  31.886  1.00  0.00     0.211 C 
BRANCH   8   9
ATOM      9  C   UNL A   1      37.518  31.253  32.877  1.00  0.00    -0.085 C 
ATOM     10  C   UNL A   1      38.229  30.566  33.728  1.00  0.00     0.006 C 
ENDBRANCH   8   9
ENDBRANCH   7   8
BRANCH   7  11
ATOM     11  C   UNL A   1      37.899  34.078  31.461  1.00  0.00     0.318 C 
ATOM     12  O   UNL A   1      37.863  34.393  30.266  1.00  0.00    -0.249 OA
ATOM     13  N   UNL A   1      39.049  34.398  32.065  1.00  0.00    -0.338 N 
ATOM     14  H   UNL A   1      39.548  35.059  31.531  1.00  0.00     0.165 HD
BRANCH  13  15
ATOM     15  C   UNL A   1      39.783  34.062  33.273  1.00  0.00     0.120 C 
BRANCH  15  16
ATOM     16  C   UNL A   1      39.545  35.096  34.373  1.00  0.00     0.053 C 
BRANCH  16  17
ATOM     17  C   UNL A   1      39.144  34.486  35.719  1.00  0.00     0.120 C 
ATOM     18  C   UNL A   1      39.843  33.192  36.104  1.00  0.00     0.034 C 
ATOM     19  O   UNL A   1      37.733  34.184  35.705  1.00  0.00    -0.378 OA
ATOM     20  C   UNL A   1      38.833  32.555  37.022  1.00  0.00     0.031 C 
ATOM     21  C   UNL A   1      37.536  32.903  36.328  1.00  0.00     0.160 C 
ENDBRANCH  16  17
ENDBRANCH  15  16
ENDBRANCH  13  15
ENDBRANCH   7  11
ENDBRANCH   6   7
ENDBRANCH   3   6
ENDBRANCH   1   2
BRANCH   1  22
ATOM     22  C   UNL A   1      34.191  34.275  28.870  1.00  0.00     0.042 C 
BRANCH  22  23
ATOM     23  C   UNL A   1      34.980  32.971  28.783  1.00  0.00     0.118 C 
BRANCH  23  24
ATOM     24  N   UNL A   1      34.190  31.868  28.246  1.00  0.00    -0.352 N 
ATOM     25  C   UNL A   1      34.553  30.600  27.869  1.00  0.00     0.251 C 
ATOM     26  H   UNL A   1      33.233  32.067  28.135  1.00  0.00     0.163 HD
ATOM     27  O   UNL A   1      33.748  29.913  27.234  1.00  0.00    -0.269 OA
BRANCH  25  28
ATOM     28  C   UNL A   1      35.886  30.053  28.197  1.00  0.00     0.039 A 
ATOM     29  C   UNL A   1      36.897  30.114  27.231  1.00  0.00     0.014 A 
ATOM     30  C   UNL A   1      36.138  29.449  29.430  1.00  0.00     0.014 A 
ATOM     31  C   UNL A   1      38.181  29.651  27.537  1.00  0.00     0.010 A 
ATOM     32  C   UNL A   1      37.432  29.050  29.757  1.00  0.00     0.010 A 
ATOM     33  C   UNL A   1      38.470  29.163  28.821  1.00  0.00    -0.014 A 
BRANCH  33  34
ATOM     34  C   UNL A   1      39.859  28.827  29.228  1.00  0.00     0.031 A 
ATOM     35  C   UNL A   1      40.731  29.850  29.903  1.00  0.00     0.074 A 
ATOM     36  C   UNL A   1      40.363  27.620  28.899  1.00  0.00     0.049 A 
ATOM     37  N   UNL A   1      41.995  29.767  30.228  1.00  0.00    -0.248 NA
ATOM     38  C   UNL A   1      40.107  31.140  30.237  1.00  0.00     0.031 C 
ATOM     39  C   UNL A   1      39.628  26.555  28.214  1.00  0.00     0.029 A 
ATOM     40  N   UNL A   1      41.618  27.093  29.079  1.00  0.00    -0.354 N 
ATOM     41  C   UNL A   1      42.325  30.995  30.790  1.00  0.00     0.074 A 
ATOM     42  C   UNL A   1      41.135  31.818  30.727  1.00  0.00     0.031 C 
ATOM     43  C   UNL A   1      40.439  25.499  28.043  1.00  0.00     0.029 A 
ATOM     44  C   UNL A   1      41.764  25.828  28.557  1.00  0.00     0.049 A 
ATOM     45  H   UNL A   1      42.345  27.575  29.536  1.00  0.00     0.167 HD
ATOM     46  C   UNL A   1      43.506  31.394  31.319  1.00  0.00     0.031 A 
ATOM     47  C   UNL A   1      42.845  25.029  28.478  1.00  0.00     0.031 A 
ATOM     48  C   UNL A   1      44.687  30.571  31.375  1.00  0.00     0.049 A 
ATOM     49  C   UNL A   1      44.155  25.513  29.032  1.00  0.00     0.074 A 
ATOM     50  C   UNL A   1      45.913  30.865  31.946  1.00  0.00     0.029 A 
ATOM     51  N   UNL A   1      44.795  29.300  30.831  1.00  0.00    -0.354 N 
ATOM     52  N   UNL A   1      44.427  26.651  29.626  1.00  0.00    -0.248 NA
ATOM     53  C   UNL A   1      45.305  24.607  28.906  1.00  0.00     0.031 C 
ATOM     54  C   UNL A   1      46.780  29.797  31.692  1.00  0.00     0.029 A 
ATOM     55  C   UNL A   1      46.077  28.812  31.016  1.00  0.00     0.049 A 
ATOM     56  H   UNL A   1      44.065  28.815  30.380  1.00  0.00     0.167 HD
ATOM     57  C   UNL A   1      45.777  26.592  29.955  1.00  0.00     0.074 A 
ATOM     58  C   UNL A   1      46.258  25.298  29.516  1.00  0.00     0.031 C 
ATOM     59  C   UNL A   1      46.548  27.528  30.561  1.00  0.00     0.031 A 
BRANCH  46  60
ATOM     60  C   UNL A   1      43.589  32.796  31.867  1.00  0.00    -0.014 A 
ATOM     61  C   UNL A   1      43.893  33.887  31.031  1.00  0.00     0.010 A 
ATOM     62  C   UNL A   1      43.310  33.034  33.225  1.00  0.00     0.010 A 
ATOM     63  C   UNL A   1      43.955  35.183  31.552  1.00  0.00     0.020 A 
ATOM     64  C   UNL A   1      43.344  34.332  33.744  1.00  0.00     0.020 A 
ATOM     65  C   UNL A   1      43.682  35.396  32.907  1.00  0.00     0.054 A 
BRANCH  65  66
ATOM     66  S   UNL A   1      43.750  37.092  33.549  1.00  0.00     0.124 S 
ATOM     67  O   UNL A   1      43.664  37.881  32.324  1.00  0.00    -0.237 OA
ATOM     68  O   UNL A   1      42.577  37.152  34.419  1.00  0.00    -0.237 OA
ATOM     69  O   UNL A   1      45.037  37.151  34.238  1.00  0.00    -0.744 OA
ENDBRANCH  65  66
ENDBRANCH  46  60
BRANCH  47  70
ATOM     70  C   UNL A   1      42.733  23.692  27.833  1.00  0.00    -0.014 A 
ATOM     71  C   UNL A   1      43.186  23.495  26.517  1.00  0.00     0.010 A 
ATOM     72  C   UNL A   1      42.191  22.603  28.541  1.00  0.00     0.010 A 
ATOM     73  C   UNL A   1      43.089  22.238  25.916  1.00  0.00     0.020 A 
ATOM     74  C   UNL A   1      42.119  21.336  27.953  1.00  0.00     0.020 A 
ATOM     75  C   UNL A   1      42.560  21.165  26.639  1.00  0.00     0.054 A 
BRANCH  75  76
ATOM     76  S   UNL A   1      42.499  19.528  25.856  1.00  0.00     0.124 S 
ATOM     77  O   UNL A   1      43.438  19.685  24.751  1.00  0.00    -0.237 OA
ATOM     78  O   UNL A   1      42.934  18.646  26.937  1.00  0.00    -0.237 OA
ATOM     79  O   UNL A   1      41.096  19.384  25.473  1.00  0.00    -0.744 OA
ENDBRANCH  75  76
ENDBRANCH  47  70
BRANCH  59  80
ATOM     80  C   UNL A   1      47.997  27.188  30.788  1.00  0.00    -0.014 A 
ATOM     81  C   UNL A   1      48.380  26.308  31.817  1.00  0.00     0.010 A 
ATOM     82  C   UNL A   1      48.980  27.704  29.926  1.00  0.00     0.010 A 
ATOM     83  C   UNL A   1      49.725  25.970  31.993  1.00  0.00     0.020 A 
ATOM     84  C   UNL A   1      50.323  27.347  30.082  1.00  0.00     0.020 A 
ATOM     85  C   UNL A   1      50.687  26.489  31.122  1.00  0.00     0.054 A 
BRANCH  85  86
ATOM     86  S   UNL A   1      52.417  25.990  31.339  1.00  0.00     0.124 S 
ATOM     87  O   UNL A   1      52.280  24.698  32.006  1.00  0.00    -0.237 OA
ATOM     88  O   UNL A   1      52.909  25.939  29.965  1.00  0.00    -0.237 OA
ATOM     89  O   UNL A   1      52.985  27.057  32.160  1.00  0.00    -0.744 OA
ENDBRANCH  85  86
ENDBRANCH  59  80
ENDBRANCH  33  34
ENDBRANCH  25  28
ENDBRANCH  23  24
ENDBRANCH  22  23
ENDBRANCH   1  22
TORSDOF 20
ENDMDL
MODEL 2
REMARK VINA RESULT:      -8.4      1.356      2.207
REMARK SMILES C#CCN(CC(=O)NCCCNC(=O)c1ccc(-c2c3nc(c(-c4ccc(S(=O)(=O)[O-])cc4)c4ccc([nH]4)c(-c4ccc(S(=O)(=O)[O-])cc4)c4nc(c(-c5ccc(S(=O)(=O)[O-])cc5)c5ccc2[nH]5)C=C4)C=C3)cc1)C(=O)NCC[C@@H]1CCCO1
REMARK SMILES IDX 9 1 8 2 6 3 7 4 5 6 4 7 3 8 2 9 1 10 75 11 76 12 77 13 78 15
REMARK SMILES IDX 79 16 80 17 81 18 84 19 82 20 83 21 10 22 11 23 12 24 13 25
REMARK SMILES IDX 14 27 15 28 16 29 74 30 17 31 73 32 18 33 19 34 20 35 67 36
REMARK SMILES IDX 21 37 72 38 66 39 68 40 22 41 71 42 65 43 64 44 23 46 53 47
REMARK SMILES IDX 34 48 52 49 35 50 38 51 51 52 69 53 36 54 37 55 50 57 70 58
REMARK SMILES IDX 39 59 24 60 25 61 33 62 26 63 32 64 27 65 28 66 29 67 30 68
REMARK SMILES IDX 31 69 54 70 55 71 63 72 56 73 62 74 57 75 58 76 59 77 60 78
REMARK SMILES IDX 61 79 40 80 41 81 49 82 42 83 48 84 43 85 44 86 45 87 46 88
REMARK SMILES IDX 47 89
REMARK H PARENT 8 5 77 14 12 26 68 45 38 56
REMARK Flexibility Score: inf
ROOT
ATOM      1  C   UNL A   1      33.843  34.893  30.637  1.00  0.00     0.117 C 
ENDROOT
BRANCH   1   2
ATOM      2  N   UNL A   1      33.883  33.961  31.743  1.00  0.00    -0.354 N 
ATOM      3  C   UNL A   1      34.663  33.974  32.862  1.00  0.00     0.239 C 
ATOM      4  O   UNL A   1      34.256  33.333  33.836  1.00  0.00    -0.273 OA
ATOM      5  H   UNL A   1      33.255  33.205  31.679  1.00  0.00     0.163 HD
BRANCH   3   6
ATOM      6  C   UNL A   1      35.908  34.869  32.980  1.00  0.00     0.222 C 
BRANCH   6   7
ATOM      7  N   UNL A   1      37.186  34.164  32.969  1.00  0.00    -0.304 N 
BRANCH   7   8
ATOM      8  C   UNL A   1      37.496  33.391  31.766  1.00  0.00     0.211 C 
BRANCH   8   9
ATOM      9  C   UNL A   1      38.323  34.188  30.770  1.00  0.00    -0.085 C 
ATOM     10  C   UNL A   1      39.032  34.871  29.915  1.00  0.00     0.006 C 
ENDBRANCH   8   9
ENDBRANCH   7   8
BRANCH   7  11
ATOM     11  C   UNL A   1      38.173  34.225  33.908  1.00  0.00     0.318 C 
ATOM     12  O   UNL A   1      38.408  35.261  34.541  1.00  0.00    -0.249 OA
ATOM     13  N   UNL A   1      38.946  33.192  34.267  1.00  0.00    -0.338 N 
ATOM     14  H   UNL A   1      39.368  33.363  35.140  1.00  0.00     0.165 HD
BRANCH  13  15
ATOM     15  C   UNL A   1      39.347  31.895  33.753  1.00  0.00     0.120 C 
BRANCH  15  16
ATOM     16  C   UNL A   1      40.818  31.609  34.055  1.00  0.00     0.053 C 
BRANCH  16  17
ATOM     17  C   UNL A   1      41.292  30.232  33.579  1.00  0.00     0.120 C 
ATOM     18  C   UNL A   1      40.210  29.285  33.084  1.00  0.00     0.034 C 
ATOM     19  O   UNL A   1      41.947  29.550  34.669  1.00  0.00    -0.378 OA
ATOM     20  C   UNL A   1      40.837  27.939  33.337  1.00  0.00     0.031 C 
ATOM     21  C   UNL A   1      41.528  28.174  34.661  1.00  0.00     0.160 C 
ENDBRANCH  16  17
ENDBRANCH  15  16
ENDBRANCH  13  15
ENDBRANCH   7  11
ENDBRANCH   6   7
ENDBRANCH   3   6
ENDBRANCH   1   2
BRANCH   1  22
ATOM     22  C   UNL A   1      34.223  34.270  29.298  1.00  0.00     0.042 C 
BRANCH  22  23
ATOM     23  C   UNL A   1      34.911  32.911  29.403  1.00  0.00     0.118 C 
BRANCH  23  24
ATOM     24  N   UNL A   1      34.137  31.837  28.789  1.00  0.00    -0.352 N 
ATOM     25  C   UNL A   1      34.526  30.629  28.272  1.00  0.00     0.251 C 
ATOM     26  H   UNL A   1      33.169  32.010  28.738  1.00  0.00     0.163 HD
ATOM     27  O   UNL A   1      33.718  29.978  27.604  1.00  0.00    -0.269 OA
BRANCH  25  28
ATOM     28  C   UNL A   1      35.891  30.105  28.488  1.00  0.00     0.039 A 
ATOM     29  C   UNL A   1      36.781  30.072  27.409  1.00  0.00     0.014 A 
ATOM     30  C   UNL A   1      36.289  29.611  29.732  1.00  0.00     0.014 A 
ATOM     31  C   UNL A   1      38.093  29.630  27.601  1.00  0.00     0.010 A 
ATOM     32  C   UNL A   1      37.614  29.234  29.939  1.00  0.00     0.010 A 
ATOM     33  C   UNL A   1      38.534  29.257  28.881  1.00  0.00    -0.014 A 
BRANCH  33  34
ATOM     34  C   UNL A   1      39.963  28.949  29.150  1.00  0.00     0.031 A 
ATOM     35  C   UNL A   1      40.894  30.013  29.661  1.00  0.00     0.074 A 
ATOM     36  C   UNL A   1      40.438  27.726  28.840  1.00  0.00     0.049 A 
ATOM     37  N   UNL A   1      42.188  29.953  29.847  1.00  0.00    -0.248 NA
ATOM     38  C   UNL A   1      40.300  31.319  29.984  1.00  0.00     0.031 C 
ATOM     39  C   UNL A   1      39.640  26.619  28.306  1.00  0.00     0.029 A 
ATOM     40  N   UNL A   1      41.710  27.213  28.911  1.00  0.00    -0.354 N 
ATOM     41  C   UNL A   1      42.567  31.213  30.295  1.00  0.00     0.074 A 
ATOM     42  C   UNL A   1      41.370  32.028  30.315  1.00  0.00     0.031 C 
ATOM     43  C   UNL A   1      40.437  25.557  28.110  1.00  0.00     0.029 A 
ATOM     44  C   UNL A   1      41.808  25.920  28.453  1.00  0.00     0.049 A 
ATOM     45  H   UNL A   1      42.478  27.723  29.254  1.00  0.00     0.167 HD
ATOM     46  C   UNL A   1      43.796  31.646  30.663  1.00  0.00     0.031 A 
ATOM     47  C   UNL A   1      42.881  25.119  28.302  1.00  0.00     0.031 A 
ATOM     48  C   UNL A   1      44.983  30.831  30.637  1.00  0.00     0.049 A 
ATOM     49  C   UNL A   1      44.240  25.639  28.677  1.00  0.00     0.074 A 
ATOM     50  C   UNL A   1      46.262  31.162  31.050  1.00  0.00     0.029 A 
ATOM     51  N   UNL A   1      45.041  29.529  30.162  1.00  0.00    -0.354 N 
ATOM     52  N   UNL A   1      44.566  26.811  29.167  1.00  0.00    -0.248 NA
ATOM     53  C   UNL A   1      45.376  24.730  28.477  1.00  0.00     0.031 C 
ATOM     54  C   UNL A   1      47.106  30.083  30.765  1.00  0.00     0.029 A 
ATOM     55  C   UNL A   1      46.341  29.057  30.232  1.00  0.00     0.049 A 
ATOM     56  H   UNL A   1      44.271  29.016  29.825  1.00  0.00     0.167 HD
ATOM     57  C   UNL A   1      45.944  26.776  29.346  1.00  0.00     0.074 A 
ATOM     58  C   UNL A   1      46.386  25.458  28.935  1.00  0.00     0.031 C 
ATOM     59  C   UNL A   1      46.770  27.749  29.805  1.00  0.00     0.031 A 
BRANCH  46  60
ATOM     60  C   UNL A   1      43.927  33.080  31.114  1.00  0.00    -0.014 A 
ATOM     61  C   UNL A   1      44.472  34.061  30.266  1.00  0.00     0.010 A 
ATOM     62  C   UNL A   1      43.452  33.460  32.382  1.00  0.00     0.010 A 
ATOM     63  C   UNL A   1      44.576  35.388  30.693  1.00  0.00     0.020 A 
ATOM     64  C   UNL A   1      43.529  34.791  32.802  1.00  0.00     0.020 A 
ATOM     65  C   UNL A   1      44.105  35.744  31.962  1.00  0.00     0.054 A 
BRANCH  65  66
ATOM     66  S   UNL A   1      44.235  37.478  32.480  1.00  0.00     0.124 S 
ATOM     67  O   UNL A   1      45.605  37.542  32.978  1.00  0.00    -0.237 OA
ATOM     68  O   UNL A   1      43.985  38.203  31.236  1.00  0.00    -0.237 OA
ATOM     69  O   UNL A   1      43.195  37.615  33.497  1.00  0.00    -0.744 OA
ENDBRANCH  65  66
ENDBRANCH  46  60
BRANCH  47  70
ATOM     70  C   UNL A   1      42.710  23.745  27.755  1.00  0.00    -0.014 A 
ATOM     71  C   UNL A   1      42.644  22.638  28.617  1.00  0.00     0.010 A 
ATOM     72  C   UNL A   1      42.590  23.541  26.367  1.00  0.00     0.010 A 
ATOM     73  C   UNL A   1      42.474  21.349  28.103  1.00  0.00     0.020 A 
ATOM     74  C   UNL A   1      42.391  22.257  25.851  1.00  0.00     0.020 A 
ATOM     75  C   UNL A   1      42.344  21.167  26.723  1.00  0.00     0.054 A 
BRANCH  75  76
ATOM     76  S   UNL A   1      42.065  19.491  26.085  1.00  0.00     0.124 S 
ATOM     77  O   UNL A   1      40.636  19.510  25.796  1.00  0.00    -0.237 OA
ATOM     78  O   UNL A   1      42.947  19.448  24.921  1.00  0.00    -0.237 OA
ATOM     79  O   UNL A   1      42.471  18.631  27.194  1.00  0.00    -0.744 OA
ENDBRANCH  75  76
ENDBRANCH  47  70
BRANCH  59  80
ATOM     80  C   UNL A   1      48.238  27.426  29.890  1.00  0.00    -0.014 A 
ATOM     81  C   UNL A   1      49.101  27.701  28.814  1.00  0.00     0.010 A 
ATOM     82  C   UNL A   1      48.770  26.898  31.080  1.00  0.00     0.010 A 
ATOM     83  C   UNL A   1      50.469  27.431  28.920  1.00  0.00     0.020 A 
ATOM     84  C   UNL A   1      50.142  26.654  31.199  1.00  0.00     0.020 A 
ATOM     85  C   UNL A   1      50.981  26.913  30.112  1.00  0.00     0.054 A 
BRANCH  85  86
ATOM     86  S   UNL A   1      52.767  26.626  30.241  1.00  0.00     0.124 S 
ATOM     87  O   UNL A   1      53.122  26.295  28.864  1.00  0.00    -0.237 OA
ATOM     88  O   UNL A   1      53.263  27.911  30.726  1.00  0.00    -0.237 OA
ATOM     89  O   UNL A   1      52.873  25.523  31.194  1.00  0.00    -0.744 OA
ENDBRANCH  85  86
ENDBRANCH  59  80
ENDBRANCH  33  34
ENDBRANCH  25  28
ENDBRANCH  23  24
ENDBRANCH  22  23
ENDBRANCH   1  22
TORSDOF 20
ENDMDL
MODEL 3
REMARK VINA RESULT:      -8.2      4.418     10.971
REMARK SMILES C#CCN(CC(=O)NCCCNC(=O)c1ccc(-c2c3nc(c(-c4ccc(S(=O)(=O)[O-])cc4)c4ccc([nH]4)c(-c4ccc(S(=O)(=O)[O-])cc4)c4nc(c(-c5ccc(S(=O)(=O)[O-])cc5)c5ccc2[nH]5)C=C4)C=C3)cc1)C(=O)NCC[C@@H]1CCCO1
REMARK SMILES IDX 9 1 8 2 6 3 7 4 5 6 4 7 3 8 2 9 1 10 75 11 76 12 77 13 78 15
REMARK SMILES IDX 79 16 80 17 81 18 84 19 82 20 83 21 10 22 11 23 12 24 13 25
REMARK SMILES IDX 14 27 15 28 16 29 74 30 17 31 73 32 18 33 19 34 20 35 67 36
REMARK SMILES IDX 21 37 72 38 66 39 68 40 22 41 71 42 65 43 64 44 23 46 53 47
REMARK SMILES IDX 34 48 52 49 35 50 38 51 51 52 69 53 36 54 37 55 50 57 70 58
REMARK SMILES IDX 39 59 24 60 25 61 33 62 26 63 32 64 27 65 28 66 29 67 30 68
REMARK SMILES IDX 31 69 54 70 55 71 63 72 56 73 62 74 57 75 58 76 59 77 60 78
REMARK SMILES IDX 61 79 40 80 41 81 49 82 42 83 48 84 43 85 44 86 45 87 46 88
REMARK SMILES IDX 47 89
REMARK H PARENT 8 5 77 14 12 26 68 45 38 56
REMARK Flexibility Score: inf
ROOT
ATOM      1  C   UNL A   1      31.203  27.256  26.595  1.00  0.00     0.117 C 
ENDROOT
BRANCH   1   2
ATOM      2  N   UNL A   1      31.811  25.942  26.603  1.00  0.00    -0.354 N 
ATOM      3  C   UNL A   1      32.062  25.095  25.564  1.00  0.00     0.239 C 
ATOM      4  O   UNL A   1      32.931  24.235  25.741  1.00  0.00    -0.273 OA
ATOM      5  H   UNL A   1      32.083  25.610  27.490  1.00  0.00     0.163 HD
BRANCH   3   6
ATOM      6  C   UNL A   1      31.421  25.287  24.179  1.00  0.00     0.222 C 
BRANCH   6   7
ATOM      7  N   UNL A   1      32.064  26.283  23.328  1.00  0.00    -0.304 N 
BRANCH   7   8
ATOM      8  C   UNL A   1      33.193  25.823  22.519  1.00  0.00     0.211 C 
BRANCH   8   9
ATOM      9  C   UNL A   1      33.164  24.319  22.297  1.00  0.00    -0.085 C 
ATOM     10  C   UNL A   1      33.139  23.029  22.107  1.00  0.00     0.006 C 
ENDBRANCH   8   9
ENDBRANCH   7   8
BRANCH   7  11
ATOM     11  C   UNL A   1      31.670  27.573  23.120  1.00  0.00     0.318 C 
ATOM     12  O   UNL A   1      32.488  28.486  22.960  1.00  0.00    -0.249 OA
ATOM     13  N   UNL A   1      30.397  27.973  23.028  1.00  0.00    -0.338 N 
ATOM     14  H   UNL A   1      30.341  28.853  22.589  1.00  0.00     0.165 HD
BRANCH  13  15
ATOM     15  C   UNL A   1      29.071  27.497  23.383  1.00  0.00     0.120 C 
BRANCH  15  16
ATOM     16  C   UNL A   1      27.999  28.531  23.037  1.00  0.00     0.053 C 
BRANCH  16  17
ATOM     17  C   UNL A   1      28.559  29.920  22.717  1.00  0.00     0.120 C 
ATOM     18  C   UNL A   1      27.745  31.103  23.218  1.00  0.00     0.034 C 
ATOM     19  O   UNL A   1      28.651  30.081  21.286  1.00  0.00    -0.378 OA
ATOM     20  C   UNL A   1      28.134  32.182  22.242  1.00  0.00     0.031 C 
ATOM     21  C   UNL A   1      28.205  31.406  20.948  1.00  0.00     0.160 C 
ENDBRANCH  16  17
ENDBRANCH  15  16
ENDBRANCH  13  15
ENDBRANCH   7  11
ENDBRANCH   6   7
ENDBRANCH   3   6
ENDBRANCH   1   2
BRANCH   1  22
ATOM     22  C   UNL A   1      31.812  28.217  27.610  1.00  0.00     0.042 C 
BRANCH  22  23
ATOM     23  C   UNL A   1      33.154  28.814  27.192  1.00  0.00     0.118 C 
BRANCH  23  24
ATOM     24  N   UNL A   1      33.152  30.273  27.206  1.00  0.00    -0.352 N 
ATOM     25  C   UNL A   1      34.025  31.170  27.765  1.00  0.00     0.251 C 
ATOM     26  H   UNL A   1      32.394  30.685  26.732  1.00  0.00     0.163 HD
ATOM     27  O   UNL A   1      33.698  32.358  27.835  1.00  0.00    -0.269 OA
BRANCH  25  28
ATOM     28  C   UNL A   1      35.336  30.738  28.294  1.00  0.00     0.039 A 
ATOM     29  C   UNL A   1      36.495  31.360  27.818  1.00  0.00     0.014 A 
ATOM     30  C   UNL A   1      35.436  29.701  29.224  1.00  0.00     0.014 A 
ATOM     31  C   UNL A   1      37.742  31.005  28.341  1.00  0.00     0.010 A 
ATOM     32  C   UNL A   1      36.669  29.395  29.794  1.00  0.00     0.010 A 
ATOM     33  C   UNL A   1      37.832  30.055  29.372  1.00  0.00    -0.014 A 
BRANCH  33  34
ATOM     34  C   UNL A   1      39.118  29.784  30.066  1.00  0.00     0.031 A 
ATOM     35  C   UNL A   1      40.022  28.676  29.603  1.00  0.00     0.074 A 
ATOM     36  C   UNL A   1      39.421  30.485  31.178  1.00  0.00     0.049 A 
ATOM     37  N   UNL A   1      41.123  28.229  30.151  1.00  0.00    -0.248 NA
ATOM     38  C   UNL A   1      39.628  27.963  28.378  1.00  0.00     0.031 C 
ATOM     39  C   UNL A   1      38.608  31.563  31.746  1.00  0.00     0.029 A 
ATOM     40  N   UNL A   1      40.485  30.383  32.040  1.00  0.00    -0.354 N 
ATOM     41  C   UNL A   1      41.547  27.175  29.349  1.00  0.00     0.074 A 
ATOM     42  C   UNL A   1      40.563  27.026  28.298  1.00  0.00     0.031 C 
ATOM     43  C   UNL A   1      39.207  32.030  32.853  1.00  0.00     0.029 A 
ATOM     44  C   UNL A   1      40.417  31.253  33.103  1.00  0.00     0.049 A 
ATOM     45  H   UNL A   1      41.224  29.746  31.911  1.00  0.00     0.167 HD
ATOM     46  C   UNL A   1      42.658  26.411  29.473  1.00  0.00     0.031 A 
ATOM     47  C   UNL A   1      41.222  31.399  34.173  1.00  0.00     0.031 A 
ATOM     48  C   UNL A   1      43.631  26.564  30.524  1.00  0.00     0.049 A 
ATOM     49  C   UNL A   1      42.425  30.508  34.310  1.00  0.00     0.074 A 
ATOM     50  C   UNL A   1      44.821  25.878  30.699  1.00  0.00     0.029 A 
ATOM     51  N   UNL A   1      43.523  27.452  31.583  1.00  0.00    -0.354 N 
ATOM     52  N   UNL A   1      42.848  29.566  33.501  1.00  0.00    -0.248 NA
ATOM     53  C   UNL A   1      43.260  30.700  35.504  1.00  0.00     0.031 C 
ATOM     54  C   UNL A   1      45.401  26.308  31.897  1.00  0.00     0.029 A 
ATOM     55  C   UNL A   1      44.603  27.305  32.438  1.00  0.00     0.049 A 
ATOM     56  H   UNL A   1      42.787  28.094  31.709  1.00  0.00     0.167 HD
ATOM     57  C   UNL A   1      44.004  29.059  34.083  1.00  0.00     0.074 A 
ATOM     58  C   UNL A   1      44.228  29.817  35.298  1.00  0.00     0.031 C 
ATOM     59  C   UNL A   1      44.806  28.054  33.652  1.00  0.00     0.031 A 
BRANCH  46  60
ATOM     60  C   UNL A   1      42.876  25.323  28.453  1.00  0.00    -0.014 A 
ATOM     61  C   UNL A   1      43.604  25.567  27.274  1.00  0.00     0.010 A 
ATOM     62  C   UNL A   1      42.391  24.026  28.699  1.00  0.00     0.010 A 
ATOM     63  C   UNL A   1      43.808  24.545  26.343  1.00  0.00     0.020 A 
ATOM     64  C   UNL A   1      42.616  22.994  27.783  1.00  0.00     0.020 A 
ATOM     65  C   UNL A   1      43.309  23.264  26.603  1.00  0.00     0.054 A 
BRANCH  65  66
ATOM     66  S   UNL A   1      43.608  21.953  25.385  1.00  0.00     0.124 S 
ATOM     67  O   UNL A   1      43.496  22.681  24.125  1.00  0.00    -0.237 OA
ATOM     68  O   UNL A   1      44.953  21.497  25.729  1.00  0.00    -0.237 OA
ATOM     69  O   UNL A   1      42.541  20.989  25.645  1.00  0.00    -0.744 OA
ENDBRANCH  65  66
ENDBRANCH  46  60
BRANCH  47  70
ATOM     70  C   UNL A   1      40.904  32.422  35.207  1.00  0.00    -0.014 A 
ATOM     71  C   UNL A   1      40.071  32.102  36.292  1.00  0.00     0.010 A 
ATOM     72  C   UNL A   1      41.452  33.716  35.121  1.00  0.00     0.010 A 
ATOM     73  C   UNL A   1      39.780  33.060  37.267  1.00  0.00     0.020 A 
ATOM     74  C   UNL A   1      41.187  34.668  36.110  1.00  0.00     0.020 A 
ATOM     75  C   UNL A   1      40.344  34.336  37.172  1.00  0.00     0.054 A 
BRANCH  75  76
ATOM     76  S   UNL A   1      39.998  35.544  38.482  1.00  0.00     0.124 S 
ATOM     77  O   UNL A   1      39.676  36.741  37.714  1.00  0.00    -0.237 OA
ATOM     78  O   UNL A   1      38.880  34.926  39.192  1.00  0.00    -0.237 OA
ATOM     79  O   UNL A   1      41.249  35.599  39.235  1.00  0.00    -0.744 OA
ENDBRANCH  75  76
ENDBRANCH  47  70
BRANCH  59  80
ATOM     80  C   UNL A   1      46.003  27.715  34.498  1.00  0.00    -0.014 A 
ATOM     81  C   UNL A   1      47.239  28.355  34.294  1.00  0.00     0.010 A 
ATOM     82  C   UNL A   1      45.877  26.789  35.550  1.00  0.00     0.010 A 
ATOM     83  C   UNL A   1      48.332  28.058  35.112  1.00  0.00     0.020 A 
ATOM     84  C   UNL A   1      46.961  26.510  36.387  1.00  0.00     0.020 A 
ATOM     85  C   UNL A   1      48.185  27.140  36.155  1.00  0.00     0.054 A 
BRANCH  85  86
ATOM     86  S   UNL A   1      49.606  26.816  37.235  1.00  0.00     0.124 S 
ATOM     87  O   UNL A   1      50.040  25.498  36.780  1.00  0.00    -0.237 OA
ATOM     88  O   UNL A   1      50.508  27.919  36.917  1.00  0.00    -0.237 OA
ATOM     89  O   UNL A   1      49.035  26.853  38.580  1.00  0.00    -0.744 OA
ENDBRANCH  85  86
ENDBRANCH  59  80
ENDBRANCH  33  34
ENDBRANCH  25  28
ENDBRANCH  23  24
ENDBRANCH  22  23
ENDBRANCH   1  22
TORSDOF 20
ENDMDL
