MODEL 1
REMARK VINA RESULT:     -12.5      0.000      0.000
REMARK SMILES O=C(NCCCNC(=O)[C@H]1[C@H]2CC[C@H](C2)[C@H]1NC(=O)c1ccncc1Cl)c1ccc(-c2c3nc(c(-c4ccc(S(=O)(=O)[O-])cc4)c4ccc([nH]4)c(-c4ccc(S(=O)(=O)[O-])cc4)c4nc(c(-c5ccc(S(=O)(=O)[O-])cc5)c5ccc2[nH]5)C=C4)C=C3)cc1
REMARK SMILES IDX 4 1 3 2 1 3 2 4 27 6 28 7 86 8 29 9 85 10 30 11 31 12 32 13
REMARK SMILES IDX 79 14 33 15 84 16 78 17 80 18 34 19 83 20 77 21 76 22 35 24
REMARK SMILES IDX 65 25 46 26 64 27 47 28 50 29 63 30 81 31 48 32 49 33 62 35
REMARK SMILES IDX 82 36 51 37 36 38 37 39 45 40 38 41 44 42 39 43 40 44 41 45
REMARK SMILES IDX 42 46 43 47 66 48 67 49 75 50 68 51 74 52 69 53 70 54 71 55
REMARK SMILES IDX 72 56 73 57 52 58 53 59 61 60 54 61 60 62 55 63 56 64 57 65
REMARK SMILES IDX 58 66 59 67 5 68 6 69 7 70 8 71 9 73 10 74 11 75 16 76 12 77
REMARK SMILES IDX 15 78 14 79 13 80 17 81 18 82 19 84 20 85 21 86 25 87 22 88
REMARK SMILES IDX 24 89 26 90 23 91
REMARK H PARENT 3 5 80 23 50 34 7 72 17 83
REMARK Flexibility Score: inf
ROOT
ATOM      1  C   UNL A   1      39.522  23.590  26.908  1.00  0.00     0.118 C 
ENDROOT
BRANCH   1   2
ATOM      2  N   UNL A   1      40.439  24.275  26.007  1.00  0.00    -0.352 N 
ATOM      3  O   UNL A   1      41.535  26.008  25.075  1.00  0.00    -0.269 OA
ATOM      4  C   UNL A   1      40.940  25.552  26.052  1.00  0.00     0.251 C 
ATOM      5  H   UNL A   1      40.749  23.736  25.244  1.00  0.00     0.163 HD
BRANCH   4   6
ATOM      6  C   UNL A   1      40.743  26.388  27.255  1.00  0.00     0.039 A 
ATOM      7  C   UNL A   1      41.486  27.554  27.431  1.00  0.00     0.014 A 
ATOM      8  C   UNL A   1      39.788  26.022  28.209  1.00  0.00     0.014 A 
ATOM      9  C   UNL A   1      41.414  28.243  28.634  1.00  0.00     0.010 A 
ATOM     10  C   UNL A   1      39.627  26.791  29.368  1.00  0.00     0.010 A 
ATOM     11  C   UNL A   1      40.463  27.892  29.607  1.00  0.00    -0.014 A 
BRANCH  11  12
ATOM     12  C   UNL A   1      40.322  28.763  30.804  1.00  0.00     0.031 A 
ATOM     13  C   UNL A   1      41.228  28.625  31.998  1.00  0.00     0.074 A 
ATOM     14  C   UNL A   1      39.396  29.744  30.768  1.00  0.00     0.049 A 
ATOM     15  N   UNL A   1      41.282  29.370  33.074  1.00  0.00    -0.248 NA
ATOM     16  C   UNL A   1      42.190  27.511  31.994  1.00  0.00     0.031 C 
ATOM     17  C   UNL A   1      38.444  29.962  29.672  1.00  0.00     0.029 A 
ATOM     18  N   UNL A   1      39.125  30.764  31.643  1.00  0.00    -0.354 N 
ATOM     19  C   UNL A   1      42.275  28.818  33.875  1.00  0.00     0.074 A 
ATOM     20  C   UNL A   1      42.773  27.651  33.178  1.00  0.00     0.031 C 
ATOM     21  C   UNL A   1      37.750  31.083  29.905  1.00  0.00     0.029 A 
ATOM     22  C   UNL A   1      38.145  31.620  31.200  1.00  0.00     0.049 A 
ATOM     23  H   UNL A   1      39.587  30.871  32.506  1.00  0.00     0.167 HD
ATOM     24  C   UNL A   1      42.734  29.252  35.075  1.00  0.00     0.031 A 
ATOM     25  C   UNL A   1      37.601  32.709  31.775  1.00  0.00     0.031 A 
ATOM     26  C   UNL A   1      42.223  30.408  35.768  1.00  0.00     0.049 A 
ATOM     27  C   UNL A   1      38.113  33.148  33.115  1.00  0.00     0.074 A 
ATOM     28  C   UNL A   1      42.626  30.929  36.987  1.00  0.00     0.029 A 
ATOM     29  N   UNL A   1      41.199  31.223  35.308  1.00  0.00    -0.354 N 
ATOM     30  N   UNL A   1      39.071  32.622  33.842  1.00  0.00    -0.248 NA
ATOM     31  C   UNL A   1      37.474  34.326  33.712  1.00  0.00     0.031 C 
ATOM     32  C   UNL A   1      41.811  32.026  37.287  1.00  0.00     0.029 A 
ATOM     33  C   UNL A   1      40.944  32.231  36.226  1.00  0.00     0.049 A 
ATOM     34  H   UNL A   1      40.723  31.104  34.454  1.00  0.00     0.167 HD
ATOM     35  C   UNL A   1      39.154  33.413  34.981  1.00  0.00     0.074 A 
ATOM     36  C   UNL A   1      38.179  34.473  34.825  1.00  0.00     0.031 C 
ATOM     37  C   UNL A   1      39.958  33.269  36.064  1.00  0.00     0.031 A 
BRANCH  24  38
ATOM     38  C   UNL A   1      43.846  28.468  35.729  1.00  0.00    -0.014 A 
ATOM     39  C   UNL A   1      43.566  27.371  36.563  1.00  0.00     0.010 A 
ATOM     40  C   UNL A   1      45.188  28.783  35.446  1.00  0.00     0.010 A 
ATOM     41  C   UNL A   1      44.605  26.621  37.123  1.00  0.00     0.020 A 
ATOM     42  C   UNL A   1      46.231  28.018  35.982  1.00  0.00     0.020 A 
ATOM     43  C   UNL A   1      45.932  26.949  36.827  1.00  0.00     0.054 A 
BRANCH  43  44
ATOM     44  S   UNL A   1      47.256  25.931  37.537  1.00  0.00     0.124 S 
ATOM     45  O   UNL A   1      47.350  26.463  38.895  1.00  0.00    -0.237 OA
ATOM     46  O   UNL A   1      46.710  24.580  37.431  1.00  0.00    -0.237 OA
ATOM     47  O   UNL A   1      48.405  26.206  36.679  1.00  0.00    -0.744 OA
ENDBRANCH  43  44
ENDBRANCH  24  38
BRANCH  25  48
ATOM     48  C   UNL A   1      36.485  33.425  31.100  1.00  0.00    -0.014 A 
ATOM     49  C   UNL A   1      36.601  33.875  29.774  1.00  0.00     0.010 A 
ATOM     50  C   UNL A   1      35.282  33.654  31.795  1.00  0.00     0.010 A 
ATOM     51  C   UNL A   1      35.549  34.568  29.168  1.00  0.00     0.020 A 
ATOM     52  C   UNL A   1      34.215  34.311  31.181  1.00  0.00     0.020 A 
ATOM     53  C   UNL A   1      34.363  34.782  29.876  1.00  0.00     0.054 A 
BRANCH  53  54
ATOM     54  S   UNL A   1      33.000  35.661  29.065  1.00  0.00     0.124 S 
ATOM     55  O   UNL A   1      33.701  36.750  28.392  1.00  0.00    -0.237 OA
ATOM     56  O   UNL A   1      32.436  34.634  28.192  1.00  0.00    -0.237 OA
ATOM     57  O   UNL A   1      32.141  36.061  30.178  1.00  0.00    -0.744 OA
ENDBRANCH  53  54
ENDBRANCH  25  48
BRANCH  37  58
ATOM     58  C   UNL A   1      39.822  34.303  37.152  1.00  0.00    -0.014 A 
ATOM     59  C   UNL A   1      39.024  34.066  38.286  1.00  0.00     0.010 A 
ATOM     60  C   UNL A   1      40.505  35.527  37.037  1.00  0.00     0.010 A 
ATOM     61  C   UNL A   1      38.868  35.056  39.258  1.00  0.00     0.020 A 
ATOM     62  C   UNL A   1      40.378  36.506  38.025  1.00  0.00     0.020 A 
ATOM     63  C   UNL A   1      39.542  36.273  39.118  1.00  0.00     0.054 A 
BRANCH  63  64
ATOM     64  S   UNL A   1      39.328  37.541  40.397  1.00  0.00     0.124 S 
ATOM     65  O   UNL A   1      39.018  36.735  41.574  1.00  0.00    -0.237 OA
ATOM     66  O   UNL A   1      40.631  38.202  40.413  1.00  0.00    -0.237 OA
ATOM     67  O   UNL A   1      38.227  38.359  39.894  1.00  0.00    -0.744 OA
ENDBRANCH  63  64
ENDBRANCH  37  58
ENDBRANCH  11  12
ENDBRANCH   4   6
ENDBRANCH   1   2
BRANCH   1  68
ATOM     68  C   UNL A   1      38.793  22.429  26.236  1.00  0.00     0.042 C 
BRANCH  68  69
ATOM     69  C   UNL A   1      37.468  22.811  25.578  1.00  0.00     0.117 C 
BRANCH  69  70
ATOM     70  N   UNL A   1      36.326  22.420  26.381  1.00  0.00    -0.356 N 
ATOM     71  C   UNL A   1      35.017  22.778  26.250  1.00  0.00     0.225 C 
ATOM     72  H   UNL A   1      36.524  21.808  27.127  1.00  0.00     0.163 HD
ATOM     73  O   UNL A   1      34.454  22.938  27.323  1.00  0.00    -0.275 OA
BRANCH  71  74
ATOM     74  C   UNL A   1      34.420  23.087  24.880  1.00  0.00     0.104 C 
ATOM     75  C   UNL A   1      33.646  22.205  23.850  1.00  0.00     0.004 C 
ATOM     76  C   UNL A   1      33.666  24.404  24.784  1.00  0.00     0.098 C 
ATOM     77  C   UNL A   1      32.087  22.202  23.812  1.00  0.00     0.005 C 
ATOM     78  C   UNL A   1      33.811  23.179  22.657  1.00  0.00     0.010 C 
ATOM     79  C   UNL A   1      33.018  24.312  23.367  1.00  0.00     0.013 C 
ATOM     80  C   UNL A   1      31.665  23.641  23.467  1.00  0.00     0.006 C 
BRANCH  76  81
ATOM     81  N   UNL A   1      32.824  24.794  25.937  1.00  0.00    -0.348 N 
ATOM     82  C   UNL A   1      31.749  25.660  26.138  1.00  0.00     0.253 C 
ATOM     83  H   UNL A   1      33.086  24.328  26.764  1.00  0.00     0.164 HD
ATOM     84  O   UNL A   1      30.856  25.259  26.893  1.00  0.00    -0.269 OA
BRANCH  82  85
ATOM     85  C   UNL A   1      31.777  27.132  25.911  1.00  0.00     0.061 A 
ATOM     86  C   UNL A   1      32.151  27.832  27.073  1.00  0.00     0.035 A 
ATOM     87  C   UNL A   1      31.306  27.895  24.829  1.00  0.00     0.072 A 
ATOM     88  C   UNL A   1      32.139  29.218  27.080  1.00  0.00     0.112 A 
ATOM     89  C   UNL A   1      31.372  29.286  24.935  1.00  0.00     0.132 A 
ATOM     90  Cl  UNL A   1      30.718  27.396  23.296  1.00  0.00    -0.082 Cl
ATOM     91  N   UNL A   1      31.787  29.966  26.022  1.00  0.00    -0.263 NA
ENDBRANCH  82  85
ENDBRANCH  76  81
ENDBRANCH  71  74
ENDBRANCH  69  70
ENDBRANCH  68  69
ENDBRANCH   1  68
TORSDOF 15
ENDMDL
MODEL 2
REMARK VINA RESULT:     -12.5      6.724     11.990
REMARK SMILES O=C(NCCCNC(=O)[C@H]1[C@H]2CC[C@H](C2)[C@H]1NC(=O)c1ccncc1Cl)c1ccc(-c2c3nc(c(-c4ccc(S(=O)(=O)[O-])cc4)c4ccc([nH]4)c(-c4ccc(S(=O)(=O)[O-])cc4)c4nc(c(-c5ccc(S(=O)(=O)[O-])cc5)c5ccc2[nH]5)C=C4)C=C3)cc1
REMARK SMILES IDX 4 1 3 2 1 3 2 4 27 6 28 7 86 8 29 9 85 10 30 11 31 12 32 13
REMARK SMILES IDX 79 14 33 15 84 16 78 17 80 18 34 19 83 20 77 21 76 22 35 24
REMARK SMILES IDX 65 25 46 26 64 27 47 28 50 29 63 30 81 31 48 32 49 33 62 35
REMARK SMILES IDX 82 36 51 37 36 38 37 39 45 40 38 41 44 42 39 43 40 44 41 45
REMARK SMILES IDX 42 46 43 47 66 48 67 49 75 50 68 51 74 52 69 53 70 54 71 55
REMARK SMILES IDX 72 56 73 57 52 58 53 59 61 60 54 61 60 62 55 63 56 64 57 65
REMARK SMILES IDX 58 66 59 67 5 68 6 69 7 70 8 71 9 73 10 74 11 75 16 76 12 77
REMARK SMILES IDX 15 78 14 79 13 80 17 81 18 82 19 84 20 85 21 86 25 87 22 88
REMARK SMILES IDX 24 89 26 90 23 91
REMARK H PARENT 3 5 80 23 50 34 7 72 17 83
REMARK Flexibility Score: inf
ROOT
ATOM      1  C   UNL A   1      35.235  29.226  27.552  1.00  0.00     0.118 C 
ENDROOT
BRANCH   1   2
ATOM      2  N   UNL A   1      35.310  29.668  28.939  1.00  0.00    -0.352 N 
ATOM      3  O   UNL A   1      36.165  29.879  31.012  1.00  0.00    -0.269 OA
ATOM      4  C   UNL A   1      36.366  29.659  29.817  1.00  0.00     0.251 C 
ATOM      5  H   UNL A   1      34.471  30.029  29.305  1.00  0.00     0.163 HD
BRANCH   4   6
ATOM      6  C   UNL A   1      37.733  29.361  29.338  1.00  0.00     0.039 A 
ATOM      7  C   UNL A   1      38.677  28.812  30.202  1.00  0.00     0.014 A 
ATOM      8  C   UNL A   1      38.072  29.609  28.004  1.00  0.00     0.014 A 
ATOM      9  C   UNL A   1      39.998  28.688  29.793  1.00  0.00     0.010 A 
ATOM     10  C   UNL A   1      39.377  29.365  27.558  1.00  0.00     0.010 A 
ATOM     11  C   UNL A   1      40.362  28.931  28.458  1.00  0.00    -0.014 A 
BRANCH  11  12
ATOM     12  C   UNL A   1      41.756  28.628  28.039  1.00  0.00     0.031 A 
ATOM     13  C   UNL A   1      42.833  29.679  28.042  1.00  0.00     0.074 A 
ATOM     14  C   UNL A   1      42.058  27.352  27.721  1.00  0.00     0.049 A 
ATOM     15  N   UNL A   1      44.110  29.542  27.789  1.00  0.00    -0.248 NA
ATOM     16  C   UNL A   1      42.433  31.059  28.360  1.00  0.00     0.031 C 
ATOM     17  C   UNL A   1      41.091  26.249  27.661  1.00  0.00     0.029 A 
ATOM     18  N   UNL A   1      43.255  26.752  27.429  1.00  0.00    -0.354 N 
ATOM     19  C   UNL A   1      44.667  30.810  27.911  1.00  0.00     0.074 A 
ATOM     20  C   UNL A   1      43.580  31.714  28.226  1.00  0.00     0.031 C 
ATOM     21  C   UNL A   1      41.741  25.102  27.427  1.00  0.00     0.029 A 
ATOM     22  C   UNL A   1      43.156  25.394  27.238  1.00  0.00     0.049 A 
ATOM     23  H   UNL A   1      44.104  27.247  27.362  1.00  0.00     0.167 HD
ATOM     24  C   UNL A   1      45.964  31.182  27.784  1.00  0.00     0.031 A 
ATOM     25  C   UNL A   1      44.091  24.478  26.926  1.00  0.00     0.031 A 
ATOM     26  C   UNL A   1      47.038  30.278  27.458  1.00  0.00     0.049 A 
ATOM     27  C   UNL A   1      45.514  24.927  26.765  1.00  0.00     0.074 A 
ATOM     28  C   UNL A   1      48.387  30.559  27.310  1.00  0.00     0.029 A 
ATOM     29  N   UNL A   1      46.890  28.917  27.228  1.00  0.00    -0.354 N 
ATOM     30  N   UNL A   1      46.018  26.129  26.911  1.00  0.00    -0.248 NA
ATOM     31  C   UNL A   1      46.493  23.896  26.402  1.00  0.00     0.031 C 
ATOM     32  C   UNL A   1      49.044  29.381  26.940  1.00  0.00     0.029 A 
ATOM     33  C   UNL A   1      48.119  28.350  26.922  1.00  0.00     0.049 A 
ATOM     34  H   UNL A   1      46.038  28.426  27.276  1.00  0.00     0.167 HD
ATOM     35  C   UNL A   1      47.379  25.997  26.664  1.00  0.00     0.074 A 
ATOM     36  C   UNL A   1      47.621  24.593  26.401  1.00  0.00     0.031 C 
ATOM     37  C   UNL A   1      48.340  26.954  26.646  1.00  0.00     0.031 A 
BRANCH  24  38
ATOM     38  C   UNL A   1      46.302  32.639  27.989  1.00  0.00    -0.014 A 
ATOM     39  C   UNL A   1      46.672  33.125  29.255  1.00  0.00     0.010 A 
ATOM     40  C   UNL A   1      46.323  33.517  26.890  1.00  0.00     0.010 A 
ATOM     41  C   UNL A   1      47.032  34.466  29.424  1.00  0.00     0.020 A 
ATOM     42  C   UNL A   1      46.709  34.853  27.048  1.00  0.00     0.020 A 
ATOM     43  C   UNL A   1      47.050  35.322  28.317  1.00  0.00     0.054 A 
BRANCH  43  44
ATOM     44  S   UNL A   1      47.560  37.046  28.562  1.00  0.00     0.124 S 
ATOM     45  O   UNL A   1      48.935  36.889  29.033  1.00  0.00    -0.237 OA
ATOM     46  O   UNL A   1      47.418  37.613  27.223  1.00  0.00    -0.237 OA
ATOM     47  O   UNL A   1      46.616  37.551  29.555  1.00  0.00    -0.744 OA
ENDBRANCH  43  44
ENDBRANCH  24  38
BRANCH  25  48
ATOM     48  C   UNL A   1      43.696  23.061  26.703  1.00  0.00    -0.014 A 
ATOM     49  C   UNL A   1      43.965  22.410  25.487  1.00  0.00     0.010 A 
ATOM     50  C   UNL A   1      43.043  22.349  27.728  1.00  0.00     0.010 A 
ATOM     51  C   UNL A   1      43.562  21.086  25.290  1.00  0.00     0.020 A 
ATOM     52  C   UNL A   1      42.673  21.016  27.549  1.00  0.00     0.020 A 
ATOM     53  C   UNL A   1      42.917  20.398  26.323  1.00  0.00     0.054 A 
BRANCH  53  54
ATOM     54  S   UNL A   1      42.423  18.674  26.057  1.00  0.00     0.124 S 
ATOM     55  O   UNL A   1      43.332  18.259  24.993  1.00  0.00    -0.237 OA
ATOM     56  O   UNL A   1      42.662  18.071  27.366  1.00  0.00    -0.237 OA
ATOM     57  O   UNL A   1      41.016  18.776  25.676  1.00  0.00    -0.744 OA
ENDBRANCH  53  54
ENDBRANCH  25  48
BRANCH  37  58
ATOM     58  C   UNL A   1      49.745  26.497  26.349  1.00  0.00    -0.014 A 
ATOM     59  C   UNL A   1      50.276  26.572  25.048  1.00  0.00     0.010 A 
ATOM     60  C   UNL A   1      50.545  25.989  27.388  1.00  0.00     0.010 A 
ATOM     61  C   UNL A   1      51.562  26.096  24.782  1.00  0.00     0.020 A 
ATOM     62  C   UNL A   1      51.844  25.544  27.132  1.00  0.00     0.020 A 
ATOM     63  C   UNL A   1      52.335  25.578  25.825  1.00  0.00     0.054 A 
BRANCH  63  64
ATOM     64  S   UNL A   1      54.004  24.972  25.456  1.00  0.00     0.124 S 
ATOM     65  O   UNL A   1      53.738  23.611  25.001  1.00  0.00    -0.237 OA
ATOM     66  O   UNL A   1      54.462  25.901  24.425  1.00  0.00    -0.237 OA
ATOM     67  O   UNL A   1      54.702  25.076  26.736  1.00  0.00    -0.744 OA
ENDBRANCH  63  64
ENDBRANCH  37  58
ENDBRANCH  11  12
ENDBRANCH   4   6
ENDBRANCH   1   2
BRANCH   1  68
ATOM     68  C   UNL A   1      33.842  28.739  27.165  1.00  0.00     0.042 C 
BRANCH  68  69
ATOM     69  C   UNL A   1      33.828  27.652  26.091  1.00  0.00     0.117 C 
BRANCH  69  70
ATOM     70  N   UNL A   1      32.960  26.546  26.445  1.00  0.00    -0.356 N 
ATOM     71  C   UNL A   1      33.051  25.231  26.095  1.00  0.00     0.225 C 
ATOM     72  H   UNL A   1      32.194  26.777  27.020  1.00  0.00     0.163 HD
ATOM     73  O   UNL A   1      31.964  24.714  25.885  1.00  0.00    -0.275 OA
BRANCH  71  74
ATOM     74  C   UNL A   1      34.408  24.576  25.852  1.00  0.00     0.104 C 
ATOM     75  C   UNL A   1      35.034  23.239  26.360  1.00  0.00     0.004 C 
ATOM     76  C   UNL A   1      34.897  24.616  24.413  1.00  0.00     0.098 C 
ATOM     77  C   UNL A   1      34.977  21.947  25.489  1.00  0.00     0.005 C 
ATOM     78  C   UNL A   1      36.493  23.596  25.982  1.00  0.00     0.010 C 
ATOM     79  C   UNL A   1      36.161  23.700  24.467  1.00  0.00     0.013 C 
ATOM     80  C   UNL A   1      35.761  22.264  24.204  1.00  0.00     0.006 C 
BRANCH  76  81
ATOM     81  N   UNL A   1      33.896  24.399  23.345  1.00  0.00    -0.348 N 
ATOM     82  C   UNL A   1      33.329  25.180  22.337  1.00  0.00     0.253 C 
ATOM     83  H   UNL A   1      33.544  23.479  23.345  1.00  0.00     0.164 HD
ATOM     84  O   UNL A   1      33.147  24.621  21.249  1.00  0.00    -0.269 OA
BRANCH  82  85
ATOM     85  C   UNL A   1      32.539  26.423  22.555  1.00  0.00     0.061 A 
ATOM     86  C   UNL A   1      33.331  27.577  22.407  1.00  0.00     0.035 A 
ATOM     87  C   UNL A   1      31.242  26.599  23.066  1.00  0.00     0.072 A 
ATOM     88  C   UNL A   1      32.790  28.826  22.668  1.00  0.00     0.112 A 
ATOM     89  C   UNL A   1      30.790  27.906  23.259  1.00  0.00     0.132 A 
ATOM     90  Cl  UNL A   1      30.030  25.441  23.430  1.00  0.00    -0.082 Cl
ATOM     91  N   UNL A   1      31.521  29.021  23.062  1.00  0.00    -0.263 NA
ENDBRANCH  82  85
ENDBRANCH  76  81
ENDBRANCH  71  74
ENDBRANCH  69  70
ENDBRANCH  68  69
ENDBRANCH   1  68
TORSDOF 15
ENDMDL
MODEL 3
REMARK VINA RESULT:     -12.5      6.663     12.238
REMARK SMILES O=C(NCCCNC(=O)[C@H]1[C@H]2CC[C@H](C2)[C@H]1NC(=O)c1ccncc1Cl)c1ccc(-c2c3nc(c(-c4ccc(S(=O)(=O)[O-])cc4)c4ccc([nH]4)c(-c4ccc(S(=O)(=O)[O-])cc4)c4nc(c(-c5ccc(S(=O)(=O)[O-])cc5)c5ccc2[nH]5)C=C4)C=C3)cc1
REMARK SMILES IDX 4 1 3 2 1 3 2 4 27 6 28 7 86 8 29 9 85 10 30 11 31 12 32 13
REMARK SMILES IDX 79 14 33 15 84 16 78 17 80 18 34 19 83 20 77 21 76 22 35 24
REMARK SMILES IDX 65 25 46 26 64 27 47 28 50 29 63 30 81 31 48 32 49 33 62 35
REMARK SMILES IDX 82 36 51 37 36 38 37 39 45 40 38 41 44 42 39 43 40 44 41 45
REMARK SMILES IDX 42 46 43 47 66 48 67 49 75 50 68 51 74 52 69 53 70 54 71 55
REMARK SMILES IDX 72 56 73 57 52 58 53 59 61 60 54 61 60 62 55 63 56 64 57 65
REMARK SMILES IDX 58 66 59 67 5 68 6 69 7 70 8 71 9 73 10 74 11 75 16 76 12 77
REMARK SMILES IDX 15 78 14 79 13 80 17 81 18 82 19 84 20 85 21 86 25 87 22 88
REMARK SMILES IDX 24 89 26 90 23 91
REMARK H PARENT 3 5 80 23 50 34 7 72 17 83
REMARK Flexibility Score: inf
ROOT
ATOM      1  C   UNL A   1      35.448  30.111  27.708  1.00  0.00     0.118 C 
ENDROOT
BRANCH   1   2
ATOM      2  N   UNL A   1      35.485  30.165  29.164  1.00  0.00    -0.352 N 
ATOM      3  O   UNL A   1      36.231  29.732  31.244  1.00  0.00    -0.269 OA
ATOM      4  C   UNL A   1      36.480  29.809  30.041  1.00  0.00     0.251 C 
ATOM      5  H   UNL A   1      34.667  30.513  29.586  1.00  0.00     0.163 HD
BRANCH   4   6
ATOM      6  C   UNL A   1      37.835  29.492  29.543  1.00  0.00     0.039 A 
ATOM      7  C   UNL A   1      38.818  29.035  30.418  1.00  0.00     0.014 A 
ATOM      8  C   UNL A   1      38.125  29.627  28.181  1.00  0.00     0.014 A 
ATOM      9  C   UNL A   1      40.127  28.897  29.976  1.00  0.00     0.010 A 
ATOM     10  C   UNL A   1      39.419  29.366  27.713  1.00  0.00     0.010 A 
ATOM     11  C   UNL A   1      40.441  29.028  28.613  1.00  0.00    -0.014 A 
BRANCH  11  12
ATOM     12  C   UNL A   1      41.827  28.712  28.174  1.00  0.00     0.031 A 
ATOM     13  C   UNL A   1      42.914  29.751  28.166  1.00  0.00     0.074 A 
ATOM     14  C   UNL A   1      42.110  27.433  27.847  1.00  0.00     0.049 A 
ATOM     15  N   UNL A   1      44.187  29.601  27.895  1.00  0.00    -0.248 NA
ATOM     16  C   UNL A   1      42.534  31.134  28.495  1.00  0.00     0.031 C 
ATOM     17  C   UNL A   1      41.130  26.342  27.796  1.00  0.00     0.029 A 
ATOM     18  N   UNL A   1      43.297  26.822  27.536  1.00  0.00    -0.354 N 
ATOM     19  C   UNL A   1      44.759  30.862  28.015  1.00  0.00     0.074 A 
ATOM     20  C   UNL A   1      43.686  31.776  28.348  1.00  0.00     0.031 C 
ATOM     21  C   UNL A   1      41.765  25.189  27.549  1.00  0.00     0.029 A 
ATOM     22  C   UNL A   1      43.180  25.466  27.342  1.00  0.00     0.049 A 
ATOM     23  H   UNL A   1      44.150  27.308  27.460  1.00  0.00     0.167 HD
ATOM     24  C   UNL A   1      46.059  31.221  27.872  1.00  0.00     0.031 A 
ATOM     25  C   UNL A   1      44.101  24.541  27.013  1.00  0.00     0.031 A 
ATOM     26  C   UNL A   1      47.118  30.306  27.527  1.00  0.00     0.049 A 
ATOM     27  C   UNL A   1      45.526  24.975  26.836  1.00  0.00     0.074 A 
ATOM     28  C   UNL A   1      48.467  30.573  27.363  1.00  0.00     0.029 A 
ATOM     29  N   UNL A   1      46.952  28.948  27.294  1.00  0.00    -0.354 N 
ATOM     30  N   UNL A   1      46.046  26.171  26.979  1.00  0.00    -0.248 NA
ATOM     31  C   UNL A   1      46.490  23.935  26.455  1.00  0.00     0.031 C 
ATOM     32  C   UNL A   1      49.107  29.390  26.979  1.00  0.00     0.029 A 
ATOM     33  C   UNL A   1      48.170  28.369  26.970  1.00  0.00     0.049 A 
ATOM     34  H   UNL A   1      46.096  28.466  27.352  1.00  0.00     0.167 HD
ATOM     35  C   UNL A   1      47.401  26.025  26.713  1.00  0.00     0.074 A 
ATOM     36  C   UNL A   1      47.624  24.619  26.441  1.00  0.00     0.031 C 
ATOM     37  C   UNL A   1      48.373  26.971  26.685  1.00  0.00     0.031 A 
BRANCH  24  38
ATOM     38  C   UNL A   1      46.415  32.673  28.078  1.00  0.00    -0.014 A 
ATOM     39  C   UNL A   1      46.779  33.157  29.347  1.00  0.00     0.010 A 
ATOM     40  C   UNL A   1      46.460  33.549  26.977  1.00  0.00     0.010 A 
ATOM     41  C   UNL A   1      47.156  34.493  29.516  1.00  0.00     0.020 A 
ATOM     42  C   UNL A   1      46.863  34.879  27.136  1.00  0.00     0.020 A 
ATOM     43  C   UNL A   1      47.197  35.345  28.409  1.00  0.00     0.054 A 
BRANCH  43  44
ATOM     44  S   UNL A   1      47.730  37.063  28.655  1.00  0.00     0.124 S 
ATOM     45  O   UNL A   1      48.907  37.140  27.793  1.00  0.00    -0.237 OA
ATOM     46  O   UNL A   1      46.569  37.824  28.200  1.00  0.00    -0.237 OA
ATOM     47  O   UNL A   1      48.002  37.141  30.088  1.00  0.00    -0.744 OA
ENDBRANCH  43  44
ENDBRANCH  24  38
BRANCH  25  48
ATOM     48  C   UNL A   1      43.687  23.129  26.790  1.00  0.00    -0.014 A 
ATOM     49  C   UNL A   1      43.041  22.390  27.796  1.00  0.00     0.010 A 
ATOM     50  C   UNL A   1      43.939  22.516  25.548  1.00  0.00     0.010 A 
ATOM     51  C   UNL A   1      42.684  21.056  27.574  1.00  0.00     0.020 A 
ATOM     52  C   UNL A   1      43.550  21.198  25.308  1.00  0.00     0.020 A 
ATOM     53  C   UNL A   1      42.942  20.469  26.331  1.00  0.00     0.054 A 
BRANCH  53  54
ATOM     54  S   UNL A   1      42.450  18.746  26.053  1.00  0.00     0.124 S 
ATOM     55  O   UNL A   1      42.678  18.151  27.365  1.00  0.00    -0.237 OA
ATOM     56  O   UNL A   1      41.051  18.878  25.650  1.00  0.00    -0.237 OA
ATOM     57  O   UNL A   1      43.354  18.299  24.995  1.00  0.00    -0.744 OA
ENDBRANCH  53  54
ENDBRANCH  25  48
BRANCH  37  58
ATOM     58  C   UNL A   1      49.768  26.501  26.368  1.00  0.00    -0.014 A 
ATOM     59  C   UNL A   1      50.253  26.494  25.047  1.00  0.00     0.010 A 
ATOM     60  C   UNL A   1      50.608  26.062  27.407  1.00  0.00     0.010 A 
ATOM     61  C   UNL A   1      51.530  26.006  24.765  1.00  0.00     0.020 A 
ATOM     62  C   UNL A   1      51.899  25.605  27.133  1.00  0.00     0.020 A 
ATOM     63  C   UNL A   1      52.342  25.558  25.811  1.00  0.00     0.054 A 
BRANCH  63  64
ATOM     64  S   UNL A   1      54.000  24.933  25.421  1.00  0.00     0.124 S 
ATOM     65  O   UNL A   1      54.474  25.916  24.452  1.00  0.00    -0.237 OA
ATOM     66  O   UNL A   1      54.667  24.961  26.722  1.00  0.00    -0.237 OA
ATOM     67  O   UNL A   1      53.750  23.598  24.884  1.00  0.00    -0.744 OA
ENDBRANCH  63  64
ENDBRANCH  37  58
ENDBRANCH  11  12
ENDBRANCH   4   6
ENDBRANCH   1   2
BRANCH   1  68
ATOM     68  C   UNL A   1      34.383  29.154  27.182  1.00  0.00     0.042 C 
BRANCH  68  69
ATOM     69  C   UNL A   1      33.309  29.815  26.319  1.00  0.00     0.117 C 
BRANCH  69  70
ATOM     70  N   UNL A   1      33.433  29.453  24.921  1.00  0.00    -0.356 N 
ATOM     71  C   UNL A   1      33.246  28.241  24.323  1.00  0.00     0.225 C 
ATOM     72  H   UNL A   1      33.689  30.186  24.315  1.00  0.00     0.163 HD
ATOM     73  O   UNL A   1      34.039  28.025  23.419  1.00  0.00    -0.275 OA
BRANCH  71  74
ATOM     74  C   UNL A   1      32.239  27.239  24.880  1.00  0.00     0.104 C 
ATOM     75  C   UNL A   1      30.710  27.042  24.632  1.00  0.00     0.004 C 
ATOM     76  C   UNL A   1      32.727  25.801  24.948  1.00  0.00     0.098 C 
ATOM     77  C   UNL A   1      30.196  26.001  23.590  1.00  0.00     0.005 C 
ATOM     78  C   UNL A   1      30.468  26.134  25.864  1.00  0.00     0.010 C 
ATOM     79  C   UNL A   1      31.427  25.029  25.339  1.00  0.00     0.013 C 
ATOM     80  C   UNL A   1      30.677  24.627  24.087  1.00  0.00     0.006 C 
BRANCH  76  81
ATOM     81  N   UNL A   1      33.549  25.304  23.822  1.00  0.00    -0.348 N 
ATOM     82  C   UNL A   1      33.993  24.054  23.389  1.00  0.00     0.253 C 
ATOM     83  H   UNL A   1      33.857  26.032  23.236  1.00  0.00     0.164 HD
ATOM     84  O   UNL A   1      33.988  23.865  22.167  1.00  0.00    -0.269 OA
BRANCH  82  85
ATOM     85  C   UNL A   1      34.858  23.130  24.172  1.00  0.00     0.061 A 
ATOM     86  C   UNL A   1      36.145  23.020  23.613  1.00  0.00     0.035 A 
ATOM     87  C   UNL A   1      34.534  22.237  25.208  1.00  0.00     0.072 A 
ATOM     88  C   UNL A   1      37.060  22.129  24.150  1.00  0.00     0.112 A 
ATOM     89  C   UNL A   1      35.546  21.407  25.694  1.00  0.00     0.132 A 
ATOM     90  Cl  UNL A   1      33.069  22.039  26.078  1.00  0.00    -0.082 Cl
ATOM     91  N   UNL A   1      36.800  21.338  25.204  1.00  0.00    -0.263 NA
ENDBRANCH  82  85
ENDBRANCH  76  81
ENDBRANCH  71  74
ENDBRANCH  69  70
ENDBRANCH  68  69
ENDBRANCH   1  68
TORSDOF 15
ENDMDL
