MODEL 1
REMARK VINA RESULT:     -11.1      0.000      0.000
REMARK SMILES CCCc1nn(-c2ccc(OC)cc2)c2sc(C(=O)NCCCNC(=O)c3ccc(-c4c5nc(c(-c6ccc(S(=O)(=O)[O-])cc6)c6ccc([nH]6)c(-c6ccc(S(=O)(=O)[O-])cc6)c6nc(c(-c7ccc(S(=O)(=O)[O-])cc7)c7ccc4[nH]7)C=C6)C=C5)cc3)cc12
REMARK SMILES IDX 22 1 21 2 20 3 18 4 19 5 17 7 4 8 5 9 88 10 6 11 15 12 87 13
REMARK SMILES IDX 16 14 3 15 2 16 1 17 7 18 8 19 14 20 9 21 13 22 10 23 11 24
REMARK SMILES IDX 12 25 23 26 24 27 25 28 26 30 27 31 28 32 86 33 29 34 85 35
REMARK SMILES IDX 30 36 31 37 32 38 79 39 33 40 84 41 78 42 80 43 34 44 83 45
REMARK SMILES IDX 77 46 76 47 35 49 65 50 46 51 64 52 47 53 50 54 63 55 81 56
REMARK SMILES IDX 48 57 49 58 62 60 82 61 51 62 36 63 37 64 45 65 38 66 44 67
REMARK SMILES IDX 39 68 40 69 41 70 42 71 43 72 66 73 67 74 75 75 68 76 74 77
REMARK SMILES IDX 69 78 70 79 71 80 72 81 73 82 52 83 53 84 61 85 54 86 60 87
REMARK SMILES IDX 55 88 56 89 57 90 58 91 59 92
REMARK H PARENT 20 6 24 29 80 48 50 59
REMARK Flexibility Score: inf
ROOT
ATOM      1  C   UNL A   1      44.863  30.711  26.790  1.00  0.00     0.042 C 
ENDROOT
BRANCH   1   2
ATOM      2  C   UNL A   1      45.982  29.740  26.897  1.00  0.00     0.118 C 
BRANCH   2   3
ATOM      3  N   UNL A   1      46.328  29.101  25.617  1.00  0.00    -0.351 N 
ATOM      4  C   UNL A   1      45.956  27.882  25.027  1.00  0.00     0.261 C 
ATOM      5  O   UNL A   1      46.421  27.653  23.909  1.00  0.00    -0.268 OA
ATOM      6  H   UNL A   1      46.944  29.634  25.066  1.00  0.00     0.163 HD
BRANCH   4   7
ATOM      7  C   UNL A   1      45.040  26.949  25.707  1.00  0.00     0.095 A 
ATOM      8  C   UNL A   1      42.484  25.043  27.721  1.00  0.00     0.072 A 
ATOM      9  N   UNL A   1      42.503  23.703  27.335  1.00  0.00    -0.171 NA
ATOM     10  C   UNL A   1      43.453  25.772  26.992  1.00  0.00     0.035 A 
ATOM     11  N   UNL A   1      43.623  23.574  26.539  1.00  0.00    -0.223 N 
ATOM     12  C   UNL A   1      44.076  24.814  26.326  1.00  0.00     0.128 A 
ATOM     13  C   UNL A   1      44.026  27.066  26.698  1.00  0.00     0.038 A 
ATOM     14  S   UNL A   1      45.109  25.338  25.240  1.00  0.00    -0.110 S 
BRANCH   8  15
ATOM     15  C   UNL A   1      41.504  25.532  28.786  1.00  0.00     0.058 C 
BRANCH  15  16
ATOM     16  C   UNL A   1      40.150  26.041  28.254  1.00  0.00     0.003 C 
ATOM     17  C   UNL A   1      39.192  26.329  29.399  1.00  0.00     0.004 C 
ENDBRANCH  15  16
ENDBRANCH   8  15
BRANCH  11  18
ATOM     18  C   UNL A   1      44.135  22.433  25.783  1.00  0.00     0.066 A 
ATOM     19  C   UNL A   1      43.325  21.286  25.533  1.00  0.00     0.032 A 
ATOM     20  C   UNL A   1      45.504  22.287  25.582  1.00  0.00     0.032 A 
ATOM     21  C   UNL A   1      43.882  20.057  25.092  1.00  0.00     0.048 A 
ATOM     22  C   UNL A   1      46.045  21.073  25.093  1.00  0.00     0.048 A 
ATOM     23  C   UNL A   1      45.242  19.968  24.798  1.00  0.00     0.119 A 
BRANCH  23  24
ATOM     24  O   UNL A   1      45.676  18.803  24.216  1.00  0.00    -0.497 OA
ATOM     25  C   UNL A   1      45.289  18.584  22.855  1.00  0.00     0.278 C 
ENDBRANCH  23  24
ENDBRANCH  11  18
ENDBRANCH   4   7
ENDBRANCH   2   3
ENDBRANCH   1   2
BRANCH   1  26
ATOM     26  C   UNL A   1      45.509  31.995  26.523  1.00  0.00     0.118 C 
BRANCH  26  27
ATOM     27  N   UNL A   1      44.905  32.695  25.399  1.00  0.00    -0.352 N 
ATOM     28  C   UNL A   1      44.164  33.846  25.522  1.00  0.00     0.251 C 
ATOM     29  H   UNL A   1      45.036  32.321  24.497  1.00  0.00     0.163 HD
ATOM     30  O   UNL A   1      43.594  34.317  24.544  1.00  0.00    -0.269 OA
BRANCH  28  31
ATOM     31  C   UNL A   1      44.297  34.520  26.885  1.00  0.00     0.039 A 
ATOM     32  C   UNL A   1      45.352  34.396  27.682  1.00  0.00     0.014 A 
ATOM     33  C   UNL A   1      43.136  34.601  27.723  1.00  0.00     0.014 A 
ATOM     34  C   UNL A   1      44.876  33.936  29.234  1.00  0.00     0.010 A 
ATOM     35  C   UNL A   1      42.813  34.651  29.135  1.00  0.00     0.010 A 
ATOM     36  C   UNL A   1      43.267  33.559  29.839  1.00  0.00    -0.014 A 
BRANCH  36  37
ATOM     37  C   UNL A   1      41.878  32.971  31.144  1.00  0.00     0.031 A 
ATOM     38  C   UNL A   1      43.102  31.385  30.814  1.00  0.00     0.074 A 
ATOM     39  C   UNL A   1      40.536  33.835  32.093  1.00  0.00     0.049 A 
ATOM     40  N   UNL A   1      43.175  30.666  29.640  1.00  0.00    -0.248 NA
ATOM     41  C   UNL A   1      44.891  30.727  30.995  1.00  0.00     0.031 C 
ATOM     42  C   UNL A   1      39.118  34.728  33.102  1.00  0.00     0.029 A 
ATOM     43  N   UNL A   1      39.164  33.059  32.959  1.00  0.00    -0.354 N 
ATOM     44  C   UNL A   1      43.692  29.351  30.051  1.00  0.00     0.074 A 
ATOM     45  C   UNL A   1      44.935  29.403  30.668  1.00  0.00     0.031 C 
ATOM     46  C   UNL A   1      38.180  34.757  34.276  1.00  0.00     0.029 A 
ATOM     47  C   UNL A   1      38.387  33.401  34.432  1.00  0.00     0.049 A 
ATOM     48  H   UNL A   1      38.789  32.281  32.487  1.00  0.00     0.167 HD
ATOM     49  C   UNL A   1      42.834  28.521  30.662  1.00  0.00     0.031 A 
ATOM     50  C   UNL A   1      38.038  32.639  35.562  1.00  0.00     0.031 A 
ATOM     51  C   UNL A   1      41.558  29.008  30.340  1.00  0.00     0.049 A 
ATOM     52  C   UNL A   1      38.540  31.490  34.843  1.00  0.00     0.074 A 
ATOM     53  C   UNL A   1      41.057  29.365  29.108  1.00  0.00     0.029 A 
ATOM     54  N   UNL A   1      40.976  29.796  31.271  1.00  0.00    -0.354 N 
ATOM     55  N   UNL A   1      37.949  31.024  33.757  1.00  0.00    -0.248 NA
ATOM     56  C   UNL A   1      39.982  31.362  34.982  1.00  0.00     0.031 C 
ATOM     57  C   UNL A   1      40.039  30.283  29.335  1.00  0.00     0.029 A 
ATOM     58  C   UNL A   1      39.961  30.490  30.695  1.00  0.00     0.049 A 
ATOM     59  H   UNL A   1      41.244  29.856  32.216  1.00  0.00     0.167 HD
ATOM     60  C   UNL A   1      38.997  30.793  32.864  1.00  0.00     0.074 A 
ATOM     61  C   UNL A   1      40.231  30.898  33.759  1.00  0.00     0.031 C 
ATOM     62  C   UNL A   1      38.960  31.089  31.488  1.00  0.00     0.031 A 
BRANCH  49  63
ATOM     63  C   UNL A   1      43.131  27.514  31.700  1.00  0.00    -0.014 A 
ATOM     64  C   UNL A   1      42.526  27.855  32.898  1.00  0.00     0.010 A 
ATOM     65  C   UNL A   1      43.986  26.388  31.642  1.00  0.00     0.010 A 
ATOM     66  C   UNL A   1      42.845  27.181  34.061  1.00  0.00     0.020 A 
ATOM     67  C   UNL A   1      44.230  25.637  32.801  1.00  0.00     0.020 A 
ATOM     68  C   UNL A   1      43.646  26.037  34.006  1.00  0.00     0.054 A 
BRANCH  68  69
ATOM     69  S   UNL A   1      43.804  25.026  35.514  1.00  0.00     0.124 S 
ATOM     70  O   UNL A   1      44.284  25.989  36.498  1.00  0.00    -0.237 OA
ATOM     71  O   UNL A   1      42.435  24.552  35.715  1.00  0.00    -0.237 OA
ATOM     72  O   UNL A   1      44.757  23.985  35.133  1.00  0.00    -0.744 OA
ENDBRANCH  68  69
ENDBRANCH  49  63
BRANCH  50  73
ATOM     73  C   UNL A   1      38.349  33.091  37.051  1.00  0.00    -0.014 A 
ATOM     74  C   UNL A   1      39.133  34.197  37.484  1.00  0.00     0.010 A 
ATOM     75  C   UNL A   1      37.692  32.407  38.107  1.00  0.00     0.010 A 
ATOM     76  C   UNL A   1      39.190  34.616  38.861  1.00  0.00     0.020 A 
ATOM     77  C   UNL A   1      37.668  32.861  39.452  1.00  0.00     0.020 A 
ATOM     78  C   UNL A   1      38.379  33.999  39.819  1.00  0.00     0.054 A 
BRANCH  78  79
ATOM     79  S   UNL A   1      38.157  34.751  41.489  1.00  0.00     0.124 S 
ATOM     80  O   UNL A   1      38.452  36.161  41.250  1.00  0.00    -0.237 OA
ATOM     81  O   UNL A   1      36.761  34.449  41.797  1.00  0.00    -0.237 OA
ATOM     82  O   UNL A   1      39.131  34.049  42.322  1.00  0.00    -0.744 OA
ENDBRANCH  78  79
ENDBRANCH  50  73
BRANCH  62  83
ATOM     83  C   UNL A   1      37.803  31.813  30.688  1.00  0.00    -0.014 A 
ATOM     84  C   UNL A   1      37.909  32.766  29.622  1.00  0.00     0.010 A 
ATOM     85  C   UNL A   1      36.508  31.467  31.027  1.00  0.00     0.010 A 
ATOM     86  C   UNL A   1      36.841  33.580  29.218  1.00  0.00     0.020 A 
ATOM     87  C   UNL A   1      35.401  32.144  30.488  1.00  0.00     0.020 A 
ATOM     88  C   UNL A   1      35.567  33.214  29.605  1.00  0.00     0.054 A 
BRANCH  88  89
ATOM     89  S   UNL A   1      34.137  34.031  28.826  1.00  0.00     0.124 S 
ATOM     90  O   UNL A   1      34.747  35.149  28.112  1.00  0.00    -0.237 OA
ATOM     91  O   UNL A   1      33.589  32.976  27.974  1.00  0.00    -0.237 OA
ATOM     92  O   UNL A   1      33.294  34.401  29.960  1.00  0.00    -0.744 OA
ENDBRANCH  88  89
ENDBRANCH  62  83
ENDBRANCH  36  37
ENDBRANCH  28  31
ENDBRANCH  26  27
ENDBRANCH   1  26
TORSDOF 17
ENDMDL
MODEL 2
REMARK VINA RESULT:     -11.1      3.427     13.469
REMARK SMILES CCCc1nn(-c2ccc(OC)cc2)c2sc(C(=O)NCCCNC(=O)c3ccc(-c4c5nc(c(-c6ccc(S(=O)(=O)[O-])cc6)c6ccc([nH]6)c(-c6ccc(S(=O)(=O)[O-])cc6)c6nc(c(-c7ccc(S(=O)(=O)[O-])cc7)c7ccc4[nH]7)C=C6)C=C5)cc3)cc12
REMARK SMILES IDX 22 1 21 2 20 3 18 4 19 5 17 7 4 8 5 9 88 10 6 11 15 12 87 13
REMARK SMILES IDX 16 14 3 15 2 16 1 17 7 18 8 19 14 20 9 21 13 22 10 23 11 24
REMARK SMILES IDX 12 25 23 26 24 27 25 28 26 30 27 31 28 32 86 33 29 34 85 35
REMARK SMILES IDX 30 36 31 37 32 38 79 39 33 40 84 41 78 42 80 43 34 44 83 45
REMARK SMILES IDX 77 46 76 47 35 49 65 50 46 51 64 52 47 53 50 54 63 55 81 56
REMARK SMILES IDX 48 57 49 58 62 60 82 61 51 62 36 63 37 64 45 65 38 66 44 67
REMARK SMILES IDX 39 68 40 69 41 70 42 71 43 72 66 73 67 74 75 75 68 76 74 77
REMARK SMILES IDX 69 78 70 79 71 80 72 81 73 82 52 83 53 84 61 85 54 86 60 87
REMARK SMILES IDX 55 88 56 89 57 90 58 91 59 92
REMARK H PARENT 20 6 24 29 80 48 50 59
REMARK Flexibility Score: inf
ROOT
ATOM      1  C   UNL A   1      41.880  29.049  35.963  1.00  0.00     0.042 C 
ENDROOT
BRANCH   1   2
ATOM      2  C   UNL A   1      40.864  29.803  35.184  1.00  0.00     0.118 C 
BRANCH   2   3
ATOM      3  N   UNL A   1      39.697  30.212  35.983  1.00  0.00    -0.351 N 
ATOM      4  C   UNL A   1      38.495  30.858  35.655  1.00  0.00     0.261 C 
ATOM      5  O   UNL A   1      37.702  31.038  36.581  1.00  0.00    -0.268 OA
ATOM      6  H   UNL A   1      39.777  29.988  36.937  1.00  0.00     0.163 HD
BRANCH   4   7
ATOM      7  C   UNL A   1      38.200  31.273  34.272  1.00  0.00     0.095 A 
ATOM      8  C   UNL A   1      37.880  31.959  30.577  1.00  0.00     0.072 A 
ATOM      9  N   UNL A   1      36.797  32.811  30.361  1.00  0.00    -0.171 NA
ATOM     10  C   UNL A   1      38.031  31.708  31.961  1.00  0.00     0.035 A 
ATOM     11  N   UNL A   1      36.429  33.250  31.617  1.00  0.00    -0.223 N 
ATOM     12  C   UNL A   1      37.131  32.519  32.490  1.00  0.00     0.128 A 
ATOM     13  C   UNL A   1      38.738  30.976  32.989  1.00  0.00     0.038 A 
ATOM     14  S   UNL A   1      36.908  32.321  34.049  1.00  0.00    -0.110 S 
BRANCH   8  15
ATOM     15  C   UNL A   1      38.704  31.436  29.402  1.00  0.00     0.058 C 
BRANCH  15  16
ATOM     16  C   UNL A   1      38.242  30.086  28.821  1.00  0.00     0.003 C 
ATOM     17  C   UNL A   1      37.131  29.485  29.667  1.00  0.00     0.004 C 
ENDBRANCH  15  16
ENDBRANCH   8  15
BRANCH  11  18
ATOM     18  C   UNL A   1      35.321  34.099  32.048  1.00  0.00     0.066 A 
ATOM     19  C   UNL A   1      34.115  34.187  31.292  1.00  0.00     0.032 A 
ATOM     20  C   UNL A   1      35.532  35.088  33.004  1.00  0.00     0.032 A 
ATOM     21  C   UNL A   1      33.170  35.224  31.505  1.00  0.00     0.048 A 
ATOM     22  C   UNL A   1      34.559  36.089  33.246  1.00  0.00     0.048 A 
ATOM     23  C   UNL A   1      33.355  36.140  32.540  1.00  0.00     0.119 A 
BRANCH  23  24
ATOM     24  O   UNL A   1      32.319  37.006  32.794  1.00  0.00    -0.497 OA
ATOM     25  C   UNL A   1      31.012  36.431  32.881  1.00  0.00     0.278 C 
ENDBRANCH  23  24
ENDBRANCH  11  18
ENDBRANCH   4   7
ENDBRANCH   2   3
ENDBRANCH   1   2
BRANCH   1  26
ATOM     26  C   UNL A   1      41.986  27.759  35.283  1.00  0.00     0.118 C 
BRANCH  26  27
ATOM     27  N   UNL A   1      41.322  26.691  36.017  1.00  0.00    -0.352 N 
ATOM     28  C   UNL A   1      41.797  25.404  36.095  1.00  0.00     0.251 C 
ATOM     29  H   UNL A   1      40.482  26.904  36.484  1.00  0.00     0.163 HD
ATOM     30  O   UNL A   1      41.127  24.532  36.638  1.00  0.00    -0.269 OA
BRANCH  28  31
ATOM     31  C   UNL A   1      43.244  25.254  35.632  1.00  0.00     0.039 A 
ATOM     32  C   UNL A   1      44.234  26.062  35.996  1.00  0.00     0.014 A 
ATOM     33  C   UNL A   1      43.490  24.861  34.275  1.00  0.00     0.014 A 
ATOM     34  C   UNL A   1      45.065  26.634  34.643  1.00  0.00     0.010 A 
ATOM     35  C   UNL A   1      44.507  25.038  33.257  1.00  0.00     0.010 A 
ATOM     36  C   UNL A   1      44.736  26.356  32.936  1.00  0.00    -0.014 A 
BRANCH  36  37
ATOM     37  C   UNL A   1      44.952  26.545  30.962  1.00  0.00     0.031 A 
ATOM     38  C   UNL A   1      44.220  28.306  31.656  1.00  0.00     0.074 A 
ATOM     39  C   UNL A   1      45.718  25.499  29.631  1.00  0.00     0.049 A 
ATOM     40  N   UNL A   1      42.947  28.500  32.149  1.00  0.00    -0.248 NA
ATOM     41  C   UNL A   1      44.578  29.813  32.782  1.00  0.00     0.031 C 
ATOM     42  C   UNL A   1      46.521  24.413  28.217  1.00  0.00     0.029 A 
ATOM     43  N   UNL A   1      45.500  25.691  27.857  1.00  0.00    -0.354 N 
ATOM     44  C   UNL A   1      42.700  29.939  31.959  1.00  0.00     0.074 A 
ATOM     45  C   UNL A   1      43.607  30.757  32.619  1.00  0.00     0.031 C 
ATOM     46  C   UNL A   1      47.128  24.307  26.846  1.00  0.00     0.029 A 
ATOM     47  C   UNL A   1      46.561  25.528  26.539  1.00  0.00     0.049 A 
ATOM     48  H   UNL A   1      44.584  25.941  27.598  1.00  0.00     0.167 HD
ATOM     49  C   UNL A   1      42.425  30.352  30.714  1.00  0.00     0.031 A 
ATOM     50  C   UNL A   1      46.887  26.332  25.432  1.00  0.00     0.031 A 
ATOM     51  C   UNL A   1      42.031  29.197  30.021  1.00  0.00     0.049 A 
ATOM     52  C   UNL A   1      45.864  27.243  25.893  1.00  0.00     0.074 A 
ATOM     53  C   UNL A   1      41.124  28.232  30.399  1.00  0.00     0.029 A 
ATOM     54  N   UNL A   1      42.990  28.600  29.278  1.00  0.00    -0.354 N 
ATOM     55  N   UNL A   1      44.581  26.925  25.886  1.00  0.00    -0.248 NA
ATOM     56  C   UNL A   1      46.371  28.140  26.918  1.00  0.00     0.031 C 
ATOM     57  C   UNL A   1      41.474  27.064  29.732  1.00  0.00     0.029 A 
ATOM     58  C   UNL A   1      42.603  27.332  28.989  1.00  0.00     0.049 A 
ATOM     59  H   UNL A   1      43.833  29.019  28.992  1.00  0.00     0.167 HD
ATOM     60  C   UNL A   1      44.113  27.341  27.133  1.00  0.00     0.074 A 
ATOM     61  C   UNL A   1      45.260  28.210  27.648  1.00  0.00     0.031 C 
ATOM     62  C   UNL A   1      43.214  26.616  27.938  1.00  0.00     0.031 A 
BRANCH  49  63
ATOM     63  C   UNL A   1      42.756  31.651  30.096  1.00  0.00    -0.014 A 
ATOM     64  C   UNL A   1      41.859  32.626  30.496  1.00  0.00     0.010 A 
ATOM     65  C   UNL A   1      43.745  31.961  29.132  1.00  0.00     0.010 A 
ATOM     66  C   UNL A   1      41.841  33.860  29.875  1.00  0.00     0.020 A 
ATOM     67  C   UNL A   1      43.796  33.247  28.574  1.00  0.00     0.020 A 
ATOM     68  C   UNL A   1      42.843  34.194  28.960  1.00  0.00     0.054 A 
BRANCH  68  69
ATOM     69  S   UNL A   1      42.941  35.921  28.386  1.00  0.00     0.124 S 
ATOM     70  O   UNL A   1      43.735  36.563  29.428  1.00  0.00    -0.237 OA
ATOM     71  O   UNL A   1      43.604  35.780  27.090  1.00  0.00    -0.237 OA
ATOM     72  O   UNL A   1      41.543  36.340  28.311  1.00  0.00    -0.744 OA
ENDBRANCH  68  69
ENDBRANCH  49  63
BRANCH  50  73
ATOM     73  C   UNL A   1      48.378  26.655  24.994  1.00  0.00    -0.014 A 
ATOM     74  C   UNL A   1      49.570  26.472  25.750  1.00  0.00     0.010 A 
ATOM     75  C   UNL A   1      48.606  27.067  23.656  1.00  0.00     0.010 A 
ATOM     76  C   UNL A   1      50.882  26.626  25.177  1.00  0.00     0.020 A 
ATOM     77  C   UNL A   1      49.891  27.138  23.055  1.00  0.00     0.020 A 
ATOM     78  C   UNL A   1      51.030  26.866  23.807  1.00  0.00     0.054 A 
BRANCH  78  79
ATOM     79  S   UNL A   1      52.677  26.698  22.994  1.00  0.00     0.124 S 
ATOM     80  O   UNL A   1      53.305  25.623  23.756  1.00  0.00    -0.237 OA
ATOM     81  O   UNL A   1      52.325  26.363  21.616  1.00  0.00    -0.237 OA
ATOM     82  O   UNL A   1      53.289  28.014  23.165  1.00  0.00    -0.744 OA
ENDBRANCH  78  79
ENDBRANCH  50  73
BRANCH  62  83
ATOM     83  C   UNL A   1      42.626  25.173  27.667  1.00  0.00    -0.014 A 
ATOM     84  C   UNL A   1      42.360  24.121  28.604  1.00  0.00     0.010 A 
ATOM     85  C   UNL A   1      42.285  24.881  26.358  1.00  0.00     0.010 A 
ATOM     86  C   UNL A   1      42.156  22.789  28.218  1.00  0.00     0.020 A 
ATOM     87  C   UNL A   1      41.889  23.589  25.973  1.00  0.00     0.020 A 
ATOM     88  C   UNL A   1      41.848  22.539  26.894  1.00  0.00     0.054 A 
BRANCH  88  89
ATOM     89  S   UNL A   1      41.240  20.888  26.424  1.00  0.00     0.124 S 
ATOM     90  O   UNL A   1      39.900  21.165  25.915  1.00  0.00    -0.237 OA
ATOM     91  O   UNL A   1      42.211  20.464  25.415  1.00  0.00    -0.237 OA
ATOM     92  O   UNL A   1      41.290  20.135  27.674  1.00  0.00    -0.744 OA
ENDBRANCH  88  89
ENDBRANCH  62  83
ENDBRANCH  36  37
ENDBRANCH  28  31
ENDBRANCH  26  27
ENDBRANCH   1  26
TORSDOF 17
ENDMDL
MODEL 3
REMARK VINA RESULT:     -11.0      4.304     14.032
REMARK SMILES CCCc1nn(-c2ccc(OC)cc2)c2sc(C(=O)NCCCNC(=O)c3ccc(-c4c5nc(c(-c6ccc(S(=O)(=O)[O-])cc6)c6ccc([nH]6)c(-c6ccc(S(=O)(=O)[O-])cc6)c6nc(c(-c7ccc(S(=O)(=O)[O-])cc7)c7ccc4[nH]7)C=C6)C=C5)cc3)cc12
REMARK SMILES IDX 22 1 21 2 20 3 18 4 19 5 17 7 4 8 5 9 88 10 6 11 15 12 87 13
REMARK SMILES IDX 16 14 3 15 2 16 1 17 7 18 8 19 14 20 9 21 13 22 10 23 11 24
REMARK SMILES IDX 12 25 23 26 24 27 25 28 26 30 27 31 28 32 86 33 29 34 85 35
REMARK SMILES IDX 30 36 31 37 32 38 79 39 33 40 84 41 78 42 80 43 34 44 83 45
REMARK SMILES IDX 77 46 76 47 35 49 65 50 46 51 64 52 47 53 50 54 63 55 81 56
REMARK SMILES IDX 48 57 49 58 62 60 82 61 51 62 36 63 37 64 45 65 38 66 44 67
REMARK SMILES IDX 39 68 40 69 41 70 42 71 43 72 66 73 67 74 75 75 68 76 74 77
REMARK SMILES IDX 69 78 70 79 71 80 72 81 73 82 52 83 53 84 61 85 54 86 60 87
REMARK SMILES IDX 55 88 56 89 57 90 58 91 59 92
REMARK H PARENT 20 6 24 29 80 48 50 59
REMARK Flexibility Score: inf
ROOT
ATOM      1  C   UNL A   1      39.958  30.547  32.713  1.00  0.00     0.042 C 
ENDROOT
BRANCH   1   2
ATOM      2  C   UNL A   1      39.770  31.982  33.048  1.00  0.00     0.118 C 
BRANCH   2   3
ATOM      3  N   UNL A   1      40.378  32.898  32.069  1.00  0.00    -0.351 N 
ATOM      4  C   UNL A   1      39.937  33.413  30.840  1.00  0.00     0.261 C 
ATOM      5  O   UNL A   1      40.702  34.191  30.268  1.00  0.00    -0.268 OA
ATOM      6  H   UNL A   1      41.274  33.211  32.329  1.00  0.00     0.163 HD
BRANCH   4   7
ATOM      7  C   UNL A   1      38.619  33.053  30.287  1.00  0.00     0.095 A 
ATOM      8  C   UNL A   1      35.540  31.709  28.572  1.00  0.00     0.072 A 
ATOM      9  N   UNL A   1      34.416  32.375  29.061  1.00  0.00    -0.171 NA
ATOM     10  C   UNL A   1      36.709  32.216  29.187  1.00  0.00     0.035 A 
ATOM     11  N   UNL A   1      34.916  33.427  29.802  1.00  0.00    -0.223 N 
ATOM     12  C   UNL A   1      36.235  33.229  29.892  1.00  0.00     0.128 A 
ATOM     13  C   UNL A   1      38.142  32.098  29.347  1.00  0.00     0.038 A 
ATOM     14  S   UNL A   1      37.290  33.893  30.874  1.00  0.00    -0.110 S 
BRANCH   8  15
ATOM     15  C   UNL A   1      35.397  30.604  27.528  1.00  0.00     0.058 C 
BRANCH  15  16
ATOM     16  C   UNL A   1      34.019  29.916  27.480  1.00  0.00     0.003 C 
ATOM     17  C   UNL A   1      33.738  29.361  26.093  1.00  0.00     0.004 C 
ENDBRANCH  15  16
ENDBRANCH   8  15
BRANCH  11  18
ATOM     18  C   UNL A   1      34.236  34.433  30.616  1.00  0.00     0.066 A 
ATOM     19  C   UNL A   1      34.105  34.280  32.028  1.00  0.00     0.032 A 
ATOM     20  C   UNL A   1      33.417  35.381  30.012  1.00  0.00     0.032 A 
ATOM     21  C   UNL A   1      33.192  35.059  32.785  1.00  0.00     0.048 A 
ATOM     22  C   UNL A   1      32.546  36.191  30.782  1.00  0.00     0.048 A 
ATOM     23  C   UNL A   1      32.459  36.074  32.171  1.00  0.00     0.119 A 
BRANCH  23  24
ATOM     24  O   UNL A   1      31.728  36.896  32.994  1.00  0.00    -0.497 OA
ATOM     25  C   UNL A   1      30.377  36.503  33.254  1.00  0.00     0.278 C 
ENDBRANCH  23  24
ENDBRANCH  11  18
ENDBRANCH   4   7
ENDBRANCH   2   3
ENDBRANCH   1   2
BRANCH   1  26
ATOM     26  C   UNL A   1      38.751  30.177  31.975  1.00  0.00     0.118 C 
BRANCH  26  27
ATOM     27  N   UNL A   1      38.661  28.742  31.747  1.00  0.00    -0.352 N 
ATOM     28  C   UNL A   1      39.050  28.125  30.582  1.00  0.00     0.251 C 
ATOM     29  H   UNL A   1      38.301  28.180  32.471  1.00  0.00     0.163 HD
ATOM     30  O   UNL A   1      38.841  26.928  30.421  1.00  0.00    -0.269 OA
BRANCH  28  31
ATOM     31  C   UNL A   1      39.890  29.013  29.668  1.00  0.00     0.039 A 
ATOM     32  C   UNL A   1      39.591  29.282  28.402  1.00  0.00     0.014 A 
ATOM     33  C   UNL A   1      41.319  28.929  29.760  1.00  0.00     0.014 A 
ATOM     34  C   UNL A   1      40.908  28.962  27.396  1.00  0.00     0.010 A 
ATOM     35  C   UNL A   1      42.478  29.113  28.909  1.00  0.00     0.010 A 
ATOM     36  C   UNL A   1      42.483  28.291  27.805  1.00  0.00    -0.014 A 
BRANCH  36  37
ATOM     37  C   UNL A   1      44.321  27.582  27.497  1.00  0.00     0.031 A 
ATOM     38  C   UNL A   1      43.042  26.013  27.360  1.00  0.00     0.074 A 
ATOM     39  C   UNL A   1      45.994  28.358  27.270  1.00  0.00     0.049 A 
ATOM     40  N   UNL A   1      42.345  25.458  28.413  1.00  0.00    -0.248 NA
ATOM     41  C   UNL A   1      41.578  25.270  26.373  1.00  0.00     0.031 C 
ATOM     42  C   UNL A   1      47.763  29.156  27.026  1.00  0.00     0.029 A 
ATOM     43  N   UNL A   1      47.584  27.522  27.350  1.00  0.00    -0.354 N 
ATOM     44  C   UNL A   1      42.063  24.081  27.977  1.00  0.00     0.074 A 
ATOM     45  C   UNL A   1      41.320  24.003  26.807  1.00  0.00     0.031 C 
ATOM     46  C   UNL A   1      49.172  29.060  26.513  1.00  0.00     0.029 A 
ATOM     47  C   UNL A   1      49.021  27.688  26.458  1.00  0.00     0.049 A 
ATOM     48  H   UNL A   1      47.630  26.830  28.048  1.00  0.00     0.167 HD
ATOM     49  C   UNL A   1      43.080  23.208  28.016  1.00  0.00     0.031 A 
ATOM     50  C   UNL A   1      49.873  26.793  25.786  1.00  0.00     0.031 A 
ATOM     51  C   UNL A   1      44.026  23.781  28.880  1.00  0.00     0.049 A 
ATOM     52  C   UNL A   1      49.028  25.735  26.291  1.00  0.00     0.074 A 
ATOM     53  C   UNL A   1      43.833  24.321  30.132  1.00  0.00     0.029 A 
ATOM     54  N   UNL A   1      45.035  24.455  28.286  1.00  0.00    -0.354 N 
ATOM     55  N   UNL A   1      48.955  25.443  27.578  1.00  0.00    -0.248 NA
ATOM     56  C   UNL A   1      47.861  25.536  25.447  1.00  0.00     0.031 C 
ATOM     57  C   UNL A   1      44.857  25.236  30.341  1.00  0.00     0.029 A 
ATOM     58  C   UNL A   1      45.633  25.258  29.202  1.00  0.00     0.049 A 
ATOM     59  H   UNL A   1      45.295  24.376  27.340  1.00  0.00     0.167 HD
ATOM     60  C   UNL A   1      47.589  25.298  27.824  1.00  0.00     0.074 A 
ATOM     61  C   UNL A   1      46.999  25.234  26.416  1.00  0.00     0.031 C 
ATOM     62  C   UNL A   1      46.923  25.780  28.967  1.00  0.00     0.031 A 
BRANCH  49  63
ATOM     63  C   UNL A   1      43.322  22.059  27.121  1.00  0.00    -0.014 A 
ATOM     64  C   UNL A   1      44.549  22.181  26.490  1.00  0.00     0.010 A 
ATOM     65  C   UNL A   1      42.462  20.988  26.780  1.00  0.00     0.010 A 
ATOM     66  C   UNL A   1      44.886  21.340  25.446  1.00  0.00     0.020 A 
ATOM     67  C   UNL A   1      42.847  20.070  25.792  1.00  0.00     0.020 A 
ATOM     68  C   UNL A   1      44.069  20.250  25.137  1.00  0.00     0.054 A 
BRANCH  68  69
ATOM     69  S   UNL A   1      44.696  19.016  23.951  1.00  0.00     0.124 S 
ATOM     70  O   UNL A   1      46.083  18.845  24.367  1.00  0.00    -0.237 OA
ATOM     71  O   UNL A   1      43.820  17.871  24.203  1.00  0.00    -0.237 OA
ATOM     72  O   UNL A   1      44.501  19.656  22.652  1.00  0.00    -0.744 OA
ENDBRANCH  68  69
ENDBRANCH  49  63
BRANCH  50  73
ATOM     73  C   UNL A   1      50.393  27.025  24.305  1.00  0.00    -0.014 A 
ATOM     74  C   UNL A   1      51.734  26.980  23.831  1.00  0.00     0.010 A 
ATOM     75  C   UNL A   1      49.428  27.184  23.276  1.00  0.00     0.010 A 
ATOM     76  C   UNL A   1      52.064  27.022  22.430  1.00  0.00     0.020 A 
ATOM     77  C   UNL A   1      49.731  27.138  21.890  1.00  0.00     0.020 A 
ATOM     78  C   UNL A   1      51.049  27.006  21.466  1.00  0.00     0.054 A 
BRANCH  78  79
ATOM     79  S   UNL A   1      51.441  26.684  19.693  1.00  0.00     0.124 S 
ATOM     80  O   UNL A   1      50.227  27.119  19.009  1.00  0.00    -0.237 OA
ATOM     81  O   UNL A   1      52.619  27.519  19.465  1.00  0.00    -0.237 OA
ATOM     82  O   UNL A   1      51.695  25.246  19.645  1.00  0.00    -0.744 OA
ENDBRANCH  78  79
ENDBRANCH  50  73
BRANCH  62  83
ATOM     83  C   UNL A   1      47.528  26.648  30.142  1.00  0.00    -0.014 A 
ATOM     84  C   UNL A   1      47.178  27.977  30.550  1.00  0.00     0.010 A 
ATOM     85  C   UNL A   1      48.507  26.047  30.912  1.00  0.00     0.010 A 
ATOM     86  C   UNL A   1      47.994  28.762  31.376  1.00  0.00     0.020 A 
ATOM     87  C   UNL A   1      49.218  26.765  31.889  1.00  0.00     0.020 A 
ATOM     88  C   UNL A   1      48.980  28.125  32.105  1.00  0.00     0.054 A 
BRANCH  88  89
ATOM     89  S   UNL A   1      49.826  29.036  33.436  1.00  0.00     0.124 S 
ATOM     90  O   UNL A   1      49.746  28.114  34.566  1.00  0.00    -0.237 OA
ATOM     91  O   UNL A   1      51.168  29.232  32.888  1.00  0.00    -0.237 OA
ATOM     92  O   UNL A   1      49.036  30.257  33.570  1.00  0.00    -0.744 OA
ENDBRANCH  88  89
ENDBRANCH  62  83
ENDBRANCH  36  37
ENDBRANCH  28  31
ENDBRANCH  26  27
ENDBRANCH   1  26
TORSDOF 17
ENDMDL
