MODEL 1
REMARK VINA RESULT:     -10.2      0.000      0.000
REMARK SMILES O=C(NCCCNC(=O)[C@@H](CCCCO)c1cccc(Cl)c1)c1ccc(-c2c3nc(c(-c4ccc(S(=O)(=O)[O-])cc4)c4ccc([nH]4)c(-c4ccc(S(=O)(=O)[O-])cc4)c4nc(c(-c5ccc(S(=O)(=O)[O-])cc5)c5ccc2[nH]5)C=C4)C=C3)cc1
REMARK SMILES IDX 6 1 5 2 4 3 3 4 1 5 2 6 23 8 24 9 82 10 25 11 81 12 26 13
REMARK SMILES IDX 27 14 28 15 75 16 29 17 80 18 74 19 76 20 30 21 79 22 73 23
REMARK SMILES IDX 72 24 31 26 61 27 42 28 60 29 43 30 46 31 59 32 77 33 44 34
REMARK SMILES IDX 45 35 58 37 78 38 47 39 32 40 33 41 41 42 34 43 40 44 35 45
REMARK SMILES IDX 36 46 37 47 38 48 39 49 62 50 63 51 71 52 64 53 70 54 65 55
REMARK SMILES IDX 66 56 67 57 68 58 69 59 48 60 49 61 57 62 50 63 56 64 51 65
REMARK SMILES IDX 52 66 53 67 54 68 55 69 7 70 8 71 9 73 10 74 11 75 12 76
REMARK SMILES IDX 13 77 14 78 15 79 16 81 17 82 22 83 18 84 20 85 19 86 21 87
REMARK H PARENT 3 7 76 25 46 36 7 72 15 80
REMARK Flexibility Score: inf
ROOT
ATOM      1  C   UNL A   1      35.608  21.962  26.214  1.00  0.00     0.117 C 
ENDROOT
BRANCH   1   2
ATOM      2  C   UNL A   1      35.774  23.103  25.235  1.00  0.00     0.042 C 
BRANCH   2   3
ATOM      3  C   UNL A   1      37.121  23.774  25.390  1.00  0.00     0.118 C 
BRANCH   3   4
ATOM      4  N   UNL A   1      38.185  22.812  25.655  1.00  0.00    -0.352 N 
ATOM      5  O   UNL A   1      40.273  22.116  26.130  1.00  0.00    -0.269 OA
ATOM      6  C   UNL A   1      39.431  22.999  26.210  1.00  0.00     0.251 C 
ATOM      7  H   UNL A   1      37.981  21.884  25.396  1.00  0.00     0.163 HD
BRANCH   6   8
ATOM      8  C   UNL A   1      39.743  24.275  26.888  1.00  0.00     0.039 A 
ATOM      9  C   UNL A   1      39.427  24.439  28.235  1.00  0.00     0.014 A 
ATOM     10  C   UNL A   1      40.369  25.311  26.188  1.00  0.00     0.014 A 
ATOM     11  C   UNL A   1      39.534  25.683  28.825  1.00  0.00     0.010 A 
ATOM     12  C   UNL A   1      40.640  26.519  26.840  1.00  0.00     0.010 A 
ATOM     13  C   UNL A   1      40.210  26.715  28.162  1.00  0.00    -0.014 A 
BRANCH  13  14
ATOM     14  C   UNL A   1      40.586  27.911  28.953  1.00  0.00     0.031 A 
ATOM     15  C   UNL A   1      39.627  29.042  29.182  1.00  0.00     0.074 A 
ATOM     16  C   UNL A   1      41.821  27.926  29.500  1.00  0.00     0.049 A 
ATOM     17  N   UNL A   1      39.819  30.142  29.863  1.00  0.00    -0.248 NA
ATOM     18  C   UNL A   1      38.293  28.939  28.572  1.00  0.00     0.031 C 
ATOM     19  C   UNL A   1      42.834  26.874  29.326  1.00  0.00     0.029 A 
ATOM     20  N   UNL A   1      42.431  28.825  30.333  1.00  0.00    -0.354 N 
ATOM     21  C   UNL A   1      38.648  30.878  29.737  1.00  0.00     0.074 A 
ATOM     22  C   UNL A   1      37.749  30.102  28.909  1.00  0.00     0.031 C 
ATOM     23  C   UNL A   1      43.899  27.150  30.087  1.00  0.00     0.029 A 
ATOM     24  C   UNL A   1      43.698  28.448  30.712  1.00  0.00     0.049 A 
ATOM     25  H   UNL A   1      42.004  29.661  30.631  1.00  0.00     0.167 HD
ATOM     26  C   UNL A   1      38.363  32.094  30.260  1.00  0.00     0.031 A 
ATOM     27  C   UNL A   1      44.622  29.091  31.446  1.00  0.00     0.031 A 
ATOM     28  C   UNL A   1      39.273  32.844  31.089  1.00  0.00     0.049 A 
ATOM     29  C   UNL A   1      44.282  30.447  31.982  1.00  0.00     0.074 A 
ATOM     30  C   UNL A   1      39.064  34.067  31.703  1.00  0.00     0.029 A 
ATOM     31  N   UNL A   1      40.563  32.450  31.415  1.00  0.00    -0.354 N 
ATOM     32  N   UNL A   1      43.153  31.108  31.881  1.00  0.00    -0.248 NA
ATOM     33  C   UNL A   1      45.338  31.150  32.719  1.00  0.00     0.031 C 
ATOM     34  C   UNL A   1      40.248  34.441  32.345  1.00  0.00     0.029 A 
ATOM     35  C   UNL A   1      41.173  33.423  32.190  1.00  0.00     0.049 A 
ATOM     36  H   UNL A   1      40.982  31.604  31.136  1.00  0.00     0.167 HD
ATOM     37  C   UNL A   1      43.362  32.306  32.550  1.00  0.00     0.074 A 
ATOM     38  C   UNL A   1      44.710  32.260  33.081  1.00  0.00     0.031 C 
ATOM     39  C   UNL A   1      42.518  33.355  32.702  1.00  0.00     0.031 A 
BRANCH  26  40
ATOM     40  C   UNL A   1      37.033  32.721  29.935  1.00  0.00    -0.014 A 
ATOM     41  C   UNL A   1      35.977  32.725  30.863  1.00  0.00     0.010 A 
ATOM     42  C   UNL A   1      36.876  33.413  28.718  1.00  0.00     0.010 A 
ATOM     43  C   UNL A   1      34.788  33.403  30.578  1.00  0.00     0.020 A 
ATOM     44  C   UNL A   1      35.698  34.111  28.438  1.00  0.00     0.020 A 
ATOM     45  C   UNL A   1      34.658  34.097  29.370  1.00  0.00     0.054 A 
BRANCH  45  46
ATOM     46  S   UNL A   1      33.132  35.028  29.060  1.00  0.00     0.124 S 
ATOM     47  O   UNL A   1      32.483  34.987  30.368  1.00  0.00    -0.237 OA
ATOM     48  O   UNL A   1      33.635  36.336  28.649  1.00  0.00    -0.237 OA
ATOM     49  O   UNL A   1      32.464  34.262  28.010  1.00  0.00    -0.744 OA
ENDBRANCH  45  46
ENDBRANCH  26  40
BRANCH  27  50
ATOM     50  C   UNL A   1      45.968  28.488  31.648  1.00  0.00    -0.014 A 
ATOM     51  C   UNL A   1      46.237  27.673  32.760  1.00  0.00     0.010 A 
ATOM     52  C   UNL A   1      46.995  28.736  30.716  1.00  0.00     0.010 A 
ATOM     53  C   UNL A   1      47.518  27.146  32.954  1.00  0.00     0.020 A 
ATOM     54  C   UNL A   1      48.264  28.180  30.886  1.00  0.00     0.020 A 
ATOM     55  C   UNL A   1      48.523  27.407  32.017  1.00  0.00     0.054 A 
BRANCH  55  56
ATOM     56  S   UNL A   1      50.174  26.707  32.284  1.00  0.00     0.124 S 
ATOM     57  O   UNL A   1      51.036  27.837  31.953  1.00  0.00    -0.237 OA
ATOM     58  O   UNL A   1      50.135  26.332  33.695  1.00  0.00    -0.237 OA
ATOM     59  O   UNL A   1      50.224  25.584  31.349  1.00  0.00    -0.744 OA
ENDBRANCH  55  56
ENDBRANCH  27  50
BRANCH  39  60
ATOM     60  C   UNL A   1      43.029  34.524  33.497  1.00  0.00    -0.014 A 
ATOM     61  C   UNL A   1      42.951  34.537  34.900  1.00  0.00     0.010 A 
ATOM     62  C   UNL A   1      43.621  35.611  32.829  1.00  0.00     0.010 A 
ATOM     63  C   UNL A   1      43.425  35.634  35.622  1.00  0.00     0.020 A 
ATOM     64  C   UNL A   1      44.125  36.695  33.549  1.00  0.00     0.020 A 
ATOM     65  C   UNL A   1      44.009  36.706  34.941  1.00  0.00     0.054 A 
BRANCH  65  66
ATOM     66  S   UNL A   1      44.651  38.102  35.902  1.00  0.00     0.124 S 
ATOM     67  O   UNL A   1      44.489  39.213  34.969  1.00  0.00    -0.237 OA
ATOM     68  O   UNL A   1      43.768  38.123  37.066  1.00  0.00    -0.237 OA
ATOM     69  O   UNL A   1      46.034  37.722  36.184  1.00  0.00    -0.744 OA
ENDBRANCH  65  66
ENDBRANCH  39  60
ENDBRANCH  13  14
ENDBRANCH   6   8
ENDBRANCH   3   4
ENDBRANCH   2   3
ENDBRANCH   1   2
BRANCH   1  70
ATOM     70  N   UNL A   1      34.632  22.245  27.242  1.00  0.00    -0.356 N 
ATOM     71  C   UNL A   1      33.300  22.486  27.160  1.00  0.00     0.227 C 
ATOM     72  H   UNL A   1      34.996  22.268  28.156  1.00  0.00     0.163 HD
ATOM     73  O   UNL A   1      32.698  22.548  28.240  1.00  0.00    -0.274 OA
BRANCH  71  74
ATOM     74  C   UNL A   1      32.538  22.731  25.848  1.00  0.00     0.108 C 
BRANCH  74  75
ATOM     75  C   UNL A   1      31.771  21.496  25.296  1.00  0.00     0.018 C 
BRANCH  75  76
ATOM     76  C   UNL A   1      32.340  20.619  24.172  1.00  0.00     0.004 C 
BRANCH  76  77
ATOM     77  C   UNL A   1      33.305  19.485  24.540  1.00  0.00     0.028 C 
BRANCH  77  78
ATOM     78  C   UNL A   1      32.639  18.249  25.130  1.00  0.00     0.156 C 
BRANCH  78  79
ATOM     79  O   UNL A   1      32.600  18.306  26.548  1.00  0.00    -0.396 OA
ATOM     80  H   UNL A   1      32.527  19.230  26.833  1.00  0.00     0.210 HD
ENDBRANCH  78  79
ENDBRANCH  77  78
ENDBRANCH  76  77
ENDBRANCH  75  76
ENDBRANCH  74  75
BRANCH  74  81
ATOM     81  C   UNL A   1      31.871  24.083  25.612  1.00  0.00    -0.034 A 
ATOM     82  C   UNL A   1      30.913  24.174  24.584  1.00  0.00     0.004 A 
ATOM     83  C   UNL A   1      32.116  25.238  26.365  1.00  0.00     0.025 A 
ATOM     84  C   UNL A   1      30.158  25.331  24.389  1.00  0.00     0.002 A 
ATOM     85  C   UNL A   1      31.318  26.374  26.211  1.00  0.00     0.041 A 
ATOM     86  C   UNL A   1      30.334  26.422  25.232  1.00  0.00     0.020 A 
ATOM     87  Cl  UNL A   1      31.531  27.710  27.276  1.00  0.00    -0.084 Cl
ENDBRANCH  74  81
ENDBRANCH  71  74
ENDBRANCH   1  70
TORSDOF 19
ENDMDL
MODEL 2
REMARK VINA RESULT:     -10.1      3.304      9.064
REMARK SMILES O=C(NCCCNC(=O)[C@@H](CCCCO)c1cccc(Cl)c1)c1ccc(-c2c3nc(c(-c4ccc(S(=O)(=O)[O-])cc4)c4ccc([nH]4)c(-c4ccc(S(=O)(=O)[O-])cc4)c4nc(c(-c5ccc(S(=O)(=O)[O-])cc5)c5ccc2[nH]5)C=C4)C=C3)cc1
REMARK SMILES IDX 6 1 5 2 4 3 3 4 1 5 2 6 23 8 24 9 82 10 25 11 81 12 26 13
REMARK SMILES IDX 27 14 28 15 75 16 29 17 80 18 74 19 76 20 30 21 79 22 73 23
REMARK SMILES IDX 72 24 31 26 61 27 42 28 60 29 43 30 46 31 59 32 77 33 44 34
REMARK SMILES IDX 45 35 58 37 78 38 47 39 32 40 33 41 41 42 34 43 40 44 35 45
REMARK SMILES IDX 36 46 37 47 38 48 39 49 62 50 63 51 71 52 64 53 70 54 65 55
REMARK SMILES IDX 66 56 67 57 68 58 69 59 48 60 49 61 57 62 50 63 56 64 51 65
REMARK SMILES IDX 52 66 53 67 54 68 55 69 7 70 8 71 9 73 10 74 11 75 12 76
REMARK SMILES IDX 13 77 14 78 15 79 16 81 17 82 22 83 18 84 20 85 19 86 21 87
REMARK H PARENT 3 7 76 25 46 36 7 72 15 80
REMARK Flexibility Score: inf
ROOT
ATOM      1  C   UNL A   1      36.989  22.364  25.797  1.00  0.00     0.117 C 
ENDROOT
BRANCH   1   2
ATOM      2  C   UNL A   1      37.331  23.834  25.882  1.00  0.00     0.042 C 
BRANCH   2   3
ATOM      3  C   UNL A   1      38.553  24.071  26.743  1.00  0.00     0.118 C 
BRANCH   3   4
ATOM      4  N   UNL A   1      39.712  24.464  25.950  1.00  0.00    -0.352 N 
ATOM      5  O   UNL A   1      41.324  25.835  25.182  1.00  0.00    -0.269 OA
ATOM      6  C   UNL A   1      40.554  25.545  26.086  1.00  0.00     0.251 C 
ATOM      7  H   UNL A   1      39.927  23.861  25.200  1.00  0.00     0.163 HD
BRANCH   6   8
ATOM      8  C   UNL A   1      40.507  26.354  27.322  1.00  0.00     0.039 A 
ATOM      9  C   UNL A   1      41.291  27.501  27.429  1.00  0.00     0.014 A 
ATOM     10  C   UNL A   1      39.666  25.985  28.376  1.00  0.00     0.014 A 
ATOM     11  C   UNL A   1      41.403  28.152  28.642  1.00  0.00     0.010 A 
ATOM     12  C   UNL A   1      39.647  26.752  29.546  1.00  0.00     0.010 A 
ATOM     13  C   UNL A   1      40.528  27.834  29.689  1.00  0.00    -0.014 A 
BRANCH  13  14
ATOM     14  C   UNL A   1      40.462  28.769  30.838  1.00  0.00     0.031 A 
ATOM     15  C   UNL A   1      41.398  28.655  32.006  1.00  0.00     0.074 A 
ATOM     16  C   UNL A   1      39.548  29.761  30.775  1.00  0.00     0.049 A 
ATOM     17  N   UNL A   1      41.460  29.409  33.072  1.00  0.00    -0.248 NA
ATOM     18  C   UNL A   1      42.380  27.560  31.988  1.00  0.00     0.031 C 
ATOM     19  C   UNL A   1      38.583  29.952  29.682  1.00  0.00     0.029 A 
ATOM     20  N   UNL A   1      39.294  30.812  31.616  1.00  0.00    -0.354 N 
ATOM     21  C   UNL A   1      42.460  28.865  33.867  1.00  0.00     0.074 A 
ATOM     22  C   UNL A   1      42.977  27.711  33.164  1.00  0.00     0.031 C 
ATOM     23  C   UNL A   1      37.902  31.086  29.881  1.00  0.00     0.029 A 
ATOM     24  C   UNL A   1      38.296  31.643  31.165  1.00  0.00     0.049 A 
ATOM     25  H   UNL A   1      39.779  30.957  32.461  1.00  0.00     0.167 HD
ATOM     26  C   UNL A   1      42.892  29.292  35.077  1.00  0.00     0.031 A 
ATOM     27  C   UNL A   1      37.722  32.716  31.738  1.00  0.00     0.031 A 
ATOM     28  C   UNL A   1      42.366  30.451  35.755  1.00  0.00     0.049 A 
ATOM     29  C   UNL A   1      38.206  33.139  33.090  1.00  0.00     0.074 A 
ATOM     30  C   UNL A   1      42.764  30.991  36.965  1.00  0.00     0.029 A 
ATOM     31  N   UNL A   1      41.325  31.242  35.289  1.00  0.00    -0.354 N 
ATOM     32  N   UNL A   1      39.179  32.631  33.808  1.00  0.00    -0.248 NA
ATOM     33  C   UNL A   1      37.511  34.269  33.716  1.00  0.00     0.031 C 
ATOM     34  C   UNL A   1      41.925  32.069  37.260  1.00  0.00     0.029 A 
ATOM     35  C   UNL A   1      41.045  32.243  36.204  1.00  0.00     0.049 A 
ATOM     36  H   UNL A   1      40.856  31.111  34.433  1.00  0.00     0.167 HD
ATOM     37  C   UNL A   1      39.218  33.387  34.972  1.00  0.00     0.074 A 
ATOM     38  C   UNL A   1      38.196  34.407  34.843  1.00  0.00     0.031 C 
ATOM     39  C   UNL A   1      40.020  33.243  36.054  1.00  0.00     0.031 A 
BRANCH  26  40
ATOM     40  C   UNL A   1      43.962  28.497  35.778  1.00  0.00    -0.014 A 
ATOM     41  C   UNL A   1      45.323  28.825  35.651  1.00  0.00     0.010 A 
ATOM     42  C   UNL A   1      43.587  27.470  36.666  1.00  0.00     0.010 A 
ATOM     43  C   UNL A   1      46.288  28.138  36.392  1.00  0.00     0.020 A 
ATOM     44  C   UNL A   1      44.547  26.795  37.426  1.00  0.00     0.020 A 
ATOM     45  C   UNL A   1      45.894  27.131  37.280  1.00  0.00     0.054 A 
BRANCH  45  46
ATOM     46  S   UNL A   1      47.162  26.307  38.282  1.00  0.00     0.124 S 
ATOM     47  O   UNL A   1      47.303  25.025  37.596  1.00  0.00    -0.237 OA
ATOM     48  O   UNL A   1      48.302  27.213  38.160  1.00  0.00    -0.237 OA
ATOM     49  O   UNL A   1      46.565  26.239  39.614  1.00  0.00    -0.744 OA
ENDBRANCH  45  46
ENDBRANCH  26  40
BRANCH  27  50
ATOM     50  C   UNL A   1      36.588  33.405  31.065  1.00  0.00    -0.014 A 
ATOM     51  C   UNL A   1      36.736  33.959  29.783  1.00  0.00     0.010 A 
ATOM     52  C   UNL A   1      35.343  33.511  31.717  1.00  0.00     0.010 A 
ATOM     53  C   UNL A   1      35.671  34.637  29.180  1.00  0.00     0.020 A 
ATOM     54  C   UNL A   1      34.267  34.153  31.103  1.00  0.00     0.020 A 
ATOM     55  C   UNL A   1      34.445  34.732  29.847  1.00  0.00     0.054 A 
BRANCH  55  56
ATOM     56  S   UNL A   1      33.076  35.608  29.044  1.00  0.00     0.124 S 
ATOM     57  O   UNL A   1      33.780  36.644  28.295  1.00  0.00    -0.237 OA
ATOM     58  O   UNL A   1      32.454  34.558  28.243  1.00  0.00    -0.237 OA
ATOM     59  O   UNL A   1      32.271  36.085  30.168  1.00  0.00    -0.744 OA
ENDBRANCH  55  56
ENDBRANCH  27  50
BRANCH  39  60
ATOM     60  C   UNL A   1      39.833  34.233  37.170  1.00  0.00    -0.014 A 
ATOM     61  C   UNL A   1      40.402  35.517  37.104  1.00  0.00     0.010 A 
ATOM     62  C   UNL A   1      39.052  33.881  38.286  1.00  0.00     0.010 A 
ATOM     63  C   UNL A   1      40.223  36.421  38.153  1.00  0.00     0.020 A 
ATOM     64  C   UNL A   1      38.844  34.793  39.321  1.00  0.00     0.020 A 
ATOM     65  C   UNL A   1      39.445  36.053  39.255  1.00  0.00     0.054 A 
BRANCH  65  66
ATOM     66  S   UNL A   1      39.196  37.257  40.586  1.00  0.00     0.124 S 
ATOM     67  O   UNL A   1      38.639  36.424  41.648  1.00  0.00    -0.237 OA
ATOM     68  O   UNL A   1      40.548  37.758  40.822  1.00  0.00    -0.237 OA
ATOM     69  O   UNL A   1      38.270  38.228  40.006  1.00  0.00    -0.744 OA
ENDBRANCH  65  66
ENDBRANCH  39  60
ENDBRANCH  13  14
ENDBRANCH   6   8
ENDBRANCH   3   4
ENDBRANCH   2   3
ENDBRANCH   1   2
BRANCH   1  70
ATOM     70  N   UNL A   1      35.813  22.018  26.563  1.00  0.00    -0.356 N 
ATOM     71  C   UNL A   1      34.539  21.766  26.170  1.00  0.00     0.227 C 
ATOM     72  H   UNL A   1      35.961  21.956  27.535  1.00  0.00     0.163 HD
ATOM     73  O   UNL A   1      33.779  21.345  27.053  1.00  0.00    -0.274 OA
BRANCH  71  74
ATOM     74  C   UNL A   1      33.999  22.017  24.755  1.00  0.00     0.108 C 
BRANCH  74  75
ATOM     75  C   UNL A   1      33.057  20.908  24.206  1.00  0.00     0.018 C 
BRANCH  75  76
ATOM     76  C   UNL A   1      33.109  19.464  24.728  1.00  0.00     0.004 C 
BRANCH  76  77
ATOM     77  C   UNL A   1      33.089  18.314  23.713  1.00  0.00     0.028 C 
BRANCH  77  78
ATOM     78  C   UNL A   1      34.286  17.377  23.791  1.00  0.00     0.156 C 
BRANCH  78  79
ATOM     79  O   UNL A   1      34.091  16.215  22.998  1.00  0.00    -0.396 OA
ATOM     80  H   UNL A   1      34.919  15.715  22.947  1.00  0.00     0.210 HD
ENDBRANCH  78  79
ENDBRANCH  77  78
ENDBRANCH  76  77
ENDBRANCH  75  76
ENDBRANCH  74  75
BRANCH  74  81
ATOM     81  C   UNL A   1      33.661  23.442  24.326  1.00  0.00    -0.034 A 
ATOM     82  C   UNL A   1      33.828  24.472  25.272  1.00  0.00     0.004 A 
ATOM     83  C   UNL A   1      33.227  23.811  23.047  1.00  0.00     0.025 A 
ATOM     84  C   UNL A   1      33.675  25.815  24.925  1.00  0.00     0.002 A 
ATOM     85  C   UNL A   1      33.132  25.156  22.683  1.00  0.00     0.041 A 
ATOM     86  C   UNL A   1      33.364  26.160  23.615  1.00  0.00     0.020 A 
ATOM     87  Cl  UNL A   1      32.769  25.570  21.052  1.00  0.00    -0.084 Cl
ENDBRANCH  74  81
ENDBRANCH  71  74
ENDBRANCH   1  70
TORSDOF 19
ENDMDL
MODEL 3
REMARK VINA RESULT:      -9.9      3.786     10.467
REMARK SMILES O=C(NCCCNC(=O)[C@@H](CCCCO)c1cccc(Cl)c1)c1ccc(-c2c3nc(c(-c4ccc(S(=O)(=O)[O-])cc4)c4ccc([nH]4)c(-c4ccc(S(=O)(=O)[O-])cc4)c4nc(c(-c5ccc(S(=O)(=O)[O-])cc5)c5ccc2[nH]5)C=C4)C=C3)cc1
REMARK SMILES IDX 6 1 5 2 4 3 3 4 1 5 2 6 23 8 24 9 82 10 25 11 81 12 26 13
REMARK SMILES IDX 27 14 28 15 75 16 29 17 80 18 74 19 76 20 30 21 79 22 73 23
REMARK SMILES IDX 72 24 31 26 61 27 42 28 60 29 43 30 46 31 59 32 77 33 44 34
REMARK SMILES IDX 45 35 58 37 78 38 47 39 32 40 33 41 41 42 34 43 40 44 35 45
REMARK SMILES IDX 36 46 37 47 38 48 39 49 62 50 63 51 71 52 64 53 70 54 65 55
REMARK SMILES IDX 66 56 67 57 68 58 69 59 48 60 49 61 57 62 50 63 56 64 51 65
REMARK SMILES IDX 52 66 53 67 54 68 55 69 7 70 8 71 9 73 10 74 11 75 12 76
REMARK SMILES IDX 13 77 14 78 15 79 16 81 17 82 22 83 18 84 20 85 19 86 21 87
REMARK H PARENT 3 7 76 25 46 36 7 72 15 80
REMARK Flexibility Score: inf
ROOT
ATOM      1  C   UNL A   1      42.417  21.079  26.244  1.00  0.00     0.117 C 
ENDROOT
BRANCH   1   2
ATOM      2  C   UNL A   1      41.863  21.942  27.356  1.00  0.00     0.042 C 
BRANCH   2   3
ATOM      3  C   UNL A   1      40.445  21.550  27.708  1.00  0.00     0.118 C 
BRANCH   3   4
ATOM      4  N   UNL A   1      39.507  21.871  26.638  1.00  0.00    -0.352 N 
ATOM      5  O   UNL A   1      37.951  23.076  25.544  1.00  0.00    -0.269 OA
ATOM      6  C   UNL A   1      38.887  23.062  26.330  1.00  0.00     0.251 C 
ATOM      7  H   UNL A   1      39.282  21.119  26.042  1.00  0.00     0.163 HD
BRANCH   6   8
ATOM      8  C   UNL A   1      39.352  24.312  26.967  1.00  0.00     0.039 A 
ATOM      9  C   UNL A   1      39.029  24.573  28.297  1.00  0.00     0.014 A 
ATOM     10  C   UNL A   1      40.131  25.223  26.248  1.00  0.00     0.014 A 
ATOM     11  C   UNL A   1      39.289  25.815  28.842  1.00  0.00     0.010 A 
ATOM     12  C   UNL A   1      40.548  26.410  26.861  1.00  0.00     0.010 A 
ATOM     13  C   UNL A   1      40.116  26.718  28.160  1.00  0.00    -0.014 A 
BRANCH  13  14
ATOM     14  C   UNL A   1      40.632  27.883  28.916  1.00  0.00     0.031 A 
ATOM     15  C   UNL A   1      42.029  27.916  29.464  1.00  0.00     0.074 A 
ATOM     16  C   UNL A   1      39.806  28.942  29.058  1.00  0.00     0.049 A 
ATOM     17  N   UNL A   1      42.615  28.874  30.133  1.00  0.00    -0.248 NA
ATOM     18  C   UNL A   1      42.874  26.732  29.246  1.00  0.00     0.031 C 
ATOM     19  C   UNL A   1      38.421  29.004  28.569  1.00  0.00     0.029 A 
ATOM     20  N   UNL A   1      40.004  30.176  29.619  1.00  0.00    -0.354 N 
ATOM     21  C   UNL A   1      43.882  28.400  30.448  1.00  0.00     0.074 A 
ATOM     22  C   UNL A   1      43.981  27.065  29.899  1.00  0.00     0.031 C 
ATOM     23  C   UNL A   1      37.927  30.229  28.780  1.00  0.00     0.029 A 
ATOM     24  C   UNL A   1      38.910  31.003  29.519  1.00  0.00     0.049 A 
ATOM     25  H   UNL A   1      40.847  30.443  30.052  1.00  0.00     0.167 HD
ATOM     26  C   UNL A   1      44.862  29.028  31.139  1.00  0.00     0.031 A 
ATOM     27  C   UNL A   1      38.697  32.238  30.007  1.00  0.00     0.031 A 
ATOM     28  C   UNL A   1      44.743  30.363  31.669  1.00  0.00     0.049 A 
ATOM     29  C   UNL A   1      39.793  32.887  30.794  1.00  0.00     0.074 A 
ATOM     30  C   UNL A   1      45.693  31.105  32.349  1.00  0.00     0.029 A 
ATOM     31  N   UNL A   1      43.605  31.154  31.588  1.00  0.00    -0.354 N 
ATOM     32  N   UNL A   1      40.998  32.434  31.047  1.00  0.00    -0.248 NA
ATOM     33  C   UNL A   1      39.502  34.204  31.370  1.00  0.00     0.031 C 
ATOM     34  C   UNL A   1      45.111  32.316  32.733  1.00  0.00     0.029 A 
ATOM     35  C   UNL A   1      43.819  32.359  32.236  1.00  0.00     0.049 A 
ATOM     36  H   UNL A   1      42.770  30.895  31.135  1.00  0.00     0.167 HD
ATOM     37  C   UNL A   1      41.613  33.418  31.809  1.00  0.00     0.074 A 
ATOM     38  C   UNL A   1      40.661  34.502  31.942  1.00  0.00     0.031 C 
ATOM     39  C   UNL A   1      42.852  33.420  32.358  1.00  0.00     0.031 A 
BRANCH  26  40
ATOM     40  C   UNL A   1      46.144  28.282  31.404  1.00  0.00    -0.014 A 
ATOM     41  C   UNL A   1      46.303  27.477  32.545  1.00  0.00     0.010 A 
ATOM     42  C   UNL A   1      47.166  28.303  30.435  1.00  0.00     0.010 A 
ATOM     43  C   UNL A   1      47.461  26.713  32.716  1.00  0.00     0.020 A 
ATOM     44  C   UNL A   1      48.316  27.524  30.590  1.00  0.00     0.020 A 
ATOM     45  C   UNL A   1      48.458  26.736  31.734  1.00  0.00     0.054 A 
BRANCH  45  46
ATOM     46  S   UNL A   1      49.916  25.678  31.949  1.00  0.00     0.124 S 
ATOM     47  O   UNL A   1      49.471  24.759  32.994  1.00  0.00    -0.237 OA
ATOM     48  O   UNL A   1      50.079  25.087  30.622  1.00  0.00    -0.237 OA
ATOM     49  O   UNL A   1      50.968  26.610  32.346  1.00  0.00    -0.744 OA
ENDBRANCH  45  46
ENDBRANCH  26  40
BRANCH  27  50
ATOM     50  C   UNL A   1      37.374  32.895  29.824  1.00  0.00    -0.014 A 
ATOM     51  C   UNL A   1      37.089  33.637  28.666  1.00  0.00     0.010 A 
ATOM     52  C   UNL A   1      36.389  32.781  30.824  1.00  0.00     0.010 A 
ATOM     53  C   UNL A   1      35.854  34.280  28.527  1.00  0.00     0.020 A 
ATOM     54  C   UNL A   1      35.142  33.389  30.671  1.00  0.00     0.020 A 
ATOM     55  C   UNL A   1      34.891  34.155  29.533  1.00  0.00     0.054 A 
BRANCH  55  56
ATOM     56  S   UNL A   1      33.295  34.990  29.329  1.00  0.00     0.124 S 
ATOM     57  O   UNL A   1      32.779  34.988  30.694  1.00  0.00    -0.237 OA
ATOM     58  O   UNL A   1      33.686  36.294  28.800  1.00  0.00    -0.237 OA
ATOM     59  O   UNL A   1      32.580  34.132  28.386  1.00  0.00    -0.744 OA
ENDBRANCH  55  56
ENDBRANCH  27  50
BRANCH  39  60
ATOM     60  C   UNL A   1      43.247  34.647  33.131  1.00  0.00    -0.014 A 
ATOM     61  C   UNL A   1      43.092  34.706  34.527  1.00  0.00     0.010 A 
ATOM     62  C   UNL A   1      43.808  35.743  32.452  1.00  0.00     0.010 A 
ATOM     63  C   UNL A   1      43.458  35.857  35.227  1.00  0.00     0.020 A 
ATOM     64  C   UNL A   1      44.205  36.883  33.153  1.00  0.00     0.020 A 
ATOM     65  C   UNL A   1      44.013  36.938  34.536  1.00  0.00     0.054 A 
BRANCH  65  66
ATOM     66  S   UNL A   1      44.516  38.406  35.472  1.00  0.00     0.124 S 
ATOM     67  O   UNL A   1      43.903  38.158  36.775  1.00  0.00    -0.237 OA
ATOM     68  O   UNL A   1      45.974  38.324  35.436  1.00  0.00    -0.237 OA
ATOM     69  O   UNL A   1      43.940  39.515  34.715  1.00  0.00    -0.744 OA
ENDBRANCH  65  66
ENDBRANCH  39  60
ENDBRANCH  13  14
ENDBRANCH   6   8
ENDBRANCH   3   4
ENDBRANCH   2   3
ENDBRANCH   1   2
BRANCH   1  70
ATOM     70  N   UNL A   1      42.688  21.828  25.038  1.00  0.00    -0.356 N 
ATOM     71  C   UNL A   1      43.795  22.505  24.643  1.00  0.00     0.227 C 
ATOM     72  H   UNL A   1      41.943  21.852  24.394  1.00  0.00     0.163 HD
ATOM     73  O   UNL A   1      43.781  22.925  23.478  1.00  0.00    -0.274 OA
BRANCH  71  74
ATOM     74  C   UNL A   1      44.998  22.811  25.548  1.00  0.00     0.108 C 
BRANCH  74  75
ATOM     75  C   UNL A   1      46.005  21.638  25.718  1.00  0.00     0.018 C 
BRANCH  75  76
ATOM     76  C   UNL A   1      46.376  20.708  24.555  1.00  0.00     0.004 C 
BRANCH  76  77
ATOM     77  C   UNL A   1      45.459  19.516  24.244  1.00  0.00     0.028 C 
BRANCH  77  78
ATOM     78  C   UNL A   1      45.193  18.594  25.426  1.00  0.00     0.156 C 
BRANCH  78  79
ATOM     79  O   UNL A   1      46.212  17.615  25.561  1.00  0.00    -0.396 OA
ATOM     80  H   UNL A   1      45.827  16.731  25.456  1.00  0.00     0.210 HD
ENDBRANCH  78  79
ENDBRANCH  77  78
ENDBRANCH  76  77
ENDBRANCH  75  76
ENDBRANCH  74  75
BRANCH  74  81
ATOM     81  C   UNL A   1      45.609  24.209  25.532  1.00  0.00    -0.034 A 
ATOM     82  C   UNL A   1      44.862  25.261  26.097  1.00  0.00     0.004 A 
ATOM     83  C   UNL A   1      46.876  24.523  25.025  1.00  0.00     0.025 A 
ATOM     84  C   UNL A   1      45.399  26.540  26.248  1.00  0.00     0.002 A 
ATOM     85  C   UNL A   1      47.436  25.786  25.230  1.00  0.00     0.041 A 
ATOM     86  C   UNL A   1      46.706  26.793  25.848  1.00  0.00     0.020 A 
ATOM     87  Cl  UNL A   1      49.064  26.080  24.751  1.00  0.00    -0.084 Cl
ENDBRANCH  74  81
ENDBRANCH  71  74
ENDBRANCH   1  70
TORSDOF 19
ENDMDL
