MODEL 1
REMARK VINA RESULT:     -10.4      0.000      0.000
REMARK SMILES CCC[C@](C)(Nc1cncc(C(=O)OC)n1)C(=O)NCCCNC(=O)c1ccc(-c2c3nc(c(-c4ccc(S(=O)(=O)[O-])cc4)c4ccc([nH]4)c(-c4ccc(S(=O)(=O)[O-])cc4)c4nc(c(-c5ccc(S(=O)(=O)[O-])cc5)c5ccc2[nH]5)C=C4)C=C3)cc1
REMARK SMILES IDX 20 1 19 2 17 3 18 4 4 6 5 7 3 8 2 9 1 10 6 11 7 13 8 14
REMARK SMILES IDX 16 15 9 16 11 17 10 18 12 19 13 20 14 21 15 22 21 23 22 24
REMARK SMILES IDX 23 25 24 26 25 28 26 29 27 30 85 31 28 32 84 33 29 34 30 35
REMARK SMILES IDX 31 36 78 37 32 38 83 39 77 40 79 41 33 42 82 43 76 44 75 45
REMARK SMILES IDX 34 47 64 48 45 49 63 50 46 51 49 52 62 53 80 54 47 55 48 56
REMARK SMILES IDX 61 58 81 59 50 60 35 61 36 62 44 63 37 64 43 65 38 66 39 67
REMARK SMILES IDX 40 68 41 69 42 70 65 71 66 72 74 73 67 74 73 75 68 76 69 77
REMARK SMILES IDX 70 78 71 79 72 80 51 81 52 82 60 83 53 84 59 85 54 86 55 87
REMARK SMILES IDX 56 88 57 89 58 90
REMARK H PARENT 19 5 6 12 23 27 79 46 49 57
REMARK Flexibility Score: inf
ROOT
ATOM      1  C   UNL A   1      36.846  22.240  25.938  1.00  0.00     0.117 C 
ENDROOT
BRANCH   1   2
ATOM      2  N   UNL A   1      35.715  21.981  26.815  1.00  0.00    -0.354 N 
ATOM      3  C   UNL A   1      34.380  21.799  26.599  1.00  0.00     0.245 C 
ATOM      4  O   UNL A   1      33.711  21.535  27.607  1.00  0.00    -0.272 OA
ATOM      5  H   UNL A   1      35.966  21.924  27.766  1.00  0.00     0.163 HD
BRANCH   3   6
ATOM      6  C   UNL A   1      33.700  21.929  25.200  1.00  0.00     0.115 C 
ATOM      7  C   UNL A   1      32.185  22.186  25.365  1.00  0.00     0.045 C 
BRANCH   6   8
ATOM      8  C   UNL A   1      33.892  20.607  24.397  1.00  0.00     0.038 C 
BRANCH   8   9
ATOM      9  C   UNL A   1      32.651  19.699  24.297  1.00  0.00    -0.000 C 
ATOM     10  C   UNL A   1      32.723  18.494  25.224  1.00  0.00     0.004 C 
ENDBRANCH   8   9
ENDBRANCH   6   8
BRANCH   6  11
ATOM     11  N   UNL A   1      34.240  23.052  24.406  1.00  0.00    -0.355 N 
ATOM     12  H   UNL A   1      34.908  22.809  23.726  1.00  0.00     0.163 HD
BRANCH  11  13
ATOM     13  C   UNL A   1      33.935  24.389  24.490  1.00  0.00     0.146 A 
ATOM     14  C   UNL A   1      33.905  25.152  25.665  1.00  0.00     0.157 A 
ATOM     15  N   UNL A   1      33.738  24.999  23.302  1.00  0.00    -0.221 NA
ATOM     16  N   UNL A   1      33.814  26.507  25.702  1.00  0.00    -0.258 NA
ATOM     17  C   UNL A   1      33.593  26.358  23.333  1.00  0.00     0.169 A 
ATOM     18  C   UNL A   1      33.673  27.098  24.500  1.00  0.00     0.147 A 
BRANCH  17  19
ATOM     19  C   UNL A   1      33.211  27.097  22.115  1.00  0.00     0.358 C 
ATOM     20  O   UNL A   1      33.962  27.869  21.538  1.00  0.00    -0.244 OA
BRANCH  19  21
ATOM     21  O   UNL A   1      31.878  26.959  21.899  1.00  0.00    -0.464 OA
ATOM     22  C   UNL A   1      31.086  27.814  22.725  1.00  0.00     0.282 C 
ENDBRANCH  19  21
ENDBRANCH  17  19
ENDBRANCH  11  13
ENDBRANCH   6  11
ENDBRANCH   3   6
ENDBRANCH   1   2
BRANCH   1  23
ATOM     23  C   UNL A   1      37.305  23.694  25.861  1.00  0.00     0.042 C 
BRANCH  23  24
ATOM     24  C   UNL A   1      38.486  24.068  26.749  1.00  0.00     0.118 C 
BRANCH  24  25
ATOM     25  N   UNL A   1      39.683  24.374  25.985  1.00  0.00    -0.352 N 
ATOM     26  C   UNL A   1      40.579  25.407  26.117  1.00  0.00     0.251 C 
ATOM     27  H   UNL A   1      39.884  23.741  25.258  1.00  0.00     0.163 HD
ATOM     28  O   UNL A   1      41.418  25.581  25.235  1.00  0.00    -0.269 OA
BRANCH  26  29
ATOM     29  C   UNL A   1      40.540  26.322  27.283  1.00  0.00     0.039 A 
ATOM     30  C   UNL A   1      39.684  26.011  28.346  1.00  0.00     0.014 A 
ATOM     31  C   UNL A   1      41.280  27.507  27.320  1.00  0.00     0.014 A 
ATOM     32  C   UNL A   1      39.608  26.856  29.458  1.00  0.00     0.010 A 
ATOM     33  C   UNL A   1      41.250  28.319  28.456  1.00  0.00     0.010 A 
ATOM     34  C   UNL A   1      40.408  28.007  29.535  1.00  0.00    -0.014 A 
BRANCH  34  35
ATOM     35  C   UNL A   1      40.360  28.895  30.726  1.00  0.00     0.031 A 
ATOM     36  C   UNL A   1      39.355  30.015  30.802  1.00  0.00     0.074 A 
ATOM     37  C   UNL A   1      41.241  28.722  31.730  1.00  0.00     0.049 A 
ATOM     38  N   UNL A   1      39.180  30.904  31.747  1.00  0.00    -0.248 NA
ATOM     39  C   UNL A   1      38.437  30.160  29.661  1.00  0.00     0.031 C 
ATOM     40  C   UNL A   1      42.279  27.689  31.776  1.00  0.00     0.029 A 
ATOM     41  N   UNL A   1      41.405  29.410  32.906  1.00  0.00    -0.354 N 
ATOM     42  C   UNL A   1      38.143  31.721  31.311  1.00  0.00     0.074 A 
ATOM     43  C   UNL A   1      37.757  31.247  29.999  1.00  0.00     0.031 C 
ATOM     44  C   UNL A   1      42.952  27.796  32.934  1.00  0.00     0.029 A 
ATOM     45  C   UNL A   1      42.420  28.922  33.695  1.00  0.00     0.049 A 
ATOM     46  H   UNL A   1      40.847  30.181  33.162  1.00  0.00     0.167 HD
ATOM     47  C   UNL A   1      37.552  32.762  31.949  1.00  0.00     0.031 A 
ATOM     48  C   UNL A   1      42.874  29.334  34.895  1.00  0.00     0.031 A 
ATOM     49  C   UNL A   1      37.930  33.237  33.253  1.00  0.00     0.049 A 
ATOM     50  C   UNL A   1      42.224  30.510  35.570  1.00  0.00     0.074 A 
ATOM     51  C   UNL A   1      37.365  34.259  33.996  1.00  0.00     0.029 A 
ATOM     52  N   UNL A   1      38.974  32.725  34.010  1.00  0.00    -0.354 N 
ATOM     53  N   UNL A   1      41.213  31.239  35.162  1.00  0.00    -0.248 NA
ATOM     54  C   UNL A   1      42.772  30.911  36.873  1.00  0.00     0.031 C 
ATOM     55  C   UNL A   1      38.091  34.391  35.185  1.00  0.00     0.029 A 
ATOM     56  C   UNL A   1      39.081  33.421  35.201  1.00  0.00     0.049 A 
ATOM     57  H   UNL A   1      39.553  31.977  33.739  1.00  0.00     0.167 HD
ATOM     58  C   UNL A   1      40.988  32.170  36.170  1.00  0.00     0.074 A 
ATOM     59  C   UNL A   1      41.962  31.906  37.210  1.00  0.00     0.031 C 
ATOM     60  C   UNL A   1      40.055  33.152  36.229  1.00  0.00     0.031 A 
BRANCH  47  61
ATOM     61  C   UNL A   1      36.434  33.464  31.225  1.00  0.00    -0.014 A 
ATOM     62  C   UNL A   1      36.582  33.873  29.886  1.00  0.00     0.010 A 
ATOM     63  C   UNL A   1      35.216  33.709  31.884  1.00  0.00     0.010 A 
ATOM     64  C   UNL A   1      35.554  34.563  29.239  1.00  0.00     0.020 A 
ATOM     65  C   UNL A   1      34.175  34.376  31.231  1.00  0.00     0.020 A 
ATOM     66  C   UNL A   1      34.361  34.820  29.919  1.00  0.00     0.054 A 
BRANCH  66  67
ATOM     67  S   UNL A   1      33.044  35.725  29.061  1.00  0.00     0.124 S 
ATOM     68  O   UNL A   1      32.263  36.249  30.179  1.00  0.00    -0.237 OA
ATOM     69  O   UNL A   1      33.784  36.722  28.291  1.00  0.00    -0.237 OA
ATOM     70  O   UNL A   1      32.379  34.696  28.265  1.00  0.00    -0.744 OA
ENDBRANCH  66  67
ENDBRANCH  47  61
BRANCH  48  71
ATOM     71  C   UNL A   1      43.993  28.605  35.551  1.00  0.00    -0.014 A 
ATOM     72  C   UNL A   1      45.323  28.996  35.318  1.00  0.00     0.010 A 
ATOM     73  C   UNL A   1      43.736  27.533  36.424  1.00  0.00     0.010 A 
ATOM     74  C   UNL A   1      46.378  28.321  35.940  1.00  0.00     0.020 A 
ATOM     75  C   UNL A   1      44.786  26.870  37.064  1.00  0.00     0.020 A 
ATOM     76  C   UNL A   1      46.102  27.264  36.811  1.00  0.00     0.054 A 
BRANCH  76  77
ATOM     77  S   UNL A   1      47.483  26.444  37.657  1.00  0.00     0.124 S 
ATOM     78  O   UNL A   1      47.290  25.049  37.272  1.00  0.00    -0.237 OA
ATOM     79  O   UNL A   1      48.650  27.105  37.076  1.00  0.00    -0.237 OA
ATOM     80  O   UNL A   1      47.245  26.745  39.067  1.00  0.00    -0.744 OA
ENDBRANCH  76  77
ENDBRANCH  48  71
BRANCH  60  81
ATOM     81  C   UNL A   1      40.019  33.997  37.473  1.00  0.00    -0.014 A 
ATOM     82  C   UNL A   1      40.809  35.155  37.589  1.00  0.00     0.010 A 
ATOM     83  C   UNL A   1      39.147  33.653  38.521  1.00  0.00     0.010 A 
ATOM     84  C   UNL A   1      40.747  35.939  38.745  1.00  0.00     0.020 A 
ATOM     85  C   UNL A   1      39.066  34.447  39.669  1.00  0.00     0.020 A 
ATOM     86  C   UNL A   1      39.878  35.577  39.779  1.00  0.00     0.054 A 
BRANCH  86  87
ATOM     87  S   UNL A   1      39.781  36.633  41.252  1.00  0.00     0.124 S 
ATOM     88  O   UNL A   1      38.776  37.616  40.856  1.00  0.00    -0.237 OA
ATOM     89  O   UNL A   1      39.369  35.698  42.295  1.00  0.00    -0.237 OA
ATOM     90  O   UNL A   1      41.139  37.153  41.393  1.00  0.00    -0.744 OA
ENDBRANCH  86  87
ENDBRANCH  60  81
ENDBRANCH  34  35
ENDBRANCH  26  29
ENDBRANCH  24  25
ENDBRANCH  23  24
ENDBRANCH   1  23
TORSDOF 19
ENDMDL
MODEL 2
REMARK VINA RESULT:     -10.3      6.196     10.710
REMARK SMILES CCC[C@](C)(Nc1cncc(C(=O)OC)n1)C(=O)NCCCNC(=O)c1ccc(-c2c3nc(c(-c4ccc(S(=O)(=O)[O-])cc4)c4ccc([nH]4)c(-c4ccc(S(=O)(=O)[O-])cc4)c4nc(c(-c5ccc(S(=O)(=O)[O-])cc5)c5ccc2[nH]5)C=C4)C=C3)cc1
REMARK SMILES IDX 20 1 19 2 17 3 18 4 4 6 5 7 3 8 2 9 1 10 6 11 7 13 8 14
REMARK SMILES IDX 16 15 9 16 11 17 10 18 12 19 13 20 14 21 15 22 21 23 22 24
REMARK SMILES IDX 23 25 24 26 25 28 26 29 27 30 85 31 28 32 84 33 29 34 30 35
REMARK SMILES IDX 31 36 78 37 32 38 83 39 77 40 79 41 33 42 82 43 76 44 75 45
REMARK SMILES IDX 34 47 64 48 45 49 63 50 46 51 49 52 62 53 80 54 47 55 48 56
REMARK SMILES IDX 61 58 81 59 50 60 35 61 36 62 44 63 37 64 43 65 38 66 39 67
REMARK SMILES IDX 40 68 41 69 42 70 65 71 66 72 74 73 67 74 73 75 68 76 69 77
REMARK SMILES IDX 70 78 71 79 72 80 51 81 52 82 60 83 53 84 59 85 54 86 55 87
REMARK SMILES IDX 56 88 57 89 58 90
REMARK H PARENT 19 5 6 12 23 27 79 46 49 57
REMARK Flexibility Score: inf
ROOT
ATOM      1  C   UNL A   1      36.752  21.116  24.900  1.00  0.00     0.117 C 
ENDROOT
BRANCH   1   2
ATOM      2  N   UNL A   1      35.968  21.150  26.125  1.00  0.00    -0.354 N 
ATOM      3  C   UNL A   1      34.730  21.632  26.436  1.00  0.00     0.245 C 
ATOM      4  O   UNL A   1      34.357  21.425  27.599  1.00  0.00    -0.272 OA
ATOM      5  H   UNL A   1      36.428  20.737  26.892  1.00  0.00     0.163 HD
BRANCH   3   6
ATOM      6  C   UNL A   1      33.825  22.415  25.434  1.00  0.00     0.115 C 
ATOM      7  C   UNL A   1      32.696  23.147  26.194  1.00  0.00     0.045 C 
BRANCH   6   8
ATOM      8  C   UNL A   1      33.176  21.422  24.424  1.00  0.00     0.038 C 
BRANCH   8   9
ATOM      9  C   UNL A   1      32.643  20.108  25.027  1.00  0.00    -0.000 C 
ATOM     10  C   UNL A   1      33.169  18.871  24.310  1.00  0.00     0.004 C 
ENDBRANCH   8   9
ENDBRANCH   6   8
BRANCH   6  11
ATOM     11  N   UNL A   1      34.569  23.444  24.679  1.00  0.00    -0.355 N 
ATOM     12  H   UNL A   1      35.526  23.522  24.895  1.00  0.00     0.163 HD
BRANCH  11  13
ATOM     13  C   UNL A   1      34.104  24.308  23.716  1.00  0.00     0.146 A 
ATOM     14  C   UNL A   1      33.769  23.966  22.400  1.00  0.00     0.157 A 
ATOM     15  N   UNL A   1      33.884  25.569  24.147  1.00  0.00    -0.221 NA
ATOM     16  N   UNL A   1      33.112  24.783  21.535  1.00  0.00    -0.258 NA
ATOM     17  C   UNL A   1      33.271  26.414  23.265  1.00  0.00     0.169 A 
ATOM     18  C   UNL A   1      32.856  26.018  22.006  1.00  0.00     0.147 A 
BRANCH  17  19
ATOM     19  C   UNL A   1      33.136  27.849  23.578  1.00  0.00     0.358 C 
ATOM     20  O   UNL A   1      34.085  28.565  23.861  1.00  0.00    -0.244 OA
BRANCH  19  21
ATOM     21  O   UNL A   1      31.822  28.161  23.723  1.00  0.00    -0.464 OA
ATOM     22  C   UNL A   1      31.248  27.624  24.915  1.00  0.00     0.282 C 
ENDBRANCH  19  21
ENDBRANCH  17  19
ENDBRANCH  11  13
ENDBRANCH   6  11
ENDBRANCH   3   6
ENDBRANCH   1   2
BRANCH   1  23
ATOM     23  C   UNL A   1      37.972  20.198  24.920  1.00  0.00     0.042 C 
BRANCH  23  24
ATOM     24  C   UNL A   1      39.034  20.523  25.964  1.00  0.00     0.118 C 
BRANCH  24  25
ATOM     25  N   UNL A   1      40.131  19.571  25.959  1.00  0.00    -0.352 N 
ATOM     26  C   UNL A   1      41.486  19.779  26.059  1.00  0.00     0.251 C 
ATOM     27  H   UNL A   1      39.862  18.628  25.868  1.00  0.00     0.163 HD
ATOM     28  O   UNL A   1      42.248  18.840  25.836  1.00  0.00    -0.269 OA
BRANCH  26  29
ATOM     29  C   UNL A   1      42.041  21.108  26.407  1.00  0.00     0.039 A 
ATOM     30  C   UNL A   1      42.345  21.996  25.369  1.00  0.00     0.014 A 
ATOM     31  C   UNL A   1      42.325  21.469  27.727  1.00  0.00     0.014 A 
ATOM     32  C   UNL A   1      42.883  23.256  25.656  1.00  0.00     0.010 A 
ATOM     33  C   UNL A   1      42.806  22.748  28.018  1.00  0.00     0.010 A 
ATOM     34  C   UNL A   1      43.097  23.653  26.985  1.00  0.00    -0.014 A 
BRANCH  34  35
ATOM     35  C   UNL A   1      43.639  25.001  27.304  1.00  0.00     0.031 A 
ATOM     36  C   UNL A   1      45.098  25.306  27.089  1.00  0.00     0.074 A 
ATOM     37  C   UNL A   1      42.829  25.946  27.819  1.00  0.00     0.049 A 
ATOM     38  N   UNL A   1      45.754  26.413  27.332  1.00  0.00    -0.248 NA
ATOM     39  C   UNL A   1      45.930  24.221  26.544  1.00  0.00     0.031 C 
ATOM     40  C   UNL A   1      41.401  25.778  28.095  1.00  0.00     0.029 A 
ATOM     41  N   UNL A   1      43.092  27.237  28.202  1.00  0.00    -0.354 N 
ATOM     42  C   UNL A   1      47.075  26.155  26.982  1.00  0.00     0.074 A 
ATOM     43  C   UNL A   1      47.134  24.775  26.550  1.00  0.00     0.031 C 
ATOM     44  C   UNL A   1      40.909  26.931  28.577  1.00  0.00     0.029 A 
ATOM     45  C   UNL A   1      41.989  27.908  28.678  1.00  0.00     0.049 A 
ATOM     46  H   UNL A   1      43.986  27.646  28.143  1.00  0.00     0.167 HD
ATOM     47  C   UNL A   1      48.141  26.994  27.001  1.00  0.00     0.031 A 
ATOM     48  C   UNL A   1      41.860  29.165  29.144  1.00  0.00     0.031 A 
ATOM     49  C   UNL A   1      48.088  28.367  27.428  1.00  0.00     0.049 A 
ATOM     50  C   UNL A   1      43.062  30.068  29.185  1.00  0.00     0.074 A 
ATOM     51  C   UNL A   1      49.106  29.304  27.446  1.00  0.00     0.029 A 
ATOM     52  N   UNL A   1      46.955  29.000  27.917  1.00  0.00    -0.354 N 
ATOM     53  N   UNL A   1      44.292  29.819  28.805  1.00  0.00    -0.248 NA
ATOM     54  C   UNL A   1      42.854  31.424  29.711  1.00  0.00     0.031 C 
ATOM     55  C   UNL A   1      48.599  30.492  27.982  1.00  0.00     0.029 A 
ATOM     56  C   UNL A   1      47.254  30.309  28.257  1.00  0.00     0.049 A 
ATOM     57  H   UNL A   1      46.069  28.581  28.009  1.00  0.00     0.167 HD
ATOM     58  C   UNL A   1      45.000  30.997  29.022  1.00  0.00     0.074 A 
ATOM     59  C   UNL A   1      44.058  31.959  29.558  1.00  0.00     0.031 C 
ATOM     60  C   UNL A   1      46.310  31.257  28.793  1.00  0.00     0.031 A 
BRANCH  47  61
ATOM     61  C   UNL A   1      49.463  26.431  26.553  1.00  0.00    -0.014 A 
ATOM     62  C   UNL A   1      50.260  25.670  27.428  1.00  0.00     0.010 A 
ATOM     63  C   UNL A   1      49.912  26.655  25.238  1.00  0.00     0.010 A 
ATOM     64  C   UNL A   1      51.506  25.190  27.015  1.00  0.00     0.020 A 
ATOM     65  C   UNL A   1      51.146  26.154  24.813  1.00  0.00     0.020 A 
ATOM     66  C   UNL A   1      51.946  25.446  25.713  1.00  0.00     0.054 A 
BRANCH  66  67
ATOM     67  S   UNL A   1      53.571  24.821  25.202  1.00  0.00     0.124 S 
ATOM     68  O   UNL A   1      54.399  25.161  26.357  1.00  0.00    -0.237 OA
ATOM     69  O   UNL A   1      53.323  23.394  25.007  1.00  0.00    -0.237 OA
ATOM     70  O   UNL A   1      53.862  25.571  23.983  1.00  0.00    -0.744 OA
ENDBRANCH  66  67
ENDBRANCH  47  61
BRANCH  48  71
ATOM     71  C   UNL A   1      40.527  29.656  29.586  1.00  0.00    -0.014 A 
ATOM     72  C   UNL A   1      39.542  29.977  28.637  1.00  0.00     0.010 A 
ATOM     73  C   UNL A   1      40.229  29.786  30.955  1.00  0.00     0.010 A 
ATOM     74  C   UNL A   1      38.284  30.429  29.046  1.00  0.00     0.020 A 
ATOM     75  C   UNL A   1      38.965  30.216  31.369  1.00  0.00     0.020 A 
ATOM     76  C   UNL A   1      38.003  30.543  30.411  1.00  0.00     0.054 A 
BRANCH  76  77
ATOM     77  S   UNL A   1      36.343  31.069  30.922  1.00  0.00     0.124 S 
ATOM     78  O   UNL A   1      36.612  32.363  31.542  1.00  0.00    -0.237 OA
ATOM     79  O   UNL A   1      35.619  31.114  29.653  1.00  0.00    -0.237 OA
ATOM     80  O   UNL A   1      35.916  30.011  31.835  1.00  0.00    -0.744 OA
ENDBRANCH  76  77
ENDBRANCH  48  71
BRANCH  60  81
ATOM     81  C   UNL A   1      46.801  32.648  29.091  1.00  0.00    -0.014 A 
ATOM     82  C   UNL A   1      47.343  32.973  30.347  1.00  0.00     0.010 A 
ATOM     83  C   UNL A   1      46.762  33.629  28.084  1.00  0.00     0.010 A 
ATOM     84  C   UNL A   1      47.813  34.266  30.599  1.00  0.00     0.020 A 
ATOM     85  C   UNL A   1      47.251  34.916  28.326  1.00  0.00     0.020 A 
ATOM     86  C   UNL A   1      47.760  35.230  29.587  1.00  0.00     0.054 A 
BRANCH  86  87
ATOM     87  S   UNL A   1      48.415  36.889  29.923  1.00  0.00     0.124 S 
ATOM     88  O   UNL A   1      47.920  37.648  28.778  1.00  0.00    -0.237 OA
ATOM     89  O   UNL A   1      47.808  37.222  31.209  1.00  0.00    -0.237 OA
ATOM     90  O   UNL A   1      49.862  36.688  29.959  1.00  0.00    -0.744 OA
ENDBRANCH  86  87
ENDBRANCH  60  81
ENDBRANCH  34  35
ENDBRANCH  26  29
ENDBRANCH  24  25
ENDBRANCH  23  24
ENDBRANCH   1  23
TORSDOF 19
ENDMDL
MODEL 3
REMARK VINA RESULT:     -10.3      5.427      7.117
REMARK SMILES CCC[C@](C)(Nc1cncc(C(=O)OC)n1)C(=O)NCCCNC(=O)c1ccc(-c2c3nc(c(-c4ccc(S(=O)(=O)[O-])cc4)c4ccc([nH]4)c(-c4ccc(S(=O)(=O)[O-])cc4)c4nc(c(-c5ccc(S(=O)(=O)[O-])cc5)c5ccc2[nH]5)C=C4)C=C3)cc1
REMARK SMILES IDX 20 1 19 2 17 3 18 4 4 6 5 7 3 8 2 9 1 10 6 11 7 13 8 14
REMARK SMILES IDX 16 15 9 16 11 17 10 18 12 19 13 20 14 21 15 22 21 23 22 24
REMARK SMILES IDX 23 25 24 26 25 28 26 29 27 30 85 31 28 32 84 33 29 34 30 35
REMARK SMILES IDX 31 36 78 37 32 38 83 39 77 40 79 41 33 42 82 43 76 44 75 45
REMARK SMILES IDX 34 47 64 48 45 49 63 50 46 51 49 52 62 53 80 54 47 55 48 56
REMARK SMILES IDX 61 58 81 59 50 60 35 61 36 62 44 63 37 64 43 65 38 66 39 67
REMARK SMILES IDX 40 68 41 69 42 70 65 71 66 72 74 73 67 74 73 75 68 76 69 77
REMARK SMILES IDX 70 78 71 79 72 80 51 81 52 82 60 83 53 84 59 85 54 86 55 87
REMARK SMILES IDX 56 88 57 89 58 90
REMARK H PARENT 19 5 6 12 23 27 79 46 49 57
REMARK Flexibility Score: inf
ROOT
ATOM      1  C   UNL A   1      35.143  24.192  25.398  1.00  0.00     0.117 C 
ENDROOT
BRANCH   1   2
ATOM      2  N   UNL A   1      34.434  23.402  26.393  1.00  0.00    -0.354 N 
ATOM      3  C   UNL A   1      33.653  22.286  26.325  1.00  0.00     0.245 C 
ATOM      4  O   UNL A   1      33.255  21.849  27.413  1.00  0.00    -0.272 OA
ATOM      5  H   UNL A   1      34.541  23.746  27.310  1.00  0.00     0.163 HD
BRANCH   3   6
ATOM      6  C   UNL A   1      33.245  21.590  24.988  1.00  0.00     0.115 C 
ATOM      7  C   UNL A   1      34.497  21.307  24.128  1.00  0.00     0.045 C 
BRANCH   6   8
ATOM      8  C   UNL A   1      32.292  22.521  24.180  1.00  0.00     0.038 C 
BRANCH   8   9
ATOM      9  C   UNL A   1      32.727  22.832  22.735  1.00  0.00    -0.000 C 
ATOM     10  C   UNL A   1      32.824  24.325  22.454  1.00  0.00     0.004 C 
ENDBRANCH   8   9
ENDBRANCH   6   8
BRANCH   6  11
ATOM     11  N   UNL A   1      32.573  20.292  25.204  1.00  0.00    -0.355 N 
ATOM     12  H   UNL A   1      31.917  20.269  25.937  1.00  0.00     0.163 HD
BRANCH  11  13
ATOM     13  C   UNL A   1      32.740  19.112  24.518  1.00  0.00     0.146 A 
ATOM     14  C   UNL A   1      32.378  18.880  23.185  1.00  0.00     0.157 A 
ATOM     15  N   UNL A   1      33.394  18.149  25.202  1.00  0.00    -0.221 NA
ATOM     16  N   UNL A   1      32.745  17.787  22.466  1.00  0.00    -0.258 NA
ATOM     17  C   UNL A   1      33.722  17.023  24.502  1.00  0.00     0.169 A 
ATOM     18  C   UNL A   1      33.443  16.864  23.156  1.00  0.00     0.147 A 
BRANCH  17  19
ATOM     19  C   UNL A   1      34.287  15.850  25.195  1.00  0.00     0.358 C 
ATOM     20  O   UNL A   1      35.433  15.811  25.620  1.00  0.00    -0.244 OA
BRANCH  19  21
ATOM     21  O   UNL A   1      33.439  14.797  25.071  1.00  0.00    -0.464 OA
ATOM     22  C   UNL A   1      32.287  14.904  25.907  1.00  0.00     0.282 C 
ENDBRANCH  19  21
ENDBRANCH  17  19
ENDBRANCH  11  13
ENDBRANCH   6  11
ENDBRANCH   3   6
ENDBRANCH   1   2
BRANCH   1  23
ATOM     23  C   UNL A   1      36.638  23.907  25.269  1.00  0.00     0.042 C 
BRANCH  23  24
ATOM     24  C   UNL A   1      37.370  23.591  26.568  1.00  0.00     0.118 C 
BRANCH  24  25
ATOM     25  N   UNL A   1      38.461  22.652  26.378  1.00  0.00    -0.352 N 
ATOM     26  C   UNL A   1      39.821  22.853  26.409  1.00  0.00     0.251 C 
ATOM     27  H   UNL A   1      38.184  21.724  26.198  1.00  0.00     0.163 HD
ATOM     28  O   UNL A   1      40.563  21.950  26.028  1.00  0.00    -0.269 OA
BRANCH  26  29
ATOM     29  C   UNL A   1      40.402  24.137  26.870  1.00  0.00     0.039 A 
ATOM     30  C   UNL A   1      40.918  24.206  28.169  1.00  0.00     0.014 A 
ATOM     31  C   UNL A   1      40.391  25.283  26.070  1.00  0.00     0.014 A 
ATOM     32  C   UNL A   1      41.464  25.403  28.645  1.00  0.00     0.010 A 
ATOM     33  C   UNL A   1      40.991  26.461  26.524  1.00  0.00     0.010 A 
ATOM     34  C   UNL A   1      41.526  26.537  27.819  1.00  0.00    -0.014 A 
BRANCH  34  35
ATOM     35  C   UNL A   1      42.133  27.805  28.304  1.00  0.00     0.031 A 
ATOM     36  C   UNL A   1      41.263  28.905  28.852  1.00  0.00     0.074 A 
ATOM     37  C   UNL A   1      43.465  27.987  28.222  1.00  0.00     0.049 A 
ATOM     38  N   UNL A   1      41.609  30.087  29.297  1.00  0.00    -0.248 NA
ATOM     39  C   UNL A   1      39.815  28.648  28.893  1.00  0.00     0.031 C 
ATOM     40  C   UNL A   1      44.422  27.011  27.695  1.00  0.00     0.029 A 
ATOM     41  N   UNL A   1      44.246  29.056  28.583  1.00  0.00    -0.354 N 
ATOM     42  C   UNL A   1      40.424  30.718  29.658  1.00  0.00     0.074 A 
ATOM     43  C   UNL A   1      39.348  29.804  29.341  1.00  0.00     0.031 C 
ATOM     44  C   UNL A   1      45.663  27.517  27.792  1.00  0.00     0.029 A 
ATOM     45  C   UNL A   1      45.588  28.863  28.354  1.00  0.00     0.049 A 
ATOM     46  H   UNL A   1      43.880  29.885  28.969  1.00  0.00     0.167 HD
ATOM     47  C   UNL A   1      40.246  31.940  30.218  1.00  0.00     0.031 A 
ATOM     48  C   UNL A   1      46.641  29.675  28.570  1.00  0.00     0.031 A 
ATOM     49  C   UNL A   1      41.312  32.853  30.536  1.00  0.00     0.049 A 
ATOM     50  C   UNL A   1      46.417  31.038  29.163  1.00  0.00     0.074 A 
ATOM     51  C   UNL A   1      41.232  34.095  31.140  1.00  0.00     0.029 A 
ATOM     52  N   UNL A   1      42.654  32.623  30.273  1.00  0.00    -0.354 N 
ATOM     53  N   UNL A   1      45.292  31.597  29.541  1.00  0.00    -0.248 NA
ATOM     54  C   UNL A   1      47.607  31.876  29.366  1.00  0.00     0.031 C 
ATOM     55  C   UNL A   1      42.521  34.635  31.206  1.00  0.00     0.029 A 
ATOM     56  C   UNL A   1      43.410  33.708  30.685  1.00  0.00     0.049 A 
ATOM     57  H   UNL A   1      43.017  31.809  29.855  1.00  0.00     0.167 HD
ATOM     58  C   UNL A   1      45.643  32.843  30.050  1.00  0.00     0.074 A 
ATOM     59  C   UNL A   1      47.084  32.951  29.940  1.00  0.00     0.031 C 
ATOM     60  C   UNL A   1      44.843  33.807  30.567  1.00  0.00     0.031 A 
BRANCH  47  61
ATOM     61  C   UNL A   1      38.830  32.361  30.509  1.00  0.00    -0.014 A 
ATOM     62  C   UNL A   1      38.067  33.050  29.549  1.00  0.00     0.010 A 
ATOM     63  C   UNL A   1      38.248  32.054  31.753  1.00  0.00     0.010 A 
ATOM     64  C   UNL A   1      36.769  33.474  29.847  1.00  0.00     0.020 A 
ATOM     65  C   UNL A   1      36.941  32.454  32.046  1.00  0.00     0.020 A 
ATOM     66  C   UNL A   1      36.218  33.183  31.098  1.00  0.00     0.054 A 
BRANCH  66  67
ATOM     67  S   UNL A   1      34.536  33.751  31.465  1.00  0.00     0.124 S 
ATOM     68  O   UNL A   1      34.788  35.029  32.126  1.00  0.00    -0.237 OA
ATOM     69  O   UNL A   1      33.927  33.840  30.140  1.00  0.00    -0.237 OA
ATOM     70  O   UNL A   1      33.996  32.701  32.325  1.00  0.00    -0.744 OA
ENDBRANCH  66  67
ENDBRANCH  47  61
BRANCH  48  71
ATOM     71  C   UNL A   1      48.016  29.204  28.246  1.00  0.00    -0.014 A 
ATOM     72  C   UNL A   1      48.552  29.418  26.964  1.00  0.00     0.010 A 
ATOM     73  C   UNL A   1      48.800  28.559  29.219  1.00  0.00     0.010 A 
ATOM     74  C   UNL A   1      49.846  28.988  26.657  1.00  0.00     0.020 A 
ATOM     75  C   UNL A   1      50.102  28.147  28.922  1.00  0.00     0.020 A 
ATOM     76  C   UNL A   1      50.614  28.357  27.640  1.00  0.00     0.054 A 
BRANCH  76  77
ATOM     77  S   UNL A   1      52.314  27.863  27.240  1.00  0.00     0.124 S 
ATOM     78  O   UNL A   1      52.214  27.557  25.816  1.00  0.00    -0.237 OA
ATOM     79  O   UNL A   1      53.080  29.062  27.577  1.00  0.00    -0.237 OA
ATOM     80  O   UNL A   1      52.550  26.717  28.114  1.00  0.00    -0.744 OA
ENDBRANCH  76  77
ENDBRANCH  48  71
BRANCH  60  81
ATOM     81  C   UNL A   1      45.508  35.054  31.083  1.00  0.00    -0.014 A 
ATOM     82  C   UNL A   1      45.706  36.170  30.251  1.00  0.00     0.010 A 
ATOM     83  C   UNL A   1      45.897  35.126  32.433  1.00  0.00     0.010 A 
ATOM     84  C   UNL A   1      46.307  37.328  30.753  1.00  0.00     0.020 A 
ATOM     85  C   UNL A   1      46.478  36.290  32.944  1.00  0.00     0.020 A 
ATOM     86  C   UNL A   1      46.693  37.379  32.097  1.00  0.00     0.054 A 
BRANCH  86  87
ATOM     87  S   UNL A   1      47.432  38.907  32.739  1.00  0.00     0.124 S 
ATOM     88  O   UNL A   1      47.921  38.481  34.047  1.00  0.00    -0.237 OA
ATOM     89  O   UNL A   1      48.463  39.208  31.750  1.00  0.00    -0.237 OA
ATOM     90  O   UNL A   1      46.313  39.845  32.767  1.00  0.00    -0.744 OA
ENDBRANCH  86  87
ENDBRANCH  60  81
ENDBRANCH  34  35
ENDBRANCH  26  29
ENDBRANCH  24  25
ENDBRANCH  23  24
ENDBRANCH   1  23
TORSDOF 19
ENDMDL
