MODEL 1
REMARK VINA RESULT:      -9.6      0.000      0.000
REMARK SMILES CN(C(=O)CC(=O)NCCCNC(=O)c1ccc(-c2c3nc(c(-c4ccc(S(=O)(=O)[O-])cc4)c4ccc([nH]4)c(-c4ccc(S(=O)(=O)[O-])cc4)c4nc(c(-c5ccc(S(=O)(=O)[O-])cc5)c5ccc2[nH]5)C=C4)C=C3)cc1)C1CCC(C)(C)CC1
REMARK SMILES IDX 10 1 9 2 8 3 6 4 7 5 5 7 3 8 4 9 2 10 1 11 75 12 76 13 82 14
REMARK SMILES IDX 77 15 81 16 78 17 79 18 80 19 11 20 12 21 13 22 14 24 15 25
REMARK SMILES IDX 16 26 74 27 17 28 73 29 18 30 19 31 20 32 67 33 21 34 72 35
REMARK SMILES IDX 66 36 68 37 22 38 71 39 65 40 64 41 23 43 53 44 34 45 52 46
REMARK SMILES IDX 35 47 38 48 51 49 69 50 36 51 37 52 50 54 70 55 39 56 24 57
REMARK SMILES IDX 25 58 33 59 26 60 32 61 27 62 28 63 29 64 30 65 31 66 54 67
REMARK SMILES IDX 55 68 63 69 56 70 62 71 57 72 58 73 59 74 60 75 61 76 40 77
REMARK SMILES IDX 41 78 49 79 42 80 48 81 43 82 44 83 45 84 46 85 47 86
REMARK H PARENT 8 6 12 23 68 42 38 53
REMARK Flexibility Score: inf
ROOT
ATOM      1  C   UNL A   1      41.291  20.139  26.615  1.00  0.00     0.042 C 
ENDROOT
BRANCH   1   2
ATOM      2  C   UNL A   1      42.789  19.848  26.555  1.00  0.00     0.117 C 
BRANCH   2   3
ATOM      3  N   UNL A   1      43.227  19.432  25.232  1.00  0.00    -0.356 N 
ATOM      4  C   UNL A   1      44.287  19.879  24.503  1.00  0.00     0.229 C 
ATOM      5  O   UNL A   1      44.495  19.370  23.399  1.00  0.00    -0.275 OA
ATOM      6  H   UNL A   1      42.682  18.732  24.806  1.00  0.00     0.163 HD
BRANCH   4   7
ATOM      7  C   UNL A   1      45.196  20.944  25.058  1.00  0.00     0.200 C 
BRANCH   7   8
ATOM      8  C   UNL A   1      44.525  22.283  25.241  1.00  0.00     0.231 C 
ATOM      9  O   UNL A   1      43.637  22.615  24.449  1.00  0.00    -0.274 OA
BRANCH   8  10
ATOM     10  N   UNL A   1      44.938  23.116  26.280  1.00  0.00    -0.342 N 
ATOM     11  C   UNL A   1      44.101  23.410  27.440  1.00  0.00     0.147 C 
BRANCH  10  12
ATOM     12  C   UNL A   1      46.285  23.736  26.164  1.00  0.00     0.084 C 
ATOM     13  C   UNL A   1      46.383  24.718  24.991  1.00  0.00     0.025 C 
ATOM     14  C   UNL A   1      46.849  24.359  27.451  1.00  0.00     0.025 C 
ATOM     15  C   UNL A   1      45.759  26.076  25.294  1.00  0.00     0.008 C 
ATOM     16  C   UNL A   1      46.319  25.756  27.781  1.00  0.00     0.008 C 
ATOM     17  C   UNL A   1      46.287  26.739  26.588  1.00  0.00    -0.035 C 
ATOM     18  C   UNL A   1      45.353  27.912  26.943  1.00  0.00     0.011 C 
ATOM     19  C   UNL A   1      47.701  27.306  26.352  1.00  0.00     0.011 C 
ENDBRANCH  10  12
ENDBRANCH   8  10
ENDBRANCH   7   8
ENDBRANCH   4   7
ENDBRANCH   2   3
ENDBRANCH   1   2
BRANCH   1  20
ATOM     20  C   UNL A   1      40.930  21.623  26.609  1.00  0.00     0.118 C 
BRANCH  20  21
ATOM     21  N   UNL A   1      39.673  21.898  25.926  1.00  0.00    -0.352 N 
ATOM     22  C   UNL A   1      38.842  22.990  25.979  1.00  0.00     0.251 C 
ATOM     23  H   UNL A   1      39.367  21.180  25.328  1.00  0.00     0.163 HD
ATOM     24  O   UNL A   1      37.734  22.919  25.452  1.00  0.00    -0.269 OA
BRANCH  22  25
ATOM     25  C   UNL A   1      39.252  24.235  26.666  1.00  0.00     0.039 A 
ATOM     26  C   UNL A   1      38.810  24.452  27.976  1.00  0.00     0.014 A 
ATOM     27  C   UNL A   1      40.016  25.211  26.021  1.00  0.00     0.014 A 
ATOM     28  C   UNL A   1      39.188  25.613  28.658  1.00  0.00     0.010 A 
ATOM     29  C   UNL A   1      40.448  26.337  26.725  1.00  0.00     0.010 A 
ATOM     30  C   UNL A   1      40.040  26.549  28.051  1.00  0.00    -0.014 A 
BRANCH  30  31
ATOM     31  C   UNL A   1      40.529  27.738  28.795  1.00  0.00     0.031 A 
ATOM     32  C   UNL A   1      41.885  27.730  29.451  1.00  0.00     0.074 A 
ATOM     33  C   UNL A   1      39.720  28.807  28.942  1.00  0.00     0.049 A 
ATOM     34  N   UNL A   1      42.448  28.650  30.191  1.00  0.00    -0.248 NA
ATOM     35  C   UNL A   1      42.706  26.521  29.271  1.00  0.00     0.031 C 
ATOM     36  C   UNL A   1      38.366  28.924  28.395  1.00  0.00     0.029 A 
ATOM     37  N   UNL A   1      39.914  29.995  29.602  1.00  0.00    -0.354 N 
ATOM     38  C   UNL A   1      43.675  28.128  30.583  1.00  0.00     0.074 A 
ATOM     39  C   UNL A   1      43.760  26.793  30.028  1.00  0.00     0.031 C 
ATOM     40  C   UNL A   1      37.859  30.122  28.728  1.00  0.00     0.029 A 
ATOM     41  C   UNL A   1      38.832  30.842  29.542  1.00  0.00     0.049 A 
ATOM     42  H   UNL A   1      40.748  30.219  30.075  1.00  0.00     0.167 HD
ATOM     43  C   UNL A   1      44.649  28.709  31.323  1.00  0.00     0.031 A 
ATOM     44  C   UNL A   1      38.637  32.058  30.088  1.00  0.00     0.031 A 
ATOM     45  C   UNL A   1      44.571  30.043  31.860  1.00  0.00     0.049 A 
ATOM     46  C   UNL A   1      39.736  32.685  30.901  1.00  0.00     0.074 A 
ATOM     47  C   UNL A   1      45.536  30.743  32.564  1.00  0.00     0.029 A 
ATOM     48  N   UNL A   1      43.469  30.877  31.755  1.00  0.00    -0.354 N 
ATOM     49  N   UNL A   1      40.919  32.201  31.196  1.00  0.00    -0.248 NA
ATOM     50  C   UNL A   1      39.480  34.027  31.442  1.00  0.00     0.031 C 
ATOM     51  C   UNL A   1      44.999  31.982  32.929  1.00  0.00     0.029 A 
ATOM     52  C   UNL A   1      43.719  32.074  32.405  1.00  0.00     0.049 A 
ATOM     53  H   UNL A   1      42.632  30.651  31.290  1.00  0.00     0.167 HD
ATOM     54  C   UNL A   1      41.556  33.189  31.939  1.00  0.00     0.074 A 
ATOM     55  C   UNL A   1      40.634  34.303  32.033  1.00  0.00     0.031 C 
ATOM     56  C   UNL A   1      42.793  33.175  32.494  1.00  0.00     0.031 A 
BRANCH  43  57
ATOM     57  C   UNL A   1      45.889  27.901  31.608  1.00  0.00    -0.014 A 
ATOM     58  C   UNL A   1      45.989  27.103  32.761  1.00  0.00     0.010 A 
ATOM     59  C   UNL A   1      46.947  27.898  30.680  1.00  0.00     0.010 A 
ATOM     60  C   UNL A   1      47.138  26.345  33.001  1.00  0.00     0.020 A 
ATOM     61  C   UNL A   1      48.088  27.121  30.903  1.00  0.00     0.020 A 
ATOM     62  C   UNL A   1      48.183  26.361  32.071  1.00  0.00     0.054 A 
BRANCH  62  63
ATOM     63  S   UNL A   1      49.651  25.347  32.394  1.00  0.00     0.124 S 
ATOM     64  O   UNL A   1      50.028  24.926  31.047  1.00  0.00    -0.237 OA
ATOM     65  O   UNL A   1      50.562  26.293  33.033  1.00  0.00    -0.237 OA
ATOM     66  O   UNL A   1      49.153  24.283  33.262  1.00  0.00    -0.744 OA
ENDBRANCH  62  63
ENDBRANCH  43  57
BRANCH  44  67
ATOM     67  C   UNL A   1      37.344  32.766  29.880  1.00  0.00    -0.014 A 
ATOM     68  C   UNL A   1      37.116  33.509  28.710  1.00  0.00     0.010 A 
ATOM     69  C   UNL A   1      36.329  32.689  30.852  1.00  0.00     0.010 A 
ATOM     70  C   UNL A   1      35.904  34.181  28.522  1.00  0.00     0.020 A 
ATOM     71  C   UNL A   1      35.105  33.336  30.655  1.00  0.00     0.020 A 
ATOM     72  C   UNL A   1      34.906  34.089  29.497  1.00  0.00     0.054 A 
BRANCH  72  73
ATOM     73  S   UNL A   1      33.323  34.929  29.212  1.00  0.00     0.124 S 
ATOM     74  O   UNL A   1      32.680  34.044  28.245  1.00  0.00    -0.237 OA
ATOM     75  O   UNL A   1      32.729  34.947  30.546  1.00  0.00    -0.237 OA
ATOM     76  O   UNL A   1      33.720  36.238  28.698  1.00  0.00    -0.744 OA
ENDBRANCH  72  73
ENDBRANCH  44  67
BRANCH  56  77
ATOM     77  C   UNL A   1      43.236  34.410  33.229  1.00  0.00    -0.014 A 
ATOM     78  C   UNL A   1      43.063  34.531  34.620  1.00  0.00     0.010 A 
ATOM     79  C   UNL A   1      43.879  35.445  32.525  1.00  0.00     0.010 A 
ATOM     80  C   UNL A   1      43.498  35.680  35.287  1.00  0.00     0.020 A 
ATOM     81  C   UNL A   1      44.338  36.582  33.193  1.00  0.00     0.020 A 
ATOM     82  C   UNL A   1      44.130  36.699  34.569  1.00  0.00     0.054 A 
BRANCH  82  83
ATOM     83  S   UNL A   1      44.722  38.162  35.465  1.00  0.00     0.124 S 
ATOM     84  O   UNL A   1      44.117  37.977  36.780  1.00  0.00    -0.237 OA
ATOM     85  O   UNL A   1      46.173  38.007  35.412  1.00  0.00    -0.237 OA
ATOM     86  O   UNL A   1      44.192  39.281  34.687  1.00  0.00    -0.744 OA
ENDBRANCH  82  83
ENDBRANCH  56  77
ENDBRANCH  30  31
ENDBRANCH  22  25
ENDBRANCH  20  21
ENDBRANCH   1  20
TORSDOF 16
ENDMDL
MODEL 2
REMARK VINA RESULT:      -9.5      3.042      5.985
REMARK SMILES CN(C(=O)CC(=O)NCCCNC(=O)c1ccc(-c2c3nc(c(-c4ccc(S(=O)(=O)[O-])cc4)c4ccc([nH]4)c(-c4ccc(S(=O)(=O)[O-])cc4)c4nc(c(-c5ccc(S(=O)(=O)[O-])cc5)c5ccc2[nH]5)C=C4)C=C3)cc1)C1CCC(C)(C)CC1
REMARK SMILES IDX 10 1 9 2 8 3 6 4 7 5 5 7 3 8 4 9 2 10 1 11 75 12 76 13 82 14
REMARK SMILES IDX 77 15 81 16 78 17 79 18 80 19 11 20 12 21 13 22 14 24 15 25
REMARK SMILES IDX 16 26 74 27 17 28 73 29 18 30 19 31 20 32 67 33 21 34 72 35
REMARK SMILES IDX 66 36 68 37 22 38 71 39 65 40 64 41 23 43 53 44 34 45 52 46
REMARK SMILES IDX 35 47 38 48 51 49 69 50 36 51 37 52 50 54 70 55 39 56 24 57
REMARK SMILES IDX 25 58 33 59 26 60 32 61 27 62 28 63 29 64 30 65 31 66 54 67
REMARK SMILES IDX 55 68 63 69 56 70 62 71 57 72 58 73 59 74 60 75 61 76 40 77
REMARK SMILES IDX 41 78 49 79 42 80 48 81 43 82 44 83 45 84 46 85 47 86
REMARK H PARENT 8 6 12 23 68 42 38 53
REMARK Flexibility Score: inf
ROOT
ATOM      1  C   UNL A   1      35.541  23.643  25.700  1.00  0.00     0.042 C 
ENDROOT
BRANCH   1   2
ATOM      2  C   UNL A   1      34.443  22.975  24.877  1.00  0.00     0.117 C 
BRANCH   2   3
ATOM      3  N   UNL A   1      34.407  23.446  23.502  1.00  0.00    -0.356 N 
ATOM      4  C   UNL A   1      33.340  23.884  22.775  1.00  0.00     0.229 C 
ATOM      5  O   UNL A   1      33.536  24.264  21.619  1.00  0.00    -0.275 OA
ATOM      6  H   UNL A   1      35.272  23.449  23.032  1.00  0.00     0.163 HD
BRANCH   4   7
ATOM      7  C   UNL A   1      31.968  23.931  23.395  1.00  0.00     0.200 C 
BRANCH   7   8
ATOM      8  C   UNL A   1      31.666  25.224  24.111  1.00  0.00     0.231 C 
ATOM      9  O   UNL A   1      30.876  25.207  25.060  1.00  0.00    -0.274 OA
BRANCH   8  10
ATOM     10  N   UNL A   1      32.268  26.403  23.671  1.00  0.00    -0.342 N 
ATOM     11  C   UNL A   1      31.735  27.200  22.570  1.00  0.00     0.147 C 
BRANCH  10  12
ATOM     12  C   UNL A   1      33.517  26.830  24.356  1.00  0.00     0.084 C 
ATOM     13  C   UNL A   1      33.901  28.278  24.031  1.00  0.00     0.025 C 
ATOM     14  C   UNL A   1      33.572  26.573  25.870  1.00  0.00     0.025 C 
ATOM     15  C   UNL A   1      33.092  29.303  24.819  1.00  0.00     0.008 C 
ATOM     16  C   UNL A   1      32.838  27.604  26.730  1.00  0.00     0.008 C 
ATOM     17  C   UNL A   1      33.107  29.078  26.349  1.00  0.00    -0.035 C 
ATOM     18  C   UNL A   1      32.005  29.956  26.975  1.00  0.00     0.011 C 
ATOM     19  C   UNL A   1      34.462  29.521  26.935  1.00  0.00     0.011 C 
ENDBRANCH  10  12
ENDBRANCH   8  10
ENDBRANCH   7   8
ENDBRANCH   4   7
ENDBRANCH   2   3
ENDBRANCH   1   2
BRANCH   1  20
ATOM     20  C   UNL A   1      36.876  23.799  24.975  1.00  0.00     0.118 C 
BRANCH  20  21
ATOM     21  N   UNL A   1      37.857  22.798  25.370  1.00  0.00    -0.352 N 
ATOM     22  C   UNL A   1      39.033  22.918  26.069  1.00  0.00     0.251 C 
ATOM     23  H   UNL A   1      37.641  21.880  25.088  1.00  0.00     0.163 HD
ATOM     24  O   UNL A   1      39.793  21.954  26.125  1.00  0.00    -0.269 OA
BRANCH  22  25
ATOM     25  C   UNL A   1      39.401  24.185  26.740  1.00  0.00     0.039 A 
ATOM     26  C   UNL A   1      38.944  24.408  28.044  1.00  0.00     0.014 A 
ATOM     27  C   UNL A   1      40.142  25.173  26.086  1.00  0.00     0.014 A 
ATOM     28  C   UNL A   1      39.284  25.590  28.711  1.00  0.00     0.010 A 
ATOM     29  C   UNL A   1      40.536  26.321  26.776  1.00  0.00     0.010 A 
ATOM     30  C   UNL A   1      40.113  26.541  28.096  1.00  0.00    -0.014 A 
BRANCH  30  31
ATOM     31  C   UNL A   1      40.562  27.754  28.826  1.00  0.00     0.031 A 
ATOM     32  C   UNL A   1      41.907  27.789  29.504  1.00  0.00     0.074 A 
ATOM     33  C   UNL A   1      39.727  28.807  28.938  1.00  0.00     0.049 A 
ATOM     34  N   UNL A   1      42.436  28.736  30.235  1.00  0.00    -0.248 NA
ATOM     35  C   UNL A   1      42.757  26.597  29.359  1.00  0.00     0.031 C 
ATOM     36  C   UNL A   1      38.379  28.883  28.367  1.00  0.00     0.029 A 
ATOM     37  N   UNL A   1      39.882  30.010  29.579  1.00  0.00    -0.354 N 
ATOM     38  C   UNL A   1      43.668  28.249  30.657  1.00  0.00     0.074 A 
ATOM     39  C   UNL A   1      43.792  26.907  30.128  1.00  0.00     0.031 C 
ATOM     40  C   UNL A   1      37.840  30.074  28.669  1.00  0.00     0.029 A 
ATOM     41  C   UNL A   1      38.783  30.832  29.485  1.00  0.00     0.049 A 
ATOM     42  H   UNL A   1      40.703  30.263  30.061  1.00  0.00     0.167 HD
ATOM     43  C   UNL A   1      44.616  28.866  31.402  1.00  0.00     0.031 A 
ATOM     44  C   UNL A   1      38.551  32.052  30.006  1.00  0.00     0.031 A 
ATOM     45  C   UNL A   1      44.498  30.208  31.912  1.00  0.00     0.049 A 
ATOM     46  C   UNL A   1      39.622  32.719  30.824  1.00  0.00     0.074 A 
ATOM     47  C   UNL A   1      45.435  30.943  32.618  1.00  0.00     0.029 A 
ATOM     48  N   UNL A   1      43.379  31.014  31.774  1.00  0.00    -0.354 N 
ATOM     49  N   UNL A   1      40.810  32.269  31.148  1.00  0.00    -0.248 NA
ATOM     50  C   UNL A   1      39.325  34.065  31.336  1.00  0.00     0.031 C 
ATOM     51  C   UNL A   1      44.864  32.175  32.951  1.00  0.00     0.029 A 
ATOM     52  C   UNL A   1      43.591  32.229  32.405  1.00  0.00     0.049 A 
ATOM     53  H   UNL A   1      42.556  30.761  31.299  1.00  0.00     0.167 HD
ATOM     54  C   UNL A   1      41.412  33.285  31.882  1.00  0.00     0.074 A 
ATOM     55  C   UNL A   1      40.463  34.378  31.940  1.00  0.00     0.031 C 
ATOM     56  C   UNL A   1      42.639  33.309  32.458  1.00  0.00     0.031 A 
BRANCH  43  57
ATOM     57  C   UNL A   1      45.869  28.093  31.722  1.00  0.00    -0.014 A 
ATOM     58  C   UNL A   1      45.930  27.235  32.834  1.00  0.00     0.010 A 
ATOM     59  C   UNL A   1      46.982  28.184  30.866  1.00  0.00     0.010 A 
ATOM     60  C   UNL A   1      47.094  26.510  33.107  1.00  0.00     0.020 A 
ATOM     61  C   UNL A   1      48.139  27.440  31.120  1.00  0.00     0.020 A 
ATOM     62  C   UNL A   1      48.193  26.620  32.248  1.00  0.00     0.054 A 
BRANCH  62  63
ATOM     63  S   UNL A   1      49.680  25.647  32.610  1.00  0.00     0.124 S 
ATOM     64  O   UNL A   1      49.880  24.926  31.355  1.00  0.00    -0.237 OA
ATOM     65  O   UNL A   1      50.673  26.676  32.909  1.00  0.00    -0.237 OA
ATOM     66  O   UNL A   1      49.284  24.818  33.747  1.00  0.00    -0.744 OA
ENDBRANCH  62  63
ENDBRANCH  43  57
BRANCH  44  67
ATOM     67  C   UNL A   1      37.246  32.727  29.763  1.00  0.00    -0.014 A 
ATOM     68  C   UNL A   1      36.191  32.596  30.682  1.00  0.00     0.010 A 
ATOM     69  C   UNL A   1      37.058  33.515  28.613  1.00  0.00     0.010 A 
ATOM     70  C   UNL A   1      34.963  33.223  30.446  1.00  0.00     0.020 A 
ATOM     71  C   UNL A   1      35.841  34.166  28.386  1.00  0.00     0.020 A 
ATOM     72  C   UNL A   1      34.798  34.005  29.299  1.00  0.00     0.054 A 
BRANCH  72  73
ATOM     73  S   UNL A   1      33.213  34.849  29.036  1.00  0.00     0.124 S 
ATOM     74  O   UNL A   1      32.624  34.810  30.371  1.00  0.00    -0.237 OA
ATOM     75  O   UNL A   1      33.631  36.167  28.565  1.00  0.00    -0.237 OA
ATOM     76  O   UNL A   1      32.548  34.019  28.033  1.00  0.00    -0.744 OA
ENDBRANCH  72  73
ENDBRANCH  44  67
BRANCH  56  77
ATOM     77  C   UNL A   1      43.041  34.568  33.177  1.00  0.00    -0.014 A 
ATOM     78  C   UNL A   1      42.861  34.702  34.565  1.00  0.00     0.010 A 
ATOM     79  C   UNL A   1      43.654  35.612  32.460  1.00  0.00     0.010 A 
ATOM     80  C   UNL A   1      43.258  35.873  35.218  1.00  0.00     0.020 A 
ATOM     81  C   UNL A   1      44.075  36.772  33.113  1.00  0.00     0.020 A 
ATOM     82  C   UNL A   1      43.860  36.902  34.487  1.00  0.00     0.054 A 
BRANCH  82  83
ATOM     83  S   UNL A   1      44.404  38.395  35.363  1.00  0.00     0.124 S 
ATOM     84  O   UNL A   1      43.775  39.452  34.577  1.00  0.00    -0.237 OA
ATOM     85  O   UNL A   1      43.858  38.198  36.703  1.00  0.00    -0.237 OA
ATOM     86  O   UNL A   1      45.862  38.336  35.276  1.00  0.00    -0.744 OA
ENDBRANCH  82  83
ENDBRANCH  56  77
ENDBRANCH  30  31
ENDBRANCH  22  25
ENDBRANCH  20  21
ENDBRANCH   1  20
TORSDOF 16
ENDMDL
MODEL 3
REMARK VINA RESULT:      -9.4      3.561     10.477
REMARK SMILES CN(C(=O)CC(=O)NCCCNC(=O)c1ccc(-c2c3nc(c(-c4ccc(S(=O)(=O)[O-])cc4)c4ccc([nH]4)c(-c4ccc(S(=O)(=O)[O-])cc4)c4nc(c(-c5ccc(S(=O)(=O)[O-])cc5)c5ccc2[nH]5)C=C4)C=C3)cc1)C1CCC(C)(C)CC1
REMARK SMILES IDX 10 1 9 2 8 3 6 4 7 5 5 7 3 8 4 9 2 10 1 11 75 12 76 13 82 14
REMARK SMILES IDX 77 15 81 16 78 17 79 18 80 19 11 20 12 21 13 22 14 24 15 25
REMARK SMILES IDX 16 26 74 27 17 28 73 29 18 30 19 31 20 32 67 33 21 34 72 35
REMARK SMILES IDX 66 36 68 37 22 38 71 39 65 40 64 41 23 43 53 44 34 45 52 46
REMARK SMILES IDX 35 47 38 48 51 49 69 50 36 51 37 52 50 54 70 55 39 56 24 57
REMARK SMILES IDX 25 58 33 59 26 60 32 61 27 62 28 63 29 64 30 65 31 66 54 67
REMARK SMILES IDX 55 68 63 69 56 70 62 71 57 72 58 73 59 74 60 75 61 76 40 77
REMARK SMILES IDX 41 78 49 79 42 80 48 81 43 82 44 83 45 84 46 85 47 86
REMARK H PARENT 8 6 12 23 68 42 38 53
REMARK Flexibility Score: inf
ROOT
ATOM      1  C   UNL A   1      34.209  27.975  24.785  1.00  0.00     0.042 C 
ENDROOT
BRANCH   1   2
ATOM      2  C   UNL A   1      32.963  27.505  24.037  1.00  0.00     0.117 C 
BRANCH   2   3
ATOM      3  N   UNL A   1      33.260  27.026  22.697  1.00  0.00    -0.356 N 
ATOM      4  C   UNL A   1      32.885  25.858  22.104  1.00  0.00     0.229 C 
ATOM      5  O   UNL A   1      33.230  25.657  20.937  1.00  0.00    -0.275 OA
ATOM      6  H   UNL A   1      33.806  27.629  22.143  1.00  0.00     0.163 HD
BRANCH   4   7
ATOM      7  C   UNL A   1      32.040  24.862  22.854  1.00  0.00     0.200 C 
BRANCH   7   8
ATOM      8  C   UNL A   1      32.766  23.586  23.201  1.00  0.00     0.231 C 
ATOM      9  O   UNL A   1      33.121  22.837  22.285  1.00  0.00    -0.274 OA
BRANCH   8  10
ATOM     10  N   UNL A   1      32.997  23.275  24.541  1.00  0.00    -0.342 N 
ATOM     11  C   UNL A   1      32.191  22.307  25.279  1.00  0.00     0.147 C 
BRANCH  10  12
ATOM     12  C   UNL A   1      34.103  23.993  25.228  1.00  0.00     0.084 C 
ATOM     13  C   UNL A   1      34.604  23.251  26.473  1.00  0.00     0.025 C 
ATOM     14  C   UNL A   1      35.277  24.426  24.337  1.00  0.00     0.025 C 
ATOM     15  C   UNL A   1      35.533  22.088  26.142  1.00  0.00     0.008 C 
ATOM     16  C   UNL A   1      36.291  23.325  24.021  1.00  0.00     0.008 C 
ATOM     17  C   UNL A   1      36.726  22.472  25.234  1.00  0.00    -0.035 C 
ATOM     18  C   UNL A   1      37.374  21.174  24.716  1.00  0.00     0.011 C 
ATOM     19  C   UNL A   1      37.783  23.243  26.050  1.00  0.00     0.011 C 
ENDBRANCH  10  12
ENDBRANCH   8  10
ENDBRANCH   7   8
ENDBRANCH   4   7
ENDBRANCH   2   3
ENDBRANCH   1   2
BRANCH   1  20
ATOM     20  C   UNL A   1      34.071  27.990  26.306  1.00  0.00     0.118 C 
BRANCH  20  21
ATOM     21  N   UNL A   1      33.731  29.304  26.832  1.00  0.00    -0.352 N 
ATOM     22  C   UNL A   1      34.423  30.145  27.668  1.00  0.00     0.251 C 
ATOM     23  H   UNL A   1      32.856  29.648  26.540  1.00  0.00     0.163 HD
ATOM     24  O   UNL A   1      33.852  31.131  28.126  1.00  0.00    -0.269 OA
BRANCH  22  25
ATOM     25  C   UNL A   1      35.832  29.875  28.034  1.00  0.00     0.039 A 
ATOM     26  C   UNL A   1      36.118  29.486  29.347  1.00  0.00     0.014 A 
ATOM     27  C   UNL A   1      36.874  30.052  27.121  1.00  0.00     0.014 A 
ATOM     28  C   UNL A   1      37.437  29.213  29.724  1.00  0.00     0.010 A 
ATOM     29  C   UNL A   1      38.180  29.714  27.479  1.00  0.00     0.010 A 
ATOM     30  C   UNL A   1      38.476  29.289  28.783  1.00  0.00    -0.014 A 
BRANCH  30  31
ATOM     31  C   UNL A   1      39.867  28.908  29.141  1.00  0.00     0.031 A 
ATOM     32  C   UNL A   1      40.794  29.905  29.786  1.00  0.00     0.074 A 
ATOM     33  C   UNL A   1      40.320  27.680  28.821  1.00  0.00     0.049 A 
ATOM     34  N   UNL A   1      42.055  29.767  30.110  1.00  0.00    -0.248 NA
ATOM     35  C   UNL A   1      40.240  31.235  30.086  1.00  0.00     0.031 C 
ATOM     36  C   UNL A   1      39.537  26.636  28.153  1.00  0.00     0.029 A 
ATOM     37  N   UNL A   1      41.551  27.102  29.004  1.00  0.00    -0.354 N 
ATOM     38  C   UNL A   1      42.451  30.994  30.630  1.00  0.00     0.074 A 
ATOM     39  C   UNL A   1      41.306  31.875  30.545  1.00  0.00     0.031 C 
ATOM     40  C   UNL A   1      40.302  25.543  27.998  1.00  0.00     0.029 A 
ATOM     41  C   UNL A   1      41.637  25.818  28.519  1.00  0.00     0.049 A 
ATOM     42  H   UNL A   1      42.304  27.563  29.441  1.00  0.00     0.167 HD
ATOM     43  C   UNL A   1      43.652  31.350  31.144  1.00  0.00     0.031 A 
ATOM     44  C   UNL A   1      42.674  24.959  28.484  1.00  0.00     0.031 A 
ATOM     45  C   UNL A   1      44.785  30.466  31.244  1.00  0.00     0.049 A 
ATOM     46  C   UNL A   1      43.995  25.376  29.068  1.00  0.00     0.074 A 
ATOM     47  C   UNL A   1      46.022  30.717  31.813  1.00  0.00     0.029 A 
ATOM     48  N   UNL A   1      44.822  29.167  30.763  1.00  0.00    -0.354 N 
ATOM     49  N   UNL A   1      44.326  26.518  29.622  1.00  0.00    -0.248 NA
ATOM     50  C   UNL A   1      45.079  24.384  29.034  1.00  0.00     0.031 C 
ATOM     51  C   UNL A   1      46.824  29.586  31.631  1.00  0.00     0.029 A 
ATOM     52  C   UNL A   1      46.069  28.612  30.998  1.00  0.00     0.049 A 
ATOM     53  H   UNL A   1      44.074  28.707  30.319  1.00  0.00     0.167 HD
ATOM     54  C   UNL A   1      45.650  26.373  30.022  1.00  0.00     0.074 A 
ATOM     55  C   UNL A   1      46.052  25.029  29.662  1.00  0.00     0.031 C 
ATOM     56  C   UNL A   1      46.459  27.273  30.633  1.00  0.00     0.031 A 
BRANCH  43  57
ATOM     57  C   UNL A   1      43.811  32.766  31.635  1.00  0.00    -0.014 A 
ATOM     58  C   UNL A   1      43.565  33.103  32.978  1.00  0.00     0.010 A 
ATOM     59  C   UNL A   1      44.266  33.763  30.752  1.00  0.00     0.010 A 
ATOM     60  C   UNL A   1      43.736  34.417  33.421  1.00  0.00     0.020 A 
ATOM     61  C   UNL A   1      44.463  35.074  31.198  1.00  0.00     0.020 A 
ATOM     62  C   UNL A   1      44.181  35.396  32.527  1.00  0.00     0.054 A 
BRANCH  62  63
ATOM     63  S   UNL A   1      44.421  37.087  33.136  1.00  0.00     0.124 S 
ATOM     64  O   UNL A   1      43.043  37.535  33.327  1.00  0.00    -0.237 OA
ATOM     65  O   UNL A   1      45.188  36.881  34.362  1.00  0.00    -0.237 OA
ATOM     66  O   UNL A   1      45.146  37.747  32.054  1.00  0.00    -0.744 OA
ENDBRANCH  62  63
ENDBRANCH  43  57
BRANCH  44  67
ATOM     67  C   UNL A   1      42.501  23.611  27.875  1.00  0.00    -0.014 A 
ATOM     68  C   UNL A   1      42.009  22.539  28.639  1.00  0.00     0.010 A 
ATOM     69  C   UNL A   1      42.817  23.399  26.521  1.00  0.00     0.010 A 
ATOM     70  C   UNL A   1      41.857  21.272  28.067  1.00  0.00     0.020 A 
ATOM     71  C   UNL A   1      42.640  22.140  25.937  1.00  0.00     0.020 A 
ATOM     72  C   UNL A   1      42.173  21.082  26.718  1.00  0.00     0.054 A 
BRANCH  72  73
ATOM     73  S   UNL A   1      41.923  19.442  25.983  1.00  0.00     0.124 S 
ATOM     74  O   UNL A   1      42.390  18.559  27.046  1.00  0.00    -0.237 OA
ATOM     75  O   UNL A   1      40.484  19.425  25.730  1.00  0.00    -0.237 OA
ATOM     76  O   UNL A   1      42.758  19.476  24.784  1.00  0.00    -0.744 OA
ENDBRANCH  72  73
ENDBRANCH  44  67
BRANCH  56  77
ATOM     77  C   UNL A   1      47.854  26.828  30.978  1.00  0.00    -0.014 A 
ATOM     78  C   UNL A   1      48.927  27.048  30.096  1.00  0.00     0.010 A 
ATOM     79  C   UNL A   1      48.102  26.224  32.224  1.00  0.00     0.010 A 
ATOM     80  C   UNL A   1      50.219  26.643  30.443  1.00  0.00     0.020 A 
ATOM     81  C   UNL A   1      49.396  25.841  32.584  1.00  0.00     0.020 A 
ATOM     82  C   UNL A   1      50.445  26.039  31.684  1.00  0.00     0.054 A 
BRANCH  82  83
ATOM     83  S   UNL A   1      52.138  25.558  32.127  1.00  0.00     0.124 S 
ATOM     84  O   UNL A   1      52.002  24.117  32.320  1.00  0.00    -0.237 OA
ATOM     85  O   UNL A   1      52.906  25.967  30.954  1.00  0.00    -0.237 OA
ATOM     86  O   UNL A   1      52.409  26.327  33.341  1.00  0.00    -0.744 OA
ENDBRANCH  82  83
ENDBRANCH  56  77
ENDBRANCH  30  31
ENDBRANCH  22  25
ENDBRANCH  20  21
ENDBRANCH   1  20
TORSDOF 16
ENDMDL
