MODEL 1
REMARK VINA RESULT:     -10.8      0.000      0.000
REMARK SMILES C[C@@H]1[C@@H](C(=O)NCCCNC(=O)c2ccc(-c3c4nc(c(-c5ccc(S(=O)(=O)[O-])cc5)c5ccc([nH]5)c(-c5ccc(S(=O)(=O)[O-])cc5)c5nc(c(-c6ccc(S(=O)(=O)[O-])cc6)c6ccc3[nH]6)C=C5)C=C4)cc2)CCN1C(=O)[C@@H](C)OCc1ccccc1
REMARK SMILES IDX 7 1 6 2 4 3 5 4 3 6 1 7 2 8 75 9 73 10 74 11 76 12 77 13
REMARK SMILES IDX 78 14 79 15 80 16 81 17 82 18 83 19 87 20 84 21 86 22 85 23
REMARK SMILES IDX 8 24 9 25 10 26 11 27 12 29 13 30 14 31 72 32 15 33 71 34
REMARK SMILES IDX 16 35 17 36 18 37 65 38 19 39 70 40 64 41 66 42 20 43 69 44
REMARK SMILES IDX 63 45 62 46 21 48 51 49 32 50 50 51 33 52 36 53 49 54 67 55
REMARK SMILES IDX 34 56 35 57 48 59 68 60 37 61 22 62 23 63 31 64 24 65 30 66
REMARK SMILES IDX 25 67 26 68 27 69 28 70 29 71 52 72 53 73 61 74 54 75 60 76
REMARK SMILES IDX 55 77 56 78 57 79 58 80 59 81 38 82 39 83 47 84 40 85 46 86
REMARK SMILES IDX 41 87 42 88 43 89 44 90 45 91
REMARK H PARENT 6 5 10 28 66 47 36 58
REMARK Flexibility Score: inf
ROOT
ATOM      1  C   UNL A   1      31.443  27.982  25.773  1.00  0.00     0.117 C 
ENDROOT
BRANCH   1   2
ATOM      2  N   UNL A   1      32.430  27.878  24.714  1.00  0.00    -0.356 N 
ATOM      3  C   UNL A   1      32.830  26.771  24.026  1.00  0.00     0.225 C 
ATOM      4  O   UNL A   1      33.660  26.916  23.132  1.00  0.00    -0.275 OA
ATOM      5  H   UNL A   1      32.870  28.721  24.457  1.00  0.00     0.163 HD
BRANCH   3   6
ATOM      6  C   UNL A   1      32.268  25.421  24.438  1.00  0.00     0.102 C 
ATOM      7  C   UNL A   1      32.295  23.757  26.310  1.00  0.00     0.032 C 
ATOM      8  C   UNL A   1      33.159  24.704  25.464  1.00  0.00     0.094 C 
ATOM      9  N   UNL A   1      34.103  23.942  24.658  1.00  0.00    -0.337 N 
ATOM     10  C   UNL A   1      32.230  24.418  23.280  1.00  0.00     0.037 C 
ATOM     11  C   UNL A   1      33.601  23.763  23.308  1.00  0.00     0.121 C 
BRANCH   9  12
ATOM     12  C   UNL A   1      35.369  23.492  24.964  1.00  0.00     0.251 C 
ATOM     13  O   UNL A   1      36.154  24.261  25.541  1.00  0.00    -0.272 OA
BRANCH  12  14
ATOM     14  C   UNL A   1      35.800  21.989  24.770  1.00  0.00     0.204 C 
ATOM     15  C   UNL A   1      37.229  21.915  24.228  1.00  0.00     0.049 C 
BRANCH  14  16
ATOM     16  O   UNL A   1      35.404  20.865  25.535  1.00  0.00    -0.364 OA
BRANCH  16  17
ATOM     17  C   UNL A   1      34.043  20.498  25.694  1.00  0.00     0.196 C 
BRANCH  17  18
ATOM     18  C   UNL A   1      33.443  19.651  24.599  1.00  0.00    -0.022 A 
ATOM     19  C   UNL A   1      32.545  20.201  23.677  1.00  0.00     0.006 A 
ATOM     20  C   UNL A   1      33.783  18.294  24.482  1.00  0.00     0.006 A 
ATOM     21  C   UNL A   1      32.083  19.440  22.602  1.00  0.00     0.000 A 
ATOM     22  C   UNL A   1      33.330  17.537  23.401  1.00  0.00     0.000 A 
ATOM     23  C   UNL A   1      32.493  18.116  22.453  1.00  0.00     0.000 A 
ENDBRANCH  17  18
ENDBRANCH  16  17
ENDBRANCH  14  16
ENDBRANCH  12  14
ENDBRANCH   9  12
ENDBRANCH   3   6
ENDBRANCH   1   2
BRANCH   1  24
ATOM     24  C   UNL A   1      32.055  27.902  27.159  1.00  0.00     0.042 C 
BRANCH  24  25
ATOM     25  C   UNL A   1      33.463  28.472  27.244  1.00  0.00     0.118 C 
BRANCH  25  26
ATOM     26  N   UNL A   1      33.484  29.897  27.544  1.00  0.00    -0.352 N 
ATOM     27  C   UNL A   1      34.458  30.676  28.129  1.00  0.00     0.251 C 
ATOM     28  H   UNL A   1      32.669  30.385  27.286  1.00  0.00     0.163 HD
ATOM     29  O   UNL A   1      34.194  31.821  28.467  1.00  0.00    -0.269 OA
BRANCH  27  30
ATOM     30  C   UNL A   1      35.804  30.115  28.377  1.00  0.00     0.039 A 
ATOM     31  C   UNL A   1      36.751  30.132  27.351  1.00  0.00     0.014 A 
ATOM     32  C   UNL A   1      36.135  29.580  29.621  1.00  0.00     0.014 A 
ATOM     33  C   UNL A   1      38.055  29.697  27.607  1.00  0.00     0.010 A 
ATOM     34  C   UNL A   1      37.457  29.263  29.908  1.00  0.00     0.010 A 
ATOM     35  C   UNL A   1      38.432  29.308  28.902  1.00  0.00    -0.014 A 
BRANCH  35  36
ATOM     36  C   UNL A   1      39.830  28.931  29.234  1.00  0.00     0.031 A 
ATOM     37  C   UNL A   1      40.740  29.933  29.897  1.00  0.00     0.074 A 
ATOM     38  C   UNL A   1      40.305  27.725  28.867  1.00  0.00     0.049 A 
ATOM     39  N   UNL A   1      42.015  29.831  30.176  1.00  0.00    -0.248 NA
ATOM     40  C   UNL A   1      40.151  31.233  30.262  1.00  0.00     0.031 C 
ATOM     41  C   UNL A   1      39.541  26.683  28.174  1.00  0.00     0.029 A 
ATOM     42  N   UNL A   1      41.552  27.170  29.021  1.00  0.00    -0.354 N 
ATOM     43  C   UNL A   1      42.382  31.057  30.719  1.00  0.00     0.074 A 
ATOM     44  C   UNL A   1      41.213  31.907  30.676  1.00  0.00     0.031 C 
ATOM     45  C   UNL A   1      40.323  25.605  27.997  1.00  0.00     0.029 A 
ATOM     46  C   UNL A   1      41.655  25.892  28.519  1.00  0.00     0.049 A 
ATOM     47  H   UNL A   1      42.301  27.641  29.450  1.00  0.00     0.167 HD
ATOM     48  C   UNL A   1      43.575  31.436  31.234  1.00  0.00     0.031 A 
ATOM     49  C   UNL A   1      42.704  25.050  28.478  1.00  0.00     0.031 A 
ATOM     50  C   UNL A   1      44.727  30.580  31.303  1.00  0.00     0.049 A 
ATOM     51  C   UNL A   1      44.019  25.488  29.062  1.00  0.00     0.074 A 
ATOM     52  C   UNL A   1      45.965  30.845  31.862  1.00  0.00     0.029 A 
ATOM     53  N   UNL A   1      44.782  29.286  30.803  1.00  0.00    -0.354 N 
ATOM     54  N   UNL A   1      44.328  26.633  29.625  1.00  0.00    -0.248 NA
ATOM     55  C   UNL A   1      45.122  24.519  29.016  1.00  0.00     0.031 C 
ATOM     56  C   UNL A   1      46.783  29.730  31.658  1.00  0.00     0.029 A 
ATOM     57  C   UNL A   1      46.037  28.749  31.024  1.00  0.00     0.049 A 
ATOM     58  H   UNL A   1      44.038  28.821  30.358  1.00  0.00     0.167 HD
ATOM     59  C   UNL A   1      45.654  26.510  30.026  1.00  0.00     0.074 A 
ATOM     60  C   UNL A   1      46.081  25.177  29.653  1.00  0.00     0.031 C 
ATOM     61  C   UNL A   1      46.445  27.418  30.649  1.00  0.00     0.031 A 
BRANCH  48  62
ATOM     62  C   UNL A   1      43.688  32.840  31.769  1.00  0.00    -0.014 A 
ATOM     63  C   UNL A   1      43.884  33.933  30.905  1.00  0.00     0.010 A 
ATOM     64  C   UNL A   1      43.568  33.075  33.151  1.00  0.00     0.010 A 
ATOM     65  C   UNL A   1      44.005  35.227  31.416  1.00  0.00     0.020 A 
ATOM     66  C   UNL A   1      43.657  34.373  33.663  1.00  0.00     0.020 A 
ATOM     67  C   UNL A   1      43.894  35.438  32.793  1.00  0.00     0.054 A 
BRANCH  67  68
ATOM     68  S   UNL A   1      44.034  37.132  33.425  1.00  0.00     0.124 S 
ATOM     69  O   UNL A   1      45.126  37.003  34.387  1.00  0.00    -0.237 OA
ATOM     70  O   UNL A   1      44.345  37.900  32.222  1.00  0.00    -0.237 OA
ATOM     71  O   UNL A   1      42.720  37.395  34.007  1.00  0.00    -0.744 OA
ENDBRANCH  67  68
ENDBRANCH  48  62
BRANCH  49  72
ATOM     72  C   UNL A   1      42.546  23.693  27.883  1.00  0.00    -0.014 A 
ATOM     73  C   UNL A   1      42.103  22.618  28.673  1.00  0.00     0.010 A 
ATOM     74  C   UNL A   1      42.825  23.472  26.523  1.00  0.00     0.010 A 
ATOM     75  C   UNL A   1      41.958  21.342  28.119  1.00  0.00     0.020 A 
ATOM     76  C   UNL A   1      42.656  22.204  25.957  1.00  0.00     0.020 A 
ATOM     77  C   UNL A   1      42.233  21.145  26.763  1.00  0.00     0.054 A 
BRANCH  77  78
ATOM     78  S   UNL A   1      41.988  19.493  26.052  1.00  0.00     0.124 S 
ATOM     79  O   UNL A   1      42.813  19.555  24.849  1.00  0.00    -0.237 OA
ATOM     80  O   UNL A   1      42.479  18.618  27.113  1.00  0.00    -0.237 OA
ATOM     81  O   UNL A   1      40.547  19.432  25.821  1.00  0.00    -0.744 OA
ENDBRANCH  77  78
ENDBRANCH  49  72
BRANCH  61  82
ATOM     82  C   UNL A   1      47.843  26.991  31.001  1.00  0.00    -0.014 A 
ATOM     83  C   UNL A   1      48.117  26.303  32.197  1.00  0.00     0.010 A 
ATOM     84  C   UNL A   1      48.889  27.231  30.091  1.00  0.00     0.010 A 
ATOM     85  C   UNL A   1      49.419  25.890  32.490  1.00  0.00     0.020 A 
ATOM     86  C   UNL A   1      50.187  26.794  30.368  1.00  0.00     0.020 A 
ATOM     87  C   UNL A   1      50.446  26.137  31.572  1.00  0.00     0.054 A 
BRANCH  87  88
ATOM     88  S   UNL A   1      52.118  25.549  31.955  1.00  0.00     0.124 S 
ATOM     89  O   UNL A   1      52.457  26.342  33.132  1.00  0.00    -0.237 OA
ATOM     90  O   UNL A   1      51.908  24.123  32.196  1.00  0.00    -0.237 OA
ATOM     91  O   UNL A   1      52.881  25.865  30.749  1.00  0.00    -0.744 OA
ENDBRANCH  87  88
ENDBRANCH  61  82
ENDBRANCH  35  36
ENDBRANCH  27  30
ENDBRANCH  25  26
ENDBRANCH  24  25
ENDBRANCH   1  24
TORSDOF 18
ENDMDL
MODEL 2
REMARK VINA RESULT:     -10.8      2.763      9.521
REMARK SMILES C[C@@H]1[C@@H](C(=O)NCCCNC(=O)c2ccc(-c3c4nc(c(-c5ccc(S(=O)(=O)[O-])cc5)c5ccc([nH]5)c(-c5ccc(S(=O)(=O)[O-])cc5)c5nc(c(-c6ccc(S(=O)(=O)[O-])cc6)c6ccc3[nH]6)C=C5)C=C4)cc2)CCN1C(=O)[C@@H](C)OCc1ccccc1
REMARK SMILES IDX 7 1 6 2 4 3 5 4 3 6 1 7 2 8 75 9 73 10 74 11 76 12 77 13
REMARK SMILES IDX 78 14 79 15 80 16 81 17 82 18 83 19 87 20 84 21 86 22 85 23
REMARK SMILES IDX 8 24 9 25 10 26 11 27 12 29 13 30 14 31 72 32 15 33 71 34
REMARK SMILES IDX 16 35 17 36 18 37 65 38 19 39 70 40 64 41 66 42 20 43 69 44
REMARK SMILES IDX 63 45 62 46 21 48 51 49 32 50 50 51 33 52 36 53 49 54 67 55
REMARK SMILES IDX 34 56 35 57 48 59 68 60 37 61 22 62 23 63 31 64 24 65 30 66
REMARK SMILES IDX 25 67 26 68 27 69 28 70 29 71 52 72 53 73 61 74 54 75 60 76
REMARK SMILES IDX 55 77 56 78 57 79 58 80 59 81 38 82 39 83 47 84 40 85 46 86
REMARK SMILES IDX 41 87 42 88 43 89 44 90 45 91
REMARK H PARENT 6 5 10 28 66 47 36 58
REMARK Flexibility Score: inf
ROOT
ATOM      1  C   UNL A   1      35.441  22.397  26.243  1.00  0.00     0.117 C 
ENDROOT
BRANCH   1   2
ATOM      2  N   UNL A   1      34.502  22.548  27.339  1.00  0.00    -0.356 N 
ATOM      3  C   UNL A   1      33.139  22.522  27.305  1.00  0.00     0.225 C 
ATOM      4  O   UNL A   1      32.533  22.631  28.368  1.00  0.00    -0.275 OA
ATOM      5  H   UNL A   1      34.902  22.686  28.228  1.00  0.00     0.163 HD
BRANCH   3   6
ATOM      6  C   UNL A   1      32.452  22.414  25.955  1.00  0.00     0.102 C 
ATOM      7  C   UNL A   1      32.489  23.361  23.635  1.00  0.00     0.032 C 
ATOM      8  C   UNL A   1      32.572  23.704  25.131  1.00  0.00     0.094 C 
ATOM      9  N   UNL A   1      31.419  24.501  25.530  1.00  0.00    -0.337 N 
ATOM     10  C   UNL A   1      30.933  22.242  26.076  1.00  0.00     0.037 C 
ATOM     11  C   UNL A   1      30.401  23.665  26.140  1.00  0.00     0.121 C 
BRANCH   9  12
ATOM     12  C   UNL A   1      31.231  25.865  25.500  1.00  0.00     0.251 C 
ATOM     13  O   UNL A   1      31.133  26.479  26.574  1.00  0.00    -0.272 OA
BRANCH  12  14
ATOM     14  C   UNL A   1      31.311  26.699  24.166  1.00  0.00     0.204 C 
ATOM     15  C   UNL A   1      30.006  27.468  23.944  1.00  0.00     0.049 C 
BRANCH  14  16
ATOM     16  O   UNL A   1      32.453  27.302  23.584  1.00  0.00    -0.364 OA
BRANCH  16  17
ATOM     17  C   UNL A   1      32.723  28.689  23.705  1.00  0.00     0.196 C 
BRANCH  17  18
ATOM     18  C   UNL A   1      33.020  29.197  25.093  1.00  0.00    -0.022 A 
ATOM     19  C   UNL A   1      34.126  28.725  25.810  1.00  0.00     0.006 A 
ATOM     20  C   UNL A   1      32.193  30.162  25.690  1.00  0.00     0.006 A 
ATOM     21  C   UNL A   1      34.457  29.282  27.046  1.00  0.00     0.000 A 
ATOM     22  C   UNL A   1      32.530  30.727  26.920  1.00  0.00     0.000 A 
ATOM     23  C   UNL A   1      33.671  30.297  27.590  1.00  0.00     0.000 A 
ENDBRANCH  17  18
ENDBRANCH  16  17
ENDBRANCH  14  16
ENDBRANCH  12  14
ENDBRANCH   9  12
ENDBRANCH   3   6
ENDBRANCH   1   2
BRANCH   1  24
ATOM     24  C   UNL A   1      35.925  23.727  25.695  1.00  0.00     0.042 C 
BRANCH  24  25
ATOM     25  C   UNL A   1      37.152  23.614  24.802  1.00  0.00     0.118 C 
BRANCH  25  26
ATOM     26  N   UNL A   1      38.130  22.654  25.295  1.00  0.00    -0.352 N 
ATOM     27  C   UNL A   1      39.247  22.834  26.081  1.00  0.00     0.251 C 
ATOM     28  H   UNL A   1      37.967  21.723  25.021  1.00  0.00     0.163 HD
ATOM     29  O   UNL A   1      40.045  21.918  26.217  1.00  0.00    -0.269 OA
BRANCH  27  30
ATOM     30  C   UNL A   1      39.494  24.143  26.726  1.00  0.00     0.039 A 
ATOM     31  C   UNL A   1      39.018  24.367  28.019  1.00  0.00     0.014 A 
ATOM     32  C   UNL A   1      40.199  25.144  26.060  1.00  0.00     0.014 A 
ATOM     33  C   UNL A   1      39.334  25.561  28.675  1.00  0.00     0.010 A 
ATOM     34  C   UNL A   1      40.614  26.275  26.753  1.00  0.00     0.010 A 
ATOM     35  C   UNL A   1      40.178  26.502  28.065  1.00  0.00    -0.014 A 
BRANCH  35  36
ATOM     36  C   UNL A   1      40.613  27.738  28.767  1.00  0.00     0.031 A 
ATOM     37  C   UNL A   1      41.979  27.801  29.400  1.00  0.00     0.074 A 
ATOM     38  C   UNL A   1      39.755  28.768  28.906  1.00  0.00     0.049 A 
ATOM     39  N   UNL A   1      42.504  28.746  30.137  1.00  0.00    -0.248 NA
ATOM     40  C   UNL A   1      42.858  26.634  29.210  1.00  0.00     0.031 C 
ATOM     41  C   UNL A   1      38.386  28.813  28.384  1.00  0.00     0.029 A 
ATOM     42  N   UNL A   1      39.905  29.978  29.537  1.00  0.00    -0.354 N 
ATOM     43  C   UNL A   1      43.755  28.275  30.521  1.00  0.00     0.074 A 
ATOM     44  C   UNL A   1      43.888  26.939  29.985  1.00  0.00     0.031 C 
ATOM     45  C   UNL A   1      37.838  30.002  28.683  1.00  0.00     0.029 A 
ATOM     46  C   UNL A   1      38.794  30.786  29.458  1.00  0.00     0.049 A 
ATOM     47  H   UNL A   1      40.730  30.243  30.003  1.00  0.00     0.167 HD
ATOM     48  C   UNL A   1      44.720  28.907  31.229  1.00  0.00     0.031 A 
ATOM     49  C   UNL A   1      38.568  32.016  29.957  1.00  0.00     0.031 A 
ATOM     50  C   UNL A   1      44.598  30.247  31.735  1.00  0.00     0.049 A 
ATOM     51  C   UNL A   1      39.656  32.702  30.735  1.00  0.00     0.074 A 
ATOM     52  C   UNL A   1      45.540  31.001  32.411  1.00  0.00     0.029 A 
ATOM     53  N   UNL A   1      43.464  31.036  31.613  1.00  0.00    -0.354 N 
ATOM     54  N   UNL A   1      40.855  32.261  31.036  1.00  0.00    -0.248 NA
ATOM     55  C   UNL A   1      39.366  34.053  31.232  1.00  0.00     0.031 C 
ATOM     56  C   UNL A   1      44.960  32.230  32.740  1.00  0.00     0.029 A 
ATOM     57  C   UNL A   1      43.677  32.263  32.218  1.00  0.00     0.049 A 
ATOM     58  H   UNL A   1      42.632  30.765  31.163  1.00  0.00     0.167 HD
ATOM     59  C   UNL A   1      41.473  33.294  31.732  1.00  0.00     0.074 A 
ATOM     60  C   UNL A   1      40.520  34.383  31.796  1.00  0.00     0.031 C 
ATOM     61  C   UNL A   1      42.717  33.337  32.269  1.00  0.00     0.031 A 
BRANCH  48  62
ATOM     62  C   UNL A   1      45.997  28.151  31.492  1.00  0.00    -0.014 A 
ATOM     63  C   UNL A   1      47.066  28.191  30.579  1.00  0.00     0.010 A 
ATOM     64  C   UNL A   1      46.142  27.414  32.682  1.00  0.00     0.010 A 
ATOM     65  C   UNL A   1      48.238  27.472  30.827  1.00  0.00     0.020 A 
ATOM     66  C   UNL A   1      47.325  26.718  32.949  1.00  0.00     0.020 A 
ATOM     67  C   UNL A   1      48.358  26.737  32.010  1.00  0.00     0.054 A 
BRANCH  67  68
ATOM     68  S   UNL A   1      49.899  25.830  32.315  1.00  0.00     0.124 S 
ATOM     69  O   UNL A   1      50.628  26.761  33.173  1.00  0.00    -0.237 OA
ATOM     70  O   UNL A   1      49.430  24.611  32.969  1.00  0.00    -0.237 OA
ATOM     71  O   UNL A   1      50.461  25.642  30.980  1.00  0.00    -0.744 OA
ENDBRANCH  67  68
ENDBRANCH  48  62
BRANCH  49  72
ATOM     72  C   UNL A   1      37.262  32.690  29.712  1.00  0.00    -0.014 A 
ATOM     73  C   UNL A   1      36.309  32.787  30.742  1.00  0.00     0.010 A 
ATOM     74  C   UNL A   1      36.969  33.248  28.455  1.00  0.00     0.010 A 
ATOM     75  C   UNL A   1      35.080  33.414  30.513  1.00  0.00     0.020 A 
ATOM     76  C   UNL A   1      35.753  33.901  28.230  1.00  0.00     0.020 A 
ATOM     77  C   UNL A   1      34.811  33.969  29.259  1.00  0.00     0.054 A 
BRANCH  77  78
ATOM     78  S   UNL A   1      33.232  34.825  29.001  1.00  0.00     0.124 S 
ATOM     79  O   UNL A   1      33.670  36.144  28.558  1.00  0.00    -0.237 OA
ATOM     80  O   UNL A   1      32.588  33.996  27.985  1.00  0.00    -0.237 OA
ATOM     81  O   UNL A   1      32.602  34.783  30.319  1.00  0.00    -0.744 OA
ENDBRANCH  77  78
ENDBRANCH  49  72
BRANCH  61  82
ATOM     82  C   UNL A   1      43.138  34.616  32.941  1.00  0.00    -0.014 A 
ATOM     83  C   UNL A   1      43.618  35.708  32.196  1.00  0.00     0.010 A 
ATOM     84  C   UNL A   1      42.991  34.744  34.334  1.00  0.00     0.010 A 
ATOM     85  C   UNL A   1      43.974  36.896  32.839  1.00  0.00     0.020 A 
ATOM     86  C   UNL A   1      43.319  35.941  34.976  1.00  0.00     0.020 A 
ATOM     87  C   UNL A   1      43.821  37.005  34.225  1.00  0.00     0.054 A 
BRANCH  87  88
ATOM     88  S   UNL A   1      44.246  38.575  35.028  1.00  0.00     0.124 S 
ATOM     89  O   UNL A   1      45.693  38.628  34.844  1.00  0.00    -0.237 OA
ATOM     90  O   UNL A   1      43.477  39.548  34.256  1.00  0.00    -0.237 OA
ATOM     91  O   UNL A   1      43.799  38.390  36.408  1.00  0.00    -0.744 OA
ENDBRANCH  87  88
ENDBRANCH  61  82
ENDBRANCH  35  36
ENDBRANCH  27  30
ENDBRANCH  25  26
ENDBRANCH  24  25
ENDBRANCH   1  24
TORSDOF 18
ENDMDL
MODEL 3
REMARK VINA RESULT:     -10.5      1.324      2.397
REMARK SMILES C[C@@H]1[C@@H](C(=O)NCCCNC(=O)c2ccc(-c3c4nc(c(-c5ccc(S(=O)(=O)[O-])cc5)c5ccc([nH]5)c(-c5ccc(S(=O)(=O)[O-])cc5)c5nc(c(-c6ccc(S(=O)(=O)[O-])cc6)c6ccc3[nH]6)C=C5)C=C4)cc2)CCN1C(=O)[C@@H](C)OCc1ccccc1
REMARK SMILES IDX 7 1 6 2 4 3 5 4 3 6 1 7 2 8 75 9 73 10 74 11 76 12 77 13
REMARK SMILES IDX 78 14 79 15 80 16 81 17 82 18 83 19 87 20 84 21 86 22 85 23
REMARK SMILES IDX 8 24 9 25 10 26 11 27 12 29 13 30 14 31 72 32 15 33 71 34
REMARK SMILES IDX 16 35 17 36 18 37 65 38 19 39 70 40 64 41 66 42 20 43 69 44
REMARK SMILES IDX 63 45 62 46 21 48 51 49 32 50 50 51 33 52 36 53 49 54 67 55
REMARK SMILES IDX 34 56 35 57 48 59 68 60 37 61 22 62 23 63 31 64 24 65 30 66
REMARK SMILES IDX 25 67 26 68 27 69 28 70 29 71 52 72 53 73 61 74 54 75 60 76
REMARK SMILES IDX 55 77 56 78 57 79 58 80 59 81 38 82 39 83 47 84 40 85 46 86
REMARK SMILES IDX 41 87 42 88 43 89 44 90 45 91
REMARK H PARENT 6 5 10 28 66 47 36 58
REMARK Flexibility Score: inf
ROOT
ATOM      1  C   UNL A   1      31.633  28.951  26.091  1.00  0.00     0.117 C 
ENDROOT
BRANCH   1   2
ATOM      2  N   UNL A   1      32.324  29.155  24.831  1.00  0.00    -0.356 N 
ATOM      3  C   UNL A   1      32.127  28.525  23.638  1.00  0.00     0.225 C 
ATOM      4  O   UNL A   1      32.804  28.884  22.678  1.00  0.00    -0.275 OA
ATOM      5  H   UNL A   1      33.030  29.841  24.839  1.00  0.00     0.163 HD
BRANCH   3   6
ATOM      6  C   UNL A   1      31.124  27.386  23.578  1.00  0.00     0.102 C 
ATOM      7  C   UNL A   1      30.510  25.231  24.700  1.00  0.00     0.032 C 
ATOM      8  C   UNL A   1      31.677  26.086  24.182  1.00  0.00     0.094 C 
ATOM      9  N   UNL A   1      32.336  25.418  23.068  1.00  0.00    -0.337 N 
ATOM     10  C   UNL A   1      30.791  26.965  22.143  1.00  0.00     0.037 C 
ATOM     11  C   UNL A   1      31.856  25.935  21.799  1.00  0.00     0.121 C 
BRANCH   9  12
ATOM     12  C   UNL A   1      33.361  24.497  23.067  1.00  0.00     0.251 C 
ATOM     13  O   UNL A   1      34.469  24.835  22.622  1.00  0.00    -0.272 OA
BRANCH  12  14
ATOM     14  C   UNL A   1      33.233  23.091  23.767  1.00  0.00     0.204 C 
ATOM     15  C   UNL A   1      32.361  22.158  22.924  1.00  0.00     0.049 C 
BRANCH  14  16
ATOM     16  O   UNL A   1      34.192  22.429  24.573  1.00  0.00    -0.364 OA
BRANCH  16  17
ATOM     17  C   UNL A   1      35.447  22.008  24.064  1.00  0.00     0.196 C 
BRANCH  17  18
ATOM     18  C   UNL A   1      36.665  22.417  24.855  1.00  0.00    -0.022 A 
ATOM     19  C   UNL A   1      36.777  23.707  25.387  1.00  0.00     0.006 A 
ATOM     20  C   UNL A   1      37.707  21.503  25.078  1.00  0.00     0.006 A 
ATOM     21  C   UNL A   1      37.852  24.040  26.211  1.00  0.00     0.000 A 
ATOM     22  C   UNL A   1      38.777  21.833  25.912  1.00  0.00     0.000 A 
ATOM     23  C   UNL A   1      38.840  23.097  26.490  1.00  0.00     0.000 A 
ENDBRANCH  17  18
ENDBRANCH  16  17
ENDBRANCH  14  16
ENDBRANCH  12  14
ENDBRANCH   9  12
ENDBRANCH   3   6
ENDBRANCH   1   2
BRANCH   1  24
ATOM     24  C   UNL A   1      32.408  28.070  27.053  1.00  0.00     0.042 C 
BRANCH  24  25
ATOM     25  C   UNL A   1      33.803  28.586  27.372  1.00  0.00     0.118 C 
BRANCH  25  26
ATOM     26  N   UNL A   1      33.814  29.982  27.787  1.00  0.00    -0.352 N 
ATOM     27  C   UNL A   1      34.790  30.723  28.416  1.00  0.00     0.251 C 
ATOM     28  H   UNL A   1      32.988  30.478  27.586  1.00  0.00     0.163 HD
ATOM     29  O   UNL A   1      34.519  31.833  28.852  1.00  0.00    -0.269 OA
BRANCH  27  30
ATOM     30  C   UNL A   1      36.147  30.161  28.591  1.00  0.00     0.039 A 
ATOM     31  C   UNL A   1      37.039  30.184  27.517  1.00  0.00     0.014 A 
ATOM     32  C   UNL A   1      36.543  29.621  29.814  1.00  0.00     0.014 A 
ATOM     33  C   UNL A   1      38.355  29.749  27.703  1.00  0.00     0.010 A 
ATOM     34  C   UNL A   1      37.878  29.304  30.030  1.00  0.00     0.010 A 
ATOM     35  C   UNL A   1      38.799  29.355  28.975  1.00  0.00    -0.014 A 
BRANCH  35  36
ATOM     36  C   UNL A   1      40.213  28.977  29.231  1.00  0.00     0.031 A 
ATOM     37  C   UNL A   1      41.161  29.983  29.832  1.00  0.00     0.074 A 
ATOM     38  C   UNL A   1      40.664  27.765  28.851  1.00  0.00     0.049 A 
ATOM     39  N   UNL A   1      42.449  29.880  30.040  1.00  0.00    -0.248 NA
ATOM     40  C   UNL A   1      40.596  31.288  30.216  1.00  0.00     0.031 C 
ATOM     41  C   UNL A   1      39.860  26.718  28.213  1.00  0.00     0.029 A 
ATOM     42  N   UNL A   1      41.916  27.208  28.940  1.00  0.00    -0.354 N 
ATOM     43  C   UNL A   1      42.849  31.111  30.549  1.00  0.00     0.074 A 
ATOM     44  C   UNL A   1      41.681  31.964  30.563  1.00  0.00     0.031 C 
ATOM     45  C   UNL A   1      40.628  25.637  28.004  1.00  0.00     0.029 A 
ATOM     46  C   UNL A   1      41.988  25.926  28.447  1.00  0.00     0.049 A 
ATOM     47  H   UNL A   1      42.689  27.682  29.322  1.00  0.00     0.167 HD
ATOM     48  C   UNL A   1      44.069  31.491  30.993  1.00  0.00     0.031 A 
ATOM     49  C   UNL A   1      43.032  25.079  28.356  1.00  0.00     0.031 A 
ATOM     50  C   UNL A   1      45.222  30.632  31.006  1.00  0.00     0.049 A 
ATOM     51  C   UNL A   1      44.378  25.521  28.861  1.00  0.00     0.074 A 
ATOM     52  C   UNL A   1      46.490  30.900  31.491  1.00  0.00     0.029 A 
ATOM     53  N   UNL A   1      45.245  29.334  30.517  1.00  0.00    -0.354 N 
ATOM     54  N   UNL A   1      44.720  26.670  29.393  1.00  0.00    -0.248 NA
ATOM     55  C   UNL A   1      45.474  24.548  28.763  1.00  0.00     0.031 C 
ATOM     56  C   UNL A   1      47.293  29.780  31.253  1.00  0.00     0.029 A 
ATOM     57  C   UNL A   1      46.510  28.795  30.672  1.00  0.00     0.049 A 
ATOM     58  H   UNL A   1      44.477  28.867  30.119  1.00  0.00     0.167 HD
ATOM     59  C   UNL A   1      46.066  26.547  29.721  1.00  0.00     0.074 A 
ATOM     60  C   UNL A   1      46.469  25.209  29.338  1.00  0.00     0.031 C 
ATOM     61  C   UNL A   1      46.893  27.460  30.289  1.00  0.00     0.031 A 
BRANCH  48  62
ATOM     62  C   UNL A   1      44.216  32.900  31.506  1.00  0.00    -0.014 A 
ATOM     63  C   UNL A   1      44.592  33.950  30.648  1.00  0.00     0.010 A 
ATOM     64  C   UNL A   1      43.946  33.185  32.857  1.00  0.00     0.010 A 
ATOM     65  C   UNL A   1      44.741  35.249  31.141  1.00  0.00     0.020 A 
ATOM     66  C   UNL A   1      44.064  34.489  33.347  1.00  0.00     0.020 A 
ATOM     67  C   UNL A   1      44.479  35.509  32.488  1.00  0.00     0.054 A 
BRANCH  67  68
ATOM     68  S   UNL A   1      44.660  37.209  33.095  1.00  0.00     0.124 S 
ATOM     69  O   UNL A   1      43.341  37.464  33.670  1.00  0.00    -0.237 OA
ATOM     70  O   UNL A   1      45.752  37.091  34.058  1.00  0.00    -0.237 OA
ATOM     71  O   UNL A   1      44.974  37.975  31.892  1.00  0.00    -0.744 OA
ENDBRANCH  67  68
ENDBRANCH  48  62
BRANCH  49  72
ATOM     72  C   UNL A   1      42.837  23.717  27.784  1.00  0.00    -0.014 A 
ATOM     73  C   UNL A   1      42.604  22.619  28.631  1.00  0.00     0.010 A 
ATOM     74  C   UNL A   1      42.872  23.513  26.394  1.00  0.00     0.010 A 
ATOM     75  C   UNL A   1      42.426  21.338  28.098  1.00  0.00     0.020 A 
ATOM     76  C   UNL A   1      42.667  22.239  25.855  1.00  0.00     0.020 A 
ATOM     77  C   UNL A   1      42.456  21.158  26.713  1.00  0.00     0.054 A 
BRANCH  77  78
ATOM     78  S   UNL A   1      42.171  19.496  26.040  1.00  0.00     0.124 S 
ATOM     79  O   UNL A   1      42.524  18.646  27.171  1.00  0.00    -0.237 OA
ATOM     80  O   UNL A   1      40.752  19.537  25.694  1.00  0.00    -0.237 OA
ATOM     81  O   UNL A   1      43.081  19.431  24.898  1.00  0.00    -0.744 OA
ENDBRANCH  77  78
ENDBRANCH  49  72
BRANCH  61  82
ATOM     82  C   UNL A   1      48.308  27.033  30.567  1.00  0.00    -0.014 A 
ATOM     83  C   UNL A   1      49.350  27.326  29.668  1.00  0.00     0.010 A 
ATOM     84  C   UNL A   1      48.608  26.380  31.777  1.00  0.00     0.010 A 
ATOM     85  C   UNL A   1      50.662  26.946  29.962  1.00  0.00     0.020 A 
ATOM     86  C   UNL A   1      49.923  26.024  32.087  1.00  0.00     0.020 A 
ATOM     87  C   UNL A   1      50.940  26.298  31.171  1.00  0.00     0.054 A 
BRANCH  87  88
ATOM     88  S   UNL A   1      52.658  25.858  31.549  1.00  0.00     0.124 S 
ATOM     89  O   UNL A   1      52.512  24.515  32.102  1.00  0.00    -0.237 OA
ATOM     90  O   UNL A   1      53.303  25.932  30.240  1.00  0.00    -0.237 OA
ATOM     91  O   UNL A   1      53.076  26.884  32.502  1.00  0.00    -0.744 OA
ENDBRANCH  87  88
ENDBRANCH  61  82
ENDBRANCH  35  36
ENDBRANCH  27  30
ENDBRANCH  25  26
ENDBRANCH  24  25
ENDBRANCH   1  24
TORSDOF 18
ENDMDL
