MODEL 1
REMARK VINA RESULT:     -11.6      0.000      0.000
REMARK SMILES COc1ccc(F)c(NC(=O)N2CCCC[C@@H]2C(=O)NCCCNC(=O)c2ccc(-c3c4nc(c(-c5ccc(S(=O)(=O)[O-])cc5)c5ccc([nH]5)c(-c5ccc(S(=O)(=O)[O-])cc5)c5nc(c(-c6ccc(S(=O)(=O)[O-])cc6)c6ccc3[nH]6)C=C5)C=C4)cc2)c1
REMARK SMILES IDX 22 1 21 2 20 3 18 4 19 5 17 7 12 8 13 9 14 10 16 11 15 12
REMARK SMILES IDX 10 13 9 14 11 16 8 17 3 18 4 19 87 20 5 21 6 22 7 23 2 24
REMARK SMILES IDX 1 25 23 26 24 27 25 28 26 30 27 31 28 32 86 33 29 34 85 35
REMARK SMILES IDX 30 36 31 37 32 38 79 39 33 40 84 41 78 42 80 43 34 44 83 45
REMARK SMILES IDX 77 46 76 47 35 49 65 50 46 51 64 52 47 53 50 54 63 55 81 56
REMARK SMILES IDX 48 57 49 58 62 60 82 61 51 62 36 63 37 64 45 65 38 66 44 67
REMARK SMILES IDX 39 68 40 69 41 70 42 71 43 72 66 73 67 74 75 75 68 76 74 77
REMARK SMILES IDX 69 78 70 79 71 80 72 81 73 82 52 83 53 84 61 85 54 86 60 87
REMARK SMILES IDX 55 88 56 89 57 90 58 91 59 92
REMARK H PARENT 20 6 9 15 24 29 80 48 50 59
REMARK Flexibility Score: inf
ROOT
ATOM      1  C   UNL A   1      33.418  27.030  25.505  1.00  0.00     0.042 C 
ENDROOT
BRANCH   1   2
ATOM      2  C   UNL A   1      33.687  25.532  25.443  1.00  0.00     0.117 C 
BRANCH   2   3
ATOM      3  N   UNL A   1      32.747  24.889  24.542  1.00  0.00    -0.354 N 
ATOM      4  C   UNL A   1      32.916  23.791  23.757  1.00  0.00     0.242 C 
ATOM      5  O   UNL A   1      32.133  23.644  22.813  1.00  0.00    -0.273 OA
ATOM      6  H   UNL A   1      31.859  25.309  24.491  1.00  0.00     0.163 HD
BRANCH   4   7
ATOM      7  C   UNL A   1      34.115  22.836  23.943  1.00  0.00     0.176 C 
ATOM      8  N   UNL A   1      34.167  22.061  25.218  1.00  0.00    -0.313 N 
ATOM      9  C   UNL A   1      35.446  21.435  25.546  1.00  0.00     0.122 C 
ATOM     10  C   UNL A   1      36.639  22.361  25.383  1.00  0.00     0.022 C 
ATOM     11  C   UNL A   1      35.381  23.692  23.708  1.00  0.00     0.035 C 
ATOM     12  C   UNL A   1      36.671  22.933  23.977  1.00  0.00     0.004 C 
BRANCH   8  13
ATOM     13  C   UNL A   1      33.106  21.669  26.010  1.00  0.00     0.322 C 
ATOM     14  N   UNL A   1      32.274  20.659  25.666  1.00  0.00    -0.305 N 
ATOM     15  H   UNL A   1      31.343  20.802  25.951  1.00  0.00     0.171 HD
ATOM     16  O   UNL A   1      32.815  22.298  27.034  1.00  0.00    -0.248 OA
BRANCH  14  17
ATOM     17  C   UNL A   1      32.475  19.448  24.985  1.00  0.00     0.082 A 
ATOM     18  C   UNL A   1      33.188  17.155  24.870  1.00  0.00     0.121 A 
ATOM     19  C   UNL A   1      33.123  17.179  23.476  1.00  0.00     0.049 A 
ATOM     20  C   UNL A   1      32.781  18.254  25.626  1.00  0.00     0.075 A 
ATOM     21  C   UNL A   1      32.683  18.333  22.832  1.00  0.00     0.045 A 
ATOM     22  C   UNL A   1      32.372  19.459  23.589  1.00  0.00     0.147 A 
ATOM     23  F   UNL A   1      32.006  20.586  22.956  1.00  0.00    -0.205 F 
BRANCH  18  24
ATOM     24  O   UNL A   1      33.669  16.070  25.551  1.00  0.00    -0.497 OA
ATOM     25  C   UNL A   1      32.719  14.998  25.517  1.00  0.00     0.278 C 
ENDBRANCH  18  24
ENDBRANCH  14  17
ENDBRANCH   8  13
ENDBRANCH   4   7
ENDBRANCH   2   3
ENDBRANCH   1   2
BRANCH   1  26
ATOM     26  C   UNL A   1      34.308  27.757  26.502  1.00  0.00     0.118 C 
BRANCH  26  27
ATOM     27  N   UNL A   1      33.812  29.089  26.816  1.00  0.00    -0.352 N 
ATOM     28  C   UNL A   1      34.399  30.066  27.587  1.00  0.00     0.251 C 
ATOM     29  H   UNL A   1      32.940  29.324  26.424  1.00  0.00     0.163 HD
ATOM     30  O   UNL A   1      33.770  31.056  27.923  1.00  0.00    -0.269 OA
BRANCH  28  31
ATOM     31  C   UNL A   1      35.801  29.880  28.018  1.00  0.00     0.039 A 
ATOM     32  C   UNL A   1      36.061  29.420  29.310  1.00  0.00     0.014 A 
ATOM     33  C   UNL A   1      36.846  30.116  27.121  1.00  0.00     0.014 A 
ATOM     34  C   UNL A   1      37.375  29.131  29.681  1.00  0.00     0.010 A 
ATOM     35  C   UNL A   1      38.140  29.746  27.463  1.00  0.00     0.010 A 
ATOM     36  C   UNL A   1      38.419  29.255  28.748  1.00  0.00    -0.014 A 
BRANCH  36  37
ATOM     37  C   UNL A   1      39.817  28.893  29.089  1.00  0.00     0.031 A 
ATOM     38  C   UNL A   1      40.718  29.921  29.718  1.00  0.00     0.074 A 
ATOM     39  C   UNL A   1      40.295  27.677  28.760  1.00  0.00     0.049 A 
ATOM     40  N   UNL A   1      41.995  29.843  29.988  1.00  0.00    -0.248 NA
ATOM     41  C   UNL A   1      40.110  31.220  30.057  1.00  0.00     0.031 C 
ATOM     42  C   UNL A   1      39.529  26.607  28.117  1.00  0.00     0.029 A 
ATOM     43  N   UNL A   1      41.549  27.140  28.913  1.00  0.00    -0.354 N 
ATOM     44  C   UNL A   1      42.346  31.085  30.505  1.00  0.00     0.074 A 
ATOM     45  C   UNL A   1      41.163  31.915  30.461  1.00  0.00     0.031 C 
ATOM     46  C   UNL A   1      40.322  25.534  27.953  1.00  0.00     0.029 A 
ATOM     47  C   UNL A   1      41.663  25.855  28.434  1.00  0.00     0.049 A 
ATOM     48  H   UNL A   1      42.298  27.628  29.326  1.00  0.00     0.167 HD
ATOM     49  C   UNL A   1      43.542  31.491  30.994  1.00  0.00     0.031 A 
ATOM     50  C   UNL A   1      42.728  25.033  28.377  1.00  0.00     0.031 A 
ATOM     51  C   UNL A   1      44.711  30.656  31.051  1.00  0.00     0.049 A 
ATOM     52  C   UNL A   1      44.051  25.512  28.911  1.00  0.00     0.074 A 
ATOM     53  C   UNL A   1      45.955  30.954  31.575  1.00  0.00     0.029 A 
ATOM     54  N   UNL A   1      44.777  29.358  30.570  1.00  0.00    -0.354 N 
ATOM     55  N   UNL A   1      44.349  26.672  29.449  1.00  0.00    -0.248 NA
ATOM     56  C   UNL A   1      45.177  24.572  28.840  1.00  0.00     0.031 C 
ATOM     57  C   UNL A   1      46.791  29.853  31.365  1.00  0.00     0.029 A 
ATOM     58  C   UNL A   1      46.049  28.848  30.765  1.00  0.00     0.049 A 
ATOM     59  H   UNL A   1      44.031  28.871  30.151  1.00  0.00     0.167 HD
ATOM     60  C   UNL A   1      45.690  26.587  29.808  1.00  0.00     0.074 A 
ATOM     61  C   UNL A   1      46.140  25.262  29.435  1.00  0.00     0.031 C 
ATOM     62  C   UNL A   1      46.476  27.522  30.396  1.00  0.00     0.031 A 
BRANCH  49  63
ATOM     63  C   UNL A   1      43.641  32.907  31.501  1.00  0.00    -0.014 A 
ATOM     64  C   UNL A   1      43.404  33.212  32.854  1.00  0.00     0.010 A 
ATOM     65  C   UNL A   1      44.009  33.941  30.622  1.00  0.00     0.010 A 
ATOM     66  C   UNL A   1      43.489  34.530  33.309  1.00  0.00     0.020 A 
ATOM     67  C   UNL A   1      44.126  35.257  31.079  1.00  0.00     0.020 A 
ATOM     68  C   UNL A   1      43.846  35.545  32.417  1.00  0.00     0.054 A 
BRANCH  68  69
ATOM     69  S   UNL A   1      43.969  37.244  33.040  1.00  0.00     0.124 S 
ATOM     70  O   UNL A   1      43.922  38.021  31.804  1.00  0.00    -0.237 OA
ATOM     71  O   UNL A   1      42.793  37.357  33.898  1.00  0.00    -0.237 OA
ATOM     72  O   UNL A   1      45.252  37.265  33.739  1.00  0.00    -0.744 OA
ENDBRANCH  68  69
ENDBRANCH  49  63
BRANCH  50  73
ATOM     73  C   UNL A   1      42.585  23.666  27.803  1.00  0.00    -0.014 A 
ATOM     74  C   UNL A   1      42.178  22.592  28.613  1.00  0.00     0.010 A 
ATOM     75  C   UNL A   1      42.847  23.432  26.440  1.00  0.00     0.010 A 
ATOM     76  C   UNL A   1      42.053  21.307  28.078  1.00  0.00     0.020 A 
ATOM     77  C   UNL A   1      42.695  22.154  25.894  1.00  0.00     0.020 A 
ATOM     78  C   UNL A   1      42.311  21.096  26.721  1.00  0.00     0.054 A 
BRANCH  78  79
ATOM     79  S   UNL A   1      42.099  19.429  26.037  1.00  0.00     0.124 S 
ATOM     80  O   UNL A   1      42.573  18.589  27.133  1.00  0.00    -0.237 OA
ATOM     81  O   UNL A   1      40.663  19.377  25.774  1.00  0.00    -0.237 OA
ATOM     82  O   UNL A   1      42.943  19.438  24.844  1.00  0.00    -0.744 OA
ENDBRANCH  78  79
ENDBRANCH  50  73
BRANCH  62  83
ATOM     83  C   UNL A   1      47.896  27.138  30.717  1.00  0.00    -0.014 A 
ATOM     84  C   UNL A   1      48.951  27.445  29.841  1.00  0.00     0.010 A 
ATOM     85  C   UNL A   1      48.183  26.532  31.954  1.00  0.00     0.010 A 
ATOM     86  C   UNL A   1      50.268  27.135  30.190  1.00  0.00     0.020 A 
ATOM     87  C   UNL A   1      49.501  26.247  32.318  1.00  0.00     0.020 A 
ATOM     88  C   UNL A   1      50.535  26.542  31.428  1.00  0.00     0.054 A 
BRANCH  88  89
ATOM     89  S   UNL A   1      52.259  26.213  31.885  1.00  0.00     0.124 S 
ATOM     90  O   UNL A   1      52.165  24.888  32.493  1.00  0.00    -0.237 OA
ATOM     91  O   UNL A   1      52.947  26.266  30.596  1.00  0.00    -0.237 OA
ATOM     92  O   UNL A   1      52.588  27.300  32.805  1.00  0.00    -0.744 OA
ENDBRANCH  88  89
ENDBRANCH  62  83
ENDBRANCH  36  37
ENDBRANCH  28  31
ENDBRANCH  26  27
ENDBRANCH   1  26
TORSDOF 16
ENDMDL
MODEL 2
REMARK VINA RESULT:     -11.1      1.828      3.191
REMARK SMILES COc1ccc(F)c(NC(=O)N2CCCC[C@@H]2C(=O)NCCCNC(=O)c2ccc(-c3c4nc(c(-c5ccc(S(=O)(=O)[O-])cc5)c5ccc([nH]5)c(-c5ccc(S(=O)(=O)[O-])cc5)c5nc(c(-c6ccc(S(=O)(=O)[O-])cc6)c6ccc3[nH]6)C=C5)C=C4)cc2)c1
REMARK SMILES IDX 22 1 21 2 20 3 18 4 19 5 17 7 12 8 13 9 14 10 16 11 15 12
REMARK SMILES IDX 10 13 9 14 11 16 8 17 3 18 4 19 87 20 5 21 6 22 7 23 2 24
REMARK SMILES IDX 1 25 23 26 24 27 25 28 26 30 27 31 28 32 86 33 29 34 85 35
REMARK SMILES IDX 30 36 31 37 32 38 79 39 33 40 84 41 78 42 80 43 34 44 83 45
REMARK SMILES IDX 77 46 76 47 35 49 65 50 46 51 64 52 47 53 50 54 63 55 81 56
REMARK SMILES IDX 48 57 49 58 62 60 82 61 51 62 36 63 37 64 45 65 38 66 44 67
REMARK SMILES IDX 39 68 40 69 41 70 42 71 43 72 66 73 67 74 75 75 68 76 74 77
REMARK SMILES IDX 69 78 70 79 71 80 72 81 73 82 52 83 53 84 61 85 54 86 60 87
REMARK SMILES IDX 55 88 56 89 57 90 58 91 59 92
REMARK H PARENT 20 6 9 15 24 29 80 48 50 59
REMARK Flexibility Score: inf
ROOT
ATOM      1  C   UNL A   1      33.912  27.943  25.847  1.00  0.00     0.042 C 
ENDROOT
BRANCH   1   2
ATOM      2  C   UNL A   1      33.550  26.522  25.437  1.00  0.00     0.117 C 
BRANCH   2   3
ATOM      3  N   UNL A   1      33.399  26.436  23.996  1.00  0.00    -0.354 N 
ATOM      4  C   UNL A   1      33.936  25.544  23.122  1.00  0.00     0.242 C 
ATOM      5  O   UNL A   1      33.980  25.872  21.932  1.00  0.00    -0.273 OA
ATOM      6  H   UNL A   1      32.824  27.125  23.592  1.00  0.00     0.163 HD
BRANCH   4   7
ATOM      7  C   UNL A   1      34.593  24.231  23.602  1.00  0.00     0.176 C 
ATOM      8  N   UNL A   1      33.742  23.005  23.579  1.00  0.00    -0.313 N 
ATOM      9  C   UNL A   1      34.232  21.858  24.341  1.00  0.00     0.122 C 
ATOM     10  C   UNL A   1      34.698  22.212  25.743  1.00  0.00     0.022 C 
ATOM     11  C   UNL A   1      35.171  24.533  25.004  1.00  0.00     0.035 C 
ATOM     12  C   UNL A   1      35.751  23.304  25.687  1.00  0.00     0.004 C 
BRANCH   8  13
ATOM     13  C   UNL A   1      32.672  22.738  22.747  1.00  0.00     0.322 C 
ATOM     14  N   UNL A   1      31.389  22.954  23.119  1.00  0.00    -0.305 N 
ATOM     15  H   UNL A   1      30.757  22.296  22.751  1.00  0.00     0.171 HD
ATOM     16  O   UNL A   1      32.844  22.194  21.651  1.00  0.00    -0.248 OA
BRANCH  14  17
ATOM     17  C   UNL A   1      30.781  23.932  23.921  1.00  0.00     0.082 A 
ATOM     18  C   UNL A   1      29.835  26.112  24.285  1.00  0.00     0.121 A 
ATOM     19  C   UNL A   1      29.856  25.918  25.667  1.00  0.00     0.049 A 
ATOM     20  C   UNL A   1      30.211  25.093  23.412  1.00  0.00     0.075 A 
ATOM     21  C   UNL A   1      30.298  24.701  26.179  1.00  0.00     0.045 A 
ATOM     22  C   UNL A   1      30.764  23.722  25.306  1.00  0.00     0.147 A 
ATOM     23  F   UNL A   1      31.243  22.574  25.812  1.00  0.00    -0.205 F 
BRANCH  18  24
ATOM     24  O   UNL A   1      29.468  27.308  23.730  1.00  0.00    -0.497 OA
ATOM     25  C   UNL A   1      28.043  27.384  23.605  1.00  0.00     0.278 C 
ENDBRANCH  18  24
ENDBRANCH  14  17
ENDBRANCH   8  13
ENDBRANCH   4   7
ENDBRANCH   2   3
ENDBRANCH   1   2
BRANCH   1  26
ATOM     26  C   UNL A   1      33.461  28.294  27.257  1.00  0.00     0.118 C 
BRANCH  26  27
ATOM     27  N   UNL A   1      33.391  29.732  27.474  1.00  0.00    -0.352 N 
ATOM     28  C   UNL A   1      34.330  30.564  28.038  1.00  0.00     0.251 C 
ATOM     29  H   UNL A   1      32.559  30.168  27.178  1.00  0.00     0.163 HD
ATOM     30  O   UNL A   1      34.045  31.712  28.336  1.00  0.00    -0.269 OA
BRANCH  28  31
ATOM     31  C   UNL A   1      35.684  30.030  28.296  1.00  0.00     0.039 A 
ATOM     32  C   UNL A   1      36.640  30.073  27.280  1.00  0.00     0.014 A 
ATOM     33  C   UNL A   1      36.011  29.535  29.561  1.00  0.00     0.014 A 
ATOM     34  C   UNL A   1      37.950  29.680  27.556  1.00  0.00     0.010 A 
ATOM     35  C   UNL A   1      37.332  29.227  29.857  1.00  0.00     0.010 A 
ATOM     36  C   UNL A   1      38.314  29.291  28.856  1.00  0.00    -0.014 A 
BRANCH  36  37
ATOM     37  C   UNL A   1      39.712  28.930  29.201  1.00  0.00     0.031 A 
ATOM     38  C   UNL A   1      40.606  29.955  29.844  1.00  0.00     0.074 A 
ATOM     39  C   UNL A   1      40.196  27.719  28.862  1.00  0.00     0.049 A 
ATOM     40  N   UNL A   1      41.882  29.879  30.121  1.00  0.00    -0.248 NA
ATOM     41  C   UNL A   1      39.992  31.248  30.193  1.00  0.00     0.031 C 
ATOM     42  C   UNL A   1      39.437  26.653  28.204  1.00  0.00     0.029 A 
ATOM     43  N   UNL A   1      41.451  27.185  29.016  1.00  0.00    -0.354 N 
ATOM     44  C   UNL A   1      42.226  31.116  30.652  1.00  0.00     0.074 A 
ATOM     45  C   UNL A   1      41.040  31.942  30.610  1.00  0.00     0.031 C 
ATOM     46  C   UNL A   1      40.234  25.585  28.033  1.00  0.00     0.029 A 
ATOM     47  C   UNL A   1      41.571  25.906  28.524  1.00  0.00     0.049 A 
ATOM     48  H   UNL A   1      42.196  27.671  29.438  1.00  0.00     0.167 HD
ATOM     49  C   UNL A   1      43.418  31.522  31.151  1.00  0.00     0.031 A 
ATOM     50  C   UNL A   1      42.640  25.087  28.464  1.00  0.00     0.031 A 
ATOM     51  C   UNL A   1      44.589  30.690  31.206  1.00  0.00     0.049 A 
ATOM     52  C   UNL A   1      43.958  25.566  29.010  1.00  0.00     0.074 A 
ATOM     53  C   UNL A   1      45.829  30.987  31.740  1.00  0.00     0.029 A 
ATOM     54  N   UNL A   1      44.663  29.397  30.712  1.00  0.00    -0.354 N 
ATOM     55  N   UNL A   1      44.250  26.721  29.561  1.00  0.00    -0.248 NA
ATOM     56  C   UNL A   1      45.088  24.630  28.935  1.00  0.00     0.031 C 
ATOM     57  C   UNL A   1      46.670  29.891  31.523  1.00  0.00     0.029 A 
ATOM     58  C   UNL A   1      45.936  28.889  30.909  1.00  0.00     0.049 A 
ATOM     59  H   UNL A   1      43.920  28.911  30.285  1.00  0.00     0.167 HD
ATOM     60  C   UNL A   1      45.589  26.637  29.927  1.00  0.00     0.074 A 
ATOM     61  C   UNL A   1      46.046  25.317  29.542  1.00  0.00     0.031 C 
ATOM     62  C   UNL A   1      46.369  27.569  30.528  1.00  0.00     0.031 A 
BRANCH  49  63
ATOM     63  C   UNL A   1      43.509  32.932  31.674  1.00  0.00    -0.014 A 
ATOM     64  C   UNL A   1      43.221  33.229  33.018  1.00  0.00     0.010 A 
ATOM     65  C   UNL A   1      43.922  33.969  30.818  1.00  0.00     0.010 A 
ATOM     66  C   UNL A   1      43.299  34.543  33.486  1.00  0.00     0.020 A 
ATOM     67  C   UNL A   1      44.032  35.280  31.290  1.00  0.00     0.020 A 
ATOM     68  C   UNL A   1      43.701  35.561  32.618  1.00  0.00     0.054 A 
BRANCH  68  69
ATOM     69  S   UNL A   1      43.814  37.254  33.258  1.00  0.00     0.124 S 
ATOM     70  O   UNL A   1      42.646  37.323  34.132  1.00  0.00    -0.237 OA
ATOM     71  O   UNL A   1      45.107  37.254  33.937  1.00  0.00    -0.237 OA
ATOM     72  O   UNL A   1      43.743  38.085  32.059  1.00  0.00    -0.744 OA
ENDBRANCH  68  69
ENDBRANCH  49  63
BRANCH  50  73
ATOM     73  C   UNL A   1      42.504  23.726  27.876  1.00  0.00    -0.014 A 
ATOM     74  C   UNL A   1      41.885  22.695  28.602  1.00  0.00     0.010 A 
ATOM     75  C   UNL A   1      42.987  23.455  26.582  1.00  0.00     0.010 A 
ATOM     76  C   UNL A   1      41.766  21.413  28.054  1.00  0.00     0.020 A 
ATOM     77  C   UNL A   1      42.845  22.183  26.020  1.00  0.00     0.020 A 
ATOM     78  C   UNL A   1      42.246  21.167  26.765  1.00  0.00     0.054 A 
BRANCH  78  79
ATOM     79  S   UNL A   1      42.041  19.509  26.057  1.00  0.00     0.124 S 
ATOM     80  O   UNL A   1      42.875  19.584  24.862  1.00  0.00    -0.237 OA
ATOM     81  O   UNL A   1      42.538  18.646  27.126  1.00  0.00    -0.237 OA
ATOM     82  O   UNL A   1      40.603  19.417  25.813  1.00  0.00    -0.744 OA
ENDBRANCH  78  79
ENDBRANCH  50  73
BRANCH  62  83
ATOM     83  C   UNL A   1      47.788  27.186  30.853  1.00  0.00    -0.014 A 
ATOM     84  C   UNL A   1      48.112  26.535  32.056  1.00  0.00     0.010 A 
ATOM     85  C   UNL A   1      48.798  27.413  29.900  1.00  0.00     0.010 A 
ATOM     86  C   UNL A   1      49.427  26.133  32.306  1.00  0.00     0.020 A 
ATOM     87  C   UNL A   1      50.107  26.987  30.135  1.00  0.00     0.020 A 
ATOM     88  C   UNL A   1      50.415  26.358  31.343  1.00  0.00     0.054 A 
BRANCH  88  89
ATOM     89  S   UNL A   1      52.099  25.766  31.665  1.00  0.00     0.124 S 
ATOM     90  O   UNL A   1      52.536  26.660  32.734  1.00  0.00    -0.237 OA
ATOM     91  O   UNL A   1      51.879  24.376  32.058  1.00  0.00    -0.237 OA
ATOM     92  O   UNL A   1      52.780  25.944  30.384  1.00  0.00    -0.744 OA
ENDBRANCH  88  89
ENDBRANCH  62  83
ENDBRANCH  36  37
ENDBRANCH  28  31
ENDBRANCH  26  27
ENDBRANCH   1  26
TORSDOF 16
ENDMDL
MODEL 3
REMARK VINA RESULT:     -11.0      2.428      2.930
REMARK SMILES COc1ccc(F)c(NC(=O)N2CCCC[C@@H]2C(=O)NCCCNC(=O)c2ccc(-c3c4nc(c(-c5ccc(S(=O)(=O)[O-])cc5)c5ccc([nH]5)c(-c5ccc(S(=O)(=O)[O-])cc5)c5nc(c(-c6ccc(S(=O)(=O)[O-])cc6)c6ccc3[nH]6)C=C5)C=C4)cc2)c1
REMARK SMILES IDX 22 1 21 2 20 3 18 4 19 5 17 7 12 8 13 9 14 10 16 11 15 12
REMARK SMILES IDX 10 13 9 14 11 16 8 17 3 18 4 19 87 20 5 21 6 22 7 23 2 24
REMARK SMILES IDX 1 25 23 26 24 27 25 28 26 30 27 31 28 32 86 33 29 34 85 35
REMARK SMILES IDX 30 36 31 37 32 38 79 39 33 40 84 41 78 42 80 43 34 44 83 45
REMARK SMILES IDX 77 46 76 47 35 49 65 50 46 51 64 52 47 53 50 54 63 55 81 56
REMARK SMILES IDX 48 57 49 58 62 60 82 61 51 62 36 63 37 64 45 65 38 66 44 67
REMARK SMILES IDX 39 68 40 69 41 70 42 71 43 72 66 73 67 74 75 75 68 76 74 77
REMARK SMILES IDX 69 78 70 79 71 80 72 81 73 82 52 83 53 84 61 85 54 86 60 87
REMARK SMILES IDX 55 88 56 89 57 90 58 91 59 92
REMARK H PARENT 20 6 9 15 24 29 80 48 50 59
REMARK Flexibility Score: inf
ROOT
ATOM      1  C   UNL A   1      33.756  26.957  25.139  1.00  0.00     0.042 C 
ENDROOT
BRANCH   1   2
ATOM      2  C   UNL A   1      33.567  25.474  25.427  1.00  0.00     0.117 C 
BRANCH   2   3
ATOM      3  N   UNL A   1      32.564  24.913  24.541  1.00  0.00    -0.354 N 
ATOM      4  C   UNL A   1      32.665  23.877  23.666  1.00  0.00     0.242 C 
ATOM      5  O   UNL A   1      31.823  23.811  22.765  1.00  0.00    -0.273 OA
ATOM      6  H   UNL A   1      31.680  25.346  24.578  1.00  0.00     0.163 HD
BRANCH   4   7
ATOM      7  C   UNL A   1      33.857  22.896  23.703  1.00  0.00     0.176 C 
ATOM      8  N   UNL A   1      34.011  22.070  24.937  1.00  0.00    -0.313 N 
ATOM      9  C   UNL A   1      35.303  21.410  25.121  1.00  0.00     0.122 C 
ATOM     10  C   UNL A   1      36.493  22.324  24.885  1.00  0.00     0.022 C 
ATOM     11  C   UNL A   1      35.113  23.741  23.387  1.00  0.00     0.035 C 
ATOM     12  C   UNL A   1      36.407  22.952  23.506  1.00  0.00     0.004 C 
BRANCH   8  13
ATOM     13  C   UNL A   1      33.020  21.663  25.807  1.00  0.00     0.322 C 
ATOM     14  N   UNL A   1      32.243  20.580  25.572  1.00  0.00    -0.305 N 
ATOM     15  H   UNL A   1      31.319  20.680  25.897  1.00  0.00     0.171 HD
ATOM     16  O   UNL A   1      32.737  22.336  26.804  1.00  0.00    -0.248 OA
BRANCH  14  17
ATOM     17  C   UNL A   1      32.492  19.343  24.958  1.00  0.00     0.082 A 
ATOM     18  C   UNL A   1      33.314  17.083  24.961  1.00  0.00     0.121 A 
ATOM     19  C   UNL A   1      33.227  17.023  23.570  1.00  0.00     0.049 A 
ATOM     20  C   UNL A   1      32.866  18.203  25.660  1.00  0.00     0.075 A 
ATOM     21  C   UNL A   1      32.721  18.115  22.869  1.00  0.00     0.045 A 
ATOM     22  C   UNL A   1      32.367  19.267  23.565  1.00  0.00     0.147 A 
ATOM     23  F   UNL A   1      31.936  20.337  22.876  1.00  0.00    -0.205 F 
BRANCH  18  24
ATOM     24  O   UNL A   1      33.858  16.064  25.695  1.00  0.00    -0.497 OA
ATOM     25  C   UNL A   1      35.210  15.822  25.288  1.00  0.00     0.278 C 
ENDBRANCH  18  24
ENDBRANCH  14  17
ENDBRANCH   8  13
ENDBRANCH   4   7
ENDBRANCH   2   3
ENDBRANCH   1   2
BRANCH   1  26
ATOM     26  C   UNL A   1      34.342  27.726  26.314  1.00  0.00     0.118 C 
BRANCH  26  27
ATOM     27  N   UNL A   1      33.829  29.086  26.396  1.00  0.00    -0.352 N 
ATOM     28  C   UNL A   1      34.253  30.118  27.202  1.00  0.00     0.251 C 
ATOM     29  H   UNL A   1      33.078  29.296  25.796  1.00  0.00     0.163 HD
ATOM     30  O   UNL A   1      33.593  31.139  27.303  1.00  0.00    -0.269 OA
BRANCH  28  31
ATOM     31  C   UNL A   1      35.511  29.953  27.961  1.00  0.00     0.039 A 
ATOM     32  C   UNL A   1      35.453  29.570  29.302  1.00  0.00     0.014 A 
ATOM     33  C   UNL A   1      36.741  30.131  27.323  1.00  0.00     0.014 A 
ATOM     34  C   UNL A   1      36.638  29.298  29.987  1.00  0.00     0.010 A 
ATOM     35  C   UNL A   1      37.911  29.777  27.980  1.00  0.00     0.010 A 
ATOM     36  C   UNL A   1      37.873  29.363  29.320  1.00  0.00    -0.014 A 
BRANCH  36  37
ATOM     37  C   UNL A   1      39.146  29.017  30.000  1.00  0.00     0.031 A 
ATOM     38  C   UNL A   1      39.579  29.801  31.210  1.00  0.00     0.074 A 
ATOM     39  C   UNL A   1      39.945  28.061  29.486  1.00  0.00     0.049 A 
ATOM     40  N   UNL A   1      40.701  29.733  31.878  1.00  0.00    -0.248 NA
ATOM     41  C   UNL A   1      38.640  30.818  31.714  1.00  0.00     0.031 C 
ATOM     42  C   UNL A   1      39.651  27.256  28.298  1.00  0.00     0.029 A 
ATOM     43  N   UNL A   1      41.176  27.614  29.892  1.00  0.00    -0.354 N 
ATOM     44  C   UNL A   1      40.611  30.710  32.863  1.00  0.00     0.074 A 
ATOM     45  C   UNL A   1      39.351  31.393  32.673  1.00  0.00     0.031 C 
ATOM     46  C   UNL A   1      40.662  26.396  28.087  1.00  0.00     0.029 A 
ATOM     47  C   UNL A   1      41.696  26.622  29.093  1.00  0.00     0.049 A 
ATOM     48  H   UNL A   1      41.646  27.969  30.681  1.00  0.00     0.167 HD
ATOM     49  C   UNL A   1      41.491  30.999  33.851  1.00  0.00     0.031 A 
ATOM     50  C   UNL A   1      42.876  25.974  29.155  1.00  0.00     0.031 A 
ATOM     51  C   UNL A   1      42.734  30.305  34.046  1.00  0.00     0.049 A 
ATOM     52  C   UNL A   1      43.844  26.324  30.253  1.00  0.00     0.074 A 
ATOM     53  C   UNL A   1      43.671  30.485  35.048  1.00  0.00     0.029 A 
ATOM     54  N   UNL A   1      43.213  29.297  33.224  1.00  0.00    -0.354 N 
ATOM     55  N   UNL A   1      43.716  27.213  31.210  1.00  0.00    -0.248 NA
ATOM     56  C   UNL A   1      45.109  25.578  30.285  1.00  0.00     0.031 C 
ATOM     57  C   UNL A   1      44.742  29.620  34.802  1.00  0.00     0.029 A 
ATOM     58  C   UNL A   1      44.444  28.860  33.683  1.00  0.00     0.049 A 
ATOM     59  H   UNL A   1      42.748  28.945  32.431  1.00  0.00     0.167 HD
ATOM     60  C   UNL A   1      44.872  27.110  31.976  1.00  0.00     0.074 A 
ATOM     61  C   UNL A   1      45.681  26.069  31.377  1.00  0.00     0.031 C 
ATOM     62  C   UNL A   1      45.230  27.814  33.078  1.00  0.00     0.031 A 
BRANCH  49  63
ATOM     63  C   UNL A   1      41.133  32.118  34.795  1.00  0.00    -0.014 A 
ATOM     64  C   UNL A   1      40.449  31.864  35.997  1.00  0.00     0.010 A 
ATOM     65  C   UNL A   1      41.517  33.437  34.492  1.00  0.00     0.010 A 
ATOM     66  C   UNL A   1      40.114  32.914  36.857  1.00  0.00     0.020 A 
ATOM     67  C   UNL A   1      41.212  34.486  35.364  1.00  0.00     0.020 A 
ATOM     68  C   UNL A   1      40.495  34.219  36.533  1.00  0.00     0.054 A 
BRANCH  68  69
ATOM     69  S   UNL A   1      40.066  35.557  37.678  1.00  0.00     0.124 S 
ATOM     70  O   UNL A   1      38.865  35.030  38.321  1.00  0.00    -0.237 OA
ATOM     71  O   UNL A   1      41.248  35.642  38.531  1.00  0.00    -0.237 OA
ATOM     72  O   UNL A   1      39.849  36.707  36.803  1.00  0.00    -0.744 OA
ENDBRANCH  68  69
ENDBRANCH  49  63
BRANCH  50  73
ATOM     73  C   UNL A   1      43.202  24.921  28.153  1.00  0.00    -0.014 A 
ATOM     74  C   UNL A   1      42.824  23.586  28.375  1.00  0.00     0.010 A 
ATOM     75  C   UNL A   1      43.885  25.249  26.968  1.00  0.00     0.010 A 
ATOM     76  C   UNL A   1      43.139  22.594  27.441  1.00  0.00     0.020 A 
ATOM     77  C   UNL A   1      44.177  24.266  26.018  1.00  0.00     0.020 A 
ATOM     78  C   UNL A   1      43.812  22.942  26.267  1.00  0.00     0.054 A 
BRANCH  78  79
ATOM     79  S   UNL A   1      44.170  21.646  25.047  1.00  0.00     0.124 S 
ATOM     80  O   UNL A   1      45.524  21.248  25.416  1.00  0.00    -0.237 OA
ATOM     81  O   UNL A   1      43.124  20.663  25.316  1.00  0.00    -0.237 OA
ATOM     82  O   UNL A   1      44.047  22.340  23.766  1.00  0.00    -0.744 OA
ENDBRANCH  78  79
ENDBRANCH  50  73
BRANCH  62  83
ATOM     83  C   UNL A   1      46.533  27.457  33.741  1.00  0.00    -0.014 A 
ATOM     84  C   UNL A   1      47.727  28.120  33.410  1.00  0.00     0.010 A 
ATOM     85  C   UNL A   1      46.542  26.498  34.770  1.00  0.00     0.010 A 
ATOM     86  C   UNL A   1      48.912  27.815  34.084  1.00  0.00     0.020 A 
ATOM     87  C   UNL A   1      47.720  26.211  35.466  1.00  0.00     0.020 A 
ATOM     88  C   UNL A   1      48.900  26.866  35.110  1.00  0.00     0.054 A 
BRANCH  88  89
ATOM     89  S   UNL A   1      50.438  26.539  36.015  1.00  0.00     0.124 S 
ATOM     90  O   UNL A   1      51.399  27.364  35.289  1.00  0.00    -0.237 OA
ATOM     91  O   UNL A   1      50.115  26.990  37.367  1.00  0.00    -0.237 OA
ATOM     92  O   UNL A   1      50.623  25.095  35.874  1.00  0.00    -0.744 OA
ENDBRANCH  88  89
ENDBRANCH  62  83
ENDBRANCH  36  37
ENDBRANCH  28  31
ENDBRANCH  26  27
ENDBRANCH   1  26
TORSDOF 16
ENDMDL
