MODEL 1
REMARK VINA RESULT:     -11.8      0.000      0.000
REMARK SMILES Cc1ccc(S(=O)(=O)Nc2cc3c(cc2C(=O)NCCCNC(=O)c2ccc(-c4c5nc(c(-c6ccc(S(=O)(=O)[O-])cc6)c6ccc([nH]6)c(-c6ccc(S(=O)(=O)[O-])cc6)c6nc(c(-c7ccc(S(=O)(=O)[O-])cc7)c7ccc4[nH]7)C=C6)C=C5)cc2)OCCO3)s1
REMARK SMILES IDX 20 1 19 2 18 3 16 4 17 5 15 7 10 8 11 9 12 10 14 11 13 12
REMARK SMILES IDX 88 13 85 14 87 15 86 16 9 17 6 19 7 20 8 21 5 22 1 23 2 24
REMARK SMILES IDX 3 25 89 26 4 27 21 28 22 29 23 30 24 32 25 33 26 34 84 35
REMARK SMILES IDX 27 36 83 37 28 38 29 39 30 40 77 41 31 42 82 43 76 44 78 45
REMARK SMILES IDX 32 46 81 47 75 48 74 49 33 51 63 52 44 53 62 54 45 55 48 56
REMARK SMILES IDX 61 57 79 58 46 59 47 60 60 62 80 63 49 64 34 65 35 66 43 67
REMARK SMILES IDX 36 68 42 69 37 70 38 71 39 72 40 73 41 74 64 75 65 76 73 77
REMARK SMILES IDX 66 78 72 79 67 80 68 81 69 82 70 83 71 84 50 85 51 86 59 87
REMARK SMILES IDX 52 88 58 89 53 90 54 91 55 92 56 93 57 94
REMARK H PARENT 18 6 9 18 22 31 78 50 48 61
REMARK Flexibility Score: inf
ROOT
ATOM      1  C   UNL A   1      33.255  28.536  24.830  1.00  0.00     0.042 C 
ENDROOT
BRANCH   1   2
ATOM      2  C   UNL A   1      34.008  27.872  23.686  1.00  0.00     0.118 C 
BRANCH   2   3
ATOM      3  N   UNL A   1      33.472  26.579  23.280  1.00  0.00    -0.352 N 
ATOM      4  C   UNL A   1      32.238  26.117  22.892  1.00  0.00     0.253 C 
ATOM      5  O   UNL A   1      32.187  24.947  22.510  1.00  0.00    -0.269 OA
ATOM      6  H   UNL A   1      34.155  25.870  23.285  1.00  0.00     0.163 HD
BRANCH   4   7
ATOM      7  C   UNL A   1      30.995  26.940  22.918  1.00  0.00     0.067 A 
ATOM      8  C   UNL A   1      29.876  26.540  23.689  1.00  0.00     0.066 A 
ATOM      9  C   UNL A   1      28.715  27.326  23.716  1.00  0.00     0.078 A 
ATOM     10  C   UNL A   1      28.663  28.516  22.994  1.00  0.00     0.163 A 
ATOM     11  C   UNL A   1      30.878  28.085  22.124  1.00  0.00     0.066 A 
ATOM     12  C   UNL A   1      29.755  28.902  22.218  1.00  0.00     0.162 A 
ATOM     13  O   UNL A   1      27.514  29.257  23.090  1.00  0.00    -0.486 OA
ATOM     14  O   UNL A   1      29.798  30.079  21.516  1.00  0.00    -0.486 OA
ATOM     15  C   UNL A   1      27.475  30.316  22.121  1.00  0.00     0.271 C 
ATOM     16  C   UNL A   1      28.826  31.005  22.019  1.00  0.00     0.271 C 
BRANCH   8  17
ATOM     17  N   UNL A   1      29.896  25.322  24.447  1.00  0.00    -0.278 N 
ATOM     18  H   UNL A   1      29.652  24.465  24.026  1.00  0.00     0.180 HD
BRANCH  17  19
ATOM     19  S   UNL A   1      30.342  25.389  26.072  1.00  0.00     0.271 S 
ATOM     20  O   UNL A   1      29.304  24.739  26.833  1.00  0.00    -0.200 OA
ATOM     21  O   UNL A   1      30.701  26.769  26.351  1.00  0.00    -0.200 OA
BRANCH  19  22
ATOM     22  C   UNL A   1      31.861  24.487  26.293  1.00  0.00     0.140 A 
ATOM     23  C   UNL A   1      34.098  21.469  27.426  1.00  0.00     0.056 C 
ATOM     24  C   UNL A   1      33.469  22.718  26.908  1.00  0.00     0.003 A 
ATOM     25  C   UNL A   1      34.100  23.858  26.454  1.00  0.00     0.016 A 
ATOM     26  S   UNL A   1      31.765  22.875  26.848  1.00  0.00    -0.127 S 
ATOM     27  C   UNL A   1      33.173  24.875  26.100  1.00  0.00     0.034 A 
ENDBRANCH  19  22
ENDBRANCH  17  19
ENDBRANCH   8  17
ENDBRANCH   4   7
ENDBRANCH   2   3
ENDBRANCH   1   2
BRANCH   1  28
ATOM     28  C   UNL A   1      34.033  28.658  26.133  1.00  0.00     0.118 C 
BRANCH  28  29
ATOM     29  N   UNL A   1      33.857  29.955  26.773  1.00  0.00    -0.352 N 
ATOM     30  C   UNL A   1      34.593  30.605  27.734  1.00  0.00     0.251 C 
ATOM     31  H   UNL A   1      33.068  30.455  26.461  1.00  0.00     0.163 HD
ATOM     32  O   UNL A   1      34.104  31.589  28.285  1.00  0.00    -0.269 OA
BRANCH  30  33
ATOM     33  C   UNL A   1      35.946  30.146  28.125  1.00  0.00     0.039 A 
ATOM     34  C   UNL A   1      36.971  30.180  27.170  1.00  0.00     0.014 A 
ATOM     35  C   UNL A   1      36.203  29.608  29.386  1.00  0.00     0.014 A 
ATOM     36  C   UNL A   1      38.253  29.730  27.498  1.00  0.00     0.010 A 
ATOM     37  C   UNL A   1      37.500  29.238  29.740  1.00  0.00     0.010 A 
ATOM     38  C   UNL A   1      38.537  29.281  28.797  1.00  0.00    -0.014 A 
BRANCH  38  39
ATOM     39  C   UNL A   1      39.899  28.835  29.190  1.00  0.00     0.031 A 
ATOM     40  C   UNL A   1      40.844  29.793  29.867  1.00  0.00     0.074 A 
ATOM     41  C   UNL A   1      40.322  27.601  28.856  1.00  0.00     0.049 A 
ATOM     42  N   UNL A   1      42.104  29.627  30.182  1.00  0.00    -0.248 NA
ATOM     43  C   UNL A   1      40.313  31.124  30.199  1.00  0.00     0.031 C 
ATOM     44  C   UNL A   1      39.526  26.595  28.150  1.00  0.00     0.029 A 
ATOM     45  N   UNL A   1      41.537  26.991  29.046  1.00  0.00    -0.354 N 
ATOM     46  C   UNL A   1      42.525  30.842  30.711  1.00  0.00     0.074 A 
ATOM     47  C   UNL A   1      41.396  31.745  30.639  1.00  0.00     0.031 C 
ATOM     48  C   UNL A   1      40.270  25.493  27.972  1.00  0.00     0.029 A 
ATOM     49  C   UNL A   1      41.603  25.723  28.521  1.00  0.00     0.049 A 
ATOM     50  H   UNL A   1      42.288  27.421  29.514  1.00  0.00     0.167 HD
ATOM     51  C   UNL A   1      43.735  31.174  31.224  1.00  0.00     0.031 A 
ATOM     52  C   UNL A   1      42.624  24.845  28.472  1.00  0.00     0.031 A 
ATOM     53  C   UNL A   1      44.848  30.268  31.321  1.00  0.00     0.049 A 
ATOM     54  C   UNL A   1      43.942  25.211  29.091  1.00  0.00     0.074 A 
ATOM     55  C   UNL A   1      46.089  30.484  31.893  1.00  0.00     0.029 A 
ATOM     56  N   UNL A   1      44.853  28.970  30.831  1.00  0.00    -0.354 N 
ATOM     57  N   UNL A   1      44.299  26.342  29.651  1.00  0.00    -0.248 NA
ATOM     58  C   UNL A   1      44.988  24.179  29.084  1.00  0.00     0.031 C 
ATOM     59  C   UNL A   1      46.858  29.327  31.718  1.00  0.00     0.029 A 
ATOM     60  C   UNL A   1      46.080  28.377  31.074  1.00  0.00     0.049 A 
ATOM     61  H   UNL A   1      44.095  28.535  30.379  1.00  0.00     0.167 HD
ATOM     62  C   UNL A   1      45.609  26.155  30.077  1.00  0.00     0.074 A 
ATOM     63  C   UNL A   1      45.974  24.797  29.723  1.00  0.00     0.031 C 
ATOM     64  C   UNL A   1      46.433  27.029  30.705  1.00  0.00     0.031 A 
BRANCH  51  65
ATOM     65  C   UNL A   1      43.908  32.592  31.701  1.00  0.00    -0.014 A 
ATOM     66  C   UNL A   1      44.499  33.571  30.881  1.00  0.00     0.010 A 
ATOM     67  C   UNL A   1      43.490  32.948  32.997  1.00  0.00     0.010 A 
ATOM     68  C   UNL A   1      44.735  34.858  31.372  1.00  0.00     0.020 A 
ATOM     69  C   UNL A   1      43.699  34.243  33.482  1.00  0.00     0.020 A 
ATOM     70  C   UNL A   1      44.347  35.181  32.675  1.00  0.00     0.054 A 
BRANCH  70  71
ATOM     71  S   UNL A   1      44.692  36.847  33.305  1.00  0.00     0.124 S 
ATOM     72  O   UNL A   1      43.388  37.243  33.831  1.00  0.00    -0.237 OA
ATOM     73  O   UNL A   1      45.725  36.607  34.309  1.00  0.00    -0.237 OA
ATOM     74  O   UNL A   1      45.136  37.578  32.120  1.00  0.00    -0.744 OA
ENDBRANCH  70  71
ENDBRANCH  51  65
BRANCH  52  75
ATOM     75  C   UNL A   1      42.411  23.524  27.823  1.00  0.00    -0.014 A 
ATOM     76  C   UNL A   1      42.788  23.321  26.485  1.00  0.00     0.010 A 
ATOM     77  C   UNL A   1      41.906  22.442  28.567  1.00  0.00     0.010 A 
ATOM     78  C   UNL A   1      42.675  22.055  25.904  1.00  0.00     0.020 A 
ATOM     79  C   UNL A   1      41.810  21.171  27.995  1.00  0.00     0.020 A 
ATOM     80  C   UNL A   1      42.196  20.985  26.666  1.00  0.00     0.054 A 
BRANCH  80  81
ATOM     81  S   UNL A   1      42.167  19.326  25.929  1.00  0.00     0.124 S 
ATOM     82  O   UNL A   1      42.696  18.503  27.011  1.00  0.00    -0.237 OA
ATOM     83  O   UNL A   1      40.750  19.140  25.625  1.00  0.00    -0.237 OA
ATOM     84  O   UNL A   1      43.032  19.460  24.759  1.00  0.00    -0.744 OA
ENDBRANCH  80  81
ENDBRANCH  52  75
BRANCH  64  85
ATOM     85  C   UNL A   1      47.810  26.542  31.066  1.00  0.00    -0.014 A 
ATOM     86  C   UNL A   1      48.899  26.748  30.200  1.00  0.00     0.010 A 
ATOM     87  C   UNL A   1      48.025  25.919  32.307  1.00  0.00     0.010 A 
ATOM     88  C   UNL A   1      50.177  26.316  30.562  1.00  0.00     0.020 A 
ATOM     89  C   UNL A   1      49.306  25.506  32.682  1.00  0.00     0.020 A 
ATOM     90  C   UNL A   1      50.372  25.696  31.800  1.00  0.00     0.054 A 
BRANCH  90  91
ATOM     91  S   UNL A   1      52.049  25.184  32.269  1.00  0.00     0.124 S 
ATOM     92  O   UNL A   1      51.892  23.740  32.425  1.00  0.00    -0.237 OA
ATOM     93  O   UNL A   1      52.849  25.609  31.124  1.00  0.00    -0.237 OA
ATOM     94  O   UNL A   1      52.302  25.921  33.505  1.00  0.00    -0.744 OA
ENDBRANCH  90  91
ENDBRANCH  64  85
ENDBRANCH  38  39
ENDBRANCH  30  33
ENDBRANCH  28  29
ENDBRANCH   1  28
TORSDOF 16
ENDMDL
MODEL 2
REMARK VINA RESULT:     -11.8      1.393      3.842
REMARK SMILES Cc1ccc(S(=O)(=O)Nc2cc3c(cc2C(=O)NCCCNC(=O)c2ccc(-c4c5nc(c(-c6ccc(S(=O)(=O)[O-])cc6)c6ccc([nH]6)c(-c6ccc(S(=O)(=O)[O-])cc6)c6nc(c(-c7ccc(S(=O)(=O)[O-])cc7)c7ccc4[nH]7)C=C6)C=C5)cc2)OCCO3)s1
REMARK SMILES IDX 20 1 19 2 18 3 16 4 17 5 15 7 10 8 11 9 12 10 14 11 13 12
REMARK SMILES IDX 88 13 85 14 87 15 86 16 9 17 6 19 7 20 8 21 5 22 1 23 2 24
REMARK SMILES IDX 3 25 89 26 4 27 21 28 22 29 23 30 24 32 25 33 26 34 84 35
REMARK SMILES IDX 27 36 83 37 28 38 29 39 30 40 77 41 31 42 82 43 76 44 78 45
REMARK SMILES IDX 32 46 81 47 75 48 74 49 33 51 63 52 44 53 62 54 45 55 48 56
REMARK SMILES IDX 61 57 79 58 46 59 47 60 60 62 80 63 49 64 34 65 35 66 43 67
REMARK SMILES IDX 36 68 42 69 37 70 38 71 39 72 40 73 41 74 64 75 65 76 73 77
REMARK SMILES IDX 66 78 72 79 67 80 68 81 69 82 70 83 71 84 50 85 51 86 59 87
REMARK SMILES IDX 52 88 58 89 53 90 54 91 55 92 56 93 57 94
REMARK H PARENT 18 6 9 18 22 31 78 50 48 61
REMARK Flexibility Score: inf
ROOT
ATOM      1  C   UNL A   1      33.203  27.567  26.698  1.00  0.00     0.042 C 
ENDROOT
BRANCH   1   2
ATOM      2  C   UNL A   1      31.708  27.510  26.418  1.00  0.00     0.118 C 
BRANCH   2   3
ATOM      3  N   UNL A   1      31.089  26.221  26.700  1.00  0.00    -0.352 N 
ATOM      4  C   UNL A   1      31.376  24.915  26.385  1.00  0.00     0.253 C 
ATOM      5  O   UNL A   1      30.660  24.057  26.903  1.00  0.00    -0.269 OA
ATOM      6  H   UNL A   1      30.272  26.306  27.243  1.00  0.00     0.163 HD
BRANCH   4   7
ATOM      7  C   UNL A   1      32.476  24.503  25.466  1.00  0.00     0.067 A 
ATOM      8  C   UNL A   1      32.353  24.674  24.065  1.00  0.00     0.066 A 
ATOM      9  C   UNL A   1      33.398  24.292  23.210  1.00  0.00     0.078 A 
ATOM     10  C   UNL A   1      34.570  23.757  23.738  1.00  0.00     0.163 A 
ATOM     11  C   UNL A   1      33.620  23.870  25.959  1.00  0.00     0.066 A 
ATOM     12  C   UNL A   1      34.685  23.569  25.114  1.00  0.00     0.162 A 
ATOM     13  O   UNL A   1      35.566  23.438  22.853  1.00  0.00    -0.486 OA
ATOM     14  O   UNL A   1      35.822  23.091  25.714  1.00  0.00    -0.486 OA
ATOM     15  C   UNL A   1      36.611  22.672  23.472  1.00  0.00     0.271 C 
ATOM     16  C   UNL A   1      36.952  23.233  24.843  1.00  0.00     0.271 C 
BRANCH   8  17
ATOM     17  N   UNL A   1      31.161  25.224  23.487  1.00  0.00    -0.278 N 
ATOM     18  H   UNL A   1      30.289  24.786  23.622  1.00  0.00     0.180 HD
BRANCH  17  19
ATOM     19  S   UNL A   1      31.285  26.635  22.571  1.00  0.00     0.271 S 
ATOM     20  O   UNL A   1      31.325  26.247  21.182  1.00  0.00    -0.200 OA
ATOM     21  O   UNL A   1      32.370  27.413  23.145  1.00  0.00    -0.200 OA
BRANCH  19  22
ATOM     22  C   UNL A   1      29.836  27.631  22.842  1.00  0.00     0.140 A 
ATOM     23  C   UNL A   1      27.754  30.953  22.991  1.00  0.00     0.056 C 
ATOM     24  C   UNL A   1      28.324  29.576  23.003  1.00  0.00     0.003 A 
ATOM     25  C   UNL A   1      27.737  28.422  23.480  1.00  0.00     0.016 A 
ATOM     26  S   UNL A   1      29.898  29.279  22.400  1.00  0.00    -0.127 S 
ATOM     27  C   UNL A   1      28.609  27.303  23.386  1.00  0.00     0.034 A 
ENDBRANCH  19  22
ENDBRANCH  17  19
ENDBRANCH   8  17
ENDBRANCH   4   7
ENDBRANCH   2   3
ENDBRANCH   1   2
BRANCH   1  28
ATOM     28  C   UNL A   1      33.946  28.708  26.017  1.00  0.00     0.118 C 
BRANCH  28  29
ATOM     29  N   UNL A   1      33.734  29.990  26.676  1.00  0.00    -0.352 N 
ATOM     30  C   UNL A   1      34.435  30.634  27.665  1.00  0.00     0.251 C 
ATOM     31  H   UNL A   1      32.944  30.482  26.354  1.00  0.00     0.163 HD
ATOM     32  O   UNL A   1      33.917  31.600  28.222  1.00  0.00    -0.269 OA
BRANCH  30  33
ATOM     33  C   UNL A   1      35.786  30.191  28.080  1.00  0.00     0.039 A 
ATOM     34  C   UNL A   1      36.821  30.210  27.136  1.00  0.00     0.014 A 
ATOM     35  C   UNL A   1      36.032  29.680  29.355  1.00  0.00     0.014 A 
ATOM     36  C   UNL A   1      38.103  29.774  27.488  1.00  0.00     0.010 A 
ATOM     37  C   UNL A   1      37.326  29.324  29.731  1.00  0.00     0.010 A 
ATOM     38  C   UNL A   1      38.374  29.354  28.798  1.00  0.00    -0.014 A 
BRANCH  38  39
ATOM     39  C   UNL A   1      39.734  28.923  29.216  1.00  0.00     0.031 A 
ATOM     40  C   UNL A   1      40.653  29.890  29.915  1.00  0.00     0.074 A 
ATOM     41  C   UNL A   1      40.179  27.696  28.885  1.00  0.00     0.049 A 
ATOM     42  N   UNL A   1      41.909  29.738  30.254  1.00  0.00    -0.248 NA
ATOM     43  C   UNL A   1      40.098  31.212  30.243  1.00  0.00     0.031 C 
ATOM     44  C   UNL A   1      39.409  26.684  28.158  1.00  0.00     0.029 A 
ATOM     45  N   UNL A   1      41.397  27.100  29.096  1.00  0.00    -0.354 N 
ATOM     46  C   UNL A   1      42.304  30.955  30.797  1.00  0.00     0.074 A 
ATOM     47  C   UNL A   1      41.165  31.845  30.707  1.00  0.00     0.031 C 
ATOM     48  C   UNL A   1      40.171  25.591  27.990  1.00  0.00     0.029 A 
ATOM     49  C   UNL A   1      41.490  25.836  28.566  1.00  0.00     0.049 A 
ATOM     50  H   UNL A   1      42.134  27.537  29.580  1.00  0.00     0.167 HD
ATOM     51  C   UNL A   1      43.500  31.301  31.334  1.00  0.00     0.031 A 
ATOM     52  C   UNL A   1      42.522  24.970  28.533  1.00  0.00     0.031 A 
ATOM     53  C   UNL A   1      44.622  30.408  31.448  1.00  0.00     0.049 A 
ATOM     54  C   UNL A   1      43.824  25.350  29.178  1.00  0.00     0.074 A 
ATOM     55  C   UNL A   1      45.849  30.637  32.045  1.00  0.00     0.029 A 
ATOM     56  N   UNL A   1      44.653  29.112  30.953  1.00  0.00    -0.354 N 
ATOM     57  N   UNL A   1      44.155  26.483  29.750  1.00  0.00    -0.248 NA
ATOM     58  C   UNL A   1      44.882  24.332  29.187  1.00  0.00     0.031 C 
ATOM     59  C   UNL A   1      46.636  29.491  31.880  1.00  0.00     0.029 A 
ATOM     60  C   UNL A   1      45.883  28.534  31.217  1.00  0.00     0.049 A 
ATOM     61  H   UNL A   1      43.909  28.670  30.484  1.00  0.00     0.167 HD
ATOM     62  C   UNL A   1      45.459  26.310  30.201  1.00  0.00     0.074 A 
ATOM     63  C   UNL A   1      45.849  24.959  29.848  1.00  0.00     0.031 C 
ATOM     64  C   UNL A   1      46.260  27.192  30.849  1.00  0.00     0.031 A 
BRANCH  51  65
ATOM     65  C   UNL A   1      43.646  32.718  31.821  1.00  0.00    -0.014 A 
ATOM     66  C   UNL A   1      44.312  33.689  31.050  1.00  0.00     0.010 A 
ATOM     67  C   UNL A   1      43.124  33.081  33.077  1.00  0.00     0.010 A 
ATOM     68  C   UNL A   1      44.518  34.975  31.556  1.00  0.00     0.020 A 
ATOM     69  C   UNL A   1      43.304  34.376  33.574  1.00  0.00     0.020 A 
ATOM     70  C   UNL A   1      44.026  35.306  32.822  1.00  0.00     0.054 A 
BRANCH  70  71
ATOM     71  S   UNL A   1      44.333  36.971  33.475  1.00  0.00     0.124 S 
ATOM     72  O   UNL A   1      43.066  37.269  34.138  1.00  0.00    -0.237 OA
ATOM     73  O   UNL A   1      45.472  36.765  34.365  1.00  0.00    -0.237 OA
ATOM     74  O   UNL A   1      44.614  37.763  32.280  1.00  0.00    -0.744 OA
ENDBRANCH  70  71
ENDBRANCH  51  65
BRANCH  52  75
ATOM     75  C   UNL A   1      42.338  23.650  27.874  1.00  0.00    -0.014 A 
ATOM     76  C   UNL A   1      42.772  23.449  26.552  1.00  0.00     0.010 A 
ATOM     77  C   UNL A   1      41.804  22.567  28.594  1.00  0.00     0.010 A 
ATOM     78  C   UNL A   1      42.685  22.184  25.965  1.00  0.00     0.020 A 
ATOM     79  C   UNL A   1      41.734  21.296  28.018  1.00  0.00     0.020 A 
ATOM     80  C   UNL A   1      42.176  21.112  26.706  1.00  0.00     0.054 A 
BRANCH  80  81
ATOM     81  S   UNL A   1      42.180  19.455  25.966  1.00  0.00     0.124 S 
ATOM     82  O   UNL A   1      43.095  19.624  24.843  1.00  0.00    -0.237 OA
ATOM     83  O   UNL A   1      42.669  18.620  27.062  1.00  0.00    -0.237 OA
ATOM     84  O   UNL A   1      40.779  19.239  25.610  1.00  0.00    -0.744 OA
ENDBRANCH  80  81
ENDBRANCH  52  75
BRANCH  64  85
ATOM     85  C   UNL A   1      47.635  26.721  31.233  1.00  0.00    -0.014 A 
ATOM     86  C   UNL A   1      47.829  25.892  32.352  1.00  0.00     0.010 A 
ATOM     87  C   UNL A   1      48.739  27.069  30.436  1.00  0.00     0.010 A 
ATOM     88  C   UNL A   1      49.109  25.438  32.680  1.00  0.00     0.020 A 
ATOM     89  C   UNL A   1      50.018  26.600  30.747  1.00  0.00     0.020 A 
ATOM     90  C   UNL A   1      50.196  25.798  31.877  1.00  0.00     0.054 A 
BRANCH  90  91
ATOM     91  S   UNL A   1      51.843  25.160  32.294  1.00  0.00     0.124 S 
ATOM     92  O   UNL A   1      51.577  23.738  32.488  1.00  0.00    -0.237 OA
ATOM     93  O   UNL A   1      52.629  25.496  31.109  1.00  0.00    -0.237 OA
ATOM     94  O   UNL A   1      52.203  25.899  33.501  1.00  0.00    -0.744 OA
ENDBRANCH  90  91
ENDBRANCH  64  85
ENDBRANCH  38  39
ENDBRANCH  30  33
ENDBRANCH  28  29
ENDBRANCH   1  28
TORSDOF 16
ENDMDL
MODEL 3
REMARK VINA RESULT:     -11.7      4.772     10.596
REMARK SMILES Cc1ccc(S(=O)(=O)Nc2cc3c(cc2C(=O)NCCCNC(=O)c2ccc(-c4c5nc(c(-c6ccc(S(=O)(=O)[O-])cc6)c6ccc([nH]6)c(-c6ccc(S(=O)(=O)[O-])cc6)c6nc(c(-c7ccc(S(=O)(=O)[O-])cc7)c7ccc4[nH]7)C=C6)C=C5)cc2)OCCO3)s1
REMARK SMILES IDX 20 1 19 2 18 3 16 4 17 5 15 7 10 8 11 9 12 10 14 11 13 12
REMARK SMILES IDX 88 13 85 14 87 15 86 16 9 17 6 19 7 20 8 21 5 22 1 23 2 24
REMARK SMILES IDX 3 25 89 26 4 27 21 28 22 29 23 30 24 32 25 33 26 34 84 35
REMARK SMILES IDX 27 36 83 37 28 38 29 39 30 40 77 41 31 42 82 43 76 44 78 45
REMARK SMILES IDX 32 46 81 47 75 48 74 49 33 51 63 52 44 53 62 54 45 55 48 56
REMARK SMILES IDX 61 57 79 58 46 59 47 60 60 62 80 63 49 64 34 65 35 66 43 67
REMARK SMILES IDX 36 68 42 69 37 70 38 71 39 72 40 73 41 74 64 75 65 76 73 77
REMARK SMILES IDX 66 78 72 79 67 80 68 81 69 82 70 83 71 84 50 85 51 86 59 87
REMARK SMILES IDX 52 88 58 89 53 90 54 91 55 92 56 93 57 94
REMARK H PARENT 18 6 9 18 22 31 78 50 48 61
REMARK Flexibility Score: inf
ROOT
ATOM      1  C   UNL A   1      37.662  23.573  25.427  1.00  0.00     0.042 C 
ENDROOT
BRANCH   1   2
ATOM      2  C   UNL A   1      36.839  22.360  25.838  1.00  0.00     0.118 C 
BRANCH   2   3
ATOM      3  N   UNL A   1      35.654  22.672  26.626  1.00  0.00    -0.352 N 
ATOM      4  C   UNL A   1      34.331  22.304  26.581  1.00  0.00     0.253 C 
ATOM      5  O   UNL A   1      33.621  22.700  27.506  1.00  0.00    -0.269 OA
ATOM      6  H   UNL A   1      35.847  23.293  27.366  1.00  0.00     0.163 HD
BRANCH   4   7
ATOM      7  C   UNL A   1      33.734  21.480  25.490  1.00  0.00     0.067 A 
ATOM      8  C   UNL A   1      32.942  22.078  24.480  1.00  0.00     0.066 A 
ATOM      9  C   UNL A   1      32.393  21.295  23.454  1.00  0.00     0.078 A 
ATOM     10  C   UNL A   1      32.638  19.925  23.415  1.00  0.00     0.163 A 
ATOM     11  C   UNL A   1      33.879  20.090  25.484  1.00  0.00     0.066 A 
ATOM     12  C   UNL A   1      33.401  19.331  24.419  1.00  0.00     0.162 A 
ATOM     13  O   UNL A   1      32.104  19.223  22.367  1.00  0.00    -0.486 OA
ATOM     14  O   UNL A   1      33.724  17.998  24.427  1.00  0.00    -0.486 OA
ATOM     15  C   UNL A   1      32.206  17.804  22.563  1.00  0.00     0.271 C 
ATOM     16  C   UNL A   1      33.570  17.432  23.120  1.00  0.00     0.271 C 
BRANCH   8  17
ATOM     17  N   UNL A   1      32.671  23.486  24.487  1.00  0.00    -0.278 N 
ATOM     18  H   UNL A   1      32.086  23.881  25.174  1.00  0.00     0.180 HD
BRANCH  17  19
ATOM     19  S   UNL A   1      33.372  24.450  23.293  1.00  0.00     0.271 S 
ATOM     20  O   UNL A   1      32.448  24.509  22.187  1.00  0.00    -0.200 OA
ATOM     21  O   UNL A   1      34.722  23.952  23.094  1.00  0.00    -0.200 OA
BRANCH  19  22
ATOM     22  C   UNL A   1      33.599  26.094  23.935  1.00  0.00     0.140 A 
ATOM     23  C   UNL A   1      33.847  28.845  26.721  1.00  0.00     0.056 C 
ATOM     24  C   UNL A   1      33.805  27.993  25.499  1.00  0.00     0.003 A 
ATOM     25  C   UNL A   1      33.814  28.403  24.181  1.00  0.00     0.016 A 
ATOM     26  S   UNL A   1      33.709  26.289  25.628  1.00  0.00    -0.127 S 
ATOM     27  C   UNL A   1      33.696  27.308  23.283  1.00  0.00     0.034 A 
ENDBRANCH  19  22
ENDBRANCH  17  19
ENDBRANCH   8  17
ENDBRANCH   4   7
ENDBRANCH   2   3
ENDBRANCH   1   2
BRANCH   1  28
ATOM     28  C   UNL A   1      38.560  24.146  26.514  1.00  0.00     0.118 C 
BRANCH  28  29
ATOM     29  N   UNL A   1      39.972  24.105  26.157  1.00  0.00    -0.352 N 
ATOM     30  C   UNL A   1      41.018  24.933  26.480  1.00  0.00     0.251 C 
ATOM     31  H   UNL A   1      40.219  23.348  25.578  1.00  0.00     0.163 HD
ATOM     32  O   UNL A   1      42.072  24.823  25.857  1.00  0.00    -0.269 OA
BRANCH  30  33
ATOM     33  C   UNL A   1      40.905  25.955  27.547  1.00  0.00     0.039 A 
ATOM     34  C   UNL A   1      39.919  25.797  28.530  1.00  0.00     0.014 A 
ATOM     35  C   UNL A   1      41.696  27.105  27.550  1.00  0.00     0.014 A 
ATOM     36  C   UNL A   1      39.768  26.756  29.536  1.00  0.00     0.010 A 
ATOM     37  C   UNL A   1      41.603  28.018  28.599  1.00  0.00     0.010 A 
ATOM     38  C   UNL A   1      40.629  27.862  29.597  1.00  0.00    -0.014 A 
BRANCH  38  39
ATOM     39  C   UNL A   1      40.523  28.878  30.676  1.00  0.00     0.031 A 
ATOM     40  C   UNL A   1      41.380  28.765  31.909  1.00  0.00     0.074 A 
ATOM     41  C   UNL A   1      39.591  29.847  30.594  1.00  0.00     0.049 A 
ATOM     42  N   UNL A   1      41.352  29.484  33.004  1.00  0.00    -0.248 NA
ATOM     43  C   UNL A   1      42.374  27.681  31.928  1.00  0.00     0.031 C 
ATOM     44  C   UNL A   1      38.659  30.034  29.480  1.00  0.00     0.029 A 
ATOM     45  N   UNL A   1      39.259  30.844  31.477  1.00  0.00    -0.354 N 
ATOM     46  C   UNL A   1      42.293  28.914  33.854  1.00  0.00     0.074 A 
ATOM     47  C   UNL A   1      42.846  27.769  33.162  1.00  0.00     0.031 C 
ATOM     48  C   UNL A   1      37.866  31.084  29.744  1.00  0.00     0.029 A 
ATOM     49  C   UNL A   1      38.210  31.624  31.056  1.00  0.00     0.049 A 
ATOM     50  H   UNL A   1      39.728  30.986  32.331  1.00  0.00     0.167 HD
ATOM     51  C   UNL A   1      42.674  29.313  35.093  1.00  0.00     0.031 A 
ATOM     52  C   UNL A   1      37.582  32.653  31.659  1.00  0.00     0.031 A 
ATOM     53  C   UNL A   1      42.144  30.467  35.768  1.00  0.00     0.049 A 
ATOM     54  C   UNL A   1      38.051  33.114  33.009  1.00  0.00     0.074 A 
ATOM     55  C   UNL A   1      42.518  30.998  36.990  1.00  0.00     0.029 A 
ATOM     56  N   UNL A   1      41.122  31.268  35.278  1.00  0.00    -0.354 N 
ATOM     57  N   UNL A   1      38.992  32.604  33.768  1.00  0.00    -0.248 NA
ATOM     58  C   UNL A   1      37.386  34.294  33.576  1.00  0.00     0.031 C 
ATOM     59  C   UNL A   1      41.697  32.102  37.255  1.00  0.00     0.029 A 
ATOM     60  C   UNL A   1      40.842  32.281  36.179  1.00  0.00     0.049 A 
ATOM     61  H   UNL A   1      40.666  31.136  34.416  1.00  0.00     0.167 HD
ATOM     62  C   UNL A   1      39.042  33.412  34.899  1.00  0.00     0.074 A 
ATOM     63  C   UNL A   1      38.047  34.450  34.716  1.00  0.00     0.031 C 
ATOM     64  C   UNL A   1      39.841  33.301  35.989  1.00  0.00     0.031 A 
BRANCH  51  65
ATOM     65  C   UNL A   1      43.707  28.471  35.794  1.00  0.00    -0.014 A 
ATOM     66  C   UNL A   1      43.333  27.393  36.618  1.00  0.00     0.010 A 
ATOM     67  C   UNL A   1      45.073  28.771  35.640  1.00  0.00     0.010 A 
ATOM     68  C   UNL A   1      44.298  26.680  37.333  1.00  0.00     0.020 A 
ATOM     69  C   UNL A   1      46.045  28.041  36.331  1.00  0.00     0.020 A 
ATOM     70  C   UNL A   1      45.648  27.019  37.196  1.00  0.00     0.054 A 
BRANCH  70  71
ATOM     71  S   UNL A   1      46.883  26.102  38.158  1.00  0.00     0.124 S 
ATOM     72  O   UNL A   1      47.735  27.180  38.653  1.00  0.00    -0.237 OA
ATOM     73  O   UNL A   1      46.073  25.429  39.171  1.00  0.00    -0.237 OA
ATOM     74  O   UNL A   1      47.502  25.219  37.172  1.00  0.00    -0.744 OA
ENDBRANCH  70  71
ENDBRANCH  51  65
BRANCH  52  75
ATOM     75  C   UNL A   1      36.451  33.319  30.961  1.00  0.00    -0.014 A 
ATOM     76  C   UNL A   1      35.186  33.393  31.567  1.00  0.00     0.010 A 
ATOM     77  C   UNL A   1      36.658  33.955  29.723  1.00  0.00     0.010 A 
ATOM     78  C   UNL A   1      34.148  34.100  30.954  1.00  0.00     0.020 A 
ATOM     79  C   UNL A   1      35.629  34.680  29.116  1.00  0.00     0.020 A 
ATOM     80  C   UNL A   1      34.380  34.748  29.737  1.00  0.00     0.054 A 
BRANCH  80  81
ATOM     81  S   UNL A   1      33.055  35.758  29.014  1.00  0.00     0.124 S 
ATOM     82  O   UNL A   1      32.319  36.187  30.198  1.00  0.00    -0.237 OA
ATOM     83  O   UNL A   1      33.799  36.804  28.316  1.00  0.00    -0.237 OA
ATOM     84  O   UNL A   1      32.352  34.820  28.141  1.00  0.00    -0.744 OA
ENDBRANCH  80  81
ENDBRANCH  52  75
BRANCH  64  85
ATOM     85  C   UNL A   1      39.685  34.338  37.067  1.00  0.00    -0.014 A 
ATOM     86  C   UNL A   1      38.927  34.072  38.221  1.00  0.00     0.010 A 
ATOM     87  C   UNL A   1      40.346  35.573  36.946  1.00  0.00     0.010 A 
ATOM     88  C   UNL A   1      38.816  35.035  39.228  1.00  0.00     0.020 A 
ATOM     89  C   UNL A   1      40.255  36.529  37.960  1.00  0.00     0.020 A 
ATOM     90  C   UNL A   1      39.478  36.259  39.089  1.00  0.00     0.054 A 
BRANCH  90  91
ATOM     91  S   UNL A   1      39.357  37.477  40.429  1.00  0.00     0.124 S 
ATOM     92  O   UNL A   1      38.999  36.639  41.569  1.00  0.00    -0.237 OA
ATOM     93  O   UNL A   1      40.700  38.050  40.466  1.00  0.00    -0.237 OA
ATOM     94  O   UNL A   1      38.312  38.389  39.971  1.00  0.00    -0.744 OA
ENDBRANCH  90  91
ENDBRANCH  64  85
ENDBRANCH  38  39
ENDBRANCH  30  33
ENDBRANCH  28  29
ENDBRANCH   1  28
TORSDOF 16
ENDMDL
