MODEL 1
REMARK VINA RESULT:     -11.4      0.000      0.000
REMARK SMILES COc1ccc(C(=O)c2ccccc2)cc1[C@@H](C)C(=O)NCCCNC(=O)c1ccc(-c2c3nc(c(-c4ccc(S(=O)(=O)[O-])cc4)c4ccc([nH]4)c(-c4ccc(S(=O)(=O)[O-])cc4)c4nc(c(-c5ccc(S(=O)(=O)[O-])cc5)c5ccc2[nH]5)C=C4)C=C3)cc1
REMARK SMILES IDX 23 1 22 2 21 3 19 4 20 5 17 7 18 8 16 9 3 10 4 11 5 12 15 13
REMARK SMILES IDX 6 14 2 15 1 16 7 17 8 18 9 19 10 20 14 21 11 22 13 23 12 24
REMARK SMILES IDX 24 25 25 26 26 27 27 29 28 30 29 31 87 32 30 33 86 34 31 35
REMARK SMILES IDX 32 36 33 37 80 38 34 39 85 40 79 41 81 42 35 43 84 44 78 45
REMARK SMILES IDX 77 46 36 48 66 49 47 50 65 51 48 52 51 53 64 54 82 55 49 56
REMARK SMILES IDX 50 57 63 59 83 60 52 61 37 62 38 63 46 64 39 65 45 66 40 67
REMARK SMILES IDX 41 68 42 69 43 70 44 71 67 72 68 73 76 74 69 75 75 76 70 77
REMARK SMILES IDX 71 78 72 79 73 80 74 81 53 82 54 83 62 84 55 85 61 86 56 87
REMARK SMILES IDX 57 88 58 89 59 90 60 91
REMARK H PARENT 21 6 25 28 81 47 51 58
REMARK Flexibility Score: inf
ROOT
ATOM      1  C   UNL A   1      33.352  27.540  26.499  1.00  0.00     0.042 C 
ENDROOT
BRANCH   1   2
ATOM      2  C   UNL A   1      31.922  27.815  26.956  1.00  0.00     0.117 C 
BRANCH   2   3
ATOM      3  N   UNL A   1      31.101  26.620  26.936  1.00  0.00    -0.356 N 
ATOM      4  C   UNL A   1      30.261  26.087  26.008  1.00  0.00     0.227 C 
ATOM      5  O   UNL A   1      29.662  25.063  26.364  1.00  0.00    -0.274 OA
ATOM      6  H   UNL A   1      31.163  26.088  27.761  1.00  0.00     0.163 HD
BRANCH   4   7
ATOM      7  C   UNL A   1      30.011  26.668  24.605  1.00  0.00     0.109 C 
ATOM      8  C   UNL A   1      28.669  26.324  23.961  1.00  0.00     0.023 C 
BRANCH   7   9
ATOM      9  C   UNL A   1      31.210  26.533  23.675  1.00  0.00     0.007 A 
ATOM     10  C   UNL A   1      31.878  27.656  23.161  1.00  0.00     0.122 A 
ATOM     11  C   UNL A   1      32.989  27.517  22.324  1.00  0.00     0.047 A 
ATOM     12  C   UNL A   1      33.465  26.248  21.997  1.00  0.00     0.016 A 
ATOM     13  C   UNL A   1      31.697  25.264  23.307  1.00  0.00     0.020 A 
ATOM     14  C   UNL A   1      32.815  25.104  22.475  1.00  0.00     0.023 A 
BRANCH  10  15
ATOM     15  O   UNL A   1      31.392  28.923  23.344  1.00  0.00    -0.496 OA
ATOM     16  C   UNL A   1      30.491  29.305  22.304  1.00  0.00     0.278 C 
ENDBRANCH  10  15
BRANCH  14  17
ATOM     17  C   UNL A   1      33.386  23.770  22.114  1.00  0.00     0.193 C 
ATOM     18  O   UNL A   1      33.361  23.398  20.944  1.00  0.00    -0.289 OA
BRANCH  17  19
ATOM     19  C   UNL A   1      34.066  22.899  23.101  1.00  0.00     0.022 A 
ATOM     20  C   UNL A   1      35.433  23.100  23.313  1.00  0.00     0.012 A 
ATOM     21  C   UNL A   1      33.390  21.891  23.799  1.00  0.00     0.012 A 
ATOM     22  C   UNL A   1      36.106  22.335  24.264  1.00  0.00     0.001 A 
ATOM     23  C   UNL A   1      34.067  21.142  24.766  1.00  0.00     0.001 A 
ATOM     24  C   UNL A   1      35.421  21.372  25.006  1.00  0.00     0.000 A 
ENDBRANCH  17  19
ENDBRANCH  14  17
ENDBRANCH   7   9
ENDBRANCH   4   7
ENDBRANCH   2   3
ENDBRANCH   1   2
BRANCH   1  25
ATOM     25  C   UNL A   1      34.094  28.741  25.929  1.00  0.00     0.118 C 
BRANCH  25  26
ATOM     26  N   UNL A   1      33.863  29.956  26.698  1.00  0.00    -0.352 N 
ATOM     27  C   UNL A   1      34.584  30.569  27.697  1.00  0.00     0.251 C 
ATOM     28  H   UNL A   1      33.033  30.429  26.457  1.00  0.00     0.163 HD
ATOM     29  O   UNL A   1      34.045  31.488  28.312  1.00  0.00    -0.269 OA
BRANCH  27  30
ATOM     30  C   UNL A   1      35.962  30.154  28.072  1.00  0.00     0.039 A 
ATOM     31  C   UNL A   1      36.180  29.656  29.366  1.00  0.00     0.014 A 
ATOM     32  C   UNL A   1      37.053  30.296  27.215  1.00  0.00     0.014 A 
ATOM     33  C   UNL A   1      37.456  29.236  29.766  1.00  0.00     0.010 A 
ATOM     34  C   UNL A   1      38.310  29.811  27.584  1.00  0.00     0.010 A 
ATOM     35  C   UNL A   1      38.527  29.287  28.866  1.00  0.00    -0.014 A 
BRANCH  35  36
ATOM     36  C   UNL A   1      39.900  28.874  29.256  1.00  0.00     0.031 A 
ATOM     37  C   UNL A   1      40.794  29.857  29.965  1.00  0.00     0.074 A 
ATOM     38  C   UNL A   1      40.374  27.660  28.916  1.00  0.00     0.049 A 
ATOM     39  N   UNL A   1      42.047  29.731  30.317  1.00  0.00    -0.248 NA
ATOM     40  C   UNL A   1      40.203  31.163  30.301  1.00  0.00     0.031 C 
ATOM     41  C   UNL A   1      39.624  26.624  28.207  1.00  0.00     0.029 A 
ATOM     42  N   UNL A   1      41.614  27.099  29.105  1.00  0.00    -0.354 N 
ATOM     43  C   UNL A   1      42.399  30.944  30.897  1.00  0.00     0.074 A 
ATOM     44  C   UNL A   1      41.243  31.807  30.807  1.00  0.00     0.031 C 
ATOM     45  C   UNL A   1      40.416  25.554  28.021  1.00  0.00     0.029 A 
ATOM     46  C   UNL A   1      41.738  25.837  28.573  1.00  0.00     0.049 A 
ATOM     47  H   UNL A   1      42.346  27.558  29.577  1.00  0.00     0.167 HD
ATOM     48  C   UNL A   1      43.573  31.303  31.471  1.00  0.00     0.031 A 
ATOM     49  C   UNL A   1      42.796  25.004  28.527  1.00  0.00     0.031 A 
ATOM     50  C   UNL A   1      44.722  30.445  31.565  1.00  0.00     0.049 A 
ATOM     51  C   UNL A   1      44.096  25.430  29.155  1.00  0.00     0.074 A 
ATOM     52  C   UNL A   1      45.939  30.700  32.171  1.00  0.00     0.029 A 
ATOM     53  N   UNL A   1      44.799  29.167  31.033  1.00  0.00    -0.354 N 
ATOM     54  N   UNL A   1      44.389  26.556  29.762  1.00  0.00    -0.248 NA
ATOM     55  C   UNL A   1      45.206  24.466  29.107  1.00  0.00     0.031 C 
ATOM     56  C   UNL A   1      46.767  29.591  31.968  1.00  0.00     0.029 A 
ATOM     57  C   UNL A   1      46.049  28.626  31.279  1.00  0.00     0.049 A 
ATOM     58  H   UNL A   1      44.071  28.711  30.552  1.00  0.00     0.167 HD
ATOM     59  C   UNL A   1      45.705  26.423  30.194  1.00  0.00     0.074 A 
ATOM     60  C   UNL A   1      46.149  25.106  29.787  1.00  0.00     0.031 C 
ATOM     61  C   UNL A   1      46.474  27.311  30.872  1.00  0.00     0.031 A 
BRANCH  48  62
ATOM     62  C   UNL A   1      43.662  32.698  32.031  1.00  0.00    -0.014 A 
ATOM     63  C   UNL A   1      44.114  33.769  31.239  1.00  0.00     0.010 A 
ATOM     64  C   UNL A   1      43.292  32.941  33.366  1.00  0.00     0.010 A 
ATOM     65  C   UNL A   1      44.250  35.046  31.787  1.00  0.00     0.020 A 
ATOM     66  C   UNL A   1      43.399  34.225  33.910  1.00  0.00     0.020 A 
ATOM     67  C   UNL A   1      43.900  35.264  33.123  1.00  0.00     0.054 A 
BRANCH  67  68
ATOM     68  S   UNL A   1      44.096  36.929  33.814  1.00  0.00     0.124 S 
ATOM     69  O   UNL A   1      43.133  36.912  34.912  1.00  0.00    -0.237 OA
ATOM     70  O   UNL A   1      45.502  36.950  34.213  1.00  0.00    -0.237 OA
ATOM     71  O   UNL A   1      43.755  37.809  32.698  1.00  0.00    -0.744 OA
ENDBRANCH  67  68
ENDBRANCH  48  62
BRANCH  49  72
ATOM     72  C   UNL A   1      42.664  23.667  27.887  1.00  0.00    -0.014 A 
ATOM     73  C   UNL A   1      42.969  23.498  26.525  1.00  0.00     0.010 A 
ATOM     74  C   UNL A   1      42.243  22.552  28.636  1.00  0.00     0.010 A 
ATOM     75  C   UNL A   1      42.841  22.245  25.919  1.00  0.00     0.020 A 
ATOM     76  C   UNL A   1      42.137  21.292  28.039  1.00  0.00     0.020 A 
ATOM     77  C   UNL A   1      42.427  21.149  26.680  1.00  0.00     0.054 A 
BRANCH  77  78
ATOM     78  S   UNL A   1      42.316  19.524  25.879  1.00  0.00     0.124 S 
ATOM     79  O   UNL A   1      40.943  19.522  25.384  1.00  0.00    -0.237 OA
ATOM     80  O   UNL A   1      43.356  19.604  24.857  1.00  0.00    -0.237 OA
ATOM     81  O   UNL A   1      42.591  18.586  26.965  1.00  0.00    -0.744 OA
ENDBRANCH  77  78
ENDBRANCH  49  72
BRANCH  61  82
ATOM     82  C   UNL A   1      47.865  26.879  31.254  1.00  0.00    -0.014 A 
ATOM     83  C   UNL A   1      48.098  26.102  32.402  1.00  0.00     0.010 A 
ATOM     84  C   UNL A   1      48.945  27.201  30.411  1.00  0.00     0.010 A 
ATOM     85  C   UNL A   1      49.392  25.673  32.712  1.00  0.00     0.020 A 
ATOM     86  C   UNL A   1      50.235  26.753  30.705  1.00  0.00     0.020 A 
ATOM     87  C   UNL A   1      50.453  26.001  31.861  1.00  0.00     0.054 A 
BRANCH  87  88
ATOM     88  S   UNL A   1      52.113  25.384  32.253  1.00  0.00     0.124 S 
ATOM     89  O   UNL A   1      52.857  25.726  31.044  1.00  0.00    -0.237 OA
ATOM     90  O   UNL A   1      52.467  26.147  33.447  1.00  0.00    -0.237 OA
ATOM     91  O   UNL A   1      51.907  23.954  32.475  1.00  0.00    -0.744 OA
ENDBRANCH  87  88
ENDBRANCH  61  82
ENDBRANCH  35  36
ENDBRANCH  27  30
ENDBRANCH  25  26
ENDBRANCH   1  25
TORSDOF 17
ENDMDL
MODEL 2
REMARK VINA RESULT:     -11.1      2.167      2.777
REMARK SMILES COc1ccc(C(=O)c2ccccc2)cc1[C@@H](C)C(=O)NCCCNC(=O)c1ccc(-c2c3nc(c(-c4ccc(S(=O)(=O)[O-])cc4)c4ccc([nH]4)c(-c4ccc(S(=O)(=O)[O-])cc4)c4nc(c(-c5ccc(S(=O)(=O)[O-])cc5)c5ccc2[nH]5)C=C4)C=C3)cc1
REMARK SMILES IDX 23 1 22 2 21 3 19 4 20 5 17 7 18 8 16 9 3 10 4 11 5 12 15 13
REMARK SMILES IDX 6 14 2 15 1 16 7 17 8 18 9 19 10 20 14 21 11 22 13 23 12 24
REMARK SMILES IDX 24 25 25 26 26 27 27 29 28 30 29 31 87 32 30 33 86 34 31 35
REMARK SMILES IDX 32 36 33 37 80 38 34 39 85 40 79 41 81 42 35 43 84 44 78 45
REMARK SMILES IDX 77 46 36 48 66 49 47 50 65 51 48 52 51 53 64 54 82 55 49 56
REMARK SMILES IDX 50 57 63 59 83 60 52 61 37 62 38 63 46 64 39 65 45 66 40 67
REMARK SMILES IDX 41 68 42 69 43 70 44 71 67 72 68 73 76 74 69 75 75 76 70 77
REMARK SMILES IDX 71 78 72 79 73 80 74 81 53 82 54 83 62 84 55 85 61 86 56 87
REMARK SMILES IDX 57 88 58 89 59 90 60 91
REMARK H PARENT 21 6 25 28 81 47 51 58
REMARK Flexibility Score: inf
ROOT
ATOM      1  C   UNL A   1      33.330  28.019  26.984  1.00  0.00     0.042 C 
ENDROOT
BRANCH   1   2
ATOM      2  C   UNL A   1      31.813  28.161  27.046  1.00  0.00     0.117 C 
BRANCH   2   3
ATOM      3  N   UNL A   1      31.140  26.876  27.036  1.00  0.00    -0.356 N 
ATOM      4  C   UNL A   1      30.404  26.222  26.098  1.00  0.00     0.227 C 
ATOM      5  O   UNL A   1      29.918  25.143  26.465  1.00  0.00    -0.274 OA
ATOM      6  H   UNL A   1      31.236  26.376  27.878  1.00  0.00     0.163 HD
BRANCH   4   7
ATOM      7  C   UNL A   1      30.136  26.732  24.670  1.00  0.00     0.109 C 
ATOM      8  C   UNL A   1      28.799  26.332  24.049  1.00  0.00     0.023 C 
BRANCH   7   9
ATOM      9  C   UNL A   1      31.334  26.578  23.742  1.00  0.00     0.007 A 
ATOM     10  C   UNL A   1      32.026  27.690  23.236  1.00  0.00     0.122 A 
ATOM     11  C   UNL A   1      33.135  27.533  22.400  1.00  0.00     0.047 A 
ATOM     12  C   UNL A   1      33.586  26.257  22.066  1.00  0.00     0.016 A 
ATOM     13  C   UNL A   1      31.795  25.302  23.366  1.00  0.00     0.020 A 
ATOM     14  C   UNL A   1      32.912  25.124  22.536  1.00  0.00     0.023 A 
BRANCH  10  15
ATOM     15  O   UNL A   1      31.566  28.966  23.426  1.00  0.00    -0.496 OA
ATOM     16  C   UNL A   1      30.758  29.410  22.335  1.00  0.00     0.278 C 
ENDBRANCH  10  15
BRANCH  14  17
ATOM     17  C   UNL A   1      33.456  23.780  22.168  1.00  0.00     0.193 C 
ATOM     18  O   UNL A   1      33.415  23.411  20.998  1.00  0.00    -0.289 OA
BRANCH  17  19
ATOM     19  C   UNL A   1      34.128  22.895  23.147  1.00  0.00     0.022 A 
ATOM     20  C   UNL A   1      35.506  23.050  23.326  1.00  0.00     0.012 A 
ATOM     21  C   UNL A   1      33.434  21.918  23.870  1.00  0.00     0.012 A 
ATOM     22  C   UNL A   1      36.173  22.271  24.270  1.00  0.00     0.001 A 
ATOM     23  C   UNL A   1      34.106  21.154  24.830  1.00  0.00     0.001 A 
ATOM     24  C   UNL A   1      35.473  21.340  25.036  1.00  0.00     0.000 A 
ENDBRANCH  17  19
ENDBRANCH  14  17
ENDBRANCH   7   9
ENDBRANCH   4   7
ENDBRANCH   2   3
ENDBRANCH   1   2
BRANCH   1  25
ATOM     25  C   UNL A   1      34.047  29.069  26.147  1.00  0.00     0.118 C 
BRANCH  25  26
ATOM     26  N   UNL A   1      33.829  30.421  26.643  1.00  0.00    -0.352 N 
ATOM     27  C   UNL A   1      34.454  31.159  27.622  1.00  0.00     0.251 C 
ATOM     28  H   UNL A   1      33.095  30.897  26.191  1.00  0.00     0.163 HD
ATOM     29  O   UNL A   1      33.925  32.213  27.970  1.00  0.00    -0.269 OA
BRANCH  27  30
ATOM     30  C   UNL A   1      35.714  30.725  28.282  1.00  0.00     0.039 A 
ATOM     31  C   UNL A   1      35.636  29.761  29.299  1.00  0.00     0.014 A 
ATOM     32  C   UNL A   1      36.957  31.280  27.976  1.00  0.00     0.014 A 
ATOM     33  C   UNL A   1      36.795  29.305  29.943  1.00  0.00     0.010 A 
ATOM     34  C   UNL A   1      38.120  30.775  28.563  1.00  0.00     0.010 A 
ATOM     35  C   UNL A   1      38.051  29.792  29.560  1.00  0.00    -0.014 A 
BRANCH  35  36
ATOM     36  C   UNL A   1      39.300  29.353  30.233  1.00  0.00     0.031 A 
ATOM     37  C   UNL A   1      39.780  30.090  31.455  1.00  0.00     0.074 A 
ATOM     38  C   UNL A   1      40.044  28.355  29.717  1.00  0.00     0.049 A 
ATOM     39  N   UNL A   1      40.882  29.927  32.141  1.00  0.00    -0.248 NA
ATOM     40  C   UNL A   1      38.913  31.170  31.957  1.00  0.00     0.031 C 
ATOM     41  C   UNL A   1      39.708  27.576  28.525  1.00  0.00     0.029 A 
ATOM     42  N   UNL A   1      41.250  27.838  30.121  1.00  0.00    -0.354 N 
ATOM     43  C   UNL A   1      40.850  30.892  33.141  1.00  0.00     0.074 A 
ATOM     44  C   UNL A   1      39.644  31.666  32.943  1.00  0.00     0.031 C 
ATOM     45  C   UNL A   1      40.683  26.681  28.294  1.00  0.00     0.029 A 
ATOM     46  C   UNL A   1      41.725  26.838  29.304  1.00  0.00     0.049 A 
ATOM     47  H   UNL A   1      41.731  28.153  30.920  1.00  0.00     0.167 HD
ATOM     48  C   UNL A   1      41.733  31.105  34.145  1.00  0.00     0.031 A 
ATOM     49  C   UNL A   1      42.872  26.133  29.357  1.00  0.00     0.031 A 
ATOM     50  C   UNL A   1      42.930  30.335  34.345  1.00  0.00     0.049 A 
ATOM     51  C   UNL A   1      43.849  26.398  30.472  1.00  0.00     0.074 A 
ATOM     52  C   UNL A   1      43.863  30.442  35.362  1.00  0.00     0.029 A 
ATOM     53  N   UNL A   1      43.364  29.318  33.508  1.00  0.00    -0.354 N 
ATOM     54  N   UNL A   1      43.768  27.269  31.450  1.00  0.00    -0.248 NA
ATOM     55  C   UNL A   1      45.067  25.574  30.499  1.00  0.00     0.031 C 
ATOM     56  C   UNL A   1      44.883  29.517  35.115  1.00  0.00     0.029 A 
ATOM     57  C   UNL A   1      44.560  28.801  33.973  1.00  0.00     0.049 A 
ATOM     58  H   UNL A   1      42.890  29.009  32.703  1.00  0.00     0.167 HD
ATOM     59  C   UNL A   1      44.907  27.076  32.225  1.00  0.00     0.074 A 
ATOM     60  C   UNL A   1      45.657  26.002  31.608  1.00  0.00     0.031 C 
ATOM     61  C   UNL A   1      45.293  27.727  33.350  1.00  0.00     0.031 A 
BRANCH  48  62
ATOM     62  C   UNL A   1      41.430  32.232  35.097  1.00  0.00    -0.014 A 
ATOM     63  C   UNL A   1      40.608  32.030  36.221  1.00  0.00     0.010 A 
ATOM     64  C   UNL A   1      41.971  33.509  34.865  1.00  0.00     0.010 A 
ATOM     65  C   UNL A   1      40.286  33.097  37.062  1.00  0.00     0.020 A 
ATOM     66  C   UNL A   1      41.674  34.573  35.722  1.00  0.00     0.020 A 
ATOM     67  C   UNL A   1      40.814  34.365  36.801  1.00  0.00     0.054 A 
BRANCH  67  68
ATOM     68  S   UNL A   1      40.371  35.735  37.903  1.00  0.00     0.124 S 
ATOM     69  O   UNL A   1      39.760  36.682  36.973  1.00  0.00    -0.237 OA
ATOM     70  O   UNL A   1      39.453  35.105  38.850  1.00  0.00    -0.237 OA
ATOM     71  O   UNL A   1      41.652  36.154  38.467  1.00  0.00    -0.744 OA
ENDBRANCH  67  68
ENDBRANCH  48  62
BRANCH  49  72
ATOM     72  C   UNL A   1      43.150  25.085  28.337  1.00  0.00    -0.014 A 
ATOM     73  C   UNL A   1      42.725  23.761  28.547  1.00  0.00     0.010 A 
ATOM     74  C   UNL A   1      43.828  25.405  27.146  1.00  0.00     0.010 A 
ATOM     75  C   UNL A   1      42.988  22.772  27.594  1.00  0.00     0.020 A 
ATOM     76  C   UNL A   1      44.072  24.424  26.180  1.00  0.00     0.020 A 
ATOM     77  C   UNL A   1      43.659  23.111  26.415  1.00  0.00     0.054 A 
BRANCH  77  78
ATOM     78  S   UNL A   1      43.944  21.818  25.173  1.00  0.00     0.124 S 
ATOM     79  O   UNL A   1      45.294  21.373  25.503  1.00  0.00    -0.237 OA
ATOM     80  O   UNL A   1      42.876  20.863  25.460  1.00  0.00    -0.237 OA
ATOM     81  O   UNL A   1      43.811  22.527  23.903  1.00  0.00    -0.744 OA
ENDBRANCH  77  78
ENDBRANCH  49  72
BRANCH  61  82
ATOM     82  C   UNL A   1      46.565  27.274  34.016  1.00  0.00    -0.014 A 
ATOM     83  C   UNL A   1      46.566  26.226  34.952  1.00  0.00     0.010 A 
ATOM     84  C   UNL A   1      47.787  27.865  33.644  1.00  0.00     0.010 A 
ATOM     85  C   UNL A   1      47.766  25.791  35.522  1.00  0.00     0.020 A 
ATOM     86  C   UNL A   1      48.991  27.416  34.194  1.00  0.00     0.020 A 
ATOM     87  C   UNL A   1      48.971  26.388  35.140  1.00  0.00     0.054 A 
BRANCH  87  88
ATOM     88  S   UNL A   1      50.521  25.768  35.850  1.00  0.00     0.124 S 
ATOM     89  O   UNL A   1      51.278  27.001  36.049  1.00  0.00    -0.237 OA
ATOM     90  O   UNL A   1      50.072  25.101  37.069  1.00  0.00    -0.237 OA
ATOM     91  O   UNL A   1      51.043  24.877  34.816  1.00  0.00    -0.744 OA
ENDBRANCH  87  88
ENDBRANCH  61  82
ENDBRANCH  35  36
ENDBRANCH  27  30
ENDBRANCH  25  26
ENDBRANCH   1  25
TORSDOF 17
ENDMDL
MODEL 3
REMARK VINA RESULT:     -10.7      2.275      3.671
REMARK SMILES COc1ccc(C(=O)c2ccccc2)cc1[C@@H](C)C(=O)NCCCNC(=O)c1ccc(-c2c3nc(c(-c4ccc(S(=O)(=O)[O-])cc4)c4ccc([nH]4)c(-c4ccc(S(=O)(=O)[O-])cc4)c4nc(c(-c5ccc(S(=O)(=O)[O-])cc5)c5ccc2[nH]5)C=C4)C=C3)cc1
REMARK SMILES IDX 23 1 22 2 21 3 19 4 20 5 17 7 18 8 16 9 3 10 4 11 5 12 15 13
REMARK SMILES IDX 6 14 2 15 1 16 7 17 8 18 9 19 10 20 14 21 11 22 13 23 12 24
REMARK SMILES IDX 24 25 25 26 26 27 27 29 28 30 29 31 87 32 30 33 86 34 31 35
REMARK SMILES IDX 32 36 33 37 80 38 34 39 85 40 79 41 81 42 35 43 84 44 78 45
REMARK SMILES IDX 77 46 36 48 66 49 47 50 65 51 48 52 51 53 64 54 82 55 49 56
REMARK SMILES IDX 50 57 63 59 83 60 52 61 37 62 38 63 46 64 39 65 45 66 40 67
REMARK SMILES IDX 41 68 42 69 43 70 44 71 67 72 68 73 76 74 69 75 75 76 70 77
REMARK SMILES IDX 71 78 72 79 73 80 74 81 53 82 54 83 62 84 55 85 61 86 56 87
REMARK SMILES IDX 57 88 58 89 59 90 60 91
REMARK H PARENT 21 6 25 28 81 47 51 58
REMARK Flexibility Score: inf
ROOT
ATOM      1  C   UNL A   1      32.532  27.544  26.366  1.00  0.00     0.042 C 
ENDROOT
BRANCH   1   2
ATOM      2  C   UNL A   1      32.703  26.031  26.282  1.00  0.00     0.117 C 
BRANCH   2   3
ATOM      3  N   UNL A   1      31.533  25.319  26.759  1.00  0.00    -0.356 N 
ATOM      4  C   UNL A   1      31.226  23.997  26.851  1.00  0.00     0.227 C 
ATOM      5  O   UNL A   1      30.082  23.748  27.257  1.00  0.00    -0.274 OA
ATOM      6  H   UNL A   1      30.817  25.912  27.080  1.00  0.00     0.163 HD
BRANCH   4   7
ATOM      7  C   UNL A   1      32.172  22.841  26.479  1.00  0.00     0.109 C 
ATOM      8  C   UNL A   1      33.493  22.777  27.244  1.00  0.00     0.023 C 
BRANCH   7   9
ATOM      9  C   UNL A   1      32.302  22.628  24.977  1.00  0.00     0.007 A 
ATOM     10  C   UNL A   1      32.155  21.359  24.394  1.00  0.00     0.122 A 
ATOM     11  C   UNL A   1      32.258  21.182  23.011  1.00  0.00     0.047 A 
ATOM     12  C   UNL A   1      32.494  22.277  22.180  1.00  0.00     0.016 A 
ATOM     13  C   UNL A   1      32.565  23.710  24.116  1.00  0.00     0.020 A 
ATOM     14  C   UNL A   1      32.664  23.554  22.725  1.00  0.00     0.023 A 
BRANCH  10  15
ATOM     15  O   UNL A   1      32.042  20.229  25.159  1.00  0.00    -0.496 OA
ATOM     16  C   UNL A   1      33.178  19.374  25.019  1.00  0.00     0.278 C 
ENDBRANCH  10  15
BRANCH  14  17
ATOM     17  C   UNL A   1      32.887  24.695  21.784  1.00  0.00     0.193 C 
ATOM     18  O   UNL A   1      33.270  24.468  20.640  1.00  0.00    -0.289 OA
BRANCH  17  19
ATOM     19  C   UNL A   1      32.583  26.099  22.145  1.00  0.00     0.022 A 
ATOM     20  C   UNL A   1      33.660  26.974  22.316  1.00  0.00     0.012 A 
ATOM     21  C   UNL A   1      31.273  26.557  22.329  1.00  0.00     0.012 A 
ATOM     22  C   UNL A   1      33.421  28.316  22.610  1.00  0.00     0.001 A 
ATOM     23  C   UNL A   1      31.041  27.908  22.604  1.00  0.00     0.001 A 
ATOM     24  C   UNL A   1      32.115  28.788  22.733  1.00  0.00     0.000 A 
ENDBRANCH  17  19
ENDBRANCH  14  17
ENDBRANCH   7   9
ENDBRANCH   4   7
ENDBRANCH   2   3
ENDBRANCH   1   2
BRANCH   1  25
ATOM     25  C   UNL A   1      33.813  28.353  26.222  1.00  0.00     0.118 C 
BRANCH  25  26
ATOM     26  N   UNL A   1      33.630  29.755  26.571  1.00  0.00    -0.352 N 
ATOM     27  C   UNL A   1      34.313  30.593  27.422  1.00  0.00     0.251 C 
ATOM     28  H   UNL A   1      32.873  30.185  26.109  1.00  0.00     0.163 HD
ATOM     29  O   UNL A   1      33.810  31.687  27.676  1.00  0.00    -0.269 OA
BRANCH  27  30
ATOM     30  C   UNL A   1      35.606  30.224  28.056  1.00  0.00     0.039 A 
ATOM     31  C   UNL A   1      35.582  29.662  29.343  1.00  0.00     0.014 A 
ATOM     32  C   UNL A   1      36.841  30.469  27.454  1.00  0.00     0.014 A 
ATOM     33  C   UNL A   1      36.772  29.281  29.980  1.00  0.00     0.010 A 
ATOM     34  C   UNL A   1      38.021  30.023  28.054  1.00  0.00     0.010 A 
ATOM     35  C   UNL A   1      38.000  29.436  29.327  1.00  0.00    -0.014 A 
BRANCH  35  36
ATOM     36  C   UNL A   1      39.285  29.068  29.975  1.00  0.00     0.031 A 
ATOM     37  C   UNL A   1      39.779  29.872  31.148  1.00  0.00     0.074 A 
ATOM     38  C   UNL A   1      40.044  28.072  29.478  1.00  0.00     0.049 A 
ATOM     39  N   UNL A   1      40.907  29.775  31.803  1.00  0.00    -0.248 NA
ATOM     40  C   UNL A   1      38.892  30.944  31.632  1.00  0.00     0.031 C 
ATOM     41  C   UNL A   1      39.697  27.231  28.332  1.00  0.00     0.029 A 
ATOM     42  N   UNL A   1      41.280  27.612  29.862  1.00  0.00    -0.354 N 
ATOM     43  C   UNL A   1      40.874  30.781  32.761  1.00  0.00     0.074 A 
ATOM     44  C   UNL A   1      39.637  31.506  32.571  1.00  0.00     0.031 C 
ATOM     45  C   UNL A   1      40.693  26.359  28.107  1.00  0.00     0.029 A 
ATOM     46  C   UNL A   1      41.761  26.593  29.074  1.00  0.00     0.049 A 
ATOM     47  H   UNL A   1      41.775  27.977  30.631  1.00  0.00     0.167 HD
ATOM     48  C   UNL A   1      41.782  31.066  33.725  1.00  0.00     0.031 A 
ATOM     49  C   UNL A   1      42.933  25.928  29.119  1.00  0.00     0.031 A 
ATOM     50  C   UNL A   1      43.009  30.344  33.918  1.00  0.00     0.049 A 
ATOM     51  C   UNL A   1      43.936  26.273  30.187  1.00  0.00     0.074 A 
ATOM     52  C   UNL A   1      43.970  30.525  34.897  1.00  0.00     0.029 A 
ATOM     53  N   UNL A   1      43.450  29.306  33.111  1.00  0.00    -0.354 N 
ATOM     54  N   UNL A   1      43.856  27.183  31.130  1.00  0.00    -0.248 NA
ATOM     55  C   UNL A   1      45.181  25.490  30.209  1.00  0.00     0.031 C 
ATOM     56  C   UNL A   1      45.013  29.624  34.656  1.00  0.00     0.029 A 
ATOM     57  C   UNL A   1      44.678  28.848  33.557  1.00  0.00     0.049 A 
ATOM     58  H   UNL A   1      42.961  28.947  32.336  1.00  0.00     0.167 HD
ATOM     59  C   UNL A   1      45.026  27.061  31.874  1.00  0.00     0.074 A 
ATOM     60  C   UNL A   1      45.791  25.985  31.278  1.00  0.00     0.031 C 
ATOM     61  C   UNL A   1      45.426  27.772  32.957  1.00  0.00     0.031 A 
BRANCH  48  62
ATOM     62  C   UNL A   1      41.471  32.224  34.637  1.00  0.00    -0.014 A 
ATOM     63  C   UNL A   1      41.905  33.526  34.328  1.00  0.00     0.010 A 
ATOM     64  C   UNL A   1      40.739  32.008  35.818  1.00  0.00     0.010 A 
ATOM     65  C   UNL A   1      41.663  34.580  35.211  1.00  0.00     0.020 A 
ATOM     66  C   UNL A   1      40.469  33.067  36.690  1.00  0.00     0.020 A 
ATOM     67  C   UNL A   1      40.954  34.341  36.393  1.00  0.00     0.054 A 
BRANCH  67  68
ATOM     68  S   UNL A   1      40.662  35.725  37.527  1.00  0.00     0.124 S 
ATOM     69  O   UNL A   1      39.954  35.069  38.624  1.00  0.00    -0.237 OA
ATOM     70  O   UNL A   1      42.016  36.179  37.838  1.00  0.00    -0.237 OA
ATOM     71  O   UNL A   1      39.862  36.658  36.738  1.00  0.00    -0.744 OA
ENDBRANCH  67  68
ENDBRANCH  48  62
BRANCH  49  72
ATOM     72  C   UNL A   1      43.212  24.846  28.136  1.00  0.00    -0.014 A 
ATOM     73  C   UNL A   1      43.787  25.149  26.889  1.00  0.00     0.010 A 
ATOM     74  C   UNL A   1      42.917  23.504  28.444  1.00  0.00     0.010 A 
ATOM     75  C   UNL A   1      44.045  24.136  25.961  1.00  0.00     0.020 A 
ATOM     76  C   UNL A   1      43.196  22.485  27.528  1.00  0.00     0.020 A 
ATOM     77  C   UNL A   1      43.750  22.809  26.287  1.00  0.00     0.054 A 
BRANCH  77  78
ATOM     78  S   UNL A   1      44.141  21.508  25.083  1.00  0.00     0.124 S 
ATOM     79  O   UNL A   1      43.069  20.546  25.317  1.00  0.00    -0.237 OA
ATOM     80  O   UNL A   1      44.080  22.226  23.812  1.00  0.00    -0.237 OA
ATOM     81  O   UNL A   1      45.476  21.066  25.478  1.00  0.00    -0.744 OA
ENDBRANCH  77  78
ENDBRANCH  49  72
BRANCH  61  82
ATOM     82  C   UNL A   1      46.733  27.390  33.598  1.00  0.00    -0.014 A 
ATOM     83  C   UNL A   1      47.938  28.009  33.223  1.00  0.00     0.010 A 
ATOM     84  C   UNL A   1      46.741  26.445  34.640  1.00  0.00     0.010 A 
ATOM     85  C   UNL A   1      49.133  27.672  33.866  1.00  0.00     0.020 A 
ATOM     86  C   UNL A   1      47.929  26.124  35.300  1.00  0.00     0.020 A 
ATOM     87  C   UNL A   1      49.122  26.732  34.901  1.00  0.00     0.054 A 
BRANCH  87  88
ATOM     88  S   UNL A   1      50.675  26.354  35.758  1.00  0.00     0.124 S 
ATOM     89  O   UNL A   1      50.287  25.231  36.607  1.00  0.00    -0.237 OA
ATOM     90  O   UNL A   1      51.579  26.028  34.658  1.00  0.00    -0.237 OA
ATOM     91  O   UNL A   1      50.988  27.592  36.468  1.00  0.00    -0.744 OA
ENDBRANCH  87  88
ENDBRANCH  61  82
ENDBRANCH  35  36
ENDBRANCH  27  30
ENDBRANCH  25  26
ENDBRANCH   1  25
TORSDOF 17
ENDMDL
