MODEL 1
REMARK VINA RESULT:     -11.0      0.000      0.000
REMARK SMILES COc1ccc2cc([C@H](C)C(=O)NCCCNC(=O)c3ccc(-c4c5nc(c(-c6ccc(S(=O)(=O)[O-])cc6)c6ccc([nH]6)c(-c6ccc(S(=O)(=O)[O-])cc6)c6nc(c(-c7ccc(S(=O)(=O)[O-])cc7)c7ccc4[nH]7)C=C6)C=C5)cc3)ccc2c1
REMARK SMILES IDX 15 1 14 2 13 3 11 4 12 5 9 7 10 8 8 9 3 10 4 11 83 12 5 13
REMARK SMILES IDX 82 14 6 15 81 16 7 17 80 18 2 19 1 20 16 21 17 22 18 23
REMARK SMILES IDX 19 25 20 26 21 27 79 28 22 29 78 30 23 31 24 32 25 33 72 34
REMARK SMILES IDX 26 35 77 36 71 37 73 38 27 39 76 40 70 41 69 42 28 44 58 45
REMARK SMILES IDX 39 46 57 47 40 48 43 49 56 50 74 51 41 52 42 53 55 55 75 56
REMARK SMILES IDX 44 57 29 58 30 59 38 60 31 61 37 62 32 63 33 64 34 65 35 66
REMARK SMILES IDX 36 67 59 68 60 69 68 70 61 71 67 72 62 73 63 74 64 75 65 76
REMARK SMILES IDX 66 77 45 78 46 79 54 80 47 81 53 82 48 83 49 84 50 85 51 86
REMARK SMILES IDX 52 87
REMARK H PARENT 13 6 17 24 73 43 43 54
REMARK Flexibility Score: inf
ROOT
ATOM      1  C   UNL A   1      33.448  27.951  25.866  1.00  0.00     0.042 C 
ENDROOT
BRANCH   1   2
ATOM      2  C   UNL A   1      32.125  28.063  25.136  1.00  0.00     0.117 C 
BRANCH   2   3
ATOM      3  N   UNL A   1      31.023  27.379  25.779  1.00  0.00    -0.356 N 
ATOM      4  C   UNL A   1      30.609  26.086  25.645  1.00  0.00     0.227 C 
ATOM      5  O   UNL A   1      29.741  25.689  26.431  1.00  0.00    -0.274 OA
ATOM      6  H   UNL A   1      30.495  27.928  26.404  1.00  0.00     0.163 HD
BRANCH   4   7
ATOM      7  C   UNL A   1      31.164  25.147  24.562  1.00  0.00     0.105 C 
ATOM      8  C   UNL A   1      31.067  25.730  23.147  1.00  0.00     0.023 C 
BRANCH   7   9
ATOM      9  C   UNL A   1      32.499  24.505  24.934  1.00  0.00    -0.035 A 
ATOM     10  C   UNL A   1      37.069  22.277  24.813  1.00  0.00     0.119 A 
ATOM     11  C   UNL A   1      36.779  22.614  23.494  1.00  0.00     0.047 A 
ATOM     12  C   UNL A   1      36.153  22.547  25.824  1.00  0.00     0.055 A 
ATOM     13  C   UNL A   1      35.562  23.228  23.185  1.00  0.00     0.012 A 
ATOM     14  C   UNL A   1      34.952  23.204  25.531  1.00  0.00    -0.015 A 
ATOM     15  C   UNL A   1      34.631  23.526  24.194  1.00  0.00    -0.018 A 
ATOM     16  C   UNL A   1      34.073  23.570  26.548  1.00  0.00     0.009 A 
ATOM     17  C   UNL A   1      33.394  24.138  23.911  1.00  0.00     0.013 A 
ATOM     18  C   UNL A   1      32.892  24.251  26.254  1.00  0.00     0.005 A 
BRANCH  10  19
ATOM     19  O   UNL A   1      38.214  21.622  25.174  1.00  0.00    -0.497 OA
ATOM     20  C   UNL A   1      38.950  22.339  26.162  1.00  0.00     0.278 C 
ENDBRANCH  10  19
ENDBRANCH   7   9
ENDBRANCH   4   7
ENDBRANCH   2   3
ENDBRANCH   1   2
BRANCH   1  21
ATOM     21  C   UNL A   1      33.389  28.318  27.335  1.00  0.00     0.118 C 
BRANCH  21  22
ATOM     22  N   UNL A   1      33.436  29.754  27.573  1.00  0.00    -0.352 N 
ATOM     23  C   UNL A   1      34.443  30.561  28.057  1.00  0.00     0.251 C 
ATOM     24  H   UNL A   1      32.603  30.231  27.349  1.00  0.00     0.163 HD
ATOM     25  O   UNL A   1      34.200  31.731  28.318  1.00  0.00    -0.269 OA
BRANCH  23  26
ATOM     26  C   UNL A   1      35.800  30.014  28.299  1.00  0.00     0.039 A 
ATOM     27  C   UNL A   1      36.736  30.036  27.261  1.00  0.00     0.014 A 
ATOM     28  C   UNL A   1      36.157  29.481  29.536  1.00  0.00     0.014 A 
ATOM     29  C   UNL A   1      38.047  29.611  27.497  1.00  0.00     0.010 A 
ATOM     30  C   UNL A   1      37.487  29.180  29.805  1.00  0.00     0.010 A 
ATOM     31  C   UNL A   1      38.448  29.229  28.787  1.00  0.00    -0.014 A 
BRANCH  31  32
ATOM     32  C   UNL A   1      39.855  28.858  29.096  1.00  0.00     0.031 A 
ATOM     33  C   UNL A   1      40.778  29.866  29.735  1.00  0.00     0.074 A 
ATOM     34  C   UNL A   1      40.327  27.650  28.730  1.00  0.00     0.049 A 
ATOM     35  N   UNL A   1      42.055  29.763  30.000  1.00  0.00    -0.248 NA
ATOM     36  C   UNL A   1      40.197  31.172  30.091  1.00  0.00     0.031 C 
ATOM     37  C   UNL A   1      39.556  26.603  28.054  1.00  0.00     0.029 A 
ATOM     38  N   UNL A   1      41.578  27.098  28.868  1.00  0.00    -0.354 N 
ATOM     39  C   UNL A   1      42.433  30.995  30.521  1.00  0.00     0.074 A 
ATOM     40  C   UNL A   1      41.266  31.849  30.478  1.00  0.00     0.031 C 
ATOM     41  C   UNL A   1      40.335  25.526  27.875  1.00  0.00     0.029 A 
ATOM     42  C   UNL A   1      41.674  25.818  28.377  1.00  0.00     0.049 A 
ATOM     43  H   UNL A   1      42.333  27.576  29.279  1.00  0.00     0.167 HD
ATOM     44  C   UNL A   1      43.633  31.378  31.018  1.00  0.00     0.031 A 
ATOM     45  C   UNL A   1      42.723  24.972  28.331  1.00  0.00     0.031 A 
ATOM     46  C   UNL A   1      44.785  30.521  31.085  1.00  0.00     0.049 A 
ATOM     47  C   UNL A   1      44.044  25.413  28.896  1.00  0.00     0.074 A 
ATOM     48  C   UNL A   1      46.028  30.789  31.629  1.00  0.00     0.029 A 
ATOM     49  N   UNL A   1      44.834  29.224  30.595  1.00  0.00    -0.354 N 
ATOM     50  N   UNL A   1      44.363  26.562  29.444  1.00  0.00    -0.248 NA
ATOM     51  C   UNL A   1      45.144  24.442  28.846  1.00  0.00     0.031 C 
ATOM     52  C   UNL A   1      46.844  29.671  31.426  1.00  0.00     0.029 A 
ATOM     53  C   UNL A   1      46.091  28.686  30.805  1.00  0.00     0.049 A 
ATOM     54  H   UNL A   1      44.085  28.755  30.162  1.00  0.00     0.167 HD
ATOM     55  C   UNL A   1      45.694  26.440  29.829  1.00  0.00     0.074 A 
ATOM     56  C   UNL A   1      46.115  25.103  29.463  1.00  0.00     0.031 C 
ATOM     57  C   UNL A   1      46.494  27.353  30.433  1.00  0.00     0.031 A 
BRANCH  44  58
ATOM     58  C   UNL A   1      43.754  32.792  31.527  1.00  0.00    -0.014 A 
ATOM     59  C   UNL A   1      44.081  33.852  30.660  1.00  0.00     0.010 A 
ATOM     60  C   UNL A   1      43.524  33.069  32.886  1.00  0.00     0.010 A 
ATOM     61  C   UNL A   1      44.229  35.150  31.152  1.00  0.00     0.020 A 
ATOM     62  C   UNL A   1      43.640  34.373  33.377  1.00  0.00     0.020 A 
ATOM     63  C   UNL A   1      44.014  35.402  32.510  1.00  0.00     0.054 A 
BRANCH  63  64
ATOM     64  S   UNL A   1      44.208  37.099  33.120  1.00  0.00     0.124 S 
ATOM     65  O   UNL A   1      42.892  37.360  33.701  1.00  0.00    -0.237 OA
ATOM     66  O   UNL A   1      45.303  36.973  34.078  1.00  0.00    -0.237 OA
ATOM     67  O   UNL A   1      44.520  37.867  31.917  1.00  0.00    -0.744 OA
ENDBRANCH  63  64
ENDBRANCH  44  58
BRANCH  45  68
ATOM     68  C   UNL A   1      42.552  23.610  27.755  1.00  0.00    -0.014 A 
ATOM     69  C   UNL A   1      42.872  23.363  26.408  1.00  0.00     0.010 A 
ATOM     70  C   UNL A   1      42.095  22.546  28.554  1.00  0.00     0.010 A 
ATOM     71  C   UNL A   1      42.727  22.081  25.868  1.00  0.00     0.020 A 
ATOM     72  C   UNL A   1      41.973  21.258  28.024  1.00  0.00     0.020 A 
ATOM     73  C   UNL A   1      42.282  21.036  26.681  1.00  0.00     0.054 A 
BRANCH  73  74
ATOM     74  S   UNL A   1      42.163  19.369  25.975  1.00  0.00     0.124 S 
ATOM     75  O   UNL A   1      42.732  18.547  27.038  1.00  0.00    -0.237 OA
ATOM     76  O   UNL A   1      40.726  19.219  25.758  1.00  0.00    -0.237 OA
ATOM     77  O   UNL A   1      42.963  19.457  24.754  1.00  0.00    -0.744 OA
ENDBRANCH  73  74
ENDBRANCH  45  68
BRANCH  57  78
ATOM     78  C   UNL A   1      47.900  26.930  30.765  1.00  0.00    -0.014 A 
ATOM     79  C   UNL A   1      48.956  27.134  29.862  1.00  0.00     0.010 A 
ATOM     80  C   UNL A   1      48.174  26.372  32.028  1.00  0.00     0.010 A 
ATOM     81  C   UNL A   1      50.258  26.759  30.202  1.00  0.00     0.020 A 
ATOM     82  C   UNL A   1      49.478  26.022  32.383  1.00  0.00     0.020 A 
ATOM     83  C   UNL A   1      50.511  26.205  31.462  1.00  0.00     0.054 A 
BRANCH  83  84
ATOM     84  S   UNL A   1      52.217  25.770  31.898  1.00  0.00     0.124 S 
ATOM     85  O   UNL A   1      52.512  26.729  32.959  1.00  0.00    -0.237 OA
ATOM     86  O   UNL A   1      52.094  24.378  32.324  1.00  0.00    -0.237 OA
ATOM     87  O   UNL A   1      52.955  25.971  30.653  1.00  0.00    -0.744 OA
ENDBRANCH  83  84
ENDBRANCH  57  78
ENDBRANCH  31  32
ENDBRANCH  23  26
ENDBRANCH  21  22
ENDBRANCH   1  21
TORSDOF 15
ENDMDL
MODEL 2
REMARK VINA RESULT:     -10.9      2.977      5.696
REMARK SMILES COc1ccc2cc([C@H](C)C(=O)NCCCNC(=O)c3ccc(-c4c5nc(c(-c6ccc(S(=O)(=O)[O-])cc6)c6ccc([nH]6)c(-c6ccc(S(=O)(=O)[O-])cc6)c6nc(c(-c7ccc(S(=O)(=O)[O-])cc7)c7ccc4[nH]7)C=C6)C=C5)cc3)ccc2c1
REMARK SMILES IDX 15 1 14 2 13 3 11 4 12 5 9 7 10 8 8 9 3 10 4 11 83 12 5 13
REMARK SMILES IDX 82 14 6 15 81 16 7 17 80 18 2 19 1 20 16 21 17 22 18 23
REMARK SMILES IDX 19 25 20 26 21 27 79 28 22 29 78 30 23 31 24 32 25 33 72 34
REMARK SMILES IDX 26 35 77 36 71 37 73 38 27 39 76 40 70 41 69 42 28 44 58 45
REMARK SMILES IDX 39 46 57 47 40 48 43 49 56 50 74 51 41 52 42 53 55 55 75 56
REMARK SMILES IDX 44 57 29 58 30 59 38 60 31 61 37 62 32 63 33 64 34 65 35 66
REMARK SMILES IDX 36 67 59 68 60 69 68 70 61 71 67 72 62 73 63 74 64 75 65 76
REMARK SMILES IDX 66 77 45 78 46 79 54 80 47 81 53 82 48 83 49 84 50 85 51 86
REMARK SMILES IDX 52 87
REMARK H PARENT 13 6 17 24 73 43 43 54
REMARK Flexibility Score: inf
ROOT
ATOM      1  C   UNL A   1      35.139  33.749  29.529  1.00  0.00     0.042 C 
ENDROOT
BRANCH   1   2
ATOM      2  C   UNL A   1      36.474  33.728  30.245  1.00  0.00     0.117 C 
BRANCH   2   3
ATOM      3  N   UNL A   1      36.534  34.556  31.431  1.00  0.00    -0.356 N 
ATOM      4  C   UNL A   1      36.705  34.190  32.735  1.00  0.00     0.227 C 
ATOM      5  O   UNL A   1      36.891  35.098  33.553  1.00  0.00    -0.274 OA
ATOM      6  H   UNL A   1      36.438  35.523  31.274  1.00  0.00     0.163 HD
BRANCH   4   7
ATOM      7  C   UNL A   1      36.650  32.726  33.198  1.00  0.00     0.105 C 
ATOM      8  C   UNL A   1      35.579  31.900  32.476  1.00  0.00     0.023 C 
BRANCH   7   9
ATOM      9  C   UNL A   1      38.026  32.074  33.328  1.00  0.00    -0.035 A 
ATOM     10  C   UNL A   1      41.891  28.771  33.482  1.00  0.00     0.119 A 
ATOM     11  C   UNL A   1      40.800  28.054  32.998  1.00  0.00     0.047 A 
ATOM     12  C   UNL A   1      41.750  30.110  33.833  1.00  0.00     0.055 A 
ATOM     13  C   UNL A   1      39.560  28.683  32.861  1.00  0.00     0.012 A 
ATOM     14  C   UNL A   1      40.523  30.761  33.655  1.00  0.00    -0.015 A 
ATOM     15  C   UNL A   1      39.402  30.039  33.191  1.00  0.00    -0.018 A 
ATOM     16  C   UNL A   1      40.397  32.125  33.906  1.00  0.00     0.009 A 
ATOM     17  C   UNL A   1      38.161  30.697  33.070  1.00  0.00     0.013 A 
ATOM     18  C   UNL A   1      39.180  32.775  33.698  1.00  0.00     0.005 A 
BRANCH  10  19
ATOM     19  O   UNL A   1      43.115  28.201  33.696  1.00  0.00    -0.497 OA
ATOM     20  C   UNL A   1      43.392  27.164  32.757  1.00  0.00     0.278 C 
ENDBRANCH  10  19
ENDBRANCH   7   9
ENDBRANCH   4   7
ENDBRANCH   2   3
ENDBRANCH   1   2
BRANCH   1  21
ATOM     21  C   UNL A   1      35.159  33.137  28.142  1.00  0.00     0.118 C 
BRANCH  21  22
ATOM     22  N   UNL A   1      34.239  32.018  27.993  1.00  0.00    -0.352 N 
ATOM     23  C   UNL A   1      34.463  30.659  27.946  1.00  0.00     0.251 C 
ATOM     24  H   UNL A   1      33.292  32.278  27.911  1.00  0.00     0.163 HD
ATOM     25  O   UNL A   1      33.542  29.909  27.658  1.00  0.00    -0.269 OA
BRANCH  23  26
ATOM     26  C   UNL A   1      35.816  30.107  28.203  1.00  0.00     0.039 A 
ATOM     27  C   UNL A   1      36.742  30.065  27.156  1.00  0.00     0.014 A 
ATOM     28  C   UNL A   1      36.177  29.631  29.461  1.00  0.00     0.014 A 
ATOM     29  C   UNL A   1      38.050  29.633  27.401  1.00  0.00     0.010 A 
ATOM     30  C   UNL A   1      37.506  29.325  29.734  1.00  0.00     0.010 A 
ATOM     31  C   UNL A   1      38.458  29.311  28.705  1.00  0.00    -0.014 A 
BRANCH  31  32
ATOM     32  C   UNL A   1      39.862  28.936  29.020  1.00  0.00     0.031 A 
ATOM     33  C   UNL A   1      40.792  29.949  29.639  1.00  0.00     0.074 A 
ATOM     34  C   UNL A   1      40.327  27.718  28.675  1.00  0.00     0.049 A 
ATOM     35  N   UNL A   1      42.070  29.843  29.905  1.00  0.00    -0.248 NA
ATOM     36  C   UNL A   1      40.221  31.265  29.973  1.00  0.00     0.031 C 
ATOM     37  C   UNL A   1      39.548  26.665  28.019  1.00  0.00     0.029 A 
ATOM     38  N   UNL A   1      41.574  27.161  28.821  1.00  0.00    -0.354 N 
ATOM     39  C   UNL A   1      42.456  31.082  30.404  1.00  0.00     0.074 A 
ATOM     40  C   UNL A   1      41.295  31.942  30.347  1.00  0.00     0.031 C 
ATOM     41  C   UNL A   1      40.320  25.579  27.858  1.00  0.00     0.029 A 
ATOM     42  C   UNL A   1      41.662  25.872  28.353  1.00  0.00     0.049 A 
ATOM     43  H   UNL A   1      42.333  27.642  29.224  1.00  0.00     0.167 HD
ATOM     44  C   UNL A   1      43.659  31.466  30.893  1.00  0.00     0.031 A 
ATOM     45  C   UNL A   1      42.705  25.019  28.322  1.00  0.00     0.031 A 
ATOM     46  C   UNL A   1      44.805  30.602  30.974  1.00  0.00     0.049 A 
ATOM     47  C   UNL A   1      44.029  25.462  28.878  1.00  0.00     0.074 A 
ATOM     48  C   UNL A   1      46.051  30.873  31.513  1.00  0.00     0.029 A 
ATOM     49  N   UNL A   1      44.845  29.297  30.507  1.00  0.00    -0.354 N 
ATOM     50  N   UNL A   1      44.356  26.618  29.405  1.00  0.00    -0.248 NA
ATOM     51  C   UNL A   1      45.123  24.482  28.844  1.00  0.00     0.031 C 
ATOM     52  C   UNL A   1      46.859  29.746  31.329  1.00  0.00     0.029 A 
ATOM     53  C   UNL A   1      46.099  28.755  30.727  1.00  0.00     0.049 A 
ATOM     54  H   UNL A   1      44.093  28.825  30.083  1.00  0.00     0.167 HD
ATOM     55  C   UNL A   1      45.687  26.495  29.791  1.00  0.00     0.074 A 
ATOM     56  C   UNL A   1      46.099  25.148  29.448  1.00  0.00     0.031 C 
ATOM     57  C   UNL A   1      46.494  27.413  30.377  1.00  0.00     0.031 A 
BRANCH  44  58
ATOM     58  C   UNL A   1      43.790  32.887  31.376  1.00  0.00    -0.014 A 
ATOM     59  C   UNL A   1      43.506  33.231  32.711  1.00  0.00     0.010 A 
ATOM     60  C   UNL A   1      44.216  33.892  30.489  1.00  0.00     0.010 A 
ATOM     61  C   UNL A   1      43.591  34.559  33.135  1.00  0.00     0.020 A 
ATOM     62  C   UNL A   1      44.335  35.218  30.918  1.00  0.00     0.020 A 
ATOM     63  C   UNL A   1      44.000  35.546  32.234  1.00  0.00     0.054 A 
BRANCH  63  64
ATOM     64  S   UNL A   1      44.109  37.261  32.813  1.00  0.00     0.124 S 
ATOM     65  O   UNL A   1      43.028  37.314  33.796  1.00  0.00    -0.237 OA
ATOM     66  O   UNL A   1      45.460  37.330  33.363  1.00  0.00    -0.237 OA
ATOM     67  O   UNL A   1      43.889  38.051  31.604  1.00  0.00    -0.744 OA
ENDBRANCH  63  64
ENDBRANCH  44  58
BRANCH  45  68
ATOM     68  C   UNL A   1      42.525  23.648  27.770  1.00  0.00    -0.014 A 
ATOM     69  C   UNL A   1      42.810  23.382  26.419  1.00  0.00     0.010 A 
ATOM     70  C   UNL A   1      42.093  22.594  28.597  1.00  0.00     0.010 A 
ATOM     71  C   UNL A   1      42.656  22.092  25.902  1.00  0.00     0.020 A 
ATOM     72  C   UNL A   1      41.964  21.298  28.089  1.00  0.00     0.020 A 
ATOM     73  C   UNL A   1      42.237  21.057  26.742  1.00  0.00     0.054 A 
BRANCH  73  74
ATOM     74  S   UNL A   1      42.107  19.379  26.063  1.00  0.00     0.124 S 
ATOM     75  O   UNL A   1      42.618  18.567  27.162  1.00  0.00    -0.237 OA
ATOM     76  O   UNL A   1      40.676  19.257  25.796  1.00  0.00    -0.237 OA
ATOM     77  O   UNL A   1      42.953  19.426  24.872  1.00  0.00    -0.744 OA
ENDBRANCH  73  74
ENDBRANCH  45  68
BRANCH  57  78
ATOM     78  C   UNL A   1      47.896  26.987  30.716  1.00  0.00    -0.014 A 
ATOM     79  C   UNL A   1      48.958  27.191  29.819  1.00  0.00     0.010 A 
ATOM     80  C   UNL A   1      48.163  26.425  31.979  1.00  0.00     0.010 A 
ATOM     81  C   UNL A   1      50.257  26.814  30.165  1.00  0.00     0.020 A 
ATOM     82  C   UNL A   1      49.465  26.072  32.340  1.00  0.00     0.020 A 
ATOM     83  C   UNL A   1      50.503  26.256  31.424  1.00  0.00     0.054 A 
BRANCH  83  84
ATOM     84  S   UNL A   1      52.206  25.817  31.868  1.00  0.00     0.124 S 
ATOM     85  O   UNL A   1      52.467  26.715  32.990  1.00  0.00    -0.237 OA
ATOM     86  O   UNL A   1      52.094  24.401  32.209  1.00  0.00    -0.237 OA
ATOM     87  O   UNL A   1      52.965  26.101  30.652  1.00  0.00    -0.744 OA
ENDBRANCH  83  84
ENDBRANCH  57  78
ENDBRANCH  31  32
ENDBRANCH  23  26
ENDBRANCH  21  22
ENDBRANCH   1  21
TORSDOF 15
ENDMDL
MODEL 3
REMARK VINA RESULT:     -10.8      2.744      9.430
REMARK SMILES COc1ccc2cc([C@H](C)C(=O)NCCCNC(=O)c3ccc(-c4c5nc(c(-c6ccc(S(=O)(=O)[O-])cc6)c6ccc([nH]6)c(-c6ccc(S(=O)(=O)[O-])cc6)c6nc(c(-c7ccc(S(=O)(=O)[O-])cc7)c7ccc4[nH]7)C=C6)C=C5)cc3)ccc2c1
REMARK SMILES IDX 15 1 14 2 13 3 11 4 12 5 9 7 10 8 8 9 3 10 4 11 83 12 5 13
REMARK SMILES IDX 82 14 6 15 81 16 7 17 80 18 2 19 1 20 16 21 17 22 18 23
REMARK SMILES IDX 19 25 20 26 21 27 79 28 22 29 78 30 23 31 24 32 25 33 72 34
REMARK SMILES IDX 26 35 77 36 71 37 73 38 27 39 76 40 70 41 69 42 28 44 58 45
REMARK SMILES IDX 39 46 57 47 40 48 43 49 56 50 74 51 41 52 42 53 55 55 75 56
REMARK SMILES IDX 44 57 29 58 30 59 38 60 31 61 37 62 32 63 33 64 34 65 35 66
REMARK SMILES IDX 36 67 59 68 60 69 68 70 61 71 67 72 62 73 63 74 64 75 65 76
REMARK SMILES IDX 66 77 45 78 46 79 54 80 47 81 53 82 48 83 49 84 50 85 51 86
REMARK SMILES IDX 52 87
REMARK H PARENT 13 6 17 24 73 43 43 54
REMARK Flexibility Score: inf
ROOT
ATOM      1  C   UNL A   1      35.639  23.705  25.643  1.00  0.00     0.042 C 
ENDROOT
BRANCH   1   2
ATOM      2  C   UNL A   1      34.700  22.645  25.105  1.00  0.00     0.117 C 
BRANCH   2   3
ATOM      3  N   UNL A   1      34.547  22.650  23.666  1.00  0.00    -0.356 N 
ATOM      4  C   UNL A   1      33.616  23.285  22.896  1.00  0.00     0.227 C 
ATOM      5  O   UNL A   1      33.795  23.272  21.672  1.00  0.00    -0.274 OA
ATOM      6  H   UNL A   1      35.211  22.118  23.170  1.00  0.00     0.163 HD
BRANCH   4   7
ATOM      7  C   UNL A   1      32.378  23.974  23.492  1.00  0.00     0.105 C 
ATOM      8  C   UNL A   1      31.532  23.046  24.372  1.00  0.00     0.023 C 
BRANCH   7   9
ATOM      9  C   UNL A   1      32.667  25.362  24.062  1.00  0.00    -0.035 A 
ATOM     10  C   UNL A   1      32.603  29.645  26.803  1.00  0.00     0.119 A 
ATOM     11  C   UNL A   1      31.742  28.767  27.456  1.00  0.00     0.047 A 
ATOM     12  C   UNL A   1      33.239  29.260  25.627  1.00  0.00     0.055 A 
ATOM     13  C   UNL A   1      31.519  27.492  26.928  1.00  0.00     0.012 A 
ATOM     14  C   UNL A   1      33.058  27.969  25.118  1.00  0.00    -0.015 A 
ATOM     15  C   UNL A   1      32.168  27.077  25.753  1.00  0.00    -0.018 A 
ATOM     16  C   UNL A   1      33.768  27.539  23.999  1.00  0.00     0.009 A 
ATOM     17  C   UNL A   1      31.956  25.800  25.195  1.00  0.00     0.013 A 
ATOM     18  C   UNL A   1      33.608  26.241  23.513  1.00  0.00     0.005 A 
BRANCH  10  19
ATOM     19  O   UNL A   1      32.818  30.926  27.233  1.00  0.00    -0.497 OA
ATOM     20  C   UNL A   1      34.130  31.097  27.763  1.00  0.00     0.278 C 
ENDBRANCH  10  19
ENDBRANCH   7   9
ENDBRANCH   4   7
ENDBRANCH   2   3
ENDBRANCH   1   2
BRANCH   1  21
ATOM     21  C   UNL A   1      36.964  23.799  24.913  1.00  0.00     0.118 C 
BRANCH  21  22
ATOM     22  N   UNL A   1      37.954  22.844  25.392  1.00  0.00    -0.352 N 
ATOM     23  C   UNL A   1      39.061  23.011  26.196  1.00  0.00     0.251 C 
ATOM     24  H   UNL A   1      37.808  21.919  25.087  1.00  0.00     0.163 HD
ATOM     25  O   UNL A   1      39.842  22.081  26.342  1.00  0.00    -0.269 OA
BRANCH  23  26
ATOM     26  C   UNL A   1      39.330  24.314  26.851  1.00  0.00     0.039 A 
ATOM     27  C   UNL A   1      38.844  24.538  28.142  1.00  0.00     0.014 A 
ATOM     28  C   UNL A   1      40.055  25.314  26.206  1.00  0.00     0.014 A 
ATOM     29  C   UNL A   1      39.166  25.724  28.811  1.00  0.00     0.010 A 
ATOM     30  C   UNL A   1      40.481  26.432  26.914  1.00  0.00     0.010 A 
ATOM     31  C   UNL A   1      40.033  26.658  28.223  1.00  0.00    -0.014 A 
BRANCH  31  32
ATOM     32  C   UNL A   1      40.471  27.885  28.939  1.00  0.00     0.031 A 
ATOM     33  C   UNL A   1      41.832  27.936  29.587  1.00  0.00     0.074 A 
ATOM     34  C   UNL A   1      39.620  28.921  29.080  1.00  0.00     0.049 A 
ATOM     35  N   UNL A   1      42.359  28.877  30.329  1.00  0.00    -0.248 NA
ATOM     36  C   UNL A   1      42.701  26.760  29.407  1.00  0.00     0.031 C 
ATOM     37  C   UNL A   1      38.255  28.979  28.551  1.00  0.00     0.029 A 
ATOM     38  N   UNL A   1      39.774  30.126  29.721  1.00  0.00    -0.354 N 
ATOM     39  C   UNL A   1      43.601  28.394  30.726  1.00  0.00     0.074 A 
ATOM     40  C   UNL A   1      43.723  27.054  30.195  1.00  0.00     0.031 C 
ATOM     41  C   UNL A   1      37.714  30.170  28.852  1.00  0.00     0.029 A 
ATOM     42  C   UNL A   1      38.672  30.943  29.636  1.00  0.00     0.049 A 
ATOM     43  H   UNL A   1      40.598  30.380  30.196  1.00  0.00     0.167 HD
ATOM     44  C   UNL A   1      44.567  29.015  31.443  1.00  0.00     0.031 A 
ATOM     45  C   UNL A   1      38.452  32.176  30.135  1.00  0.00     0.031 A 
ATOM     46  C   UNL A   1      44.455  30.357  31.947  1.00  0.00     0.049 A 
ATOM     47  C   UNL A   1      39.542  32.852  30.921  1.00  0.00     0.074 A 
ATOM     48  C   UNL A   1      45.401  31.102  32.628  1.00  0.00     0.029 A 
ATOM     49  N   UNL A   1      43.329  31.157  31.821  1.00  0.00    -0.354 N 
ATOM     50  N   UNL A   1      40.734  32.402  31.230  1.00  0.00    -0.248 NA
ATOM     51  C   UNL A   1      39.259  34.205  31.416  1.00  0.00     0.031 C 
ATOM     52  C   UNL A   1      44.830  32.336  32.955  1.00  0.00     0.029 A 
ATOM     53  C   UNL A   1      43.548  32.380  32.428  1.00  0.00     0.049 A 
ATOM     54  H   UNL A   1      42.497  30.893  31.366  1.00  0.00     0.167 HD
ATOM     55  C   UNL A   1      41.355  33.429  31.933  1.00  0.00     0.074 A 
ATOM     56  C   UNL A   1      40.410  34.526  31.991  1.00  0.00     0.031 C 
ATOM     57  C   UNL A   1      42.596  33.461  32.479  1.00  0.00     0.031 A 
BRANCH  44  58
ATOM     58  C   UNL A   1      45.830  28.241  31.722  1.00  0.00    -0.014 A 
ATOM     59  C   UNL A   1      45.959  27.455  32.883  1.00  0.00     0.010 A 
ATOM     60  C   UNL A   1      46.896  28.286  30.807  1.00  0.00     0.010 A 
ATOM     61  C   UNL A   1      47.150  26.775  33.150  1.00  0.00     0.020 A 
ATOM     62  C   UNL A   1      48.078  27.581  31.055  1.00  0.00     0.020 A 
ATOM     63  C   UNL A   1      48.205  26.847  32.236  1.00  0.00     0.054 A 
BRANCH  63  64
ATOM     64  S   UNL A   1      49.737  25.950  32.605  1.00  0.00     0.124 S 
ATOM     65  O   UNL A   1      50.691  27.043  32.777  1.00  0.00    -0.237 OA
ATOM     66  O   UNL A   1      49.395  25.218  33.822  1.00  0.00    -0.237 OA
ATOM     67  O   UNL A   1      49.948  25.121  31.421  1.00  0.00    -0.744 OA
ENDBRANCH  63  64
ENDBRANCH  44  58
BRANCH  45  68
ATOM     68  C   UNL A   1      37.156  32.860  29.877  1.00  0.00    -0.014 A 
ATOM     69  C   UNL A   1      36.131  32.828  30.839  1.00  0.00     0.010 A 
ATOM     70  C   UNL A   1      36.947  33.570  28.680  1.00  0.00     0.010 A 
ATOM     71  C   UNL A   1      34.917  33.482  30.605  1.00  0.00     0.020 A 
ATOM     72  C   UNL A   1      35.744  34.247  28.454  1.00  0.00     0.020 A 
ATOM     73  C   UNL A   1      34.734  34.191  29.415  1.00  0.00     0.054 A 
BRANCH  73  74
ATOM     74  S   UNL A   1      33.175  35.085  29.163  1.00  0.00     0.124 S 
ATOM     75  O   UNL A   1      33.644  36.389  28.706  1.00  0.00    -0.237 OA
ATOM     76  O   UNL A   1      32.500  34.266  28.159  1.00  0.00    -0.237 OA
ATOM     77  O   UNL A   1      32.555  35.071  30.487  1.00  0.00    -0.744 OA
ENDBRANCH  73  74
ENDBRANCH  45  68
BRANCH  57  78
ATOM     78  C   UNL A   1      43.019  34.733  33.163  1.00  0.00    -0.014 A 
ATOM     79  C   UNL A   1      42.836  34.915  34.544  1.00  0.00     0.010 A 
ATOM     80  C   UNL A   1      43.663  35.738  32.417  1.00  0.00     0.010 A 
ATOM     81  C   UNL A   1      43.262  36.092  35.163  1.00  0.00     0.020 A 
ATOM     82  C   UNL A   1      44.116  36.905  33.037  1.00  0.00     0.020 A 
ATOM     83  C   UNL A   1      43.900  37.081  34.406  1.00  0.00     0.054 A 
BRANCH  83  84
ATOM     84  S   UNL A   1      44.486  38.580  35.242  1.00  0.00     0.124 S 
ATOM     85  O   UNL A   1      43.709  39.622  34.575  1.00  0.00    -0.237 OA
ATOM     86  O   UNL A   1      44.132  38.328  36.636  1.00  0.00    -0.237 OA
ATOM     87  O   UNL A   1      45.920  38.594  34.962  1.00  0.00    -0.744 OA
ENDBRANCH  83  84
ENDBRANCH  57  78
ENDBRANCH  31  32
ENDBRANCH  23  26
ENDBRANCH  21  22
ENDBRANCH   1  21
TORSDOF 15
ENDMDL
