MODEL 1
REMARK VINA RESULT:     -11.6      0.000      0.000
REMARK SMILES COc1cc([C@@H]2[NH2+][C@H](C(=O)NCCCNC(=O)c3ccc(-c4c5nc(c(-c6ccc(S(=O)(=O)[O-])cc6)c6ccc([nH]6)c(-c6ccc(S(=O)(=O)[O-])cc6)c6nc(c(-c7ccc(S(=O)(=O)[O-])cc7)c7ccc4[nH]7)C=C6)C=C5)cc3)CS2)ccc1OCc1ccc(Cl)cc1
REMARK SMILES IDX 12 1 11 2 9 3 10 4 8 6 6 7 7 8 79 9 78 12 5 13 3 14 4 15
REMARK SMILES IDX 82 16 81 17 80 18 2 19 1 20 83 21 84 22 85 23 86 24 91 25
REMARK SMILES IDX 87 26 90 27 88 28 89 29 13 30 14 31 15 32 16 33 17 35 18 36
REMARK SMILES IDX 19 37 77 38 20 39 76 40 21 41 22 42 23 43 70 44 24 45 75 46
REMARK SMILES IDX 69 47 71 48 25 49 74 50 68 51 67 52 26 54 56 55 37 56 55 57
REMARK SMILES IDX 38 58 41 59 54 60 72 61 39 62 40 63 53 65 73 66 42 67 27 68
REMARK SMILES IDX 28 69 36 70 29 71 35 72 30 73 31 74 32 75 33 76 34 77 57 78
REMARK SMILES IDX 58 79 66 80 59 81 65 82 60 83 61 84 62 85 63 86 64 87 43 88
REMARK SMILES IDX 44 89 52 90 45 91 51 92 46 93 47 94 48 95 49 96 50 97
REMARK H PARENT 11 5 7 10 7 11 15 34 71 53 41 64
REMARK Flexibility Score: inf
ROOT
ATOM      1  C   UNL A   1      32.187  26.117  26.426  1.00  0.00     0.118 C 
ENDROOT
BRANCH   1   2
ATOM      2  N   UNL A   1      31.085  25.293  26.902  1.00  0.00    -0.351 N 
ATOM      3  C   UNL A   1      30.828  23.960  26.776  1.00  0.00     0.279 C 
ATOM      4  O   UNL A   1      29.785  23.550  27.303  1.00  0.00    -0.268 OA
ATOM      5  H   UNL A   1      30.402  25.789  27.408  1.00  0.00     0.163 HD
BRANCH   3   6
ATOM      6  C   UNL A   1      31.773  22.949  26.096  1.00  0.00     0.283 C 
ATOM      7  C   UNL A   1      33.031  22.610  24.044  1.00  0.00     0.274 C 
ATOM      8  N   UNL A   1      31.747  23.046  24.626  1.00  0.00    -0.321 N 
ATOM      9  S   UNL A   1      34.122  22.100  25.400  1.00  0.00    -0.088 SA
ATOM     10  H   UNL A   1      30.999  22.453  24.266  1.00  0.00     0.348 HD
ATOM     11  H   UNL A   1      31.587  24.020  24.368  1.00  0.00     0.348 HD
ATOM     12  C   UNL A   1      33.193  23.055  26.621  1.00  0.00     0.151 C 
BRANCH   7  13
ATOM     13  C   UNL A   1      33.528  23.774  23.191  1.00  0.00     0.024 A 
ATOM     14  C   UNL A   1      32.814  25.335  21.456  1.00  0.00     0.161 A 
ATOM     15  C   UNL A   1      32.830  24.045  21.994  1.00  0.00     0.061 A 
ATOM     16  C   UNL A   1      33.504  26.352  22.115  1.00  0.00     0.161 A 
ATOM     17  C   UNL A   1      34.359  26.040  23.173  1.00  0.00     0.051 A 
ATOM     18  C   UNL A   1      34.394  24.754  23.696  1.00  0.00     0.015 A 
BRANCH  14  19
ATOM     19  O   UNL A   1      31.881  25.590  20.487  1.00  0.00    -0.493 OA
ATOM     20  C   UNL A   1      32.458  25.525  19.181  1.00  0.00     0.278 C 
ENDBRANCH  14  19
BRANCH  16  21
ATOM     21  O   UNL A   1      33.271  27.693  22.019  1.00  0.00    -0.485 OA
BRANCH  21  22
ATOM     22  C   UNL A   1      32.709  28.364  23.132  1.00  0.00     0.265 C 
BRANCH  22  23
ATOM     23  C   UNL A   1      31.211  28.366  23.100  1.00  0.00    -0.011 A 
ATOM     24  C   UNL A   1      30.491  27.260  23.577  1.00  0.00     0.009 A 
ATOM     25  C   UNL A   1      30.523  29.446  22.544  1.00  0.00     0.009 A 
ATOM     26  C   UNL A   1      29.104  27.288  23.610  1.00  0.00     0.021 A 
ATOM     27  C   UNL A   1      29.132  29.468  22.558  1.00  0.00     0.021 A 
ATOM     28  C   UNL A   1      28.430  28.403  23.118  1.00  0.00     0.041 A 
ATOM     29  Cl  UNL A   1      26.716  28.466  23.218  1.00  0.00    -0.084 Cl
ENDBRANCH  22  23
ENDBRANCH  21  22
ENDBRANCH  16  21
ENDBRANCH   7  13
ENDBRANCH   3   6
ENDBRANCH   1   2
BRANCH   1  30
ATOM     30  C   UNL A   1      32.087  27.556  26.916  1.00  0.00     0.042 C 
BRANCH  30  31
ATOM     31  C   UNL A   1      33.385  28.310  27.224  1.00  0.00     0.118 C 
BRANCH  31  32
ATOM     32  N   UNL A   1      33.306  29.711  27.626  1.00  0.00    -0.352 N 
ATOM     33  C   UNL A   1      34.274  30.634  27.992  1.00  0.00     0.251 C 
ATOM     34  H   UNL A   1      32.390  30.070  27.640  1.00  0.00     0.163 HD
ATOM     35  O   UNL A   1      33.916  31.804  28.141  1.00  0.00    -0.269 OA
BRANCH  33  36
ATOM     36  C   UNL A   1      35.688  30.265  28.322  1.00  0.00     0.039 A 
ATOM     37  C   UNL A   1      35.974  29.803  29.622  1.00  0.00     0.014 A 
ATOM     38  C   UNL A   1      36.713  30.243  27.382  1.00  0.00     0.014 A 
ATOM     39  C   UNL A   1      37.195  29.168  29.911  1.00  0.00     0.010 A 
ATOM     40  C   UNL A   1      37.899  29.554  27.638  1.00  0.00     0.010 A 
ATOM     41  C   UNL A   1      38.154  29.008  28.904  1.00  0.00    -0.014 A 
BRANCH  41  42
ATOM     42  C   UNL A   1      39.532  28.542  29.211  1.00  0.00     0.031 A 
ATOM     43  C   UNL A   1      40.411  29.495  29.969  1.00  0.00     0.074 A 
ATOM     44  C   UNL A   1      40.028  27.364  28.789  1.00  0.00     0.049 A 
ATOM     45  N   UNL A   1      41.658  29.363  30.332  1.00  0.00    -0.248 NA
ATOM     46  C   UNL A   1      39.812  30.797  30.318  1.00  0.00     0.031 C 
ATOM     47  C   UNL A   1      39.315  26.385  27.974  1.00  0.00     0.029 A 
ATOM     48  N   UNL A   1      41.263  26.789  28.984  1.00  0.00    -0.354 N 
ATOM     49  C   UNL A   1      41.992  30.568  30.936  1.00  0.00     0.074 A 
ATOM     50  C   UNL A   1      40.849  31.441  30.819  1.00  0.00     0.031 C 
ATOM     51  C   UNL A   1      40.104  25.310  27.778  1.00  0.00     0.029 A 
ATOM     52  C   UNL A   1      41.396  25.537  28.425  1.00  0.00     0.049 A 
ATOM     53  H   UNL A   1      41.989  27.234  29.480  1.00  0.00     0.167 HD
ATOM     54  C   UNL A   1      43.138  30.915  31.562  1.00  0.00     0.031 A 
ATOM     55  C   UNL A   1      42.440  24.680  28.440  1.00  0.00     0.031 A 
ATOM     56  C   UNL A   1      44.281  30.057  31.673  1.00  0.00     0.049 A 
ATOM     57  C   UNL A   1      43.715  25.088  29.145  1.00  0.00     0.074 A 
ATOM     58  C   UNL A   1      45.478  30.301  32.318  1.00  0.00     0.029 A 
ATOM     59  N   UNL A   1      44.369  28.789  31.119  1.00  0.00    -0.354 N 
ATOM     60  N   UNL A   1      43.986  26.200  29.789  1.00  0.00    -0.248 NA
ATOM     61  C   UNL A   1      44.826  24.123  29.126  1.00  0.00     0.031 C 
ATOM     62  C   UNL A   1      46.314  29.200  32.109  1.00  0.00     0.029 A 
ATOM     63  C   UNL A   1      45.611  28.245  31.391  1.00  0.00     0.049 A 
ATOM     64  H   UNL A   1      43.655  28.344  30.609  1.00  0.00     0.167 HD
ATOM     65  C   UNL A   1      45.285  26.056  30.272  1.00  0.00     0.074 A 
ATOM     66  C   UNL A   1      45.736  24.740  29.868  1.00  0.00     0.031 C 
ATOM     67  C   UNL A   1      46.041  26.932  30.981  1.00  0.00     0.031 A 
BRANCH  54  68
ATOM     68  C   UNL A   1      43.184  32.291  32.161  1.00  0.00    -0.014 A 
ATOM     69  C   UNL A   1      42.775  32.512  33.490  1.00  0.00     0.010 A 
ATOM     70  C   UNL A   1      43.607  33.379  31.379  1.00  0.00     0.010 A 
ATOM     71  C   UNL A   1      42.736  33.807  34.009  1.00  0.00     0.020 A 
ATOM     72  C   UNL A   1      43.603  34.672  31.908  1.00  0.00     0.020 A 
ATOM     73  C   UNL A   1      43.148  34.878  33.212  1.00  0.00     0.054 A 
BRANCH  73  74
ATOM     74  S   UNL A   1      43.098  36.545  33.920  1.00  0.00     0.124 S 
ATOM     75  O   UNL A   1      41.736  36.610  34.442  1.00  0.00    -0.237 OA
ATOM     76  O   UNL A   1      44.155  36.498  34.923  1.00  0.00    -0.237 OA
ATOM     77  O   UNL A   1      43.367  37.415  32.774  1.00  0.00    -0.744 OA
ENDBRANCH  73  74
ENDBRANCH  54  68
BRANCH  55  78
ATOM     78  C   UNL A   1      42.349  23.338  27.786  1.00  0.00    -0.014 A 
ATOM     79  C   UNL A   1      42.023  22.195  28.542  1.00  0.00     0.010 A 
ATOM     80  C   UNL A   1      42.639  23.181  26.419  1.00  0.00     0.010 A 
ATOM     81  C   UNL A   1      42.016  20.925  27.954  1.00  0.00     0.020 A 
ATOM     82  C   UNL A   1      42.603  21.915  25.819  1.00  0.00     0.020 A 
ATOM     83  C   UNL A   1      42.305  20.793  26.594  1.00  0.00     0.054 A 
BRANCH  83  84
ATOM     84  S   UNL A   1      42.251  19.141  25.842  1.00  0.00     0.124 S 
ATOM     85  O   UNL A   1      43.154  19.292  24.707  1.00  0.00    -0.237 OA
ATOM     86  O   UNL A   1      42.729  18.287  26.925  1.00  0.00    -0.237 OA
ATOM     87  O   UNL A   1      40.839  18.969  25.501  1.00  0.00    -0.744 OA
ENDBRANCH  83  84
ENDBRANCH  55  78
BRANCH  67  88
ATOM     88  C   UNL A   1      47.418  26.488  31.402  1.00  0.00    -0.014 A 
ATOM     89  C   UNL A   1      47.628  25.765  32.589  1.00  0.00     0.010 A 
ATOM     90  C   UNL A   1      48.515  26.754  30.560  1.00  0.00     0.010 A 
ATOM     91  C   UNL A   1      48.915  25.352  32.948  1.00  0.00     0.020 A 
ATOM     92  C   UNL A   1      49.797  26.314  30.898  1.00  0.00     0.020 A 
ATOM     93  C   UNL A   1      49.992  25.633  32.100  1.00  0.00     0.054 A 
BRANCH  93  94
ATOM     94  S   UNL A   1      51.648  25.065  32.575  1.00  0.00     0.124 S 
ATOM     95  O   UNL A   1      51.781  25.612  33.922  1.00  0.00    -0.237 OA
ATOM     96  O   UNL A   1      51.523  23.612  32.495  1.00  0.00    -0.237 OA
ATOM     97  O   UNL A   1      52.521  25.665  31.569  1.00  0.00    -0.744 OA
ENDBRANCH  93  94
ENDBRANCH  67  88
ENDBRANCH  41  42
ENDBRANCH  33  36
ENDBRANCH  31  32
ENDBRANCH  30  31
ENDBRANCH   1  30
TORSDOF 18
ENDMDL
MODEL 2
REMARK VINA RESULT:     -11.3      4.382      9.366
REMARK SMILES COc1cc([C@@H]2[NH2+][C@H](C(=O)NCCCNC(=O)c3ccc(-c4c5nc(c(-c6ccc(S(=O)(=O)[O-])cc6)c6ccc([nH]6)c(-c6ccc(S(=O)(=O)[O-])cc6)c6nc(c(-c7ccc(S(=O)(=O)[O-])cc7)c7ccc4[nH]7)C=C6)C=C5)cc3)CS2)ccc1OCc1ccc(Cl)cc1
REMARK SMILES IDX 12 1 11 2 9 3 10 4 8 6 6 7 7 8 79 9 78 12 5 13 3 14 4 15
REMARK SMILES IDX 82 16 81 17 80 18 2 19 1 20 83 21 84 22 85 23 86 24 91 25
REMARK SMILES IDX 87 26 90 27 88 28 89 29 13 30 14 31 15 32 16 33 17 35 18 36
REMARK SMILES IDX 19 37 77 38 20 39 76 40 21 41 22 42 23 43 70 44 24 45 75 46
REMARK SMILES IDX 69 47 71 48 25 49 74 50 68 51 67 52 26 54 56 55 37 56 55 57
REMARK SMILES IDX 38 58 41 59 54 60 72 61 39 62 40 63 53 65 73 66 42 67 27 68
REMARK SMILES IDX 28 69 36 70 29 71 35 72 30 73 31 74 32 75 33 76 34 77 57 78
REMARK SMILES IDX 58 79 66 80 59 81 65 82 60 83 61 84 62 85 63 86 64 87 43 88
REMARK SMILES IDX 44 89 52 90 45 91 51 92 46 93 47 94 48 95 49 96 50 97
REMARK H PARENT 11 5 7 10 7 11 15 34 71 53 41 64
REMARK Flexibility Score: inf
ROOT
ATOM      1  C   UNL A   1      37.149  22.519  25.397  1.00  0.00     0.118 C 
ENDROOT
BRANCH   1   2
ATOM      2  N   UNL A   1      36.086  21.742  26.017  1.00  0.00    -0.351 N 
ATOM      3  C   UNL A   1      34.854  21.367  25.566  1.00  0.00     0.279 C 
ATOM      4  O   UNL A   1      34.166  20.694  26.346  1.00  0.00    -0.268 OA
ATOM      5  H   UNL A   1      36.294  21.430  26.927  1.00  0.00     0.163 HD
BRANCH   3   6
ATOM      6  C   UNL A   1      34.315  21.662  24.153  1.00  0.00     0.283 C 
ATOM      7  C   UNL A   1      32.327  22.470  23.010  1.00  0.00     0.274 C 
ATOM      8  N   UNL A   1      32.844  21.595  24.079  1.00  0.00    -0.321 N 
ATOM      9  S   UNL A   1      33.740  23.262  22.194  1.00  0.00    -0.088 SA
ATOM     10  H   UNL A   1      32.564  20.633  23.887  1.00  0.00     0.348 HD
ATOM     11  H   UNL A   1      32.460  21.909  24.971  1.00  0.00     0.348 HD
ATOM     12  C   UNL A   1      34.823  22.988  23.614  1.00  0.00     0.151 C 
BRANCH   7  13
ATOM     13  C   UNL A   1      31.329  23.413  23.677  1.00  0.00     0.024 A 
ATOM     14  C   UNL A   1      30.689  24.318  25.852  1.00  0.00     0.161 A 
ATOM     15  C   UNL A   1      31.099  23.242  25.060  1.00  0.00     0.061 A 
ATOM     16  C   UNL A   1      30.501  25.564  25.255  1.00  0.00     0.161 A 
ATOM     17  C   UNL A   1      30.524  25.681  23.864  1.00  0.00     0.051 A 
ATOM     18  C   UNL A   1      30.910  24.606  23.073  1.00  0.00     0.015 A 
BRANCH  14  19
ATOM     19  O   UNL A   1      30.787  24.161  27.208  1.00  0.00    -0.493 OA
ATOM     20  C   UNL A   1      31.723  23.134  27.545  1.00  0.00     0.278 C 
ENDBRANCH  14  19
BRANCH  16  21
ATOM     21  O   UNL A   1      30.534  26.780  25.874  1.00  0.00    -0.485 OA
BRANCH  21  22
ATOM     22  C   UNL A   1      31.037  27.892  25.158  1.00  0.00     0.265 C 
BRANCH  22  23
ATOM     23  C   UNL A   1      32.026  28.686  25.958  1.00  0.00    -0.011 A 
ATOM     24  C   UNL A   1      33.191  28.078  26.447  1.00  0.00     0.009 A 
ATOM     25  C   UNL A   1      31.765  30.022  26.267  1.00  0.00     0.009 A 
ATOM     26  C   UNL A   1      34.139  28.828  27.129  1.00  0.00     0.021 A 
ATOM     27  C   UNL A   1      32.704  30.770  26.969  1.00  0.00     0.021 A 
ATOM     28  C   UNL A   1      33.899  30.179  27.370  1.00  0.00     0.041 A 
ATOM     29  Cl  UNL A   1      35.099  31.122  28.157  1.00  0.00    -0.084 Cl
ENDBRANCH  22  23
ENDBRANCH  21  22
ENDBRANCH  16  21
ENDBRANCH   7  13
ENDBRANCH   3   6
ENDBRANCH   1   2
BRANCH   1  30
ATOM     30  C   UNL A   1      37.448  23.802  26.162  1.00  0.00     0.042 C 
BRANCH  30  31
ATOM     31  C   UNL A   1      38.858  23.996  26.732  1.00  0.00     0.118 C 
BRANCH  31  32
ATOM     32  N   UNL A   1      39.875  24.625  25.896  1.00  0.00    -0.352 N 
ATOM     33  C   UNL A   1      40.754  25.672  26.124  1.00  0.00     0.251 C 
ATOM     34  H   UNL A   1      39.952  24.230  24.998  1.00  0.00     0.163 HD
ATOM     35  O   UNL A   1      41.614  25.890  25.267  1.00  0.00    -0.269 OA
BRANCH  33  36
ATOM     36  C   UNL A   1      40.642  26.611  27.286  1.00  0.00     0.039 A 
ATOM     37  C   UNL A   1      39.713  26.311  28.303  1.00  0.00     0.014 A 
ATOM     38  C   UNL A   1      41.487  27.699  27.476  1.00  0.00     0.014 A 
ATOM     39  C   UNL A   1      39.762  26.970  29.544  1.00  0.00     0.010 A 
ATOM     40  C   UNL A   1      41.590  28.311  28.726  1.00  0.00     0.010 A 
ATOM     41  C   UNL A   1      40.730  27.954  29.774  1.00  0.00    -0.014 A 
BRANCH  41  42
ATOM     42  C   UNL A   1      40.684  28.821  30.980  1.00  0.00     0.031 A 
ATOM     43  C   UNL A   1      39.636  29.897  30.996  1.00  0.00     0.074 A 
ATOM     44  C   UNL A   1      41.562  28.726  31.997  1.00  0.00     0.049 A 
ATOM     45  N   UNL A   1      39.400  30.811  31.897  1.00  0.00    -0.248 NA
ATOM     46  C   UNL A   1      38.772  29.982  29.804  1.00  0.00     0.031 C 
ATOM     47  C   UNL A   1      42.678  27.788  32.069  1.00  0.00     0.029 A 
ATOM     48  N   UNL A   1      41.657  29.439  33.170  1.00  0.00    -0.354 N 
ATOM     49  C   UNL A   1      38.373  31.585  31.372  1.00  0.00     0.074 A 
ATOM     50  C   UNL A   1      38.089  31.084  30.049  1.00  0.00     0.031 C 
ATOM     51  C   UNL A   1      43.318  27.948  33.245  1.00  0.00     0.029 A 
ATOM     52  C   UNL A   1      42.678  29.027  33.998  1.00  0.00     0.049 A 
ATOM     53  H   UNL A   1      41.049  30.180  33.397  1.00  0.00     0.167 HD
ATOM     54  C   UNL A   1      37.699  32.605  31.947  1.00  0.00     0.031 A 
ATOM     55  C   UNL A   1      43.046  29.472  35.220  1.00  0.00     0.031 A 
ATOM     56  C   UNL A   1      37.983  33.114  33.257  1.00  0.00     0.049 A 
ATOM     57  C   UNL A   1      42.280  30.617  35.845  1.00  0.00     0.074 A 
ATOM     58  C   UNL A   1      37.335  34.122  33.944  1.00  0.00     0.029 A 
ATOM     59  N   UNL A   1      39.004  32.656  34.075  1.00  0.00    -0.354 N 
ATOM     60  N   UNL A   1      41.252  31.282  35.371  1.00  0.00    -0.248 NA
ATOM     61  C   UNL A   1      42.724  31.070  37.172  1.00  0.00     0.031 C 
ATOM     62  C   UNL A   1      37.999  34.312  35.160  1.00  0.00     0.029 A 
ATOM     63  C   UNL A   1      39.017  33.376  35.255  1.00  0.00     0.049 A 
ATOM     64  H   UNL A   1      39.625  31.927  33.849  1.00  0.00     0.167 HD
ATOM     65  C   UNL A   1      40.912  32.211  36.353  1.00  0.00     0.074 A 
ATOM     66  C   UNL A   1      41.828  32.005  37.456  1.00  0.00     0.031 C 
ATOM     67  C   UNL A   1      39.936  33.154  36.343  1.00  0.00     0.031 A 
BRANCH  54  68
ATOM     68  C   UNL A   1      36.599  33.223  31.135  1.00  0.00    -0.014 A 
ATOM     69  C   UNL A   1      36.891  33.988  29.989  1.00  0.00     0.010 A 
ATOM     70  C   UNL A   1      35.261  33.070  31.538  1.00  0.00     0.010 A 
ATOM     71  C   UNL A   1      35.870  34.633  29.292  1.00  0.00     0.020 A 
ATOM     72  C   UNL A   1      34.233  33.686  30.821  1.00  0.00     0.020 A 
ATOM     73  C   UNL A   1      34.547  34.480  29.716  1.00  0.00     0.054 A 
BRANCH  73  74
ATOM     74  S   UNL A   1      33.242  35.320  28.781  1.00  0.00     0.124 S 
ATOM     75  O   UNL A   1      34.014  36.223  27.932  1.00  0.00    -0.237 OA
ATOM     76  O   UNL A   1      32.582  34.218  28.092  1.00  0.00    -0.237 OA
ATOM     77  O   UNL A   1      32.441  35.973  29.819  1.00  0.00    -0.744 OA
ENDBRANCH  73  74
ENDBRANCH  54  68
BRANCH  55  78
ATOM     78  C   UNL A   1      44.182  28.844  35.962  1.00  0.00    -0.014 A 
ATOM     79  C   UNL A   1      45.495  29.326  35.800  1.00  0.00     0.010 A 
ATOM     80  C   UNL A   1      43.971  27.729  36.792  1.00  0.00     0.010 A 
ATOM     81  C   UNL A   1      46.574  28.692  36.428  1.00  0.00     0.020 A 
ATOM     82  C   UNL A   1      45.044  27.110  37.447  1.00  0.00     0.020 A 
ATOM     83  C   UNL A   1      46.341  27.587  37.250  1.00  0.00     0.054 A 
BRANCH  83  84
ATOM     84  S   UNL A   1      47.750  26.804  38.087  1.00  0.00     0.124 S 
ATOM     85  O   UNL A   1      47.491  27.127  39.486  1.00  0.00    -0.237 OA
ATOM     86  O   UNL A   1      47.593  25.400  37.719  1.00  0.00    -0.237 OA
ATOM     87  O   UNL A   1      48.910  27.469  37.494  1.00  0.00    -0.744 OA
ENDBRANCH  83  84
ENDBRANCH  55  78
BRANCH  67  88
ATOM     88  C   UNL A   1      39.776  34.011  37.573  1.00  0.00    -0.014 A 
ATOM     89  C   UNL A   1      38.914  33.643  38.619  1.00  0.00     0.010 A 
ATOM     90  C   UNL A   1      40.552  35.179  37.705  1.00  0.00     0.010 A 
ATOM     91  C   UNL A   1      38.796  34.448  39.756  1.00  0.00     0.020 A 
ATOM     92  C   UNL A   1      40.463  35.968  38.854  1.00  0.00     0.020 A 
ATOM     93  C   UNL A   1      39.571  35.608  39.864  1.00  0.00     0.054 A 
BRANCH  93  94
ATOM     94  S   UNL A   1      39.420  36.623  41.359  1.00  0.00     0.124 S 
ATOM     95  O   UNL A   1      38.940  37.890  40.818  1.00  0.00    -0.237 OA
ATOM     96  O   UNL A   1      38.455  35.873  42.159  1.00  0.00    -0.237 OA
ATOM     97  O   UNL A   1      40.779  36.650  41.898  1.00  0.00    -0.744 OA
ENDBRANCH  93  94
ENDBRANCH  67  88
ENDBRANCH  41  42
ENDBRANCH  33  36
ENDBRANCH  31  32
ENDBRANCH  30  31
ENDBRANCH   1  30
TORSDOF 18
ENDMDL
MODEL 3
REMARK VINA RESULT:     -11.1      4.017      9.862
REMARK SMILES COc1cc([C@@H]2[NH2+][C@H](C(=O)NCCCNC(=O)c3ccc(-c4c5nc(c(-c6ccc(S(=O)(=O)[O-])cc6)c6ccc([nH]6)c(-c6ccc(S(=O)(=O)[O-])cc6)c6nc(c(-c7ccc(S(=O)(=O)[O-])cc7)c7ccc4[nH]7)C=C6)C=C5)cc3)CS2)ccc1OCc1ccc(Cl)cc1
REMARK SMILES IDX 12 1 11 2 9 3 10 4 8 6 6 7 7 8 79 9 78 12 5 13 3 14 4 15
REMARK SMILES IDX 82 16 81 17 80 18 2 19 1 20 83 21 84 22 85 23 86 24 91 25
REMARK SMILES IDX 87 26 90 27 88 28 89 29 13 30 14 31 15 32 16 33 17 35 18 36
REMARK SMILES IDX 19 37 77 38 20 39 76 40 21 41 22 42 23 43 70 44 24 45 75 46
REMARK SMILES IDX 69 47 71 48 25 49 74 50 68 51 67 52 26 54 56 55 37 56 55 57
REMARK SMILES IDX 38 58 41 59 54 60 72 61 39 62 40 63 53 65 73 66 42 67 27 68
REMARK SMILES IDX 28 69 36 70 29 71 35 72 30 73 31 74 32 75 33 76 34 77 57 78
REMARK SMILES IDX 58 79 66 80 59 81 65 82 60 83 61 84 62 85 63 86 64 87 43 88
REMARK SMILES IDX 44 89 52 90 45 91 51 92 46 93 47 94 48 95 49 96 50 97
REMARK H PARENT 11 5 7 10 7 11 15 34 71 53 41 64
REMARK Flexibility Score: inf
ROOT
ATOM      1  C   UNL A   1      38.586  22.301  25.867  1.00  0.00     0.118 C 
ENDROOT
BRANCH   1   2
ATOM      2  N   UNL A   1      37.701  23.019  24.962  1.00  0.00    -0.351 N 
ATOM      3  C   UNL A   1      36.365  22.898  24.711  1.00  0.00     0.279 C 
ATOM      4  O   UNL A   1      35.893  23.670  23.867  1.00  0.00    -0.268 OA
ATOM      5  H   UNL A   1      38.147  23.720  24.435  1.00  0.00     0.163 HD
BRANCH   3   6
ATOM      6  C   UNL A   1      35.422  21.930  25.454  1.00  0.00     0.283 C 
ATOM      7  C   UNL A   1      33.278  21.873  26.598  1.00  0.00     0.274 C 
ATOM      8  N   UNL A   1      34.536  22.619  26.409  1.00  0.00    -0.321 N 
ATOM      9  S   UNL A   1      33.352  20.374  25.581  1.00  0.00    -0.088 SA
ATOM     10  H   UNL A   1      35.014  22.701  27.307  1.00  0.00     0.348 HD
ATOM     11  H   UNL A   1      34.314  23.543  26.037  1.00  0.00     0.348 HD
ATOM     12  C   UNL A   1      34.619  21.069  24.496  1.00  0.00     0.151 C 
BRANCH   7  13
ATOM     13  C   UNL A   1      32.151  22.848  26.268  1.00  0.00     0.024 A 
ATOM     14  C   UNL A   1      31.609  25.228  26.233  1.00  0.00     0.161 A 
ATOM     15  C   UNL A   1      32.209  24.130  26.856  1.00  0.00     0.061 A 
ATOM     16  C   UNL A   1      30.944  25.038  25.022  1.00  0.00     0.161 A 
ATOM     17  C   UNL A   1      30.709  23.744  24.552  1.00  0.00     0.051 A 
ATOM     18  C   UNL A   1      31.286  22.649  25.183  1.00  0.00     0.015 A 
BRANCH  14  19
ATOM     19  O   UNL A   1      31.965  26.469  26.688  1.00  0.00    -0.493 OA
ATOM     20  C   UNL A   1      33.247  26.856  26.189  1.00  0.00     0.278 C 
ENDBRANCH  14  19
BRANCH  16  21
ATOM     21  O   UNL A   1      30.687  25.984  24.073  1.00  0.00    -0.485 OA
BRANCH  21  22
ATOM     22  C   UNL A   1      29.340  26.254  23.732  1.00  0.00     0.265 C 
BRANCH  22  23
ATOM     23  C   UNL A   1      29.093  27.714  23.498  1.00  0.00    -0.011 A 
ATOM     24  C   UNL A   1      27.819  28.164  23.120  1.00  0.00     0.009 A 
ATOM     25  C   UNL A   1      30.143  28.628  23.603  1.00  0.00     0.009 A 
ATOM     26  C   UNL A   1      27.573  29.522  22.970  1.00  0.00     0.021 A 
ATOM     27  C   UNL A   1      29.902  29.987  23.433  1.00  0.00     0.021 A 
ATOM     28  C   UNL A   1      28.613  30.430  23.148  1.00  0.00     0.041 A 
ATOM     29  Cl  UNL A   1      28.294  32.114  23.025  1.00  0.00    -0.084 Cl
ENDBRANCH  22  23
ENDBRANCH  21  22
ENDBRANCH  16  21
ENDBRANCH   7  13
ENDBRANCH   3   6
ENDBRANCH   1   2
BRANCH   1  30
ATOM     30  C   UNL A   1      39.217  23.220  26.907  1.00  0.00     0.042 C 
BRANCH  30  31
ATOM     31  C   UNL A   1      40.739  23.399  26.889  1.00  0.00     0.118 C 
BRANCH  31  32
ATOM     32  N   UNL A   1      41.336  24.237  25.854  1.00  0.00    -0.352 N 
ATOM     33  C   UNL A   1      41.747  25.561  25.845  1.00  0.00     0.251 C 
ATOM     34  H   UNL A   1      41.475  23.773  24.997  1.00  0.00     0.163 HD
ATOM     35  O   UNL A   1      42.362  25.959  24.853  1.00  0.00    -0.269 OA
BRANCH  33  36
ATOM     36  C   UNL A   1      41.388  26.547  26.914  1.00  0.00     0.039 A 
ATOM     37  C   UNL A   1      40.461  26.157  27.902  1.00  0.00     0.014 A 
ATOM     38  C   UNL A   1      42.008  27.784  27.054  1.00  0.00     0.014 A 
ATOM     39  C   UNL A   1      40.305  26.905  29.082  1.00  0.00     0.010 A 
ATOM     40  C   UNL A   1      41.912  28.497  28.250  1.00  0.00     0.010 A 
ATOM     41  C   UNL A   1      41.061  28.067  29.277  1.00  0.00    -0.014 A 
BRANCH  41  42
ATOM     42  C   UNL A   1      40.777  28.999  30.400  1.00  0.00     0.031 A 
ATOM     43  C   UNL A   1      41.647  28.871  31.618  1.00  0.00     0.074 A 
ATOM     44  C   UNL A   1      39.757  29.879  30.394  1.00  0.00     0.049 A 
ATOM     45  N   UNL A   1      41.594  29.524  32.746  1.00  0.00    -0.248 NA
ATOM     46  C   UNL A   1      42.685  27.825  31.569  1.00  0.00     0.031 C 
ATOM     47  C   UNL A   1      38.786  30.045  29.317  1.00  0.00     0.029 A 
ATOM     48  N   UNL A   1      39.362  30.800  31.337  1.00  0.00    -0.354 N 
ATOM     49  C   UNL A   1      42.580  28.957  33.543  1.00  0.00     0.074 A 
ATOM     50  C   UNL A   1      43.156  27.860  32.801  1.00  0.00     0.031 C 
ATOM     51  C   UNL A   1      37.936  31.042  29.636  1.00  0.00     0.029 A 
ATOM     52  C   UNL A   1      38.280  31.564  30.958  1.00  0.00     0.049 A 
ATOM     53  H   UNL A   1      39.813  30.904  32.206  1.00  0.00     0.167 HD
ATOM     54  C   UNL A   1      42.996  29.328  34.773  1.00  0.00     0.031 A 
ATOM     55  C   UNL A   1      37.648  32.566  31.607  1.00  0.00     0.031 A 
ATOM     56  C   UNL A   1      42.422  30.409  35.520  1.00  0.00     0.049 A 
ATOM     57  C   UNL A   1      38.127  32.965  32.986  1.00  0.00     0.074 A 
ATOM     58  C   UNL A   1      42.795  30.887  36.761  1.00  0.00     0.029 A 
ATOM     59  N   UNL A   1      41.347  31.174  35.095  1.00  0.00    -0.354 N 
ATOM     60  N   UNL A   1      39.120  32.475  33.691  1.00  0.00    -0.248 NA
ATOM     61  C   UNL A   1      37.401  34.056  33.654  1.00  0.00     0.031 C 
ATOM     62  C   UNL A   1      41.909  31.912  37.113  1.00  0.00     0.029 A 
ATOM     63  C   UNL A   1      41.030  32.113  36.060  1.00  0.00     0.049 A 
ATOM     64  H   UNL A   1      40.881  31.067  34.234  1.00  0.00     0.167 HD
ATOM     65  C   UNL A   1      39.152  33.214  34.872  1.00  0.00     0.074 A 
ATOM     66  C   UNL A   1      38.096  34.201  34.774  1.00  0.00     0.031 C 
ATOM     67  C   UNL A   1      39.975  33.088  35.943  1.00  0.00     0.031 A 
BRANCH  54  68
ATOM     68  C   UNL A   1      44.125  28.536  35.367  1.00  0.00    -0.014 A 
ATOM     69  C   UNL A   1      43.884  27.302  36.001  1.00  0.00     0.010 A 
ATOM     70  C   UNL A   1      45.434  29.044  35.322  1.00  0.00     0.010 A 
ATOM     71  C   UNL A   1      44.924  26.617  36.629  1.00  0.00     0.020 A 
ATOM     72  C   UNL A   1      46.484  28.342  35.919  1.00  0.00     0.020 A 
ATOM     73  C   UNL A   1      46.218  27.144  36.585  1.00  0.00     0.054 A 
BRANCH  73  74
ATOM     74  S   UNL A   1      47.549  26.223  37.398  1.00  0.00     0.124 S 
ATOM     75  O   UNL A   1      46.962  24.892  37.522  1.00  0.00    -0.237 OA
ATOM     76  O   UNL A   1      48.647  26.341  36.447  1.00  0.00    -0.237 OA
ATOM     77  O   UNL A   1      47.742  26.938  38.661  1.00  0.00    -0.744 OA
ENDBRANCH  73  74
ENDBRANCH  54  68
BRANCH  55  78
ATOM     78  C   UNL A   1      36.497  33.289  30.982  1.00  0.00    -0.014 A 
ATOM     79  C   UNL A   1      36.635  33.889  29.715  1.00  0.00     0.010 A 
ATOM     80  C   UNL A   1      35.278  33.431  31.666  1.00  0.00     0.010 A 
ATOM     81  C   UNL A   1      35.590  34.637  29.159  1.00  0.00     0.020 A 
ATOM     82  C   UNL A   1      34.218  34.152  31.100  1.00  0.00     0.020 A 
ATOM     83  C   UNL A   1      34.386  34.762  29.856  1.00  0.00     0.054 A 
BRANCH  83  84
ATOM     84  S   UNL A   1      33.029  35.703  29.099  1.00  0.00     0.124 S 
ATOM     85  O   UNL A   1      33.745  36.765  28.402  1.00  0.00    -0.237 OA
ATOM     86  O   UNL A   1      32.390  34.703  28.248  1.00  0.00    -0.237 OA
ATOM     87  O   UNL A   1      32.231  36.132  30.247  1.00  0.00    -0.744 OA
ENDBRANCH  83  84
ENDBRANCH  55  78
BRANCH  67  88
ATOM     88  C   UNL A   1      39.799  34.060  37.082  1.00  0.00    -0.014 A 
ATOM     89  C   UNL A   1      40.448  35.306  37.093  1.00  0.00     0.010 A 
ATOM     90  C   UNL A   1      38.918  33.738  38.132  1.00  0.00     0.010 A 
ATOM     91  C   UNL A   1      40.254  36.196  38.154  1.00  0.00     0.020 A 
ATOM     92  C   UNL A   1      38.695  34.638  39.177  1.00  0.00     0.020 A 
ATOM     93  C   UNL A   1      39.380  35.854  39.191  1.00  0.00     0.054 A 
BRANCH  93  94
ATOM     94  S   UNL A   1      39.126  37.035  40.544  1.00  0.00     0.124 S 
ATOM     95  O   UNL A   1      38.509  36.195  41.566  1.00  0.00    -0.237 OA
ATOM     96  O   UNL A   1      40.484  37.486  40.834  1.00  0.00    -0.237 OA
ATOM     97  O   UNL A   1      38.251  38.049  39.959  1.00  0.00    -0.744 OA
ENDBRANCH  93  94
ENDBRANCH  67  88
ENDBRANCH  41  42
ENDBRANCH  33  36
ENDBRANCH  31  32
ENDBRANCH  30  31
ENDBRANCH   1  30
TORSDOF 18
ENDMDL
