MODEL 1
REMARK VINA RESULT:     -10.1      0.000      0.000
REMARK SMILES C[C@@H]1C[N@@H+](CC(C)(C)C(=O)NCCCNC(=O)c2ccc(-c3c4nc(c(-c5ccc(S(=O)(=O)[O-])cc5)c5ccc([nH]5)c(-c5ccc(S(=O)(=O)[O-])cc5)c5nc(c(-c6ccc(S(=O)(=O)[O-])cc6)c6ccc3[nH]6)C=C5)C=C4)cc2)CC[C@@H]1[NH3+]
REMARK SMILES IDX 13 1 12 2 11 3 9 4 10 5 6 7 7 8 8 9 5 10 4 11 1 12 2 13 3 14
REMARK SMILES IDX 80 15 79 16 78 17 81 19 14 23 15 24 16 25 17 27 18 28 19 29
REMARK SMILES IDX 77 30 20 31 76 32 21 33 22 34 23 35 70 36 24 37 75 38 69 39
REMARK SMILES IDX 71 40 25 41 74 42 68 43 67 44 26 46 56 47 37 48 55 49 38 50
REMARK SMILES IDX 41 51 54 52 72 53 39 54 40 55 53 57 73 58 42 59 27 60 28 61
REMARK SMILES IDX 36 62 29 63 35 64 30 65 31 66 32 67 33 68 34 69 57 70 58 71
REMARK SMILES IDX 66 72 59 73 65 74 60 75 61 76 62 77 63 78 64 79 43 80 44 81
REMARK SMILES IDX 52 82 45 83 51 84 46 85 47 86 48 87 49 88 50 89
REMARK H PARENT 11 6 4 18 81 20 81 21 81 22 15 26 71 45 41 56
REMARK Flexibility Score: inf
ROOT
ATOM      1  C   UNL A   1      33.779  28.355  25.344  1.00  0.00     0.042 C 
ENDROOT
BRANCH   1   2
ATOM      2  C   UNL A   1      32.920  27.213  24.824  1.00  0.00     0.117 C 
BRANCH   2   3
ATOM      3  N   UNL A   1      31.869  26.893  25.767  1.00  0.00    -0.355 N 
ATOM      4  C   UNL A   1      31.201  25.738  26.007  1.00  0.00     0.231 C 
ATOM      5  O   UNL A   1      30.057  25.882  26.454  1.00  0.00    -0.274 OA
ATOM      6  H   UNL A   1      31.589  27.647  26.334  1.00  0.00     0.163 HD
BRANCH   4   7
ATOM      7  C   UNL A   1      31.773  24.345  25.697  1.00  0.00     0.092 C 
ATOM      8  C   UNL A   1      31.900  23.978  24.210  1.00  0.00     0.027 C 
ATOM      9  C   UNL A   1      30.787  23.346  26.342  1.00  0.00     0.027 C 
BRANCH   7  10
ATOM     10  C   UNL A   1      33.176  24.202  26.414  1.00  0.00     0.278 C 
BRANCH  10  11
ATOM     11  N   UNL A   1      34.320  23.455  25.822  1.00  0.00    -0.333 N 
ATOM     12  C   UNL A   1      35.334  20.659  24.845  1.00  0.00     0.020 C 
ATOM     13  C   UNL A   1      35.883  21.485  26.015  1.00  0.00     0.099 C 
ATOM     14  C   UNL A   1      34.778  22.341  26.663  1.00  0.00     0.271 C 
ATOM     15  C   UNL A   1      37.047  22.422  25.641  1.00  0.00     0.194 C 
ATOM     16  C   UNL A   1      36.558  23.508  24.682  1.00  0.00     0.126 C 
ATOM     17  C   UNL A   1      35.413  24.292  25.327  1.00  0.00     0.268 C 
ATOM     18  H   UNL A   1      33.932  23.033  24.978  1.00  0.00     0.348 HD
BRANCH  15  19
ATOM     19  N   UNL A   1      38.207  21.720  25.088  1.00  0.00    -0.355 N 
ATOM     20  H   UNL A   1      38.195  20.748  25.395  1.00  0.00     0.344 HD
ATOM     21  H   UNL A   1      39.063  22.169  25.414  1.00  0.00     0.344 HD
ATOM     22  H   UNL A   1      38.171  21.755  24.070  1.00  0.00     0.344 HD
ENDBRANCH  15  19
ENDBRANCH  10  11
ENDBRANCH   7  10
ENDBRANCH   4   7
ENDBRANCH   2   3
ENDBRANCH   1   2
BRANCH   1  23
ATOM     23  C   UNL A   1      33.753  28.484  26.859  1.00  0.00     0.118 C 
BRANCH  23  24
ATOM     24  N   UNL A   1      33.680  29.874  27.293  1.00  0.00    -0.352 N 
ATOM     25  C   UNL A   1      34.565  30.600  28.051  1.00  0.00     0.251 C 
ATOM     26  H   UNL A   1      32.877  30.362  26.999  1.00  0.00     0.163 HD
ATOM     27  O   UNL A   1      34.226  31.679  28.522  1.00  0.00    -0.269 OA
BRANCH  25  28
ATOM     28  C   UNL A   1      35.918  30.062  28.305  1.00  0.00     0.039 A 
ATOM     29  C   UNL A   1      36.884  30.138  27.301  1.00  0.00     0.014 A 
ATOM     30  C   UNL A   1      36.230  29.492  29.542  1.00  0.00     0.014 A 
ATOM     31  C   UNL A   1      38.185  29.707  27.566  1.00  0.00     0.010 A 
ATOM     32  C   UNL A   1      37.546  29.165  29.838  1.00  0.00     0.010 A 
ATOM     33  C   UNL A   1      38.537  29.255  28.849  1.00  0.00    -0.014 A 
BRANCH  33  34
ATOM     34  C   UNL A   1      39.928  28.859  29.180  1.00  0.00     0.031 A 
ATOM     35  C   UNL A   1      40.851  29.846  29.844  1.00  0.00     0.074 A 
ATOM     36  C   UNL A   1      40.379  27.641  28.822  1.00  0.00     0.049 A 
ATOM     37  N   UNL A   1      42.115  29.710  30.155  1.00  0.00    -0.248 NA
ATOM     38  C   UNL A   1      40.293  31.168  30.173  1.00  0.00     0.031 C 
ATOM     39  C   UNL A   1      39.594  26.614  28.131  1.00  0.00     0.029 A 
ATOM     40  N   UNL A   1      41.611  27.060  28.984  1.00  0.00    -0.354 N 
ATOM     41  C   UNL A   1      42.503  30.930  30.695  1.00  0.00     0.074 A 
ATOM     42  C   UNL A   1      41.362  31.813  30.613  1.00  0.00     0.031 C 
ATOM     43  C   UNL A   1      40.352  25.520  27.960  1.00  0.00     0.029 A 
ATOM     44  C   UNL A   1      41.689  25.781  28.483  1.00  0.00     0.049 A 
ATOM     45  H   UNL A   1      42.368  27.515  29.417  1.00  0.00     0.167 HD
ATOM     46  C   UNL A   1      43.696  31.280  31.232  1.00  0.00     0.031 A 
ATOM     47  C   UNL A   1      42.722  24.917  28.441  1.00  0.00     0.031 A 
ATOM     48  C   UNL A   1      44.826  30.393  31.318  1.00  0.00     0.049 A 
ATOM     49  C   UNL A   1      44.042  25.330  29.033  1.00  0.00     0.074 A 
ATOM     50  C   UNL A   1      46.061  30.628  31.897  1.00  0.00     0.029 A 
ATOM     51  N   UNL A   1      44.860  29.103  30.808  1.00  0.00    -0.354 N 
ATOM     52  N   UNL A   1      44.369  26.465  29.605  1.00  0.00    -0.248 NA
ATOM     53  C   UNL A   1      45.127  24.342  28.987  1.00  0.00     0.031 C 
ATOM     54  C   UNL A   1      46.863  29.504  31.680  1.00  0.00     0.029 A 
ATOM     55  C   UNL A   1      46.105  28.540  31.033  1.00  0.00     0.049 A 
ATOM     56  H   UNL A   1      44.111  28.656  30.355  1.00  0.00     0.167 HD
ATOM     57  C   UNL A   1      45.690  26.316  30.014  1.00  0.00     0.074 A 
ATOM     58  C   UNL A   1      46.095  24.977  29.636  1.00  0.00     0.031 C 
ATOM     59  C   UNL A   1      46.493  27.205  30.649  1.00  0.00     0.031 A 
BRANCH  46  60
ATOM     60  C   UNL A   1      43.840  32.686  31.759  1.00  0.00    -0.014 A 
ATOM     61  C   UNL A   1      43.639  32.980  33.120  1.00  0.00     0.010 A 
ATOM     62  C   UNL A   1      44.208  33.724  30.885  1.00  0.00     0.010 A 
ATOM     63  C   UNL A   1      43.756  34.292  33.587  1.00  0.00     0.020 A 
ATOM     64  C   UNL A   1      44.358  35.033  31.353  1.00  0.00     0.020 A 
ATOM     65  C   UNL A   1      44.112  35.311  32.699  1.00  0.00     0.054 A 
BRANCH  65  66
ATOM     66  S   UNL A   1      44.271  37.001  33.337  1.00  0.00     0.124 S 
ATOM     67  O   UNL A   1      45.192  36.814  34.457  1.00  0.00    -0.237 OA
ATOM     68  O   UNL A   1      44.815  37.725  32.191  1.00  0.00    -0.237 OA
ATOM     69  O   UNL A   1      42.905  37.362  33.708  1.00  0.00    -0.744 OA
ENDBRANCH  65  66
ENDBRANCH  46  60
BRANCH  47  70
ATOM     70  C   UNL A   1      42.538  23.571  27.831  1.00  0.00    -0.014 A 
ATOM     71  C   UNL A   1      42.896  23.338  26.491  1.00  0.00     0.010 A 
ATOM     72  C   UNL A   1      42.028  22.507  28.597  1.00  0.00     0.010 A 
ATOM     73  C   UNL A   1      42.733  22.070  25.925  1.00  0.00     0.020 A 
ATOM     74  C   UNL A   1      41.894  21.230  28.043  1.00  0.00     0.020 A 
ATOM     75  C   UNL A   1      42.239  21.023  26.706  1.00  0.00     0.054 A 
BRANCH  75  76
ATOM     76  S   UNL A   1      42.095  19.372  25.967  1.00  0.00     0.124 S 
ATOM     77  O   UNL A   1      40.662  19.279  25.707  1.00  0.00    -0.237 OA
ATOM     78  O   UNL A   1      42.949  19.482  24.786  1.00  0.00    -0.237 OA
ATOM     79  O   UNL A   1      42.601  18.484  27.011  1.00  0.00    -0.744 OA
ENDBRANCH  75  76
ENDBRANCH  47  70
BRANCH  59  80
ATOM     80  C   UNL A   1      47.882  26.752  31.015  1.00  0.00    -0.014 A 
ATOM     81  C   UNL A   1      48.955  26.878  30.117  1.00  0.00     0.010 A 
ATOM     82  C   UNL A   1      48.124  26.246  32.306  1.00  0.00     0.010 A 
ATOM     83  C   UNL A   1      50.241  26.479  30.493  1.00  0.00     0.020 A 
ATOM     84  C   UNL A   1      49.412  25.877  32.697  1.00  0.00     0.020 A 
ATOM     85  C   UNL A   1      50.461  25.984  31.782  1.00  0.00     0.054 A 
BRANCH  85  86
ATOM     86  S   UNL A   1      52.147  25.519  32.262  1.00  0.00     0.124 S 
ATOM     87  O   UNL A   1      52.945  26.141  31.209  1.00  0.00    -0.237 OA
ATOM     88  O   UNL A   1      52.278  26.120  33.587  1.00  0.00    -0.237 OA
ATOM     89  O   UNL A   1      52.123  24.059  32.246  1.00  0.00    -0.744 OA
ENDBRANCH  85  86
ENDBRANCH  59  80
ENDBRANCH  33  34
ENDBRANCH  25  28
ENDBRANCH  23  24
ENDBRANCH   1  23
TORSDOF 16
ENDMDL
MODEL 2
REMARK VINA RESULT:     -10.0      2.855      6.082
REMARK SMILES C[C@@H]1C[N@@H+](CC(C)(C)C(=O)NCCCNC(=O)c2ccc(-c3c4nc(c(-c5ccc(S(=O)(=O)[O-])cc5)c5ccc([nH]5)c(-c5ccc(S(=O)(=O)[O-])cc5)c5nc(c(-c6ccc(S(=O)(=O)[O-])cc6)c6ccc3[nH]6)C=C5)C=C4)cc2)CC[C@@H]1[NH3+]
REMARK SMILES IDX 13 1 12 2 11 3 9 4 10 5 6 7 7 8 8 9 5 10 4 11 1 12 2 13 3 14
REMARK SMILES IDX 80 15 79 16 78 17 81 19 14 23 15 24 16 25 17 27 18 28 19 29
REMARK SMILES IDX 77 30 20 31 76 32 21 33 22 34 23 35 70 36 24 37 75 38 69 39
REMARK SMILES IDX 71 40 25 41 74 42 68 43 67 44 26 46 56 47 37 48 55 49 38 50
REMARK SMILES IDX 41 51 54 52 72 53 39 54 40 55 53 57 73 58 42 59 27 60 28 61
REMARK SMILES IDX 36 62 29 63 35 64 30 65 31 66 32 67 33 68 34 69 57 70 58 71
REMARK SMILES IDX 66 72 59 73 65 74 60 75 61 76 62 77 63 78 64 79 43 80 44 81
REMARK SMILES IDX 52 82 45 83 51 84 46 85 47 86 48 87 49 88 50 89
REMARK H PARENT 11 6 4 18 81 20 81 21 81 22 15 26 71 45 41 56
REMARK Flexibility Score: inf
ROOT
ATOM      1  C   UNL A   1      33.603  33.689  28.470  1.00  0.00     0.042 C 
ENDROOT
BRANCH   1   2
ATOM      2  C   UNL A   1      34.321  34.522  29.520  1.00  0.00     0.117 C 
BRANCH   2   3
ATOM      3  N   UNL A   1      33.991  34.062  30.853  1.00  0.00    -0.355 N 
ATOM      4  C   UNL A   1      34.650  33.242  31.707  1.00  0.00     0.231 C 
ATOM      5  O   UNL A   1      33.927  32.627  32.499  1.00  0.00    -0.274 OA
ATOM      6  H   UNL A   1      33.137  34.405  31.200  1.00  0.00     0.163 HD
BRANCH   4   7
ATOM      7  C   UNL A   1      36.172  33.026  31.675  1.00  0.00     0.092 C 
ATOM      8  C   UNL A   1      36.817  32.939  30.282  1.00  0.00     0.027 C 
ATOM      9  C   UNL A   1      36.408  31.674  32.384  1.00  0.00     0.027 C 
BRANCH   7  10
ATOM     10  C   UNL A   1      36.864  34.168  32.523  1.00  0.00     0.278 C 
BRANCH  10  11
ATOM     11  N   UNL A   1      37.662  33.898  33.752  1.00  0.00    -0.333 N 
ATOM     12  C   UNL A   1      37.985  32.041  36.251  1.00  0.00     0.020 C 
ATOM     13  C   UNL A   1      37.639  33.535  36.248  1.00  0.00     0.099 C 
ATOM     14  C   UNL A   1      36.856  33.926  34.980  1.00  0.00     0.271 C 
ATOM     15  C   UNL A   1      38.859  34.470  36.355  1.00  0.00     0.194 C 
ATOM     16  C   UNL A   1      39.731  34.338  35.106  1.00  0.00     0.126 C 
ATOM     17  C   UNL A   1      38.904  34.662  33.860  1.00  0.00     0.268 C 
ATOM     18  H   UNL A   1      37.975  32.934  33.639  1.00  0.00     0.348 HD
BRANCH  15  19
ATOM     19  N   UNL A   1      39.649  34.261  37.570  1.00  0.00    -0.355 N 
ATOM     20  H   UNL A   1      40.312  35.028  37.680  1.00  0.00     0.344 HD
ATOM     21  H   UNL A   1      40.158  33.380  37.496  1.00  0.00     0.344 HD
ATOM     22  H   UNL A   1      39.029  34.229  38.378  1.00  0.00     0.344 HD
ENDBRANCH  15  19
ENDBRANCH  10  11
ENDBRANCH   7  10
ENDBRANCH   4   7
ENDBRANCH   2   3
ENDBRANCH   1   2
BRANCH   1  23
ATOM     23  C   UNL A   1      34.491  32.631  27.832  1.00  0.00     0.118 C 
BRANCH  23  24
ATOM     24  N   UNL A   1      33.809  31.350  27.693  1.00  0.00    -0.352 N 
ATOM     25  C   UNL A   1      34.330  30.080  27.675  1.00  0.00     0.251 C 
ATOM     26  H   UNL A   1      32.830  31.405  27.597  1.00  0.00     0.163 HD
ATOM     27  O   UNL A   1      33.637  29.139  27.305  1.00  0.00    -0.269 OA
BRANCH  25  28
ATOM     28  C   UNL A   1      35.732  29.863  28.089  1.00  0.00     0.039 A 
ATOM     29  C   UNL A   1      36.003  29.431  29.388  1.00  0.00     0.014 A 
ATOM     30  C   UNL A   1      36.776  30.077  27.185  1.00  0.00     0.014 A 
ATOM     31  C   UNL A   1      37.320  29.146  29.756  1.00  0.00     0.010 A 
ATOM     32  C   UNL A   1      38.067  29.690  27.518  1.00  0.00     0.010 A 
ATOM     33  C   UNL A   1      38.356  29.234  28.812  1.00  0.00    -0.014 A 
BRANCH  33  34
ATOM     34  C   UNL A   1      39.752  28.867  29.154  1.00  0.00     0.031 A 
ATOM     35  C   UNL A   1      40.652  29.874  29.822  1.00  0.00     0.074 A 
ATOM     36  C   UNL A   1      40.230  27.657  28.803  1.00  0.00     0.049 A 
ATOM     37  N   UNL A   1      41.915  29.764  30.143  1.00  0.00    -0.248 NA
ATOM     38  C   UNL A   1      40.064  31.185  30.142  1.00  0.00     0.031 C 
ATOM     39  C   UNL A   1      39.471  26.613  28.109  1.00  0.00     0.029 A 
ATOM     40  N   UNL A   1      41.473  27.101  28.975  1.00  0.00    -0.354 N 
ATOM     41  C   UNL A   1      42.275  30.993  30.682  1.00  0.00     0.074 A 
ATOM     42  C   UNL A   1      41.117  31.853  30.589  1.00  0.00     0.031 C 
ATOM     43  C   UNL A   1      40.252  25.534  27.947  1.00  0.00     0.029 A 
ATOM     44  C   UNL A   1      41.580  25.823  28.479  1.00  0.00     0.049 A 
ATOM     45  H   UNL A   1      42.218  27.572  29.413  1.00  0.00     0.167 HD
ATOM     46  C   UNL A   1      43.457  31.368  31.227  1.00  0.00     0.031 A 
ATOM     47  C   UNL A   1      42.630  24.980  28.447  1.00  0.00     0.031 A 
ATOM     48  C   UNL A   1      44.604  30.504  31.324  1.00  0.00     0.049 A 
ATOM     49  C   UNL A   1      43.937  25.420  29.047  1.00  0.00     0.074 A 
ATOM     50  C   UNL A   1      45.829  30.765  31.910  1.00  0.00     0.029 A 
ATOM     51  N   UNL A   1      44.667  29.214  30.818  1.00  0.00    -0.354 N 
ATOM     52  N   UNL A   1      44.238  26.564  29.618  1.00  0.00    -0.248 NA
ATOM     53  C   UNL A   1      45.042  24.454  29.012  1.00  0.00     0.031 C 
ATOM     54  C   UNL A   1      46.655  29.657  31.703  1.00  0.00     0.029 A 
ATOM     55  C   UNL A   1      45.921  28.676  31.053  1.00  0.00     0.049 A 
ATOM     56  H   UNL A   1      43.930  28.750  30.360  1.00  0.00     0.167 HD
ATOM     57  C   UNL A   1      45.558  26.441  30.038  1.00  0.00     0.074 A 
ATOM     58  C   UNL A   1      45.992  25.110  29.666  1.00  0.00     0.031 C 
ATOM     59  C   UNL A   1      46.338  27.348  30.676  1.00  0.00     0.031 A 
BRANCH  46  60
ATOM     60  C   UNL A   1      43.568  32.778  31.750  1.00  0.00    -0.014 A 
ATOM     61  C   UNL A   1      44.003  33.831  30.925  1.00  0.00     0.010 A 
ATOM     62  C   UNL A   1      43.206  33.059  33.080  1.00  0.00     0.010 A 
ATOM     63  C   UNL A   1      44.120  35.128  31.433  1.00  0.00     0.020 A 
ATOM     64  C   UNL A   1      43.290  34.361  33.583  1.00  0.00     0.020 A 
ATOM     65  C   UNL A   1      43.765  35.384  32.760  1.00  0.00     0.054 A 
BRANCH  65  66
ATOM     66  S   UNL A   1      43.912  37.080  33.386  1.00  0.00     0.124 S 
ATOM     67  O   UNL A   1      45.190  37.029  34.094  1.00  0.00    -0.237 OA
ATOM     68  O   UNL A   1      43.904  37.874  32.160  1.00  0.00    -0.237 OA
ATOM     69  O   UNL A   1      42.735  37.240  34.236  1.00  0.00    -0.744 OA
ENDBRANCH  65  66
ENDBRANCH  46  60
BRANCH  47  70
ATOM     70  C   UNL A   1      42.478  23.628  27.839  1.00  0.00    -0.014 A 
ATOM     71  C   UNL A   1      42.970  23.365  26.549  1.00  0.00     0.010 A 
ATOM     72  C   UNL A   1      41.862  22.590  28.561  1.00  0.00     0.010 A 
ATOM     73  C   UNL A   1      42.836  22.092  25.985  1.00  0.00     0.020 A 
ATOM     74  C   UNL A   1      41.754  21.307  28.013  1.00  0.00     0.020 A 
ATOM     75  C   UNL A   1      42.234  21.070  26.724  1.00  0.00     0.054 A 
BRANCH  75  76
ATOM     76  S   UNL A   1      42.128  19.411  25.997  1.00  0.00     0.124 S 
ATOM     77  O   UNL A   1      40.692  19.269  25.773  1.00  0.00    -0.237 OA
ATOM     78  O   UNL A   1      42.948  19.543  24.794  1.00  0.00    -0.237 OA
ATOM     79  O   UNL A   1      42.689  18.547  27.032  1.00  0.00    -0.744 OA
ENDBRANCH  75  76
ENDBRANCH  47  70
BRANCH  59  80
ATOM     80  C   UNL A   1      47.733  26.924  31.053  1.00  0.00    -0.014 A 
ATOM     81  C   UNL A   1      48.010  26.337  32.299  1.00  0.00     0.010 A 
ATOM     82  C   UNL A   1      48.773  27.060  30.113  1.00  0.00     0.010 A 
ATOM     83  C   UNL A   1      49.308  25.922  32.611  1.00  0.00     0.020 A 
ATOM     84  C   UNL A   1      50.063  26.617  30.409  1.00  0.00     0.020 A 
ATOM     85  C   UNL A   1      50.325  26.063  31.662  1.00  0.00     0.054 A 
BRANCH  85  86
ATOM     86  S   UNL A   1      51.989  25.471  32.074  1.00  0.00     0.124 S 
ATOM     87  O   UNL A   1      51.763  24.043  32.275  1.00  0.00    -0.237 OA
ATOM     88  O   UNL A   1      52.757  25.825  30.882  1.00  0.00    -0.237 OA
ATOM     89  O   UNL A   1      52.337  26.222  33.277  1.00  0.00    -0.744 OA
ENDBRANCH  85  86
ENDBRANCH  59  80
ENDBRANCH  33  34
ENDBRANCH  25  28
ENDBRANCH  23  24
ENDBRANCH   1  23
TORSDOF 16
ENDMDL
MODEL 3
REMARK VINA RESULT:     -10.0      2.568      9.359
REMARK SMILES C[C@@H]1C[N@@H+](CC(C)(C)C(=O)NCCCNC(=O)c2ccc(-c3c4nc(c(-c5ccc(S(=O)(=O)[O-])cc5)c5ccc([nH]5)c(-c5ccc(S(=O)(=O)[O-])cc5)c5nc(c(-c6ccc(S(=O)(=O)[O-])cc6)c6ccc3[nH]6)C=C5)C=C4)cc2)CC[C@@H]1[NH3+]
REMARK SMILES IDX 13 1 12 2 11 3 9 4 10 5 6 7 7 8 8 9 5 10 4 11 1 12 2 13 3 14
REMARK SMILES IDX 80 15 79 16 78 17 81 19 14 23 15 24 16 25 17 27 18 28 19 29
REMARK SMILES IDX 77 30 20 31 76 32 21 33 22 34 23 35 70 36 24 37 75 38 69 39
REMARK SMILES IDX 71 40 25 41 74 42 68 43 67 44 26 46 56 47 37 48 55 49 38 50
REMARK SMILES IDX 41 51 54 52 72 53 39 54 40 55 53 57 73 58 42 59 27 60 28 61
REMARK SMILES IDX 36 62 29 63 35 64 30 65 31 66 32 67 33 68 34 69 57 70 58 71
REMARK SMILES IDX 66 72 59 73 65 74 60 75 61 76 62 77 63 78 64 79 43 80 44 81
REMARK SMILES IDX 52 82 45 83 51 84 46 85 47 86 48 87 49 88 50 89
REMARK H PARENT 11 6 4 18 81 20 81 21 81 22 15 26 71 45 41 56
REMARK Flexibility Score: inf
ROOT
ATOM      1  C   UNL A   1      35.678  23.681  25.719  1.00  0.00     0.042 C 
ENDROOT
BRANCH   1   2
ATOM      2  C   UNL A   1      34.877  22.418  25.444  1.00  0.00     0.117 C 
BRANCH   2   3
ATOM      3  N   UNL A   1      33.718  22.714  24.627  1.00  0.00    -0.355 N 
ATOM      4  C   UNL A   1      32.424  22.947  24.958  1.00  0.00     0.231 C 
ATOM      5  O   UNL A   1      31.603  22.648  24.083  1.00  0.00    -0.274 OA
ATOM      6  H   UNL A   1      33.902  22.754  23.661  1.00  0.00     0.163 HD
BRANCH   4   7
ATOM      7  C   UNL A   1      31.979  23.479  26.330  1.00  0.00     0.092 C 
ATOM      8  C   UNL A   1      32.649  22.840  27.556  1.00  0.00     0.027 C 
ATOM      9  C   UNL A   1      30.466  23.178  26.413  1.00  0.00     0.027 C 
BRANCH   7  10
ATOM     10  C   UNL A   1      32.183  25.048  26.354  1.00  0.00     0.278 C 
BRANCH  10  11
ATOM     11  N   UNL A   1      32.138  25.893  25.129  1.00  0.00    -0.333 N 
ATOM     12  C   UNL A   1      33.393  26.395  22.306  1.00  0.00     0.020 C 
ATOM     13  C   UNL A   1      33.425  27.340  23.514  1.00  0.00     0.099 C 
ATOM     14  C   UNL A   1      33.417  26.556  24.839  1.00  0.00     0.271 C 
ATOM     15  C   UNL A   1      32.265  28.354  23.558  1.00  0.00     0.194 C 
ATOM     16  C   UNL A   1      30.938  27.621  23.756  1.00  0.00     0.126 C 
ATOM     17  C   UNL A   1      30.989  26.794  25.043  1.00  0.00     0.268 C 
ATOM     18  H   UNL A   1      31.985  25.227  24.372  1.00  0.00     0.348 HD
BRANCH  15  19
ATOM     19  N   UNL A   1      32.209  29.230  22.386  1.00  0.00    -0.355 N 
ATOM     20  H   UNL A   1      32.972  29.905  22.430  1.00  0.00     0.344 HD
ATOM     21  H   UNL A   1      31.317  29.724  22.374  1.00  0.00     0.344 HD
ATOM     22  H   UNL A   1      32.299  28.669  21.539  1.00  0.00     0.344 HD
ENDBRANCH  15  19
ENDBRANCH  10  11
ENDBRANCH   7  10
ENDBRANCH   4   7
ENDBRANCH   2   3
ENDBRANCH   1   2
BRANCH   1  23
ATOM     23  C   UNL A   1      37.013  23.715  24.990  1.00  0.00     0.118 C 
BRANCH  23  24
ATOM     24  N   UNL A   1      37.949  22.724  25.507  1.00  0.00    -0.352 N 
ATOM     25  C   UNL A   1      39.099  22.905  26.236  1.00  0.00     0.251 C 
ATOM     26  H   UNL A   1      37.722  21.788  25.302  1.00  0.00     0.163 HD
ATOM     27  O   UNL A   1      39.887  21.977  26.374  1.00  0.00    -0.269 OA
BRANCH  25  28
ATOM     28  C   UNL A   1      39.381  24.226  26.834  1.00  0.00     0.039 A 
ATOM     29  C   UNL A   1      38.955  24.493  28.136  1.00  0.00     0.014 A 
ATOM     30  C   UNL A   1      40.078  25.195  26.108  1.00  0.00     0.014 A 
ATOM     31  C   UNL A   1      39.292  25.709  28.734  1.00  0.00     0.010 A 
ATOM     32  C   UNL A   1      40.504  26.356  26.740  1.00  0.00     0.010 A 
ATOM     33  C   UNL A   1      40.104  26.633  28.055  1.00  0.00    -0.014 A 
BRANCH  33  34
ATOM     34  C   UNL A   1      40.539  27.900  28.692  1.00  0.00     0.031 A 
ATOM     35  C   UNL A   1      41.925  28.015  29.267  1.00  0.00     0.074 A 
ATOM     36  C   UNL A   1      39.666  28.920  28.814  1.00  0.00     0.049 A 
ATOM     37  N   UNL A   1      42.468  29.013  29.915  1.00  0.00    -0.248 NA
ATOM     38  C   UNL A   1      42.807  26.845  29.123  1.00  0.00     0.031 C 
ATOM     39  C   UNL A   1      38.280  28.913  28.340  1.00  0.00     0.029 A 
ATOM     40  N   UNL A   1      39.814  30.161  29.382  1.00  0.00    -0.354 N 
ATOM     41  C   UNL A   1      43.742  28.584  30.271  1.00  0.00     0.074 A 
ATOM     42  C   UNL A   1      43.869  27.216  29.822  1.00  0.00     0.031 C 
ATOM     43  C   UNL A   1      37.716  30.102  28.605  1.00  0.00     0.029 A 
ATOM     44  C   UNL A   1      38.682  30.939  29.309  1.00  0.00     0.049 A 
ATOM     45  H   UNL A   1      40.650  30.465  29.800  1.00  0.00     0.167 HD
ATOM     46  C   UNL A   1      44.726  29.273  30.896  1.00  0.00     0.031 A 
ATOM     47  C   UNL A   1      38.443  32.184  29.766  1.00  0.00     0.031 A 
ATOM     48  C   UNL A   1      44.595  30.637  31.333  1.00  0.00     0.049 A 
ATOM     49  C   UNL A   1      39.547  32.927  30.468  1.00  0.00     0.074 A 
ATOM     50  C   UNL A   1      45.550  31.446  31.922  1.00  0.00     0.029 A 
ATOM     51  N   UNL A   1      43.436  31.392  31.232  1.00  0.00    -0.354 N 
ATOM     52  N   UNL A   1      40.770  32.529  30.731  1.00  0.00    -0.248 NA
ATOM     53  C   UNL A   1      39.245  34.291  30.921  1.00  0.00     0.031 C 
ATOM     54  C   UNL A   1      44.951  32.669  32.236  1.00  0.00     0.029 A 
ATOM     55  C   UNL A   1      43.643  32.649  31.775  1.00  0.00     0.049 A 
ATOM     56  H   UNL A   1      42.592  31.081  30.834  1.00  0.00     0.167 HD
ATOM     57  C   UNL A   1      41.392  33.606  31.354  1.00  0.00     0.074 A 
ATOM     58  C   UNL A   1      40.415  34.674  31.416  1.00  0.00     0.031 C 
ATOM     59  C   UNL A   1      42.659  33.702  31.829  1.00  0.00     0.031 A 
BRANCH  46  60
ATOM     60  C   UNL A   1      46.027  28.554  31.151  1.00  0.00    -0.014 A 
ATOM     61  C   UNL A   1      46.238  27.823  32.335  1.00  0.00     0.010 A 
ATOM     62  C   UNL A   1      47.044  28.585  30.180  1.00  0.00     0.010 A 
ATOM     63  C   UNL A   1      47.458  27.181  32.564  1.00  0.00     0.020 A 
ATOM     64  C   UNL A   1      48.253  27.916  30.390  1.00  0.00     0.020 A 
ATOM     65  C   UNL A   1      48.459  27.233  31.590  1.00  0.00     0.054 A 
BRANCH  65  66
ATOM     66  S   UNL A   1      50.025  26.376  31.909  1.00  0.00     0.124 S 
ATOM     67  O   UNL A   1      50.790  26.690  30.704  1.00  0.00    -0.237 OA
ATOM     68  O   UNL A   1      50.494  27.015  33.136  1.00  0.00    -0.237 OA
ATOM     69  O   UNL A   1      49.632  24.976  32.050  1.00  0.00    -0.744 OA
ENDBRANCH  65  66
ENDBRANCH  46  60
BRANCH  47  70
ATOM     70  C   UNL A   1      37.107  32.808  29.555  1.00  0.00    -0.014 A 
ATOM     71  C   UNL A   1      36.144  32.798  30.579  1.00  0.00     0.010 A 
ATOM     72  C   UNL A   1      36.802  33.439  28.336  1.00  0.00     0.010 A 
ATOM     73  C   UNL A   1      34.894  33.395  30.382  1.00  0.00     0.020 A 
ATOM     74  C   UNL A   1      35.566  34.065  28.146  1.00  0.00     0.020 A 
ATOM     75  C   UNL A   1      34.616  34.030  29.169  1.00  0.00     0.054 A 
BRANCH  75  76
ATOM     76  S   UNL A   1      33.012  34.851  28.959  1.00  0.00     0.124 S 
ATOM     77  O   UNL A   1      32.332  33.958  28.026  1.00  0.00    -0.237 OA
ATOM     78  O   UNL A   1      32.486  34.863  30.322  1.00  0.00    -0.237 OA
ATOM     79  O   UNL A   1      33.366  36.163  28.425  1.00  0.00    -0.744 OA
ENDBRANCH  75  76
ENDBRANCH  47  70
BRANCH  59  80
ATOM     80  C   UNL A   1      43.081  35.020  32.423  1.00  0.00    -0.014 A 
ATOM     81  C   UNL A   1      43.747  35.991  31.656  1.00  0.00     0.010 A 
ATOM     82  C   UNL A   1      42.748  35.311  33.760  1.00  0.00     0.010 A 
ATOM     83  C   UNL A   1      44.100  37.219  32.223  1.00  0.00     0.020 A 
ATOM     84  C   UNL A   1      43.069  36.549  34.320  1.00  0.00     0.020 A 
ATOM     85  C   UNL A   1      43.755  37.491  33.551  1.00  0.00     0.054 A 
BRANCH  85  86
ATOM     86  S   UNL A   1      44.180  39.110  34.248  1.00  0.00     0.124 S 
ATOM     87  O   UNL A   1      44.292  38.808  35.673  1.00  0.00    -0.237 OA
ATOM     88  O   UNL A   1      45.435  39.429  33.572  1.00  0.00    -0.237 OA
ATOM     89  O   UNL A   1      43.047  39.955  33.879  1.00  0.00    -0.744 OA
ENDBRANCH  85  86
ENDBRANCH  59  80
ENDBRANCH  33  34
ENDBRANCH  25  28
ENDBRANCH  23  24
ENDBRANCH   1  23
TORSDOF 16
ENDMDL
