MODEL 1
REMARK VINA RESULT:     -12.5      0.000      0.000
REMARK SMILES COc1cc2c(cc1OC)[C@@H](CC(=O)NCCCNC(=O)c1ccc(-c3c4nc(c(-c5ccc(S(=O)(=O)[O-])cc5)c5ccc([nH]5)c(-c5ccc(S(=O)(=O)[O-])cc5)c5nc(c(-c6ccc(S(=O)(=O)[O-])cc6)c6ccc3[nH]6)C=C5)C=C4)cc1)N(C(=O)Nc1ccc(Cl)cc1)CC2
REMARK SMILES IDX 17 1 16 2 15 3 13 4 14 5 12 7 11 8 3 9 4 10 8 11 5 12 7 13
REMARK SMILES IDX 6 14 94 15 93 16 82 17 2 18 1 19 9 20 10 21 83 22 84 23
REMARK SMILES IDX 85 24 86 26 87 27 92 28 88 29 91 30 89 31 90 32 18 33 19 34
REMARK SMILES IDX 20 35 21 37 22 38 23 39 81 40 24 41 80 42 25 43 26 44 27 45
REMARK SMILES IDX 74 46 28 47 79 48 73 49 75 50 29 51 78 52 72 53 71 54 30 56
REMARK SMILES IDX 60 57 41 58 59 59 42 60 45 61 58 62 76 63 43 64 44 65 57 67
REMARK SMILES IDX 77 68 46 69 31 70 32 71 40 72 33 73 39 74 34 75 35 76 36 77
REMARK SMILES IDX 37 78 38 79 61 80 62 81 70 82 63 83 69 84 64 85 65 86 66 87
REMARK SMILES IDX 67 88 68 89 47 90 48 91 56 92 49 93 55 94 50 95 51 96 52 97
REMARK SMILES IDX 53 98 54 99
REMARK H PARENT 15 6 85 25 19 36 75 55 45 66
REMARK Flexibility Score: inf
ROOT
ATOM      1  C   UNL A   1      39.335  22.181  26.476  1.00  0.00     0.042 C 
ENDROOT
BRANCH   1   2
ATOM      2  C   UNL A   1      38.269  23.254  26.196  1.00  0.00     0.117 C 
BRANCH   2   3
ATOM      3  N   UNL A   1      37.725  23.107  24.847  1.00  0.00    -0.356 N 
ATOM      4  C   UNL A   1      36.468  23.264  24.345  1.00  0.00     0.222 C 
ATOM      5  O   UNL A   1      36.265  22.906  23.181  1.00  0.00    -0.275 OA
ATOM      6  H   UNL A   1      38.395  22.845  24.173  1.00  0.00     0.163 HD
BRANCH   4   7
ATOM      7  C   UNL A   1      35.367  23.952  25.129  1.00  0.00     0.130 C 
BRANCH   7   8
ATOM      8  C   UNL A   1      33.951  23.559  24.632  1.00  0.00     0.127 C 
ATOM      9  C   UNL A   1      31.656  26.478  22.309  1.00  0.00     0.161 A 
ATOM     10  C   UNL A   1      31.033  25.408  22.926  1.00  0.00     0.054 A 
ATOM     11  C   UNL A   1      33.054  26.597  22.324  1.00  0.00     0.161 A 
ATOM     12  C   UNL A   1      31.801  24.483  23.630  1.00  0.00    -0.037 A 
ATOM     13  C   UNL A   1      33.828  25.622  22.992  1.00  0.00     0.056 A 
ATOM     14  C   UNL A   1      33.216  24.581  23.714  1.00  0.00    -0.018 A 
ATOM     15  C   UNL A   1      31.101  23.496  24.519  1.00  0.00     0.057 C 
ATOM     16  C   UNL A   1      31.732  23.753  25.874  1.00  0.00     0.127 C 
ATOM     17  N   UNL A   1      33.118  23.276  25.847  1.00  0.00    -0.317 N 
BRANCH   9  18
ATOM     18  O   UNL A   1      30.827  27.470  21.850  1.00  0.00    -0.493 OA
ATOM     19  C   UNL A   1      30.233  28.192  22.922  1.00  0.00     0.278 C 
ENDBRANCH   9  18
BRANCH  11  20
ATOM     20  O   UNL A   1      33.553  27.712  21.703  1.00  0.00    -0.493 OA
ATOM     21  C   UNL A   1      34.136  28.716  22.515  1.00  0.00     0.278 C 
ENDBRANCH  11  20
BRANCH  17  22
ATOM     22  C   UNL A   1      33.319  22.135  26.605  1.00  0.00     0.322 C 
ATOM     23  O   UNL A   1      34.037  22.102  27.602  1.00  0.00    -0.248 OA
ATOM     24  N   UNL A   1      32.612  21.078  26.075  1.00  0.00    -0.308 N 
ATOM     25  H   UNL A   1      31.632  21.173  26.033  1.00  0.00     0.171 HD
BRANCH  24  26
ATOM     26  C   UNL A   1      33.155  19.882  25.590  1.00  0.00     0.042 A 
ATOM     27  C   UNL A   1      32.264  18.823  25.384  1.00  0.00     0.028 A 
ATOM     28  C   UNL A   1      34.467  19.796  25.121  1.00  0.00     0.028 A 
ATOM     29  C   UNL A   1      32.656  17.716  24.635  1.00  0.00     0.022 A 
ATOM     30  C   UNL A   1      34.852  18.693  24.356  1.00  0.00     0.022 A 
ATOM     31  C   UNL A   1      33.941  17.669  24.099  1.00  0.00     0.041 A 
ATOM     32  Cl  UNL A   1      34.382  16.353  23.087  1.00  0.00    -0.084 Cl
ENDBRANCH  24  26
ENDBRANCH  17  22
ENDBRANCH   7   8
ENDBRANCH   4   7
ENDBRANCH   2   3
ENDBRANCH   1   2
BRANCH   1  33
ATOM     33  C   UNL A   1      40.645  22.718  27.036  1.00  0.00     0.118 C 
BRANCH  33  34
ATOM     34  N   UNL A   1      41.298  23.646  26.126  1.00  0.00    -0.352 N 
ATOM     35  C   UNL A   1      41.519  25.003  26.110  1.00  0.00     0.251 C 
ATOM     36  H   UNL A   1      41.670  23.197  25.333  1.00  0.00     0.163 HD
ATOM     37  O   UNL A   1      41.970  25.450  25.050  1.00  0.00    -0.269 OA
BRANCH  35  38
ATOM     38  C   UNL A   1      41.263  25.961  27.234  1.00  0.00     0.039 A 
ATOM     39  C   UNL A   1      42.091  27.098  27.306  1.00  0.00     0.014 A 
ATOM     40  C   UNL A   1      40.342  25.780  28.265  1.00  0.00     0.014 A 
ATOM     41  C   UNL A   1      41.999  28.014  28.368  1.00  0.00     0.010 A 
ATOM     42  C   UNL A   1      40.194  26.736  29.285  1.00  0.00     0.010 A 
ATOM     43  C   UNL A   1      41.032  27.855  29.368  1.00  0.00    -0.014 A 
BRANCH  43  44
ATOM     44  C   UNL A   1      40.893  28.818  30.504  1.00  0.00     0.031 A 
ATOM     45  C   UNL A   1      41.785  28.710  31.721  1.00  0.00     0.074 A 
ATOM     46  C   UNL A   1      39.925  29.758  30.489  1.00  0.00     0.049 A 
ATOM     47  N   UNL A   1      41.728  29.370  32.851  1.00  0.00    -0.248 NA
ATOM     48  C   UNL A   1      42.864  27.711  31.670  1.00  0.00     0.031 C 
ATOM     49  C   UNL A   1      38.973  29.971  29.399  1.00  0.00     0.029 A 
ATOM     50  N   UNL A   1      39.569  30.702  31.423  1.00  0.00    -0.354 N 
ATOM     51  C   UNL A   1      42.731  28.840  33.657  1.00  0.00     0.074 A 
ATOM     52  C   UNL A   1      43.361  27.781  32.897  1.00  0.00     0.031 C 
ATOM     53  C   UNL A   1      38.157  30.989  29.715  1.00  0.00     0.029 A 
ATOM     54  C   UNL A   1      38.494  31.475  31.047  1.00  0.00     0.049 A 
ATOM     55  H   UNL A   1      40.040  30.816  32.279  1.00  0.00     0.167 HD
ATOM     56  C   UNL A   1      43.109  29.208  34.906  1.00  0.00     0.031 A 
ATOM     57  C   UNL A   1      37.837  32.457  31.698  1.00  0.00     0.031 A 
ATOM     58  C   UNL A   1      42.519  30.290  35.650  1.00  0.00     0.049 A 
ATOM     59  C   UNL A   1      38.284  32.859  33.076  1.00  0.00     0.074 A 
ATOM     60  C   UNL A   1      42.882  30.776  36.896  1.00  0.00     0.029 A 
ATOM     61  N   UNL A   1      41.452  31.061  35.217  1.00  0.00    -0.354 N 
ATOM     62  N   UNL A   1      39.261  32.368  33.800  1.00  0.00    -0.248 NA
ATOM     63  C   UNL A   1      37.547  33.955  33.722  1.00  0.00     0.031 C 
ATOM     64  C   UNL A   1      42.009  31.817  37.232  1.00  0.00     0.029 A 
ATOM     65  C   UNL A   1      41.135  32.010  36.176  1.00  0.00     0.049 A 
ATOM     66  H   UNL A   1      40.988  30.952  34.356  1.00  0.00     0.167 HD
ATOM     67  C   UNL A   1      39.271  33.111  34.974  1.00  0.00     0.074 A 
ATOM     68  C   UNL A   1      38.213  34.093  34.860  1.00  0.00     0.031 C 
ATOM     69  C   UNL A   1      40.085  32.988  36.051  1.00  0.00     0.031 A 
BRANCH  56  70
ATOM     70  C   UNL A   1      44.223  28.428  35.559  1.00  0.00    -0.014 A 
ATOM     71  C   UNL A   1      45.572  28.759  35.335  1.00  0.00     0.010 A 
ATOM     72  C   UNL A   1      43.916  27.385  36.454  1.00  0.00     0.010 A 
ATOM     73  C   UNL A   1      46.593  28.034  35.957  1.00  0.00     0.020 A 
ATOM     74  C   UNL A   1      44.933  26.676  37.099  1.00  0.00     0.020 A 
ATOM     75  C   UNL A   1      46.266  26.993  36.831  1.00  0.00     0.054 A 
BRANCH  75  76
ATOM     76  S   UNL A   1      47.611  26.083  37.641  1.00  0.00     0.124 S 
ATOM     77  O   UNL A   1      48.540  27.158  37.980  1.00  0.00    -0.237 OA
ATOM     78  O   UNL A   1      46.937  25.455  38.776  1.00  0.00    -0.237 OA
ATOM     79  O   UNL A   1      48.077  25.160  36.609  1.00  0.00    -0.744 OA
ENDBRANCH  75  76
ENDBRANCH  56  70
BRANCH  57  80
ATOM     80  C   UNL A   1      36.681  33.137  31.049  1.00  0.00    -0.014 A 
ATOM     81  C   UNL A   1      35.386  32.999  31.577  1.00  0.00     0.010 A 
ATOM     82  C   UNL A   1      36.871  33.929  29.902  1.00  0.00     0.010 A 
ATOM     83  C   UNL A   1      34.298  33.623  30.959  1.00  0.00     0.020 A 
ATOM     84  C   UNL A   1      35.790  34.576  29.297  1.00  0.00     0.020 A 
ATOM     85  C   UNL A   1      34.507  34.408  29.821  1.00  0.00     0.054 A 
BRANCH  85  86
ATOM     86  S   UNL A   1      33.089  35.243  29.057  1.00  0.00     0.124 S 
ATOM     87  O   UNL A   1      32.239  35.514  30.211  1.00  0.00    -0.237 OA
ATOM     88  O   UNL A   1      33.704  36.412  28.435  1.00  0.00    -0.237 OA
ATOM     89  O   UNL A   1      32.573  34.248  28.119  1.00  0.00    -0.744 OA
ENDBRANCH  85  86
ENDBRANCH  57  80
BRANCH  69  90
ATOM     90  C   UNL A   1      39.893  33.963  37.182  1.00  0.00    -0.014 A 
ATOM     91  C   UNL A   1      40.505  35.229  37.164  1.00  0.00     0.010 A 
ATOM     92  C   UNL A   1      39.041  33.626  38.251  1.00  0.00     0.010 A 
ATOM     93  C   UNL A   1      40.292  36.130  38.211  1.00  0.00     0.020 A 
ATOM     94  C   UNL A   1      38.807  34.534  39.287  1.00  0.00     0.020 A 
ATOM     95  C   UNL A   1      39.444  35.777  39.266  1.00  0.00     0.054 A 
BRANCH  95  96
ATOM     96  S   UNL A   1      39.145  36.981  40.590  1.00  0.00     0.124 S 
ATOM     97  O   UNL A   1      38.500  36.159  41.609  1.00  0.00    -0.237 OA
ATOM     98  O   UNL A   1      40.492  37.443  40.915  1.00  0.00    -0.237 OA
ATOM     99  O   UNL A   1      38.287  37.981  39.960  1.00  0.00    -0.744 OA
ENDBRANCH  95  96
ENDBRANCH  69  90
ENDBRANCH  43  44
ENDBRANCH  35  38
ENDBRANCH  33  34
ENDBRANCH   1  33
TORSDOF 18
ENDMDL
MODEL 2
REMARK VINA RESULT:     -12.3      0.705      7.881
REMARK SMILES COc1cc2c(cc1OC)[C@@H](CC(=O)NCCCNC(=O)c1ccc(-c3c4nc(c(-c5ccc(S(=O)(=O)[O-])cc5)c5ccc([nH]5)c(-c5ccc(S(=O)(=O)[O-])cc5)c5nc(c(-c6ccc(S(=O)(=O)[O-])cc6)c6ccc3[nH]6)C=C5)C=C4)cc1)N(C(=O)Nc1ccc(Cl)cc1)CC2
REMARK SMILES IDX 17 1 16 2 15 3 13 4 14 5 12 7 11 8 3 9 4 10 8 11 5 12 7 13
REMARK SMILES IDX 6 14 94 15 93 16 82 17 2 18 1 19 9 20 10 21 83 22 84 23
REMARK SMILES IDX 85 24 86 26 87 27 92 28 88 29 91 30 89 31 90 32 18 33 19 34
REMARK SMILES IDX 20 35 21 37 22 38 23 39 81 40 24 41 80 42 25 43 26 44 27 45
REMARK SMILES IDX 74 46 28 47 79 48 73 49 75 50 29 51 78 52 72 53 71 54 30 56
REMARK SMILES IDX 60 57 41 58 59 59 42 60 45 61 58 62 76 63 43 64 44 65 57 67
REMARK SMILES IDX 77 68 46 69 31 70 32 71 40 72 33 73 39 74 34 75 35 76 36 77
REMARK SMILES IDX 37 78 38 79 61 80 62 81 70 82 63 83 69 84 64 85 65 86 66 87
REMARK SMILES IDX 67 88 68 89 47 90 48 91 56 92 49 93 55 94 50 95 51 96 52 97
REMARK SMILES IDX 53 98 54 99
REMARK H PARENT 15 6 85 25 19 36 75 55 45 66
REMARK Flexibility Score: inf
ROOT
ATOM      1  C   UNL A   1      39.348  21.927  26.105  1.00  0.00     0.042 C 
ENDROOT
BRANCH   1   2
ATOM      2  C   UNL A   1      37.830  21.887  25.857  1.00  0.00     0.117 C 
BRANCH   2   3
ATOM      3  N   UNL A   1      37.516  22.291  24.489  1.00  0.00    -0.356 N 
ATOM      4  C   UNL A   1      36.445  22.937  23.949  1.00  0.00     0.222 C 
ATOM      5  O   UNL A   1      36.370  22.998  22.718  1.00  0.00    -0.275 OA
ATOM      6  H   UNL A   1      38.211  22.052  23.833  1.00  0.00     0.163 HD
BRANCH   4   7
ATOM      7  C   UNL A   1      35.421  23.657  24.806  1.00  0.00     0.130 C 
BRANCH   7   8
ATOM      8  C   UNL A   1      33.963  23.321  24.397  1.00  0.00     0.127 C 
ATOM      9  C   UNL A   1      31.626  26.350  22.265  1.00  0.00     0.161 A 
ATOM     10  C   UNL A   1      31.007  25.294  22.908  1.00  0.00     0.054 A 
ATOM     11  C   UNL A   1      33.026  26.421  22.190  1.00  0.00     0.161 A 
ATOM     12  C   UNL A   1      31.787  24.332  23.549  1.00  0.00    -0.037 A 
ATOM     13  C   UNL A   1      33.807  25.410  22.794  1.00  0.00     0.056 A 
ATOM     14  C   UNL A   1      33.206  24.381  23.542  1.00  0.00    -0.018 A 
ATOM     15  C   UNL A   1      31.111  23.357  24.470  1.00  0.00     0.057 C 
ATOM     16  C   UNL A   1      31.838  23.573  25.784  1.00  0.00     0.127 C 
ATOM     17  N   UNL A   1      33.201  23.049  25.660  1.00  0.00    -0.317 N 
BRANCH   9  18
ATOM     18  O   UNL A   1      30.805  27.376  21.873  1.00  0.00    -0.493 OA
ATOM     19  C   UNL A   1      29.894  27.738  22.904  1.00  0.00     0.278 C 
ENDBRANCH   9  18
BRANCH  11  20
ATOM     20  O   UNL A   1      33.522  27.527  21.551  1.00  0.00    -0.493 OA
ATOM     21  C   UNL A   1      34.131  28.531  22.345  1.00  0.00     0.278 C 
ENDBRANCH  11  20
BRANCH  17  22
ATOM     22  C   UNL A   1      33.410  21.890  26.389  1.00  0.00     0.322 C 
ATOM     23  O   UNL A   1      34.208  21.812  27.322  1.00  0.00    -0.248 OA
ATOM     24  N   UNL A   1      32.612  20.875  25.912  1.00  0.00    -0.308 N 
ATOM     25  H   UNL A   1      31.638  21.015  25.954  1.00  0.00     0.171 HD
BRANCH  24  26
ATOM     26  C   UNL A   1      33.056  19.660  25.373  1.00  0.00     0.042 A 
ATOM     27  C   UNL A   1      34.348  19.643  24.838  1.00  0.00     0.028 A 
ATOM     28  C   UNL A   1      32.354  18.467  25.549  1.00  0.00     0.028 A 
ATOM     29  C   UNL A   1      34.973  18.430  24.560  1.00  0.00     0.022 A 
ATOM     30  C   UNL A   1      32.988  17.251  25.285  1.00  0.00     0.022 A 
ATOM     31  C   UNL A   1      34.300  17.237  24.812  1.00  0.00     0.041 A 
ATOM     32  Cl  UNL A   1      35.114  15.745  24.568  1.00  0.00    -0.084 Cl
ENDBRANCH  24  26
ENDBRANCH  17  22
ENDBRANCH   7   8
ENDBRANCH   4   7
ENDBRANCH   2   3
ENDBRANCH   1   2
BRANCH   1  33
ATOM     33  C   UNL A   1      39.828  23.126  26.913  1.00  0.00     0.118 C 
BRANCH  33  34
ATOM     34  N   UNL A   1      40.491  24.122  26.085  1.00  0.00    -0.352 N 
ATOM     35  C   UNL A   1      40.741  25.469  26.195  1.00  0.00     0.251 C 
ATOM     36  H   UNL A   1      40.844  23.742  25.249  1.00  0.00     0.163 HD
ATOM     37  O   UNL A   1      41.190  26.005  25.175  1.00  0.00    -0.269 OA
BRANCH  35  38
ATOM     38  C   UNL A   1      40.519  26.322  27.407  1.00  0.00     0.039 A 
ATOM     39  C   UNL A   1      41.337  27.459  27.548  1.00  0.00     0.014 A 
ATOM     40  C   UNL A   1      39.640  26.039  28.452  1.00  0.00     0.014 A 
ATOM     41  C   UNL A   1      41.277  28.278  28.689  1.00  0.00     0.010 A 
ATOM     42  C   UNL A   1      39.521  26.900  29.557  1.00  0.00     0.010 A 
ATOM     43  C   UNL A   1      40.351  28.019  29.706  1.00  0.00    -0.014 A 
BRANCH  43  44
ATOM     44  C   UNL A   1      40.245  28.877  30.928  1.00  0.00     0.031 A 
ATOM     45  C   UNL A   1      39.215  29.981  31.008  1.00  0.00     0.074 A 
ATOM     46  C   UNL A   1      41.112  28.720  31.950  1.00  0.00     0.049 A 
ATOM     47  N   UNL A   1      39.057  30.902  31.926  1.00  0.00    -0.248 NA
ATOM     48  C   UNL A   1      38.253  30.078  29.899  1.00  0.00     0.031 C 
ATOM     49  C   UNL A   1      42.174  27.716  32.008  1.00  0.00     0.029 A 
ATOM     50  N   UNL A   1      41.248  29.410  33.131  1.00  0.00    -0.354 N 
ATOM     51  C   UNL A   1      38.013  31.708  31.487  1.00  0.00     0.074 A 
ATOM     52  C   UNL A   1      37.594  31.187  30.203  1.00  0.00     0.031 C 
ATOM     53  C   UNL A   1      42.840  27.842  33.168  1.00  0.00     0.029 A 
ATOM     54  C   UNL A   1      42.284  28.961  33.918  1.00  0.00     0.049 A 
ATOM     55  H   UNL A   1      40.660  30.155  33.390  1.00  0.00     0.167 HD
ATOM     56  C   UNL A   1      37.439  32.775  32.098  1.00  0.00     0.031 A 
ATOM     57  C   UNL A   1      42.752  29.401  35.104  1.00  0.00     0.031 A 
ATOM     58  C   UNL A   1      37.819  33.272  33.395  1.00  0.00     0.049 A 
ATOM     59  C   UNL A   1      42.090  30.575  35.771  1.00  0.00     0.074 A 
ATOM     60  C   UNL A   1      37.250  34.305  34.121  1.00  0.00     0.029 A 
ATOM     61  N   UNL A   1      38.854  32.767  34.166  1.00  0.00    -0.354 N 
ATOM     62  N   UNL A   1      41.077  31.296  35.352  1.00  0.00    -0.248 NA
ATOM     63  C   UNL A   1      42.626  30.990  37.076  1.00  0.00     0.031 C 
ATOM     64  C   UNL A   1      37.965  34.450  35.314  1.00  0.00     0.029 A 
ATOM     65  C   UNL A   1      38.949  33.476  35.353  1.00  0.00     0.049 A 
ATOM     66  H   UNL A   1      39.437  32.016  33.909  1.00  0.00     0.167 HD
ATOM     67  C   UNL A   1      40.841  32.231  36.353  1.00  0.00     0.074 A 
ATOM     68  C   UNL A   1      41.805  31.978  37.403  1.00  0.00     0.031 C 
ATOM     69  C   UNL A   1      39.907  33.213  36.395  1.00  0.00     0.031 A 
BRANCH  56  70
ATOM     70  C   UNL A   1      36.329  33.488  31.367  1.00  0.00    -0.014 A 
ATOM     71  C   UNL A   1      35.173  33.920  32.043  1.00  0.00     0.010 A 
ATOM     72  C   UNL A   1      36.467  33.779  29.997  1.00  0.00     0.010 A 
ATOM     73  C   UNL A   1      34.158  34.590  31.354  1.00  0.00     0.020 A 
ATOM     74  C   UNL A   1      35.466  34.473  29.310  1.00  0.00     0.020 A 
ATOM     75  C   UNL A   1      34.309  34.858  29.990  1.00  0.00     0.054 A 
BRANCH  75  76
ATOM     76  S   UNL A   1      32.985  35.747  29.125  1.00  0.00     0.124 S 
ATOM     77  O   UNL A   1      32.146  36.190  30.235  1.00  0.00    -0.237 OA
ATOM     78  O   UNL A   1      33.712  36.806  28.427  1.00  0.00    -0.237 OA
ATOM     79  O   UNL A   1      32.391  34.730  28.261  1.00  0.00    -0.744 OA
ENDBRANCH  75  76
ENDBRANCH  56  70
BRANCH  57  80
ATOM     80  C   UNL A   1      43.913  28.722  35.746  1.00  0.00    -0.014 A 
ATOM     81  C   UNL A   1      45.225  29.150  35.478  1.00  0.00     0.010 A 
ATOM     82  C   UNL A   1      43.711  27.647  36.630  1.00  0.00     0.010 A 
ATOM     83  C   UNL A   1      46.316  28.502  36.066  1.00  0.00     0.020 A 
ATOM     84  C   UNL A   1      44.797  27.015  37.241  1.00  0.00     0.020 A 
ATOM     85  C   UNL A   1      46.094  27.437  36.944  1.00  0.00     0.054 A 
BRANCH  85  86
ATOM     86  S   UNL A   1      47.521  26.636  37.730  1.00  0.00     0.124 S 
ATOM     87  O   UNL A   1      48.636  27.184  36.964  1.00  0.00    -0.237 OA
ATOM     88  O   UNL A   1      47.420  27.091  39.114  1.00  0.00    -0.237 OA
ATOM     89  O   UNL A   1      47.264  25.211  37.530  1.00  0.00    -0.744 OA
ENDBRANCH  85  86
ENDBRANCH  57  80
BRANCH  69  90
ATOM     90  C   UNL A   1      39.854  34.067  37.633  1.00  0.00    -0.014 A 
ATOM     91  C   UNL A   1      39.110  33.673  38.759  1.00  0.00     0.010 A 
ATOM     92  C   UNL A   1      40.605  35.256  37.688  1.00  0.00     0.010 A 
ATOM     93  C   UNL A   1      39.095  34.468  39.909  1.00  0.00     0.020 A 
ATOM     94  C   UNL A   1      40.612  36.041  38.844  1.00  0.00     0.020 A 
ATOM     95  C   UNL A   1      39.846  35.647  39.944  1.00  0.00     0.054 A 
BRANCH  95  96
ATOM     96  S   UNL A   1      39.849  36.637  41.464  1.00  0.00     0.124 S 
ATOM     97  O   UNL A   1      38.664  36.137  42.155  1.00  0.00    -0.237 OA
ATOM     98  O   UNL A   1      41.128  36.286  42.075  1.00  0.00    -0.237 OA
ATOM     99  O   UNL A   1      39.754  38.013  40.980  1.00  0.00    -0.744 OA
ENDBRANCH  95  96
ENDBRANCH  69  90
ENDBRANCH  43  44
ENDBRANCH  35  38
ENDBRANCH  33  34
ENDBRANCH   1  33
TORSDOF 18
ENDMDL
MODEL 3
REMARK VINA RESULT:     -11.8      6.133     11.542
REMARK SMILES COc1cc2c(cc1OC)[C@@H](CC(=O)NCCCNC(=O)c1ccc(-c3c4nc(c(-c5ccc(S(=O)(=O)[O-])cc5)c5ccc([nH]5)c(-c5ccc(S(=O)(=O)[O-])cc5)c5nc(c(-c6ccc(S(=O)(=O)[O-])cc6)c6ccc3[nH]6)C=C5)C=C4)cc1)N(C(=O)Nc1ccc(Cl)cc1)CC2
REMARK SMILES IDX 17 1 16 2 15 3 13 4 14 5 12 7 11 8 3 9 4 10 8 11 5 12 7 13
REMARK SMILES IDX 6 14 94 15 93 16 82 17 2 18 1 19 9 20 10 21 83 22 84 23
REMARK SMILES IDX 85 24 86 26 87 27 92 28 88 29 91 30 89 31 90 32 18 33 19 34
REMARK SMILES IDX 20 35 21 37 22 38 23 39 81 40 24 41 80 42 25 43 26 44 27 45
REMARK SMILES IDX 74 46 28 47 79 48 73 49 75 50 29 51 78 52 72 53 71 54 30 56
REMARK SMILES IDX 60 57 41 58 59 59 42 60 45 61 58 62 76 63 43 64 44 65 57 67
REMARK SMILES IDX 77 68 46 69 31 70 32 71 40 72 33 73 39 74 34 75 35 76 36 77
REMARK SMILES IDX 37 78 38 79 61 80 62 81 70 82 63 83 69 84 64 85 65 86 66 87
REMARK SMILES IDX 67 88 68 89 47 90 48 91 56 92 49 93 55 94 50 95 51 96 52 97
REMARK SMILES IDX 53 98 54 99
REMARK H PARENT 15 6 85 25 19 36 75 55 45 66
REMARK Flexibility Score: inf
ROOT
ATOM      1  C   UNL A   1      34.031  32.454  28.297  1.00  0.00     0.042 C 
ENDROOT
BRANCH   1   2
ATOM      2  C   UNL A   1      33.332  31.567  27.252  1.00  0.00     0.117 C 
BRANCH   2   3
ATOM      3  N   UNL A   1      34.081  30.331  27.034  1.00  0.00    -0.356 N 
ATOM      4  C   UNL A   1      33.683  29.059  26.749  1.00  0.00     0.222 C 
ATOM      5  O   UNL A   1      34.538  28.168  26.785  1.00  0.00    -0.275 OA
ATOM      6  H   UNL A   1      35.057  30.438  27.106  1.00  0.00     0.163 HD
BRANCH   4   7
ATOM      7  C   UNL A   1      32.272  28.737  26.297  1.00  0.00     0.130 C 
BRANCH   7   8
ATOM      8  C   UNL A   1      32.198  28.386  24.787  1.00  0.00     0.127 C 
ATOM      9  C   UNL A   1      28.986  30.137  22.379  1.00  0.00     0.161 A 
ATOM     10  C   UNL A   1      29.675  29.018  21.945  1.00  0.00     0.054 A 
ATOM     11  C   UNL A   1      29.370  30.802  23.552  1.00  0.00     0.161 A 
ATOM     12  C   UNL A   1      30.712  28.509  22.725  1.00  0.00    -0.037 A 
ATOM     13  C   UNL A   1      30.460  30.312  24.306  1.00  0.00     0.056 A 
ATOM     14  C   UNL A   1      31.112  29.119  23.944  1.00  0.00    -0.018 A 
ATOM     15  C   UNL A   1      31.261  27.151  22.393  1.00  0.00     0.057 C 
ATOM     16  C   UNL A   1      31.069  26.383  23.686  1.00  0.00     0.127 C 
ATOM     17  N   UNL A   1      32.006  26.903  24.687  1.00  0.00    -0.317 N 
BRANCH   9  18
ATOM     18  O   UNL A   1      27.834  30.432  21.695  1.00  0.00    -0.493 OA
ATOM     19  C   UNL A   1      28.094  31.254  20.564  1.00  0.00     0.278 C 
ENDBRANCH   9  18
BRANCH  11  20
ATOM     20  O   UNL A   1      28.596  31.880  23.893  1.00  0.00    -0.493 OA
ATOM     21  C   UNL A   1      28.943  33.142  23.349  1.00  0.00     0.278 C 
ENDBRANCH  11  20
BRANCH  17  22
ATOM     22  C   UNL A   1      33.035  26.024  24.982  1.00  0.00     0.322 C 
ATOM     23  O   UNL A   1      34.070  25.948  24.323  1.00  0.00    -0.248 OA
ATOM     24  N   UNL A   1      32.717  25.272  26.091  1.00  0.00    -0.308 N 
ATOM     25  H   UNL A   1      32.565  25.759  26.933  1.00  0.00     0.171 HD
BRANCH  24  26
ATOM     26  C   UNL A   1      32.590  23.877  26.133  1.00  0.00     0.042 A 
ATOM     27  C   UNL A   1      31.799  23.287  25.142  1.00  0.00     0.028 A 
ATOM     28  C   UNL A   1      33.374  23.083  26.970  1.00  0.00     0.028 A 
ATOM     29  C   UNL A   1      31.858  21.912  24.929  1.00  0.00     0.022 A 
ATOM     30  C   UNL A   1      33.444  21.706  26.744  1.00  0.00     0.022 A 
ATOM     31  C   UNL A   1      32.703  21.130  25.713  1.00  0.00     0.041 A 
ATOM     32  Cl  UNL A   1      32.852  19.453  25.374  1.00  0.00    -0.084 Cl
ENDBRANCH  24  26
ENDBRANCH  17  22
ENDBRANCH   7   8
ENDBRANCH   4   7
ENDBRANCH   2   3
ENDBRANCH   1   2
BRANCH   1  33
ATOM     33  C   UNL A   1      35.450  32.026  28.645  1.00  0.00     0.118 C 
BRANCH  33  34
ATOM     34  N   UNL A   1      35.547  31.463  29.982  1.00  0.00    -0.352 N 
ATOM     35  C   UNL A   1      36.425  30.621  30.625  1.00  0.00     0.251 C 
ATOM     36  H   UNL A   1      34.810  31.753  30.567  1.00  0.00     0.163 HD
ATOM     37  O   UNL A   1      36.058  30.228  31.737  1.00  0.00    -0.269 OA
BRANCH  35  38
ATOM     38  C   UNL A   1      37.748  30.147  30.103  1.00  0.00     0.039 A 
ATOM     39  C   UNL A   1      38.705  29.751  31.057  1.00  0.00     0.014 A 
ATOM     40  C   UNL A   1      38.147  30.153  28.768  1.00  0.00     0.014 A 
ATOM     41  C   UNL A   1      40.008  29.375  30.687  1.00  0.00     0.010 A 
ATOM     42  C   UNL A   1      39.423  29.702  28.387  1.00  0.00     0.010 A 
ATOM     43  C   UNL A   1      40.382  29.329  29.338  1.00  0.00    -0.014 A 
BRANCH  43  44
ATOM     44  C   UNL A   1      41.754  28.919  28.904  1.00  0.00     0.031 A 
ATOM     45  C   UNL A   1      42.871  29.934  28.817  1.00  0.00     0.074 A 
ATOM     46  C   UNL A   1      41.998  27.648  28.521  1.00  0.00     0.049 A 
ATOM     47  N   UNL A   1      44.084  29.793  28.344  1.00  0.00    -0.248 NA
ATOM     48  C   UNL A   1      42.577  31.293  29.301  1.00  0.00     0.031 C 
ATOM     49  C   UNL A   1      41.018  26.563  28.526  1.00  0.00     0.029 A 
ATOM     50  N   UNL A   1      43.141  27.055  28.038  1.00  0.00    -0.354 N 
ATOM     51  C   UNL A   1      44.681  31.046  28.433  1.00  0.00     0.074 A 
ATOM     52  C   UNL A   1      43.685  31.945  28.977  1.00  0.00     0.031 C 
ATOM     53  C   UNL A   1      41.602  25.435  28.089  1.00  0.00     0.029 A 
ATOM     54  C   UNL A   1      42.985  25.723  27.729  1.00  0.00     0.049 A 
ATOM     55  H   UNL A   1      43.991  27.538  27.926  1.00  0.00     0.167 HD
ATOM     56  C   UNL A   1      45.945  31.418  28.111  1.00  0.00     0.031 A 
ATOM     57  C   UNL A   1      43.846  24.829  27.202  1.00  0.00     0.031 A 
ATOM     58  C   UNL A   1      46.955  30.521  27.613  1.00  0.00     0.049 A 
ATOM     59  C   UNL A   1      45.247  25.260  26.867  1.00  0.00     0.074 A 
ATOM     60  C   UNL A   1      48.281  30.796  27.322  1.00  0.00     0.029 A 
ATOM     61  N   UNL A   1      46.759  29.176  27.343  1.00  0.00    -0.354 N 
ATOM     62  N   UNL A   1      45.798  26.442  26.999  1.00  0.00    -0.248 NA
ATOM     63  C   UNL A   1      46.147  24.232  26.323  1.00  0.00     0.031 C 
ATOM     64  C   UNL A   1      48.877  29.625  26.840  1.00  0.00     0.029 A 
ATOM     65  C   UNL A   1      47.935  28.611  26.876  1.00  0.00     0.049 A 
ATOM     66  H   UNL A   1      45.909  28.693  27.464  1.00  0.00     0.167 HD
ATOM     67  C   UNL A   1      47.114  26.294  26.577  1.00  0.00     0.074 A 
ATOM     68  C   UNL A   1      47.282  24.907  26.199  1.00  0.00     0.031 C 
ATOM     69  C   UNL A   1      48.095  27.228  26.509  1.00  0.00     0.031 A 
BRANCH  56  70
ATOM     70  C   UNL A   1      46.315  32.869  28.285  1.00  0.00    -0.014 A 
ATOM     71  C   UNL A   1      46.882  33.337  29.485  1.00  0.00     0.010 A 
ATOM     72  C   UNL A   1      46.144  33.769  27.216  1.00  0.00     0.010 A 
ATOM     73  C   UNL A   1      47.230  34.683  29.627  1.00  0.00     0.020 A 
ATOM     74  C   UNL A   1      46.516  35.110  27.345  1.00  0.00     0.020 A 
ATOM     75  C   UNL A   1      47.040  35.563  28.557  1.00  0.00     0.054 A 
BRANCH  75  76
ATOM     76  S   UNL A   1      47.520  37.301  28.762  1.00  0.00     0.124 S 
ATOM     77  O   UNL A   1      48.627  37.196  29.709  1.00  0.00    -0.237 OA
ATOM     78  O   UNL A   1      47.892  37.694  27.404  1.00  0.00    -0.237 OA
ATOM     79  O   UNL A   1      46.312  37.936  29.283  1.00  0.00    -0.744 OA
ENDBRANCH  75  76
ENDBRANCH  56  70
BRANCH  57  80
ATOM     80  C   UNL A   1      43.407  23.426  26.959  1.00  0.00    -0.014 A 
ATOM     81  C   UNL A   1      43.190  22.551  28.038  1.00  0.00     0.010 A 
ATOM     82  C   UNL A   1      43.201  22.959  25.648  1.00  0.00     0.010 A 
ATOM     83  C   UNL A   1      42.796  21.229  27.810  1.00  0.00     0.020 A 
ATOM     84  C   UNL A   1      42.780  21.647  25.418  1.00  0.00     0.020 A 
ATOM     85  C   UNL A   1      42.594  20.785  26.500  1.00  0.00     0.054 A 
BRANCH  85  86
ATOM     86  S   UNL A   1      42.042  19.077  26.228  1.00  0.00     0.124 S 
ATOM     87  O   UNL A   1      42.257  18.476  27.539  1.00  0.00    -0.237 OA
ATOM     88  O   UNL A   1      40.647  19.252  25.833  1.00  0.00    -0.237 OA
ATOM     89  O   UNL A   1      42.926  18.600  25.166  1.00  0.00    -0.744 OA
ENDBRANCH  85  86
ENDBRANCH  57  80
BRANCH  69  90
ATOM     90  C   UNL A   1      49.453  26.776  26.043  1.00  0.00    -0.014 A 
ATOM     91  C   UNL A   1      49.893  27.025  24.731  1.00  0.00     0.010 A 
ATOM     92  C   UNL A   1      50.322  26.141  26.950  1.00  0.00     0.010 A 
ATOM     93  C   UNL A   1      51.169  26.620  24.326  1.00  0.00     0.020 A 
ATOM     94  C   UNL A   1      51.606  25.757  26.555  1.00  0.00     0.020 A 
ATOM     95  C   UNL A   1      52.017  25.989  25.241  1.00  0.00     0.054 A 
BRANCH  95  96
ATOM     96  S   UNL A   1      53.685  25.515  24.706  1.00  0.00     0.124 S 
ATOM     97  O   UNL A   1      53.624  24.059  24.774  1.00  0.00    -0.237 OA
ATOM     98  O   UNL A   1      53.763  26.079  23.360  1.00  0.00    -0.237 OA
ATOM     99  O   UNL A   1      54.557  26.150  25.691  1.00  0.00    -0.744 OA
ENDBRANCH  95  96
ENDBRANCH  69  90
ENDBRANCH  43  44
ENDBRANCH  35  38
ENDBRANCH  33  34
ENDBRANCH   1  33
TORSDOF 18
ENDMDL
