MODEL 1
REMARK VINA RESULT:     -10.9      0.000      0.000
REMARK SMILES O=C(NCCCNC(=O)[C@@H]1CCCN(c2ccc3cc(S(=O)(=O)N4CCCCC4)ccc3n2)C1)c1ccc(-c2c3nc(c(-c4ccc(S(=O)(=O)[O-])cc4)c4ccc([nH]4)c(-c4ccc(S(=O)(=O)[O-])cc4)c4nc(c(-c5ccc(S(=O)(=O)[O-])cc5)c5ccc2[nH]5)C=C4)C=C3)cc1
REMARK SMILES IDX 5 1 4 2 3 3 1 4 2 5 35 7 36 8 94 9 37 10 93 11 38 12 39 13
REMARK SMILES IDX 40 14 87 15 41 16 92 17 86 18 88 19 42 20 91 21 85 22 84 23
REMARK SMILES IDX 43 25 73 26 54 27 72 28 55 29 58 30 71 31 89 32 56 33 57 34
REMARK SMILES IDX 70 36 90 37 59 38 44 39 45 40 53 41 46 42 52 43 47 44 48 45
REMARK SMILES IDX 49 46 50 47 51 48 74 49 75 50 83 51 76 52 82 53 77 54 78 55
REMARK SMILES IDX 79 56 80 57 81 58 60 59 61 60 69 61 62 62 68 63 63 64 64 65
REMARK SMILES IDX 65 66 66 67 67 68 6 69 7 70 8 71 9 73 10 74 11 75 34 76
REMARK SMILES IDX 12 77 14 78 13 79 15 80 16 81 33 82 17 83 32 84 18 85 31 86
REMARK SMILES IDX 19 87 30 88 20 89 21 90 22 91 23 92 24 93 25 94 29 95 26 96
REMARK SMILES IDX 28 97 27 98
REMARK H PARENT 3 6 88 24 58 35 7 72
REMARK Flexibility Score: inf
ROOT
ATOM      1  C   UNL A   1      46.256  27.325  24.590  1.00  0.00     0.042 C 
ENDROOT
BRANCH   1   2
ATOM      2  C   UNL A   1      45.284  26.778  25.631  1.00  0.00     0.118 C 
BRANCH   2   3
ATOM      3  N   UNL A   1      44.058  26.278  25.027  1.00  0.00    -0.352 N 
ATOM      4  O   UNL A   1      41.943  25.517  24.969  1.00  0.00    -0.269 OA
ATOM      5  C   UNL A   1      42.783  26.209  25.540  1.00  0.00     0.251 C 
ATOM      6  H   UNL A   1      44.156  25.936  24.109  1.00  0.00     0.163 HD
BRANCH   5   7
ATOM      7  C   UNL A   1      42.422  26.947  26.774  1.00  0.00     0.039 A 
ATOM      8  C   UNL A   1      41.833  26.289  27.852  1.00  0.00     0.014 A 
ATOM      9  C   UNL A   1      42.732  28.308  26.882  1.00  0.00     0.014 A 
ATOM     10  C   UNL A   1      41.413  27.011  28.964  1.00  0.00     0.010 A 
ATOM     11  C   UNL A   1      42.411  29.011  28.049  1.00  0.00     0.010 A 
ATOM     12  C   UNL A   1      41.726  28.374  29.094  1.00  0.00    -0.014 A 
BRANCH  12  13
ATOM     13  C   UNL A   1      41.405  29.058  30.377  1.00  0.00     0.031 A 
ATOM     14  C   UNL A   1      42.283  28.920  31.590  1.00  0.00     0.074 A 
ATOM     15  C   UNL A   1      40.327  29.870  30.412  1.00  0.00     0.049 A 
ATOM     16  N   UNL A   1      42.177  29.520  32.750  1.00  0.00    -0.248 NA
ATOM     17  C   UNL A   1      43.419  27.990  31.501  1.00  0.00     0.031 C 
ATOM     18  C   UNL A   1      39.382  30.063  29.308  1.00  0.00     0.029 A 
ATOM     19  N   UNL A   1      39.864  30.711  31.391  1.00  0.00    -0.354 N 
ATOM     20  C   UNL A   1      43.221  29.037  33.530  1.00  0.00     0.074 A 
ATOM     21  C   UNL A   1      43.933  28.069  32.722  1.00  0.00     0.031 C 
ATOM     22  C   UNL A   1      38.502  31.017  29.641  1.00  0.00     0.029 A 
ATOM     23  C   UNL A   1      38.770  31.451  31.004  1.00  0.00     0.049 A 
ATOM     24  H   UNL A   1      40.274  30.780  32.283  1.00  0.00     0.167 HD
ATOM     25  C   UNL A   1      43.560  29.375  34.798  1.00  0.00     0.031 A 
ATOM     26  C   UNL A   1      38.051  32.372  31.673  1.00  0.00     0.031 A 
ATOM     27  C   UNL A   1      42.843  30.335  35.601  1.00  0.00     0.049 A 
ATOM     28  C   UNL A   1      38.448  32.725  33.075  1.00  0.00     0.074 A 
ATOM     29  C   UNL A   1      43.108  30.743  36.897  1.00  0.00     0.029 A 
ATOM     30  N   UNL A   1      41.724  31.040  35.184  1.00  0.00    -0.354 N 
ATOM     31  N   UNL A   1      39.449  32.264  33.786  1.00  0.00    -0.248 NA
ATOM     32  C   UNL A   1      37.621  33.723  33.765  1.00  0.00     0.031 C 
ATOM     33  C   UNL A   1      42.127  31.665  37.278  1.00  0.00     0.029 A 
ATOM     34  C   UNL A   1      41.280  31.871  36.201  1.00  0.00     0.049 A 
ATOM     35  H   UNL A   1      41.305  30.961  34.297  1.00  0.00     0.167 HD
ATOM     36  C   UNL A   1      39.373  32.916  35.009  1.00  0.00     0.074 A 
ATOM     37  C   UNL A   1      38.252  33.832  34.927  1.00  0.00     0.031 C 
ATOM     38  C   UNL A   1      40.153  32.764  36.107  1.00  0.00     0.031 A 
BRANCH  25  39
ATOM     39  C   UNL A   1      44.759  28.695  35.408  1.00  0.00    -0.014 A 
ATOM     40  C   UNL A   1      46.042  29.261  35.305  1.00  0.00     0.010 A 
ATOM     41  C   UNL A   1      44.594  27.507  36.145  1.00  0.00     0.010 A 
ATOM     42  C   UNL A   1      47.142  28.638  35.902  1.00  0.00     0.020 A 
ATOM     43  C   UNL A   1      45.688  26.894  36.763  1.00  0.00     0.020 A 
ATOM     44  C   UNL A   1      46.959  27.456  36.625  1.00  0.00     0.054 A 
BRANCH  44  45
ATOM     45  S   UNL A   1      48.401  26.685  37.413  1.00  0.00     0.124 S 
ATOM     46  O   UNL A   1      48.258  25.291  37.000  1.00  0.00    -0.237 OA
ATOM     47  O   UNL A   1      49.519  27.406  36.810  1.00  0.00    -0.237 OA
ATOM     48  O   UNL A   1      48.195  26.937  38.837  1.00  0.00    -0.744 OA
ENDBRANCH  44  45
ENDBRANCH  25  39
BRANCH  26  49
ATOM     49  C   UNL A   1      36.866  32.996  31.024  1.00  0.00    -0.014 A 
ATOM     50  C   UNL A   1      35.569  32.786  31.523  1.00  0.00     0.010 A 
ATOM     51  C   UNL A   1      37.040  33.827  29.900  1.00  0.00     0.010 A 
ATOM     52  C   UNL A   1      34.468  33.379  30.899  1.00  0.00     0.020 A 
ATOM     53  C   UNL A   1      35.945  34.447  29.295  1.00  0.00     0.020 A 
ATOM     54  C   UNL A   1      34.663  34.205  29.789  1.00  0.00     0.054 A 
BRANCH  54  55
ATOM     55  S   UNL A   1      33.227  35.001  29.017  1.00  0.00     0.124 S 
ATOM     56  O   UNL A   1      32.379  35.277  30.172  1.00  0.00    -0.237 OA
ATOM     57  O   UNL A   1      33.819  36.170  28.371  1.00  0.00    -0.237 OA
ATOM     58  O   UNL A   1      32.725  33.980  28.100  1.00  0.00    -0.744 OA
ENDBRANCH  54  55
ENDBRANCH  26  49
BRANCH  38  59
ATOM     59  C   UNL A   1      39.821  33.621  37.299  1.00  0.00    -0.014 A 
ATOM     60  C   UNL A   1      40.487  34.839  37.523  1.00  0.00     0.010 A 
ATOM     61  C   UNL A   1      38.827  33.203  38.201  1.00  0.00     0.010 A 
ATOM     62  C   UNL A   1      40.197  35.604  38.656  1.00  0.00     0.020 A 
ATOM     63  C   UNL A   1      38.516  33.979  39.321  1.00  0.00     0.020 A 
ATOM     64  C   UNL A   1      39.217  35.164  39.551  1.00  0.00     0.054 A 
BRANCH  64  65
ATOM     65  S   UNL A   1      38.849  36.178  41.010  1.00  0.00     0.124 S 
ATOM     66  O   UNL A   1      40.119  36.146  41.730  1.00  0.00    -0.237 OA
ATOM     67  O   UNL A   1      38.490  37.467  40.424  1.00  0.00    -0.237 OA
ATOM     68  O   UNL A   1      37.748  35.466  41.655  1.00  0.00    -0.744 OA
ENDBRANCH  64  65
ENDBRANCH  38  59
ENDBRANCH  12  13
ENDBRANCH   5   7
ENDBRANCH   2   3
ENDBRANCH   1   2
BRANCH   1  69
ATOM     69  C   UNL A   1      47.593  27.768  25.173  1.00  0.00     0.117 C 
BRANCH  69  70
ATOM     70  N   UNL A   1      48.328  26.676  25.777  1.00  0.00    -0.356 N 
ATOM     71  C   UNL A   1      48.742  26.360  27.019  1.00  0.00     0.224 C 
ATOM     72  H   UNL A   1      48.591  25.997  25.114  1.00  0.00     0.163 HD
ATOM     73  O   UNL A   1      49.216  25.216  27.099  1.00  0.00    -0.275 OA
BRANCH  71  74
ATOM     74  C   UNL A   1      48.544  27.190  28.293  1.00  0.00     0.098 C 
ATOM     75  C   UNL A   1      49.427  27.028  29.541  1.00  0.00     0.017 C 
ATOM     76  C   UNL A   1      47.067  27.025  28.719  1.00  0.00     0.131 C 
ATOM     77  C   UNL A   1      49.126  25.780  30.372  1.00  0.00     0.022 C 
ATOM     78  N   UNL A   1      46.916  25.767  29.448  1.00  0.00    -0.356 N 
ATOM     79  C   UNL A   1      47.643  25.646  30.700  1.00  0.00     0.118 C 
BRANCH  78  80
ATOM     80  C   UNL A   1      45.821  24.958  29.239  1.00  0.00     0.129 A 
ATOM     81  C   UNL A   1      44.889  24.743  30.250  1.00  0.00     0.047 A 
ATOM     82  N   UNL A   1      45.644  24.428  28.012  1.00  0.00    -0.231 NA
ATOM     83  C   UNL A   1      43.760  23.969  30.007  1.00  0.00     0.014 A 
ATOM     84  C   UNL A   1      44.573  23.660  27.779  1.00  0.00     0.073 A 
ATOM     85  C   UNL A   1      43.590  23.394  28.751  1.00  0.00     0.002 A 
ATOM     86  C   UNL A   1      44.432  23.088  26.529  1.00  0.00     0.030 A 
ATOM     87  C   UNL A   1      42.492  22.570  28.451  1.00  0.00     0.032 A 
ATOM     88  C   UNL A   1      43.356  22.251  26.222  1.00  0.00     0.024 A 
ATOM     89  C   UNL A   1      42.384  21.986  27.185  1.00  0.00     0.083 A 
BRANCH  89  90
ATOM     90  S   UNL A   1      40.999  20.892  26.922  1.00  0.00     0.243 S 
ATOM     91  O   UNL A   1      41.259  20.225  25.657  1.00  0.00    -0.207 OA
ATOM     92  O   UNL A   1      40.833  20.143  28.144  1.00  0.00    -0.207 OA
BRANCH  90  93
ATOM     93  N   UNL A   1      39.610  21.865  26.703  1.00  0.00    -0.198 NA
ATOM     94  C   UNL A   1      39.826  23.329  26.844  1.00  0.00     0.102 C 
ATOM     95  C   UNL A   1      38.634  21.379  25.698  1.00  0.00     0.102 C 
ATOM     96  C   UNL A   1      38.533  24.125  26.735  1.00  0.00     0.017 C 
ATOM     97  C   UNL A   1      37.377  22.234  25.642  1.00  0.00     0.017 C 
ATOM     98  C   UNL A   1      37.721  23.708  25.520  1.00  0.00     0.003 C 
ENDBRANCH  90  93
ENDBRANCH  89  90
ENDBRANCH  78  80
ENDBRANCH  71  74
ENDBRANCH  69  70
ENDBRANCH   1  69
TORSDOF 16
ENDMDL
MODEL 2
REMARK VINA RESULT:     -10.8      5.159     13.085
REMARK SMILES O=C(NCCCNC(=O)[C@@H]1CCCN(c2ccc3cc(S(=O)(=O)N4CCCCC4)ccc3n2)C1)c1ccc(-c2c3nc(c(-c4ccc(S(=O)(=O)[O-])cc4)c4ccc([nH]4)c(-c4ccc(S(=O)(=O)[O-])cc4)c4nc(c(-c5ccc(S(=O)(=O)[O-])cc5)c5ccc2[nH]5)C=C4)C=C3)cc1
REMARK SMILES IDX 5 1 4 2 3 3 1 4 2 5 35 7 36 8 94 9 37 10 93 11 38 12 39 13
REMARK SMILES IDX 40 14 87 15 41 16 92 17 86 18 88 19 42 20 91 21 85 22 84 23
REMARK SMILES IDX 43 25 73 26 54 27 72 28 55 29 58 30 71 31 89 32 56 33 57 34
REMARK SMILES IDX 70 36 90 37 59 38 44 39 45 40 53 41 46 42 52 43 47 44 48 45
REMARK SMILES IDX 49 46 50 47 51 48 74 49 75 50 83 51 76 52 82 53 77 54 78 55
REMARK SMILES IDX 79 56 80 57 81 58 60 59 61 60 69 61 62 62 68 63 63 64 64 65
REMARK SMILES IDX 65 66 66 67 67 68 6 69 7 70 8 71 9 73 10 74 11 75 34 76
REMARK SMILES IDX 12 77 14 78 13 79 15 80 16 81 33 82 17 83 32 84 18 85 31 86
REMARK SMILES IDX 19 87 30 88 20 89 21 90 22 91 23 92 24 93 25 94 29 95 26 96
REMARK SMILES IDX 28 97 27 98
REMARK H PARENT 3 6 88 24 58 35 7 72
REMARK Flexibility Score: inf
ROOT
ATOM      1  C   UNL A   1      37.361  33.005  34.195  1.00  0.00     0.042 C 
ENDROOT
BRANCH   1   2
ATOM      2  C   UNL A   1      37.918  31.711  33.610  1.00  0.00     0.118 C 
BRANCH   2   3
ATOM      3  N   UNL A   1      36.876  30.886  33.017  1.00  0.00    -0.352 N 
ATOM      4  O   UNL A   1      35.841  29.705  31.408  1.00  0.00    -0.269 OA
ATOM      5  C   UNL A   1      36.900  30.118  31.875  1.00  0.00     0.251 C 
ATOM      6  H   UNL A   1      36.024  30.874  33.508  1.00  0.00     0.163 HD
BRANCH   5   7
ATOM      7  C   UNL A   1      38.181  29.799  31.202  1.00  0.00     0.039 A 
ATOM      8  C   UNL A   1      38.432  30.233  29.902  1.00  0.00     0.014 A 
ATOM      9  C   UNL A   1      39.176  29.106  31.902  1.00  0.00     0.014 A 
ATOM     10  C   UNL A   1      39.597  29.846  29.250  1.00  0.00     0.010 A 
ATOM     11  C   UNL A   1      40.398  28.814  31.282  1.00  0.00     0.010 A 
ATOM     12  C   UNL A   1      40.611  29.161  29.940  1.00  0.00    -0.014 A 
BRANCH  12  13
ATOM     13  C   UNL A   1      41.906  28.922  29.246  1.00  0.00     0.031 A 
ATOM     14  C   UNL A   1      42.972  29.980  29.170  1.00  0.00     0.074 A 
ATOM     15  C   UNL A   1      42.136  27.695  28.734  1.00  0.00     0.049 A 
ATOM     16  N   UNL A   1      44.181  29.891  28.673  1.00  0.00    -0.248 NA
ATOM     17  C   UNL A   1      42.647  31.309  29.711  1.00  0.00     0.031 C 
ATOM     18  C   UNL A   1      41.168  26.593  28.721  1.00  0.00     0.029 A 
ATOM     19  N   UNL A   1      43.258  27.151  28.163  1.00  0.00    -0.354 N 
ATOM     20  C   UNL A   1      44.756  31.146  28.830  1.00  0.00     0.074 A 
ATOM     21  C   UNL A   1      43.753  31.991  29.442  1.00  0.00     0.031 C 
ATOM     22  C   UNL A   1      41.759  25.490  28.242  1.00  0.00     0.029 A 
ATOM     23  C   UNL A   1      43.121  25.819  27.847  1.00  0.00     0.049 A 
ATOM     24  H   UNL A   1      44.082  27.664  27.997  1.00  0.00     0.167 HD
ATOM     25  C   UNL A   1      46.007  31.553  28.503  1.00  0.00     0.031 A 
ATOM     26  C   UNL A   1      43.989  24.954  27.289  1.00  0.00     0.031 A 
ATOM     27  C   UNL A   1      47.000  30.709  27.887  1.00  0.00     0.049 A 
ATOM     28  C   UNL A   1      45.366  25.434  26.936  1.00  0.00     0.074 A 
ATOM     29  C   UNL A   1      48.295  31.031  27.516  1.00  0.00     0.029 A 
ATOM     30  N   UNL A   1      46.813  29.375  27.555  1.00  0.00    -0.354 N 
ATOM     31  N   UNL A   1      45.890  26.623  27.108  1.00  0.00    -0.248 NA
ATOM     32  C   UNL A   1      46.268  24.455  26.316  1.00  0.00     0.031 C 
ATOM     33  C   UNL A   1      48.877  29.905  26.924  1.00  0.00     0.029 A 
ATOM     34  C   UNL A   1      47.964  28.865  26.974  1.00  0.00     0.049 A 
ATOM     35  H   UNL A   1      45.985  28.867  27.709  1.00  0.00     0.167 HD
ATOM     36  C   UNL A   1      47.186  26.537  26.617  1.00  0.00     0.074 A 
ATOM     37  C   UNL A   1      47.377  25.169  26.178  1.00  0.00     0.031 C 
ATOM     38  C   UNL A   1      48.130  27.505  26.527  1.00  0.00     0.031 A 
BRANCH  25  39
ATOM     39  C   UNL A   1      46.376  32.986  28.796  1.00  0.00    -0.014 A 
ATOM     40  C   UNL A   1      46.107  34.006  27.866  1.00  0.00     0.010 A 
ATOM     41  C   UNL A   1      46.945  33.326  30.037  1.00  0.00     0.010 A 
ATOM     42  C   UNL A   1      46.424  35.335  28.160  1.00  0.00     0.020 A 
ATOM     43  C   UNL A   1      47.243  34.658  30.344  1.00  0.00     0.020 A 
ATOM     44  C   UNL A   1      46.994  35.653  29.397  1.00  0.00     0.054 A 
BRANCH  44  45
ATOM     45  S   UNL A   1      47.370  37.390  29.762  1.00  0.00     0.124 S 
ATOM     46  O   UNL A   1      48.768  37.313  30.178  1.00  0.00    -0.237 OA
ATOM     47  O   UNL A   1      47.134  38.045  28.478  1.00  0.00    -0.237 OA
ATOM     48  O   UNL A   1      46.423  37.736  30.819  1.00  0.00    -0.744 OA
ENDBRANCH  44  45
ENDBRANCH  25  39
BRANCH  26  49
ATOM     49  C   UNL A   1      43.561  23.557  27.007  1.00  0.00    -0.014 A 
ATOM     50  C   UNL A   1      43.499  22.595  28.029  1.00  0.00     0.010 A 
ATOM     51  C   UNL A   1      43.192  23.190  25.698  1.00  0.00     0.010 A 
ATOM     52  C   UNL A   1      43.096  21.287  27.744  1.00  0.00     0.020 A 
ATOM     53  C   UNL A   1      42.757  21.893  25.417  1.00  0.00     0.020 A 
ATOM     54  C   UNL A   1      42.728  20.945  26.440  1.00  0.00     0.054 A 
BRANCH  54  55
ATOM     55  S   UNL A   1      42.166  19.254  26.096  1.00  0.00     0.124 S 
ATOM     56  O   UNL A   1      43.033  18.869  24.987  1.00  0.00    -0.237 OA
ATOM     57  O   UNL A   1      42.413  18.571  27.362  1.00  0.00    -0.237 OA
ATOM     58  O   UNL A   1      40.755  19.429  25.756  1.00  0.00    -0.744 OA
ENDBRANCH  54  55
ENDBRANCH  26  49
BRANCH  38  59
ATOM     59  C   UNL A   1      49.458  27.105  25.941  1.00  0.00    -0.014 A 
ATOM     60  C   UNL A   1      49.686  27.168  24.555  1.00  0.00     0.010 A 
ATOM     61  C   UNL A   1      50.490  26.669  26.790  1.00  0.00     0.010 A 
ATOM     62  C   UNL A   1      50.910  26.756  24.022  1.00  0.00     0.020 A 
ATOM     63  C   UNL A   1      51.724  26.281  26.263  1.00  0.00     0.020 A 
ATOM     64  C   UNL A   1      51.919  26.308  24.880  1.00  0.00     0.054 A 
BRANCH  64  65
ATOM     65  S   UNL A   1      53.504  25.788  24.168  1.00  0.00     0.124 S 
ATOM     66  O   UNL A   1      54.436  26.730  24.780  1.00  0.00    -0.237 OA
ATOM     67  O   UNL A   1      53.622  24.403  24.619  1.00  0.00    -0.237 OA
ATOM     68  O   UNL A   1      53.305  25.952  22.729  1.00  0.00    -0.744 OA
ENDBRANCH  64  65
ENDBRANCH  38  59
ENDBRANCH  12  13
ENDBRANCH   5   7
ENDBRANCH   2   3
ENDBRANCH   1   2
BRANCH   1  69
ATOM     69  C   UNL A   1      36.633  33.875  33.177  1.00  0.00     0.117 C 
BRANCH  69  70
ATOM     70  N   UNL A   1      35.509  33.197  32.566  1.00  0.00    -0.356 N 
ATOM     71  C   UNL A   1      34.858  33.273  31.389  1.00  0.00     0.224 C 
ATOM     72  H   UNL A   1      35.124  32.511  33.159  1.00  0.00     0.163 HD
ATOM     73  O   UNL A   1      34.027  32.365  31.232  1.00  0.00    -0.275 OA
BRANCH  71  74
ATOM     74  C   UNL A   1      35.152  34.240  30.236  1.00  0.00     0.098 C 
ATOM     75  C   UNL A   1      34.173  35.342  29.799  1.00  0.00     0.017 C 
ATOM     76  C   UNL A   1      35.501  33.381  28.999  1.00  0.00     0.131 C 
ATOM     77  C   UNL A   1      32.971  34.838  28.999  1.00  0.00     0.022 C 
ATOM     78  N   UNL A   1      34.263  32.921  28.372  1.00  0.00    -0.356 N 
ATOM     79  C   UNL A   1      33.383  33.945  27.834  1.00  0.00     0.118 C 
BRANCH  78  80
ATOM     80  C   UNL A   1      34.152  31.635  27.891  1.00  0.00     0.129 A 
ATOM     81  C   UNL A   1      35.163  30.703  28.105  1.00  0.00     0.047 A 
ATOM     82  N   UNL A   1      33.014  31.287  27.257  1.00  0.00    -0.231 NA
ATOM     83  C   UNL A   1      35.012  29.394  27.662  1.00  0.00     0.014 A 
ATOM     84  C   UNL A   1      32.874  30.036  26.804  1.00  0.00     0.073 A 
ATOM     85  C   UNL A   1      33.852  29.038  26.980  1.00  0.00     0.002 A 
ATOM     86  C   UNL A   1      31.720  29.709  26.117  1.00  0.00     0.030 A 
ATOM     87  C   UNL A   1      33.653  27.744  26.471  1.00  0.00     0.032 A 
ATOM     88  C   UNL A   1      31.517  28.431  25.589  1.00  0.00     0.024 A 
ATOM     89  C   UNL A   1      32.487  27.445  25.761  1.00  0.00     0.083 A 
BRANCH  89  90
ATOM     90  S   UNL A   1      32.358  25.798  25.086  1.00  0.00     0.243 S 
ATOM     91  O   UNL A   1      31.117  25.254  25.612  1.00  0.00    -0.207 OA
ATOM     92  O   UNL A   1      32.580  25.921  23.666  1.00  0.00    -0.207 OA
BRANCH  90  93
ATOM     93  N   UNL A   1      33.635  24.871  25.745  1.00  0.00    -0.198 NA
ATOM     94  C   UNL A   1      33.221  23.683  26.535  1.00  0.00     0.102 C 
ATOM     95  C   UNL A   1      34.864  24.789  24.919  1.00  0.00     0.102 C 
ATOM     96  C   UNL A   1      34.401  22.963  27.172  1.00  0.00     0.017 C 
ATOM     97  C   UNL A   1      35.990  24.046  25.620  1.00  0.00     0.017 C 
ATOM     98  C   UNL A   1      35.512  22.711  26.165  1.00  0.00     0.003 C 
ENDBRANCH  90  93
ENDBRANCH  89  90
ENDBRANCH  78  80
ENDBRANCH  71  74
ENDBRANCH  69  70
ENDBRANCH   1  69
TORSDOF 16
ENDMDL
MODEL 3
REMARK VINA RESULT:     -10.8      9.472     17.082
REMARK SMILES O=C(NCCCNC(=O)[C@@H]1CCCN(c2ccc3cc(S(=O)(=O)N4CCCCC4)ccc3n2)C1)c1ccc(-c2c3nc(c(-c4ccc(S(=O)(=O)[O-])cc4)c4ccc([nH]4)c(-c4ccc(S(=O)(=O)[O-])cc4)c4nc(c(-c5ccc(S(=O)(=O)[O-])cc5)c5ccc2[nH]5)C=C4)C=C3)cc1
REMARK SMILES IDX 5 1 4 2 3 3 1 4 2 5 35 7 36 8 94 9 37 10 93 11 38 12 39 13
REMARK SMILES IDX 40 14 87 15 41 16 92 17 86 18 88 19 42 20 91 21 85 22 84 23
REMARK SMILES IDX 43 25 73 26 54 27 72 28 55 29 58 30 71 31 89 32 56 33 57 34
REMARK SMILES IDX 70 36 90 37 59 38 44 39 45 40 53 41 46 42 52 43 47 44 48 45
REMARK SMILES IDX 49 46 50 47 51 48 74 49 75 50 83 51 76 52 82 53 77 54 78 55
REMARK SMILES IDX 79 56 80 57 81 58 60 59 61 60 69 61 62 62 68 63 63 64 64 65
REMARK SMILES IDX 65 66 66 67 67 68 6 69 7 70 8 71 9 73 10 74 11 75 34 76
REMARK SMILES IDX 12 77 14 78 13 79 15 80 16 81 33 82 17 83 32 84 18 85 31 86
REMARK SMILES IDX 19 87 30 88 20 89 21 90 22 91 23 92 24 93 25 94 29 95 26 96
REMARK SMILES IDX 28 97 27 98
REMARK H PARENT 3 6 88 24 58 35 7 72
REMARK Flexibility Score: inf
ROOT
ATOM      1  C   UNL A   1      48.573  38.738  26.827  1.00  0.00     0.042 C 
ENDROOT
BRANCH   1   2
ATOM      2  C   UNL A   1      48.959  37.694  27.869  1.00  0.00     0.118 C 
BRANCH   2   3
ATOM      3  N   UNL A   1      48.280  37.908  29.138  1.00  0.00    -0.352 N 
ATOM      4  O   UNL A   1      46.725  37.590  30.730  1.00  0.00    -0.269 OA
ATOM      5  C   UNL A   1      47.375  37.113  29.803  1.00  0.00     0.251 C 
ATOM      6  H   UNL A   1      48.503  38.753  29.592  1.00  0.00     0.163 HD
BRANCH   5   7
ATOM      7  C   UNL A   1      47.170  35.700  29.403  1.00  0.00     0.039 A 
ATOM      8  C   UNL A   1      47.340  34.666  30.321  1.00  0.00     0.014 A 
ATOM      9  C   UNL A   1      46.740  35.405  28.104  1.00  0.00     0.014 A 
ATOM     10  C   UNL A   1      47.238  33.343  29.908  1.00  0.00     0.010 A 
ATOM     11  C   UNL A   1      46.526  34.076  27.719  1.00  0.00     0.010 A 
ATOM     12  C   UNL A   1      46.796  33.028  28.612  1.00  0.00    -0.014 A 
BRANCH  12  13
ATOM     13  C   UNL A   1      46.540  31.601  28.276  1.00  0.00     0.031 A 
ATOM     14  C   UNL A   1      45.159  31.008  28.338  1.00  0.00     0.074 A 
ATOM     15  C   UNL A   1      47.576  30.853  27.843  1.00  0.00     0.049 A 
ATOM     16  N   UNL A   1      44.768  29.806  27.995  1.00  0.00    -0.248 NA
ATOM     17  C   UNL A   1      44.078  31.861  28.856  1.00  0.00     0.031 C 
ATOM     18  C   UNL A   1      48.968  31.309  27.766  1.00  0.00     0.029 A 
ATOM     19  N   UNL A   1      47.623  29.574  27.351  1.00  0.00    -0.354 N 
ATOM     20  C   UNL A   1      43.405  29.753  28.262  1.00  0.00     0.074 A 
ATOM     21  C   UNL A   1      43.040  31.036  28.826  1.00  0.00     0.031 C 
ATOM     22  C   UNL A   1      49.714  30.356  27.189  1.00  0.00     0.029 A 
ATOM     23  C   UNL A   1      48.874  29.197  26.922  1.00  0.00     0.049 A 
ATOM     24  H   UNL A   1      46.836  28.983  27.309  1.00  0.00     0.167 HD
ATOM     25  C   UNL A   1      42.538  28.734  28.048  1.00  0.00     0.031 A 
ATOM     26  C   UNL A   1      49.308  28.043  26.382  1.00  0.00     0.031 A 
ATOM     27  C   UNL A   1      42.907  27.455  27.494  1.00  0.00     0.049 A 
ATOM     28  C   UNL A   1      48.325  26.932  26.159  1.00  0.00     0.074 A 
ATOM     29  C   UNL A   1      42.100  26.359  27.241  1.00  0.00     0.029 A 
ATOM     30  N   UNL A   1      44.190  27.102  27.100  1.00  0.00    -0.354 N 
ATOM     31  N   UNL A   1      47.038  26.912  26.408  1.00  0.00    -0.248 NA
ATOM     32  C   UNL A   1      48.853  25.688  25.583  1.00  0.00     0.031 C 
ATOM     33  C   UNL A   1      42.901  25.330  26.733  1.00  0.00     0.029 A 
ATOM     34  C   UNL A   1      44.198  25.802  26.619  1.00  0.00     0.049 A 
ATOM     35  H   UNL A   1      44.979  27.689  27.156  1.00  0.00     0.167 HD
ATOM     36  C   UNL A   1      46.599  25.654  26.017  1.00  0.00     0.074 A 
ATOM     37  C   UNL A   1      47.752  24.957  25.481  1.00  0.00     0.031 C 
ATOM     38  C   UNL A   1      45.358  25.119  26.104  1.00  0.00     0.031 A 
BRANCH  25  39
ATOM     39  C   UNL A   1      41.094  28.951  28.426  1.00  0.00    -0.014 A 
ATOM     40  C   UNL A   1      40.672  28.840  29.764  1.00  0.00     0.010 A 
ATOM     41  C   UNL A   1      40.159  29.330  27.445  1.00  0.00     0.010 A 
ATOM     42  C   UNL A   1      39.338  29.075  30.108  1.00  0.00     0.020 A 
ATOM     43  C   UNL A   1      38.828  29.588  27.789  1.00  0.00     0.020 A 
ATOM     44  C   UNL A   1      38.423  29.445  29.118  1.00  0.00     0.054 A 
BRANCH  44  45
ATOM     45  S   UNL A   1      36.704  29.770  29.599  1.00  0.00     0.124 S 
ATOM     46  O   UNL A   1      36.690  31.228  29.694  1.00  0.00    -0.237 OA
ATOM     47  O   UNL A   1      35.947  29.209  28.483  1.00  0.00    -0.237 OA
ATOM     48  O   UNL A   1      36.557  29.061  30.867  1.00  0.00    -0.744 OA
ENDBRANCH  44  45
ENDBRANCH  25  39
BRANCH  26  49
ATOM     49  C   UNL A   1      50.749  27.880  26.047  1.00  0.00    -0.014 A 
ATOM     50  C   UNL A   1      51.664  27.390  26.994  1.00  0.00     0.010 A 
ATOM     51  C   UNL A   1      51.207  28.204  24.755  1.00  0.00     0.010 A 
ATOM     52  C   UNL A   1      53.015  27.246  26.662  1.00  0.00     0.020 A 
ATOM     53  C   UNL A   1      52.550  28.030  24.411  1.00  0.00     0.020 A 
ATOM     54  C   UNL A   1      53.448  27.567  25.372  1.00  0.00     0.054 A 
BRANCH  54  55
ATOM     55  S   UNL A   1      55.196  27.334  24.944  1.00  0.00     0.124 S 
ATOM     56  O   UNL A   1      55.645  28.709  24.751  1.00  0.00    -0.237 OA
ATOM     57  O   UNL A   1      55.725  26.654  26.123  1.00  0.00    -0.237 OA
ATOM     58  O   UNL A   1      55.142  26.515  23.734  1.00  0.00    -0.744 OA
ENDBRANCH  54  55
ENDBRANCH  26  49
BRANCH  38  59
ATOM     59  C   UNL A   1      45.187  23.713  25.593  1.00  0.00    -0.014 A 
ATOM     60  C   UNL A   1      44.873  23.466  24.245  1.00  0.00     0.010 A 
ATOM     61  C   UNL A   1      45.350  22.628  26.472  1.00  0.00     0.010 A 
ATOM     62  C   UNL A   1      44.678  22.158  23.794  1.00  0.00     0.020 A 
ATOM     63  C   UNL A   1      45.182  21.318  26.019  1.00  0.00     0.020 A 
ATOM     64  C   UNL A   1      44.827  21.092  24.687  1.00  0.00     0.054 A 
BRANCH  64  65
ATOM     65  S   UNL A   1      44.579  19.402  24.079  1.00  0.00     0.124 S 
ATOM     66  O   UNL A   1      43.360  19.003  24.776  1.00  0.00    -0.237 OA
ATOM     67  O   UNL A   1      44.445  19.594  22.637  1.00  0.00    -0.237 OA
ATOM     68  O   UNL A   1      45.794  18.704  24.497  1.00  0.00    -0.744 OA
ENDBRANCH  64  65
ENDBRANCH  38  59
ENDBRANCH  12  13
ENDBRANCH   5   7
ENDBRANCH   2   3
ENDBRANCH   1   2
BRANCH   1  69
ATOM     69  C   UNL A   1      47.160  38.565  26.280  1.00  0.00     0.117 C 
BRANCH  69  70
ATOM     70  N   UNL A   1      46.867  39.474  25.193  1.00  0.00    -0.356 N 
ATOM     71  C   UNL A   1      46.128  40.590  25.039  1.00  0.00     0.224 C 
ATOM     72  H   UNL A   1      47.318  39.210  24.358  1.00  0.00     0.163 HD
ATOM     73  O   UNL A   1      46.299  41.141  23.940  1.00  0.00    -0.275 OA
BRANCH  71  74
ATOM     74  C   UNL A   1      45.265  41.276  26.104  1.00  0.00     0.098 C 
ATOM     75  C   UNL A   1      44.270  40.513  26.993  1.00  0.00     0.017 C 
ATOM     76  C   UNL A   1      44.507  42.428  25.405  1.00  0.00     0.131 C 
ATOM     77  C   UNL A   1      42.977  40.104  26.287  1.00  0.00     0.022 C 
ATOM     78  N   UNL A   1      43.333  41.884  24.724  1.00  0.00    -0.356 N 
ATOM     79  C   UNL A   1      42.317  41.272  25.563  1.00  0.00     0.118 C 
BRANCH  78  80
ATOM     80  C   UNL A   1      42.975  42.330  23.471  1.00  0.00     0.129 A 
ATOM     81  C   UNL A   1      41.637  42.498  23.129  1.00  0.00     0.047 A 
ATOM     82  N   UNL A   1      43.957  42.653  22.605  1.00  0.00    -0.231 NA
ATOM     83  C   UNL A   1      41.293  43.001  21.879  1.00  0.00     0.014 A 
ATOM     84  C   UNL A   1      43.631  43.112  21.390  1.00  0.00     0.073 A 
ATOM     85  C   UNL A   1      42.302  43.307  20.970  1.00  0.00     0.002 A 
ATOM     86  C   UNL A   1      44.649  43.397  20.499  1.00  0.00     0.030 A 
ATOM     87  C   UNL A   1      42.022  43.782  19.678  1.00  0.00     0.032 A 
ATOM     88  C   UNL A   1      44.385  43.851  19.205  1.00  0.00     0.024 A 
ATOM     89  C   UNL A   1      43.069  44.041  18.788  1.00  0.00     0.083 A 
BRANCH  89  90
ATOM     90  S   UNL A   1      42.614  44.565  17.144  1.00  0.00     0.243 S 
ATOM     91  O   UNL A   1      43.483  43.828  16.242  1.00  0.00    -0.207 OA
ATOM     92  O   UNL A   1      41.178  44.449  17.062  1.00  0.00    -0.207 OA
BRANCH  90  93
ATOM     93  N   UNL A   1      43.022  46.219  17.001  1.00  0.00    -0.198 NA
ATOM     94  C   UNL A   1      41.916  47.117  16.578  1.00  0.00     0.102 C 
ATOM     95  C   UNL A   1      44.021  46.723  17.974  1.00  0.00     0.102 C 
ATOM     96  C   UNL A   1      42.372  48.555  16.376  1.00  0.00     0.017 C 
ATOM     97  C   UNL A   1      44.415  48.169  17.711  1.00  0.00     0.017 C 
ATOM     98  C   UNL A   1      43.190  49.053  17.555  1.00  0.00     0.003 C 
ENDBRANCH  90  93
ENDBRANCH  89  90
ENDBRANCH  78  80
ENDBRANCH  71  74
ENDBRANCH  69  70
ENDBRANCH   1  69
TORSDOF 16
ENDMDL
