MODEL 1
REMARK VINA RESULT:     -10.5      0.000      0.000
REMARK SMILES CC[C@@H]1CC(=O)N(Cc2ccc(C(=O)NCCCNC(=O)c3ccc(-c4c5nc(c(-c6ccc(S(=O)(=O)[O-])cc6)c6ccc([nH]6)c(-c6ccc(S(=O)(=O)[O-])cc6)c6nc(c(-c7ccc(S(=O)(=O)[O-])cc7)c7ccc4[nH]7)C=C6)C=C5)cc3)cn2)C1
REMARK SMILES IDX 17 1 16 2 15 3 13 4 14 5 12 7 9 8 10 9 83 10 11 11 82 12
REMARK SMILES IDX 8 13 7 14 3 15 4 16 84 17 5 18 6 19 2 20 1 21 18 22 19 23
REMARK SMILES IDX 20 24 21 26 22 27 23 28 81 29 24 30 80 31 25 32 26 33 27 34
REMARK SMILES IDX 74 35 28 36 79 37 73 38 75 39 29 40 78 41 72 42 71 43 30 45
REMARK SMILES IDX 60 46 41 47 59 48 42 49 45 50 58 51 76 52 43 53 44 54 57 56
REMARK SMILES IDX 77 57 46 58 31 59 32 60 40 61 33 62 39 63 34 64 35 65 36 66
REMARK SMILES IDX 37 67 38 68 61 69 62 70 70 71 63 72 69 73 64 74 65 75 66 76
REMARK SMILES IDX 67 77 68 78 47 79 48 80 56 81 49 82 55 83 50 84 51 85 52 86
REMARK SMILES IDX 53 87 54 88
REMARK H PARENT 15 6 19 25 75 44 45 55
REMARK Flexibility Score: inf
ROOT
ATOM      1  C   UNL A   1      33.679  33.645  28.222  1.00  0.00     0.042 C 
ENDROOT
BRANCH   1   2
ATOM      2  C   UNL A   1      34.296  34.892  28.850  1.00  0.00     0.118 C 
BRANCH   2   3
ATOM      3  N   UNL A   1      33.284  35.717  29.484  1.00  0.00    -0.352 N 
ATOM      4  C   UNL A   1      32.998  35.965  30.801  1.00  0.00     0.252 C 
ATOM      5  O   UNL A   1      32.121  36.790  31.054  1.00  0.00    -0.269 OA
ATOM      6  H   UNL A   1      32.693  36.186  28.850  1.00  0.00     0.163 HD
BRANCH   4   7
ATOM      7  C   UNL A   1      33.727  35.328  31.921  1.00  0.00     0.058 A 
ATOM      8  C   UNL A   1      35.203  34.410  34.076  1.00  0.00     0.060 A 
ATOM      9  C   UNL A   1      34.651  33.493  33.184  1.00  0.00     0.026 A 
ATOM     10  N   UNL A   1      34.997  35.743  33.950  1.00  0.00    -0.259 NA
ATOM     11  C   UNL A   1      33.899  33.959  32.106  1.00  0.00     0.017 A 
ATOM     12  C   UNL A   1      34.260  36.167  32.892  1.00  0.00     0.125 A 
BRANCH   8  13
ATOM     13  C   UNL A   1      36.089  33.935  35.207  1.00  0.00     0.175 C 
BRANCH  13  14
ATOM     14  N   UNL A   1      37.147  33.040  34.763  1.00  0.00    -0.336 N 
ATOM     15  C   UNL A   1      38.463  31.767  33.324  1.00  0.00     0.017 C 
ATOM     16  C   UNL A   1      38.865  31.468  34.773  1.00  0.00     0.105 C 
ATOM     17  C   UNL A   1      37.771  33.122  33.463  1.00  0.00     0.124 C 
ATOM     18  C   UNL A   1      37.747  32.088  35.575  1.00  0.00     0.223 C 
ATOM     19  O   UNL A   1      37.466  31.806  36.723  1.00  0.00    -0.275 OA
BRANCH  15  20
ATOM     20  C   UNL A   1      37.493  30.737  32.711  1.00  0.00     0.002 C 
ATOM     21  C   UNL A   1      37.829  29.291  33.037  1.00  0.00     0.004 C 
ENDBRANCH  15  20
ENDBRANCH  13  14
ENDBRANCH   8  13
ENDBRANCH   4   7
ENDBRANCH   2   3
ENDBRANCH   1   2
BRANCH   1  22
ATOM     22  C   UNL A   1      34.302  32.347  28.726  1.00  0.00     0.118 C 
BRANCH  22  23
ATOM     23  N   UNL A   1      33.796  31.186  28.006  1.00  0.00    -0.352 N 
ATOM     24  C   UNL A   1      34.469  30.090  27.527  1.00  0.00     0.251 C 
ATOM     25  H   UNL A   1      32.826  31.188  27.836  1.00  0.00     0.163 HD
ATOM     26  O   UNL A   1      33.912  29.338  26.732  1.00  0.00    -0.269 OA
BRANCH  24  27
ATOM     27  C   UNL A   1      35.856  29.821  27.961  1.00  0.00     0.039 A 
ATOM     28  C   UNL A   1      36.086  29.356  29.258  1.00  0.00     0.014 A 
ATOM     29  C   UNL A   1      36.930  30.053  27.097  1.00  0.00     0.014 A 
ATOM     30  C   UNL A   1      37.390  29.063  29.667  1.00  0.00     0.010 A 
ATOM     31  C   UNL A   1      38.216  29.686  27.479  1.00  0.00     0.010 A 
ATOM     32  C   UNL A   1      38.461  29.194  28.770  1.00  0.00    -0.014 A 
BRANCH  32  33
ATOM     33  C   UNL A   1      39.850  28.835  29.151  1.00  0.00     0.031 A 
ATOM     34  C   UNL A   1      40.735  29.860  29.809  1.00  0.00     0.074 A 
ATOM     35  C   UNL A   1      40.340  27.622  28.829  1.00  0.00     0.049 A 
ATOM     36  N   UNL A   1      42.004  29.781  30.111  1.00  0.00    -0.248 NA
ATOM     37  C   UNL A   1      40.117  31.154  30.145  1.00  0.00     0.031 C 
ATOM     38  C   UNL A   1      39.589  26.552  28.166  1.00  0.00     0.029 A 
ATOM     39  N   UNL A   1      41.592  27.086  29.003  1.00  0.00    -0.354 N 
ATOM     40  C   UNL A   1      42.342  31.017  30.650  1.00  0.00     0.074 A 
ATOM     41  C   UNL A   1      41.157  31.845  30.587  1.00  0.00     0.031 C 
ATOM     42  C   UNL A   1      40.387  25.485  28.010  1.00  0.00     0.029 A 
ATOM     43  C   UNL A   1      41.719  25.808  28.512  1.00  0.00     0.049 A 
ATOM     44  H   UNL A   1      42.328  27.571  29.439  1.00  0.00     0.167 HD
ATOM     45  C   UNL A   1      43.526  31.422  31.169  1.00  0.00     0.031 A 
ATOM     46  C   UNL A   1      42.791  24.993  28.454  1.00  0.00     0.031 A 
ATOM     47  C   UNL A   1      44.697  30.590  31.235  1.00  0.00     0.049 A 
ATOM     48  C   UNL A   1      44.104  25.475  29.009  1.00  0.00     0.074 A 
ATOM     49  C   UNL A   1      45.932  30.887  31.783  1.00  0.00     0.029 A 
ATOM     50  N   UNL A   1      44.781  29.300  30.734  1.00  0.00    -0.354 N 
ATOM     51  N   UNL A   1      44.390  26.628  29.566  1.00  0.00    -0.248 NA
ATOM     52  C   UNL A   1      45.239  24.544  28.935  1.00  0.00     0.031 C 
ATOM     53  C   UNL A   1      46.781  29.798  31.562  1.00  0.00     0.029 A 
ATOM     54  C   UNL A   1      46.054  28.796  30.939  1.00  0.00     0.049 A 
ATOM     55  H   UNL A   1      44.044  28.814  30.297  1.00  0.00     0.167 HD
ATOM     56  C   UNL A   1      45.726  26.547  29.942  1.00  0.00     0.074 A 
ATOM     57  C   UNL A   1      46.190  25.230  29.555  1.00  0.00     0.031 C 
ATOM     58  C   UNL A   1      46.497  27.477  30.558  1.00  0.00     0.031 A 
BRANCH  45  59
ATOM     59  C   UNL A   1      43.614  32.832  31.695  1.00  0.00    -0.014 A 
ATOM     60  C   UNL A   1      43.954  33.904  30.849  1.00  0.00     0.010 A 
ATOM     61  C   UNL A   1      43.316  33.095  33.044  1.00  0.00     0.010 A 
ATOM     62  C   UNL A   1      44.041  35.204  31.354  1.00  0.00     0.020 A 
ATOM     63  C   UNL A   1      43.370  34.399  33.546  1.00  0.00     0.020 A 
ATOM     64  C   UNL A   1      43.750  35.443  32.701  1.00  0.00     0.054 A 
BRANCH  64  65
ATOM     65  S   UNL A   1      43.855  37.144  33.322  1.00  0.00     0.124 S 
ATOM     66  O   UNL A   1      43.828  37.918  32.083  1.00  0.00    -0.237 OA
ATOM     67  O   UNL A   1      42.661  37.252  34.155  1.00  0.00    -0.237 OA
ATOM     68  O   UNL A   1      45.122  37.171  34.046  1.00  0.00    -0.744 OA
ENDBRANCH  64  65
ENDBRANCH  45  59
BRANCH  46  69
ATOM     69  C   UNL A   1      42.663  23.635  27.858  1.00  0.00    -0.014 A 
ATOM     70  C   UNL A   1      42.273  22.541  28.651  1.00  0.00     0.010 A 
ATOM     71  C   UNL A   1      42.917  23.428  26.490  1.00  0.00     0.010 A 
ATOM     72  C   UNL A   1      42.156  21.265  28.092  1.00  0.00     0.020 A 
ATOM     73  C   UNL A   1      42.772  22.160  25.921  1.00  0.00     0.020 A 
ATOM     74  C   UNL A   1      42.403  21.083  26.729  1.00  0.00     0.054 A 
BRANCH  74  75
ATOM     75  S   UNL A   1      42.195  19.428  26.016  1.00  0.00     0.124 S 
ATOM     76  O   UNL A   1      42.747  18.575  27.063  1.00  0.00    -0.237 OA
ATOM     77  O   UNL A   1      40.750  19.346  25.827  1.00  0.00    -0.237 OA
ATOM     78  O   UNL A   1      42.974  19.487  24.780  1.00  0.00    -0.744 OA
ENDBRANCH  74  75
ENDBRANCH  46  69
BRANCH  58  79
ATOM     79  C   UNL A   1      47.911  27.096  30.905  1.00  0.00    -0.014 A 
ATOM     80  C   UNL A   1      48.210  26.367  32.070  1.00  0.00     0.010 A 
ATOM     81  C   UNL A   1      48.946  27.400  30.000  1.00  0.00     0.010 A 
ATOM     82  C   UNL A   1      49.523  25.963  32.329  1.00  0.00     0.020 A 
ATOM     83  C   UNL A   1      50.253  26.971  30.242  1.00  0.00     0.020 A 
ATOM     84  C   UNL A   1      50.534  26.261  31.411  1.00  0.00     0.054 A 
BRANCH  84  85
ATOM     85  S   UNL A   1      52.214  25.660  31.736  1.00  0.00     0.124 S 
ATOM     86  O   UNL A   1      52.641  26.527  32.831  1.00  0.00    -0.237 OA
ATOM     87  O   UNL A   1      51.987  24.261  32.092  1.00  0.00    -0.237 OA
ATOM     88  O   UNL A   1      52.909  25.869  30.468  1.00  0.00    -0.744 OA
ENDBRANCH  84  85
ENDBRANCH  58  79
ENDBRANCH  32  33
ENDBRANCH  24  27
ENDBRANCH  22  23
ENDBRANCH   1  22
TORSDOF 16
ENDMDL
MODEL 2
REMARK VINA RESULT:     -10.3      3.151     12.154
REMARK SMILES CC[C@@H]1CC(=O)N(Cc2ccc(C(=O)NCCCNC(=O)c3ccc(-c4c5nc(c(-c6ccc(S(=O)(=O)[O-])cc6)c6ccc([nH]6)c(-c6ccc(S(=O)(=O)[O-])cc6)c6nc(c(-c7ccc(S(=O)(=O)[O-])cc7)c7ccc4[nH]7)C=C6)C=C5)cc3)cn2)C1
REMARK SMILES IDX 17 1 16 2 15 3 13 4 14 5 12 7 9 8 10 9 83 10 11 11 82 12
REMARK SMILES IDX 8 13 7 14 3 15 4 16 84 17 5 18 6 19 2 20 1 21 18 22 19 23
REMARK SMILES IDX 20 24 21 26 22 27 23 28 81 29 24 30 80 31 25 32 26 33 27 34
REMARK SMILES IDX 74 35 28 36 79 37 73 38 75 39 29 40 78 41 72 42 71 43 30 45
REMARK SMILES IDX 60 46 41 47 59 48 42 49 45 50 58 51 76 52 43 53 44 54 57 56
REMARK SMILES IDX 77 57 46 58 31 59 32 60 40 61 33 62 39 63 34 64 35 65 36 66
REMARK SMILES IDX 37 67 38 68 61 69 62 70 70 71 63 72 69 73 64 74 65 75 66 76
REMARK SMILES IDX 67 77 68 78 47 79 48 80 56 81 49 82 55 83 50 84 51 85 52 86
REMARK SMILES IDX 53 87 54 88
REMARK H PARENT 15 6 19 25 75 44 45 55
REMARK Flexibility Score: inf
ROOT
ATOM      1  C   UNL A   1      40.805  20.279  26.735  1.00  0.00     0.042 C 
ENDROOT
BRANCH   1   2
ATOM      2  C   UNL A   1      42.158  19.853  27.300  1.00  0.00     0.118 C 
BRANCH   2   3
ATOM      3  N   UNL A   1      42.825  18.917  26.415  1.00  0.00    -0.352 N 
ATOM      4  C   UNL A   1      43.813  19.086  25.479  1.00  0.00     0.252 C 
ATOM      5  O   UNL A   1      44.258  18.082  24.924  1.00  0.00    -0.269 OA
ATOM      6  H   UNL A   1      42.511  17.987  26.502  1.00  0.00     0.163 HD
BRANCH   4   7
ATOM      7  C   UNL A   1      44.397  20.405  25.149  1.00  0.00     0.058 A 
ATOM      8  C   UNL A   1      45.750  22.766  24.638  1.00  0.00     0.060 A 
ATOM      9  C   UNL A   1      44.358  22.751  24.592  1.00  0.00     0.026 A 
ATOM     10  N   UNL A   1      46.469  21.644  24.878  1.00  0.00    -0.259 NA
ATOM     11  C   UNL A   1      43.680  21.557  24.838  1.00  0.00     0.017 A 
ATOM     12  C   UNL A   1      45.783  20.497  25.113  1.00  0.00     0.125 A 
BRANCH   8  13
ATOM     13  C   UNL A   1      46.505  24.064  24.453  1.00  0.00     0.175 C 
BRANCH  13  14
ATOM     14  N   UNL A   1      46.305  24.999  25.551  1.00  0.00    -0.336 N 
ATOM     15  C   UNL A   1      45.746  26.968  26.662  1.00  0.00     0.017 C 
ATOM     16  C   UNL A   1      46.404  26.000  27.651  1.00  0.00     0.105 C 
ATOM     17  C   UNL A   1      45.284  26.021  25.555  1.00  0.00     0.124 C 
ATOM     18  C   UNL A   1      46.994  24.939  26.754  1.00  0.00     0.223 C 
ATOM     19  O   UNL A   1      47.884  24.173  27.064  1.00  0.00    -0.275 OA
BRANCH  15  20
ATOM     20  C   UNL A   1      46.703  28.031  26.083  1.00  0.00     0.002 C 
ATOM     21  C   UNL A   1      47.773  28.501  27.055  1.00  0.00     0.004 C 
ENDBRANCH  15  20
ENDBRANCH  13  14
ENDBRANCH   8  13
ENDBRANCH   4   7
ENDBRANCH   2   3
ENDBRANCH   1   2
BRANCH   1  22
ATOM     22  C   UNL A   1      40.583  21.787  26.780  1.00  0.00     0.118 C 
BRANCH  22  23
ATOM     23  N   UNL A   1      39.396  22.184  26.035  1.00  0.00    -0.352 N 
ATOM     24  C   UNL A   1      38.663  23.343  26.103  1.00  0.00     0.251 C 
ATOM     25  H   UNL A   1      39.068  21.520  25.384  1.00  0.00     0.163 HD
ATOM     26  O   UNL A   1      37.555  23.390  25.577  1.00  0.00    -0.269 OA
BRANCH  24  27
ATOM     27  C   UNL A   1      39.203  24.522  26.813  1.00  0.00     0.039 A 
ATOM     28  C   UNL A   1      40.044  25.403  26.128  1.00  0.00     0.014 A 
ATOM     29  C   UNL A   1      38.901  24.743  28.159  1.00  0.00     0.014 A 
ATOM     30  C   UNL A   1      40.531  26.541  26.777  1.00  0.00     0.010 A 
ATOM     31  C   UNL A   1      39.320  25.916  28.778  1.00  0.00     0.010 A 
ATOM     32  C   UNL A   1      40.145  26.823  28.097  1.00  0.00    -0.014 A 
BRANCH  32  33
ATOM     33  C   UNL A   1      40.594  28.053  28.798  1.00  0.00     0.031 A 
ATOM     34  C   UNL A   1      41.957  28.098  29.435  1.00  0.00     0.074 A 
ATOM     35  C   UNL A   1      39.747  29.092  28.933  1.00  0.00     0.049 A 
ATOM     36  N   UNL A   1      42.486  29.027  30.185  1.00  0.00    -0.248 NA
ATOM     37  C   UNL A   1      42.828  26.929  29.221  1.00  0.00     0.031 C 
ATOM     38  C   UNL A   1      38.390  29.158  28.384  1.00  0.00     0.029 A 
ATOM     39  N   UNL A   1      39.895  30.289  29.588  1.00  0.00    -0.354 N 
ATOM     40  C   UNL A   1      43.739  28.549  30.552  1.00  0.00     0.074 A 
ATOM     41  C   UNL A   1      43.870  27.225  29.984  1.00  0.00     0.031 C 
ATOM     42  C   UNL A   1      37.842  30.340  28.706  1.00  0.00     0.029 A 
ATOM     43  C   UNL A   1      38.782  31.094  29.528  1.00  0.00     0.049 A 
ATOM     44  H   UNL A   1      40.722  30.547  30.057  1.00  0.00     0.167 HD
ATOM     45  C   UNL A   1      44.701  29.162  31.281  1.00  0.00     0.031 A 
ATOM     46  C   UNL A   1      38.539  32.297  30.085  1.00  0.00     0.031 A 
ATOM     47  C   UNL A   1      44.565  30.482  31.837  1.00  0.00     0.049 A 
ATOM     48  C   UNL A   1      39.611  32.947  30.917  1.00  0.00     0.074 A 
ATOM     49  C   UNL A   1      45.498  31.214  32.550  1.00  0.00     0.029 A 
ATOM     50  N   UNL A   1      43.426  31.266  31.745  1.00  0.00    -0.354 N 
ATOM     51  N   UNL A   1      40.812  32.503  31.206  1.00  0.00    -0.248 NA
ATOM     52  C   UNL A   1      39.302  34.265  31.490  1.00  0.00     0.031 C 
ATOM     53  C   UNL A   1      44.902  32.418  32.940  1.00  0.00     0.029 A 
ATOM     54  C   UNL A   1      43.623  32.465  32.409  1.00  0.00     0.049 A 
ATOM     55  H   UNL A   1      42.599  31.009  31.276  1.00  0.00     0.167 HD
ATOM     56  C   UNL A   1      41.412  33.502  31.964  1.00  0.00     0.074 A 
ATOM     57  C   UNL A   1      40.447  34.575  32.083  1.00  0.00     0.031 C 
ATOM     58  C   UNL A   1      42.654  33.530  32.508  1.00  0.00     0.031 A 
BRANCH  45  59
ATOM     59  C   UNL A   1      45.981  28.406  31.528  1.00  0.00    -0.014 A 
ATOM     60  C   UNL A   1      46.111  27.534  32.626  1.00  0.00     0.010 A 
ATOM     61  C   UNL A   1      47.057  28.538  30.632  1.00  0.00     0.010 A 
ATOM     62  C   UNL A   1      47.307  26.847  32.847  1.00  0.00     0.020 A 
ATOM     63  C   UNL A   1      48.244  27.827  30.831  1.00  0.00     0.020 A 
ATOM     64  C   UNL A   1      48.368  27.000  31.949  1.00  0.00     0.054 A 
BRANCH  64  65
ATOM     65  S   UNL A   1      49.902  26.080  32.253  1.00  0.00     0.124 S 
ATOM     66  O   UNL A   1      49.837  25.859  33.696  1.00  0.00    -0.237 OA
ATOM     67  O   UNL A   1      49.728  24.889  31.427  1.00  0.00    -0.237 OA
ATOM     68  O   UNL A   1      50.949  26.997  31.810  1.00  0.00    -0.744 OA
ENDBRANCH  64  65
ENDBRANCH  45  59
BRANCH  46  69
ATOM     69  C   UNL A   1      37.228  32.968  29.865  1.00  0.00    -0.014 A 
ATOM     70  C   UNL A   1      37.022  33.780  28.736  1.00  0.00     0.010 A 
ATOM     71  C   UNL A   1      36.171  32.787  30.776  1.00  0.00     0.010 A 
ATOM     72  C   UNL A   1      35.792  34.413  28.532  1.00  0.00     0.020 A 
ATOM     73  C   UNL A   1      34.930  33.393  30.560  1.00  0.00     0.020 A 
ATOM     74  C   UNL A   1      34.752  34.212  29.444  1.00  0.00     0.054 A 
BRANCH  74  75
ATOM     75  S   UNL A   1      33.149  35.002  29.130  1.00  0.00     0.124 S 
ATOM     76  O   UNL A   1      32.525  34.956  30.448  1.00  0.00    -0.237 OA
ATOM     77  O   UNL A   1      33.539  36.328  28.659  1.00  0.00    -0.237 OA
ATOM     78  O   UNL A   1      32.538  34.145  28.116  1.00  0.00    -0.744 OA
ENDBRANCH  74  75
ENDBRANCH  46  69
BRANCH  58  79
ATOM     79  C   UNL A   1      43.071  34.777  33.239  1.00  0.00    -0.014 A 
ATOM     80  C   UNL A   1      42.835  34.935  34.616  1.00  0.00     0.010 A 
ATOM     81  C   UNL A   1      43.792  35.769  32.548  1.00  0.00     0.010 A 
ATOM     82  C   UNL A   1      43.299  36.071  35.285  1.00  0.00     0.020 A 
ATOM     83  C   UNL A   1      44.283  36.892  33.219  1.00  0.00     0.020 A 
ATOM     84  C   UNL A   1      44.026  37.038  34.584  1.00  0.00     0.054 A 
BRANCH  84  85
ATOM     85  S   UNL A   1      44.681  38.465  35.491  1.00  0.00     0.124 S 
ATOM     86  O   UNL A   1      44.381  38.109  36.876  1.00  0.00    -0.237 OA
ATOM     87  O   UNL A   1      46.096  38.450  35.130  1.00  0.00    -0.237 OA
ATOM     88  O   UNL A   1      43.920  39.594  34.960  1.00  0.00    -0.744 OA
ENDBRANCH  84  85
ENDBRANCH  58  79
ENDBRANCH  32  33
ENDBRANCH  24  27
ENDBRANCH  22  23
ENDBRANCH   1  22
TORSDOF 16
ENDMDL
MODEL 3
REMARK VINA RESULT:     -10.2      3.523      6.586
REMARK SMILES CC[C@@H]1CC(=O)N(Cc2ccc(C(=O)NCCCNC(=O)c3ccc(-c4c5nc(c(-c6ccc(S(=O)(=O)[O-])cc6)c6ccc([nH]6)c(-c6ccc(S(=O)(=O)[O-])cc6)c6nc(c(-c7ccc(S(=O)(=O)[O-])cc7)c7ccc4[nH]7)C=C6)C=C5)cc3)cn2)C1
REMARK SMILES IDX 17 1 16 2 15 3 13 4 14 5 12 7 9 8 10 9 83 10 11 11 82 12
REMARK SMILES IDX 8 13 7 14 3 15 4 16 84 17 5 18 6 19 2 20 1 21 18 22 19 23
REMARK SMILES IDX 20 24 21 26 22 27 23 28 81 29 24 30 80 31 25 32 26 33 27 34
REMARK SMILES IDX 74 35 28 36 79 37 73 38 75 39 29 40 78 41 72 42 71 43 30 45
REMARK SMILES IDX 60 46 41 47 59 48 42 49 45 50 58 51 76 52 43 53 44 54 57 56
REMARK SMILES IDX 77 57 46 58 31 59 32 60 40 61 33 62 39 63 34 64 35 65 36 66
REMARK SMILES IDX 37 67 38 68 61 69 62 70 70 71 63 72 69 73 64 74 65 75 66 76
REMARK SMILES IDX 67 77 68 78 47 79 48 80 56 81 49 82 55 83 50 84 51 85 52 86
REMARK SMILES IDX 53 87 54 88
REMARK H PARENT 15 6 19 25 75 44 45 55
REMARK Flexibility Score: inf
ROOT
ATOM      1  C   UNL A   1      33.330  28.738  24.804  1.00  0.00     0.042 C 
ENDROOT
BRANCH   1   2
ATOM      2  C   UNL A   1      31.917  29.301  24.929  1.00  0.00     0.118 C 
BRANCH   2   3
ATOM      3  N   UNL A   1      31.211  29.233  23.663  1.00  0.00    -0.352 N 
ATOM      4  C   UNL A   1      30.701  28.178  22.954  1.00  0.00     0.252 C 
ATOM      5  O   UNL A   1      30.063  28.426  21.932  1.00  0.00    -0.269 OA
ATOM      6  H   UNL A   1      31.072  30.109  23.234  1.00  0.00     0.163 HD
BRANCH   4   7
ATOM      7  C   UNL A   1      30.839  26.769  23.389  1.00  0.00     0.058 A 
ATOM      8  C   UNL A   1      31.008  24.228  24.475  1.00  0.00     0.060 A 
ATOM      9  C   UNL A   1      31.582  24.481  23.231  1.00  0.00     0.026 A 
ATOM     10  N   UNL A   1      30.323  25.180  25.152  1.00  0.00    -0.259 NA
ATOM     11  C   UNL A   1      31.484  25.759  22.682  1.00  0.00     0.017 A 
ATOM     12  C   UNL A   1      30.243  26.414  24.593  1.00  0.00     0.125 A 
BRANCH   8  13
ATOM     13  C   UNL A   1      31.169  22.873  25.128  1.00  0.00     0.175 C 
BRANCH  13  14
ATOM     14  N   UNL A   1      32.532  22.367  25.060  1.00  0.00    -0.336 N 
ATOM     15  C   UNL A   1      34.857  22.380  24.929  1.00  0.00     0.017 C 
ATOM     16  C   UNL A   1      34.352  20.939  24.790  1.00  0.00     0.105 C 
ATOM     17  C   UNL A   1      33.672  23.064  25.609  1.00  0.00     0.124 C 
ATOM     18  C   UNL A   1      32.869  21.115  24.567  1.00  0.00     0.223 C 
ATOM     19  O   UNL A   1      32.131  20.287  24.072  1.00  0.00    -0.275 OA
BRANCH  15  20
ATOM     20  C   UNL A   1      35.171  23.073  23.587  1.00  0.00     0.002 C 
ATOM     21  C   UNL A   1      36.631  22.997  23.172  1.00  0.00     0.004 C 
ENDBRANCH  15  20
ENDBRANCH  13  14
ENDBRANCH   8  13
ENDBRANCH   4   7
ENDBRANCH   2   3
ENDBRANCH   1   2
BRANCH   1  22
ATOM     22  C   UNL A   1      34.117  28.791  26.111  1.00  0.00     0.118 C 
BRANCH  22  23
ATOM     23  N   UNL A   1      33.879  30.031  26.837  1.00  0.00    -0.352 N 
ATOM     24  C   UNL A   1      34.599  30.603  27.857  1.00  0.00     0.251 C 
ATOM     25  H   UNL A   1      33.082  30.536  26.554  1.00  0.00     0.163 HD
ATOM     26  O   UNL A   1      34.106  31.520  28.506  1.00  0.00    -0.269 OA
BRANCH  24  27
ATOM     27  C   UNL A   1      35.956  30.110  28.175  1.00  0.00     0.039 A 
ATOM     28  C   UNL A   1      36.936  30.124  27.179  1.00  0.00     0.014 A 
ATOM     29  C   UNL A   1      36.253  29.611  29.446  1.00  0.00     0.014 A 
ATOM     30  C   UNL A   1      38.233  29.696  27.478  1.00  0.00     0.010 A 
ATOM     31  C   UNL A   1      37.561  29.261  29.763  1.00  0.00     0.010 A 
ATOM     32  C   UNL A   1      38.563  29.292  28.781  1.00  0.00    -0.014 A 
BRANCH  32  33
ATOM     33  C   UNL A   1      39.943  28.888  29.150  1.00  0.00     0.031 A 
ATOM     34  C   UNL A   1      40.866  29.882  29.802  1.00  0.00     0.074 A 
ATOM     35  C   UNL A   1      40.391  27.660  28.822  1.00  0.00     0.049 A 
ATOM     36  N   UNL A   1      42.134  29.762  30.093  1.00  0.00    -0.248 NA
ATOM     37  C   UNL A   1      40.292  31.195  30.146  1.00  0.00     0.031 C 
ATOM     38  C   UNL A   1      39.600  26.617  28.163  1.00  0.00     0.029 A 
ATOM     39  N   UNL A   1      41.626  27.084  28.984  1.00  0.00    -0.354 N 
ATOM     40  C   UNL A   1      42.516  30.986  30.632  1.00  0.00     0.074 A 
ATOM     41  C   UNL A   1      41.358  31.851  30.581  1.00  0.00     0.031 C 
ATOM     42  C   UNL A   1      40.363  25.525  27.998  1.00  0.00     0.029 A 
ATOM     43  C   UNL A   1      41.708  25.804  28.489  1.00  0.00     0.049 A 
ATOM     44  H   UNL A   1      42.382  27.544  29.415  1.00  0.00     0.167 HD
ATOM     45  C   UNL A   1      43.717  31.351  31.142  1.00  0.00     0.031 A 
ATOM     46  C   UNL A   1      42.753  24.955  28.421  1.00  0.00     0.031 A 
ATOM     47  C   UNL A   1      44.862  30.482  31.196  1.00  0.00     0.049 A 
ATOM     48  C   UNL A   1      44.086  25.393  28.965  1.00  0.00     0.074 A 
ATOM     49  C   UNL A   1      46.110  30.738  31.735  1.00  0.00     0.029 A 
ATOM     50  N   UNL A   1      44.900  29.191  30.692  1.00  0.00    -0.354 N 
ATOM     51  N   UNL A   1      44.413  26.536  29.522  1.00  0.00    -0.248 NA
ATOM     52  C   UNL A   1      45.190  24.426  28.881  1.00  0.00     0.031 C 
ATOM     53  C   UNL A   1      46.921  29.622  31.504  1.00  0.00     0.029 A 
ATOM     54  C   UNL A   1      46.158  28.645  30.885  1.00  0.00     0.049 A 
ATOM     55  H   UNL A   1      44.144  28.730  30.260  1.00  0.00     0.167 HD
ATOM     56  C   UNL A   1      45.749  26.410  29.887  1.00  0.00     0.074 A 
ATOM     57  C   UNL A   1      46.167  25.081  29.494  1.00  0.00     0.031 C 
ATOM     58  C   UNL A   1      46.555  27.314  30.498  1.00  0.00     0.031 A 
BRANCH  45  59
ATOM     59  C   UNL A   1      43.854  32.756  31.670  1.00  0.00    -0.014 A 
ATOM     60  C   UNL A   1      43.580  33.057  33.017  1.00  0.00     0.010 A 
ATOM     61  C   UNL A   1      44.300  33.783  30.819  1.00  0.00     0.010 A 
ATOM     62  C   UNL A   1      43.704  34.366  33.490  1.00  0.00     0.020 A 
ATOM     63  C   UNL A   1      44.456  35.088  31.296  1.00  0.00     0.020 A 
ATOM     64  C   UNL A   1      44.139  35.374  32.624  1.00  0.00     0.054 A 
BRANCH  64  65
ATOM     65  S   UNL A   1      44.306  37.061  33.272  1.00  0.00     0.124 S 
ATOM     66  O   UNL A   1      43.185  37.136  34.205  1.00  0.00    -0.237 OA
ATOM     67  O   UNL A   1      45.632  37.037  33.884  1.00  0.00    -0.237 OA
ATOM     68  O   UNL A   1      44.186  37.902  32.084  1.00  0.00    -0.744 OA
ENDBRANCH  64  65
ENDBRANCH  45  59
BRANCH  46  69
ATOM     69  C   UNL A   1      42.576  23.603  27.824  1.00  0.00    -0.014 A 
ATOM     70  C   UNL A   1      42.861  23.379  26.465  1.00  0.00     0.010 A 
ATOM     71  C   UNL A   1      42.133  22.526  28.613  1.00  0.00     0.010 A 
ATOM     72  C   UNL A   1      42.690  22.110  25.904  1.00  0.00     0.020 A 
ATOM     73  C   UNL A   1      41.990  21.249  28.064  1.00  0.00     0.020 A 
ATOM     74  C   UNL A   1      42.258  21.051  26.708  1.00  0.00     0.054 A 
BRANCH  74  75
ATOM     75  S   UNL A   1      42.094  19.403  25.969  1.00  0.00     0.124 S 
ATOM     76  O   UNL A   1      42.571  18.539  27.044  1.00  0.00    -0.237 OA
ATOM     77  O   UNL A   1      40.664  19.328  25.683  1.00  0.00    -0.237 OA
ATOM     78  O   UNL A   1      42.954  19.470  24.790  1.00  0.00    -0.744 OA
ENDBRANCH  74  75
ENDBRANCH  46  69
BRANCH  58  79
ATOM     79  C   UNL A   1      47.959  26.887  30.832  1.00  0.00    -0.014 A 
ATOM     80  C   UNL A   1      49.028  27.126  29.951  1.00  0.00     0.010 A 
ATOM     81  C   UNL A   1      48.221  26.316  32.091  1.00  0.00     0.010 A 
ATOM     82  C   UNL A   1      50.333  26.787  30.319  1.00  0.00     0.020 A 
ATOM     83  C   UNL A   1      49.528  26.003  32.474  1.00  0.00     0.020 A 
ATOM     84  C   UNL A   1      50.575  26.234  31.580  1.00  0.00     0.054 A 
BRANCH  84  85
ATOM     85  S   UNL A   1      52.286  25.873  32.061  1.00  0.00     0.124 S 
ATOM     86  O   UNL A   1      52.564  26.938  33.021  1.00  0.00    -0.237 OA
ATOM     87  O   UNL A   1      52.181  24.529  32.625  1.00  0.00    -0.237 OA
ATOM     88  O   UNL A   1      53.026  25.959  30.804  1.00  0.00    -0.744 OA
ENDBRANCH  84  85
ENDBRANCH  58  79
ENDBRANCH  32  33
ENDBRANCH  24  27
ENDBRANCH  22  23
ENDBRANCH   1  22
TORSDOF 16
ENDMDL
