MODEL 1
REMARK VINA RESULT:     -11.6      0.000      0.000
REMARK SMILES COc1ccc(S(=O)(=O)N2CCC[C@H](C(=O)N3CCC[C@H](C(=O)NCCCNC(=O)c4ccc(-c5c6nc(c(-c7ccc(S(=O)(=O)[O-])cc7)c7ccc([nH]7)c(-c7ccc(S(=O)(=O)[O-])cc7)c7nc(c(-c8ccc(S(=O)(=O)[O-])cc8)c8ccc5[nH]8)C=C7)C=C6)cc4)C3)C2)cc1
REMARK SMILES IDX 25 1 24 2 22 3 23 4 21 6 17 7 18 8 91 9 19 10 20 11 15 12
REMARK SMILES IDX 16 13 14 14 10 15 11 16 92 17 12 18 13 19 7 20 8 21 9 22
REMARK SMILES IDX 6 23 3 24 4 25 94 26 5 27 93 28 2 29 1 30 26 31 27 32 28 33
REMARK SMILES IDX 29 34 30 36 31 37 32 38 90 39 33 40 89 41 34 42 35 43 36 44
REMARK SMILES IDX 83 45 37 46 88 47 82 48 84 49 38 50 87 51 81 52 80 53 39 55
REMARK SMILES IDX 69 56 50 57 68 58 51 59 54 60 67 61 85 62 52 63 53 64 66 66
REMARK SMILES IDX 86 67 55 68 40 69 41 70 49 71 42 72 48 73 43 74 44 75 45 76
REMARK SMILES IDX 46 77 47 78 70 79 71 80 79 81 72 82 78 83 73 84 74 85 75 86
REMARK SMILES IDX 76 87 77 88 56 89 57 90 65 91 58 92 64 93 59 94 60 95 61 96
REMARK SMILES IDX 62 97 63 98
REMARK H PARENT 24 5 28 35 84 54 54 65
REMARK Flexibility Score: inf
ROOT
ATOM      1  C   UNL A   1      34.286  32.295  28.247  1.00  0.00     0.117 C 
ENDROOT
BRANCH   1   2
ATOM      2  N   UNL A   1      34.920  31.064  27.844  1.00  0.00    -0.356 N 
ATOM      3  C   UNL A   1      34.366  29.964  27.272  1.00  0.00     0.224 C 
ATOM      4  O   UNL A   1      35.149  29.121  26.819  1.00  0.00    -0.275 OA
ATOM      5  H   UNL A   1      35.889  31.014  28.007  1.00  0.00     0.163 HD
BRANCH   3   6
ATOM      6  C   UNL A   1      32.853  29.721  27.164  1.00  0.00     0.098 C 
ATOM      7  N   UNL A   1      32.054  27.437  26.433  1.00  0.00    -0.342 N 
ATOM      8  C   UNL A   1      31.258  28.017  25.355  1.00  0.00     0.119 C 
ATOM      9  C   UNL A   1      32.380  28.314  27.551  1.00  0.00     0.133 C 
ATOM     10  C   UNL A   1      31.846  29.312  24.816  1.00  0.00     0.022 C 
ATOM     11  C   UNL A   1      32.190  30.311  25.914  1.00  0.00     0.017 C 
BRANCH   7  12
ATOM     12  C   UNL A   1      32.635  26.201  26.223  1.00  0.00     0.227 C 
ATOM     13  O   UNL A   1      33.782  26.109  25.770  1.00  0.00    -0.275 OA
BRANCH  12  14
ATOM     14  C   UNL A   1      31.797  24.930  26.300  1.00  0.00     0.094 C 
ATOM     15  N   UNL A   1      32.394  24.136  24.050  1.00  0.00    -0.197 NA
ATOM     16  C   UNL A   1      31.071  24.445  23.482  1.00  0.00     0.102 C 
ATOM     17  C   UNL A   1      32.539  23.875  25.492  1.00  0.00     0.116 C 
ATOM     18  C   UNL A   1      29.980  24.836  24.475  1.00  0.00     0.018 C 
ATOM     19  C   UNL A   1      30.321  24.893  25.957  1.00  0.00     0.016 C 
BRANCH  15  20
ATOM     20  S   UNL A   1      33.548  23.468  22.999  1.00  0.00     0.243 S 
ATOM     21  O   UNL A   1      34.043  24.507  22.132  1.00  0.00    -0.207 OA
ATOM     22  O   UNL A   1      32.981  22.239  22.472  1.00  0.00    -0.207 OA
BRANCH  20  23
ATOM     23  C   UNL A   1      34.913  22.973  24.032  1.00  0.00     0.082 A 
ATOM     24  C   UNL A   1      37.182  22.262  25.494  1.00  0.00     0.118 A 
ATOM     25  C   UNL A   1      37.009  23.579  25.065  1.00  0.00     0.048 A 
ATOM     26  C   UNL A   1      36.190  21.316  25.242  1.00  0.00     0.048 A 
ATOM     27  C   UNL A   1      35.881  23.938  24.324  1.00  0.00     0.025 A 
ATOM     28  C   UNL A   1      35.061  21.669  24.505  1.00  0.00     0.025 A 
BRANCH  24  29
ATOM     29  O   UNL A   1      38.341  21.994  26.168  1.00  0.00    -0.497 OA
ATOM     30  C   UNL A   1      39.097  23.152  26.517  1.00  0.00     0.278 C 
ENDBRANCH  24  29
ENDBRANCH  20  23
ENDBRANCH  15  20
ENDBRANCH  12  14
ENDBRANCH   7  12
ENDBRANCH   3   6
ENDBRANCH   1   2
BRANCH   1  31
ATOM     31  C   UNL A   1      35.241  33.434  28.537  1.00  0.00     0.042 C 
BRANCH  31  32
ATOM     32  C   UNL A   1      36.195  33.128  29.673  1.00  0.00     0.118 C 
BRANCH  32  33
ATOM     33  N   UNL A   1      35.769  31.998  30.497  1.00  0.00    -0.352 N 
ATOM     34  C   UNL A   1      36.438  30.847  30.845  1.00  0.00     0.251 C 
ATOM     35  H   UNL A   1      34.858  32.073  30.861  1.00  0.00     0.163 HD
ATOM     36  O   UNL A   1      35.865  29.982  31.501  1.00  0.00    -0.269 OA
BRANCH  34  37
ATOM     37  C   UNL A   1      37.827  30.632  30.387  1.00  0.00     0.039 A 
ATOM     38  C   UNL A   1      38.849  30.541  31.335  1.00  0.00     0.014 A 
ATOM     39  C   UNL A   1      38.116  30.468  29.034  1.00  0.00     0.014 A 
ATOM     40  C   UNL A   1      40.140  30.192  30.930  1.00  0.00     0.010 A 
ATOM     41  C   UNL A   1      39.363  29.996  28.649  1.00  0.00     0.010 A 
ATOM     42  C   UNL A   1      40.396  29.866  29.590  1.00  0.00    -0.014 A 
BRANCH  42  43
ATOM     43  C   UNL A   1      41.732  29.415  29.126  1.00  0.00     0.031 A 
ATOM     44  C   UNL A   1      42.863  30.408  29.044  1.00  0.00     0.074 A 
ATOM     45  C   UNL A   1      41.908  28.150  28.692  1.00  0.00     0.049 A 
ATOM     46  N   UNL A   1      44.059  30.260  28.537  1.00  0.00    -0.248 NA
ATOM     47  C   UNL A   1      42.595  31.764  29.555  1.00  0.00     0.031 C 
ATOM     48  C   UNL A   1      40.878  27.107  28.662  1.00  0.00     0.029 A 
ATOM     49  N   UNL A   1      43.019  27.528  28.182  1.00  0.00    -0.354 N 
ATOM     50  C   UNL A   1      44.663  31.510  28.625  1.00  0.00     0.074 A 
ATOM     51  C   UNL A   1      43.684  32.417  29.181  1.00  0.00     0.031 C 
ATOM     52  C   UNL A   1      41.417  25.968  28.196  1.00  0.00     0.029 A 
ATOM     53  C   UNL A   1      42.815  26.208  27.855  1.00  0.00     0.049 A 
ATOM     54  H   UNL A   1      43.884  27.985  28.061  1.00  0.00     0.167 HD
ATOM     55  C   UNL A   1      45.927  31.867  28.299  1.00  0.00     0.031 A 
ATOM     56  C   UNL A   1      43.659  25.294  27.337  1.00  0.00     0.031 A 
ATOM     57  C   UNL A   1      46.914  30.949  27.803  1.00  0.00     0.049 A 
ATOM     58  C   UNL A   1      45.076  25.698  27.039  1.00  0.00     0.074 A 
ATOM     59  C   UNL A   1      48.245  31.189  27.516  1.00  0.00     0.029 A 
ATOM     60  N   UNL A   1      46.679  29.608  27.542  1.00  0.00    -0.354 N 
ATOM     61  N   UNL A   1      45.644  26.873  27.178  1.00  0.00    -0.248 NA
ATOM     62  C   UNL A   1      45.971  24.652  26.527  1.00  0.00     0.031 C 
ATOM     63  C   UNL A   1      48.810  29.995  27.053  1.00  0.00     0.029 A 
ATOM     64  C   UNL A   1      47.841  29.006  27.092  1.00  0.00     0.049 A 
ATOM     65  H   UNL A   1      45.815  29.152  27.659  1.00  0.00     0.167 HD
ATOM     66  C   UNL A   1      46.967  26.701  26.793  1.00  0.00     0.074 A 
ATOM     67  C   UNL A   1      47.119  25.306  26.428  1.00  0.00     0.031 C 
ATOM     68  C   UNL A   1      47.968  27.614  26.743  1.00  0.00     0.031 A 
BRANCH  55  69
ATOM     69  C   UNL A   1      46.306  33.313  28.484  1.00  0.00    -0.014 A 
ATOM     70  C   UNL A   1      46.962  33.748  29.650  1.00  0.00     0.010 A 
ATOM     71  C   UNL A   1      46.011  34.248  27.476  1.00  0.00     0.010 A 
ATOM     72  C   UNL A   1      47.267  35.099  29.830  1.00  0.00     0.020 A 
ATOM     73  C   UNL A   1      46.341  35.598  27.639  1.00  0.00     0.020 A 
ATOM     74  C   UNL A   1      46.948  36.017  28.825  1.00  0.00     0.054 A 
BRANCH  74  75
ATOM     75  S   UNL A   1      47.362  37.765  29.079  1.00  0.00     0.124 S 
ATOM     76  O   UNL A   1      46.240  38.436  28.427  1.00  0.00    -0.237 OA
ATOM     77  O   UNL A   1      47.400  37.878  30.535  1.00  0.00    -0.237 OA
ATOM     78  O   UNL A   1      48.653  37.915  28.412  1.00  0.00    -0.744 OA
ENDBRANCH  74  75
ENDBRANCH  55  69
BRANCH  56  79
ATOM     79  C   UNL A   1      43.194  23.901  27.102  1.00  0.00    -0.014 A 
ATOM     80  C   UNL A   1      42.948  23.448  25.793  1.00  0.00     0.010 A 
ATOM     81  C   UNL A   1      43.013  23.013  28.177  1.00  0.00     0.010 A 
ATOM     82  C   UNL A   1      42.511  22.141  25.564  1.00  0.00     0.020 A 
ATOM     83  C   UNL A   1      42.600  21.695  27.949  1.00  0.00     0.020 A 
ATOM     84  C   UNL A   1      42.340  21.272  26.645  1.00  0.00     0.054 A 
BRANCH  84  85
ATOM     85  S   UNL A   1      41.822  19.563  26.321  1.00  0.00     0.124 S 
ATOM     86  O   UNL A   1      42.573  19.241  25.112  1.00  0.00    -0.237 OA
ATOM     87  O   UNL A   1      42.246  18.867  27.533  1.00  0.00    -0.237 OA
ATOM     88  O   UNL A   1      40.375  19.672  26.150  1.00  0.00    -0.744 OA
ENDBRANCH  84  85
ENDBRANCH  56  79
BRANCH  68  89
ATOM     89  C   UNL A   1      49.324  27.129  26.312  1.00  0.00    -0.014 A 
ATOM     90  C   UNL A   1      49.785  27.337  25.002  1.00  0.00     0.010 A 
ATOM     91  C   UNL A   1      50.169  26.512  27.252  1.00  0.00     0.010 A 
ATOM     92  C   UNL A   1      51.064  26.914  24.631  1.00  0.00     0.020 A 
ATOM     93  C   UNL A   1      51.456  26.109  26.891  1.00  0.00     0.020 A 
ATOM     94  C   UNL A   1      51.890  26.302  25.578  1.00  0.00     0.054 A 
BRANCH  94  95
ATOM     95  S   UNL A   1      53.566  25.808  25.088  1.00  0.00     0.124 S 
ATOM     96  O   UNL A   1      53.393  25.525  23.666  1.00  0.00    -0.237 OA
ATOM     97  O   UNL A   1      54.358  26.995  25.402  1.00  0.00    -0.237 OA
ATOM     98  O   UNL A   1      53.842  24.643  25.927  1.00  0.00    -0.744 OA
ENDBRANCH  94  95
ENDBRANCH  68  89
ENDBRANCH  42  43
ENDBRANCH  34  37
ENDBRANCH  32  33
ENDBRANCH  31  32
ENDBRANCH   1  31
TORSDOF 18
ENDMDL
MODEL 2
REMARK VINA RESULT:     -11.5      1.148      7.988
REMARK SMILES COc1ccc(S(=O)(=O)N2CCC[C@H](C(=O)N3CCC[C@H](C(=O)NCCCNC(=O)c4ccc(-c5c6nc(c(-c7ccc(S(=O)(=O)[O-])cc7)c7ccc([nH]7)c(-c7ccc(S(=O)(=O)[O-])cc7)c7nc(c(-c8ccc(S(=O)(=O)[O-])cc8)c8ccc5[nH]8)C=C7)C=C6)cc4)C3)C2)cc1
REMARK SMILES IDX 25 1 24 2 22 3 23 4 21 6 17 7 18 8 91 9 19 10 20 11 15 12
REMARK SMILES IDX 16 13 14 14 10 15 11 16 92 17 12 18 13 19 7 20 8 21 9 22
REMARK SMILES IDX 6 23 3 24 4 25 94 26 5 27 93 28 2 29 1 30 26 31 27 32 28 33
REMARK SMILES IDX 29 34 30 36 31 37 32 38 90 39 33 40 89 41 34 42 35 43 36 44
REMARK SMILES IDX 83 45 37 46 88 47 82 48 84 49 38 50 87 51 81 52 80 53 39 55
REMARK SMILES IDX 69 56 50 57 68 58 51 59 54 60 67 61 85 62 52 63 53 64 66 66
REMARK SMILES IDX 86 67 55 68 40 69 41 70 49 71 42 72 48 73 43 74 44 75 45 76
REMARK SMILES IDX 46 77 47 78 70 79 71 80 79 81 72 82 78 83 73 84 74 85 75 86
REMARK SMILES IDX 76 87 77 88 56 89 57 90 65 91 58 92 64 93 59 94 60 95 61 96
REMARK SMILES IDX 62 97 63 98
REMARK H PARENT 24 5 28 35 84 54 54 65
REMARK Flexibility Score: inf
ROOT
ATOM      1  C   UNL A   1      34.357  31.978  28.554  1.00  0.00     0.117 C 
ENDROOT
BRANCH   1   2
ATOM      2  N   UNL A   1      34.889  30.769  27.977  1.00  0.00    -0.356 N 
ATOM      3  C   UNL A   1      34.254  29.819  27.244  1.00  0.00     0.224 C 
ATOM      4  O   UNL A   1      34.970  28.986  26.677  1.00  0.00    -0.275 OA
ATOM      5  H   UNL A   1      35.847  30.611  28.138  1.00  0.00     0.163 HD
BRANCH   3   6
ATOM      6  C   UNL A   1      32.728  29.729  27.092  1.00  0.00     0.098 C 
ATOM      7  N   UNL A   1      31.722  27.520  26.386  1.00  0.00    -0.342 N 
ATOM      8  C   UNL A   1      31.023  28.149  25.270  1.00  0.00     0.119 C 
ATOM      9  C   UNL A   1      32.101  28.388  27.495  1.00  0.00     0.133 C 
ATOM     10  C   UNL A   1      31.758  29.364  24.721  1.00  0.00     0.022 C 
ATOM     11  C   UNL A   1      32.169  30.350  25.807  1.00  0.00     0.017 C 
BRANCH   7  12
ATOM     12  C   UNL A   1      32.179  26.226  26.224  1.00  0.00     0.227 C 
ATOM     13  O   UNL A   1      33.385  25.993  26.083  1.00  0.00    -0.275 OA
BRANCH  12  14
ATOM     14  C   UNL A   1      31.200  25.088  25.961  1.00  0.00     0.094 C 
ATOM     15  N   UNL A   1      32.330  24.291  23.927  1.00  0.00    -0.197 NA
ATOM     16  C   UNL A   1      31.286  24.807  23.026  1.00  0.00     0.102 C 
ATOM     17  C   UNL A   1      32.006  23.964  25.326  1.00  0.00     0.116 C 
ATOM     18  C   UNL A   1      30.009  25.318  23.687  1.00  0.00     0.018 C 
ATOM     19  C   UNL A   1      29.900  25.276  25.205  1.00  0.00     0.016 C 
BRANCH  15  20
ATOM     20  S   UNL A   1      33.648  23.499  23.208  1.00  0.00     0.243 S 
ATOM     21  O   UNL A   1      34.868  24.039  23.751  1.00  0.00    -0.207 OA
ATOM     22  O   UNL A   1      33.396  23.470  21.777  1.00  0.00    -0.207 OA
BRANCH  20  23
ATOM     23  C   UNL A   1      33.551  21.807  23.756  1.00  0.00     0.082 A 
ATOM     24  C   UNL A   1      33.589  19.122  24.519  1.00  0.00     0.118 A 
ATOM     25  C   UNL A   1      34.619  19.977  24.914  1.00  0.00     0.048 A 
ATOM     26  C   UNL A   1      32.511  19.625  23.793  1.00  0.00     0.048 A 
ATOM     27  C   UNL A   1      34.610  21.318  24.526  1.00  0.00     0.025 A 
ATOM     28  C   UNL A   1      32.496  20.964  23.404  1.00  0.00     0.025 A 
BRANCH  24  29
ATOM     29  O   UNL A   1      33.709  17.815  24.903  1.00  0.00    -0.497 OA
ATOM     30  C   UNL A   1      32.477  17.194  25.261  1.00  0.00     0.278 C 
ENDBRANCH  24  29
ENDBRANCH  20  23
ENDBRANCH  15  20
ENDBRANCH  12  14
ENDBRANCH   7  12
ENDBRANCH   3   6
ENDBRANCH   1   2
BRANCH   1  31
ATOM     31  C   UNL A   1      35.358  33.104  28.704  1.00  0.00     0.042 C 
BRANCH  31  32
ATOM     32  C   UNL A   1      36.315  32.891  29.859  1.00  0.00     0.118 C 
BRANCH  32  33
ATOM     33  N   UNL A   1      36.000  31.708  30.660  1.00  0.00    -0.352 N 
ATOM     34  C   UNL A   1      36.755  30.590  30.931  1.00  0.00     0.251 C 
ATOM     35  H   UNL A   1      35.106  31.713  31.069  1.00  0.00     0.163 HD
ATOM     36  O   UNL A   1      36.270  29.668  31.581  1.00  0.00    -0.269 OA
BRANCH  34  37
ATOM     37  C   UNL A   1      38.130  30.479  30.400  1.00  0.00     0.039 A 
ATOM     38  C   UNL A   1      39.196  30.341  31.293  1.00  0.00     0.014 A 
ATOM     39  C   UNL A   1      38.366  30.458  29.026  1.00  0.00     0.014 A 
ATOM     40  C   UNL A   1      40.480  30.088  30.805  1.00  0.00     0.010 A 
ATOM     41  C   UNL A   1      39.612  30.078  28.548  1.00  0.00     0.010 A 
ATOM     42  C   UNL A   1      40.689  29.902  29.430  1.00  0.00    -0.014 A 
BRANCH  42  43
ATOM     43  C   UNL A   1      42.021  29.555  28.871  1.00  0.00     0.031 A 
ATOM     44  C   UNL A   1      42.269  28.159  28.361  1.00  0.00     0.074 A 
ATOM     45  C   UNL A   1      43.026  30.453  28.910  1.00  0.00     0.049 A 
ATOM     46  N   UNL A   1      43.389  27.608  27.969  1.00  0.00    -0.248 NA
ATOM     47  C   UNL A   1      41.114  27.244  28.337  1.00  0.00     0.031 C 
ATOM     48  C   UNL A   1      42.933  31.818  29.434  1.00  0.00     0.029 A 
ATOM     49  N   UNL A   1      44.333  30.346  28.504  1.00  0.00    -0.354 N 
ATOM     50  C   UNL A   1      43.081  26.279  27.699  1.00  0.00     0.074 A 
ATOM     51  C   UNL A   1      41.685  26.091  28.026  1.00  0.00     0.031 C 
ATOM     52  C   UNL A   1      44.118  32.431  29.284  1.00  0.00     0.029 A 
ATOM     53  C   UNL A   1      45.067  31.493  28.693  1.00  0.00     0.049 A 
ATOM     54  H   UNL A   1      44.710  29.523  28.115  1.00  0.00     0.167 HD
ATOM     55  C   UNL A   1      43.879  25.308  27.198  1.00  0.00     0.031 A 
ATOM     56  C   UNL A   1      46.359  31.759  28.422  1.00  0.00     0.031 A 
ATOM     57  C   UNL A   1      45.248  25.515  26.819  1.00  0.00     0.049 A 
ATOM     58  C   UNL A   1      47.212  30.682  27.809  1.00  0.00     0.074 A 
ATOM     59  C   UNL A   1      46.123  24.621  26.229  1.00  0.00     0.029 A 
ATOM     60  N   UNL A   1      45.935  26.710  26.974  1.00  0.00    -0.354 N 
ATOM     61  N   UNL A   1      46.889  29.445  27.514  1.00  0.00    -0.248 NA
ATOM     62  C   UNL A   1      48.599  31.039  27.483  1.00  0.00     0.031 C 
ATOM     63  C   UNL A   1      47.351  25.269  26.052  1.00  0.00     0.029 A 
ATOM     64  C   UNL A   1      47.226  26.576  26.495  1.00  0.00     0.049 A 
ATOM     65  H   UNL A   1      45.560  27.531  27.367  1.00  0.00     0.167 HD
ATOM     66  C   UNL A   1      48.024  28.884  26.944  1.00  0.00     0.074 A 
ATOM     67  C   UNL A   1      49.039  29.919  26.925  1.00  0.00     0.031 C 
ATOM     68  C   UNL A   1      48.214  27.624  26.480  1.00  0.00     0.031 A 
BRANCH  55  69
ATOM     69  C   UNL A   1      43.276  23.939  27.025  1.00  0.00    -0.014 A 
ATOM     70  C   UNL A   1      43.130  23.066  28.118  1.00  0.00     0.010 A 
ATOM     71  C   UNL A   1      42.842  23.521  25.754  1.00  0.00     0.010 A 
ATOM     72  C   UNL A   1      42.613  21.781  27.935  1.00  0.00     0.020 A 
ATOM     73  C   UNL A   1      42.296  22.246  25.572  1.00  0.00     0.020 A 
ATOM     74  C   UNL A   1      42.205  21.377  26.661  1.00  0.00     0.054 A 
BRANCH  74  75
ATOM     75  S   UNL A   1      41.529  19.707  26.452  1.00  0.00     0.124 S 
ATOM     76  O   UNL A   1      42.261  19.232  25.279  1.00  0.00    -0.237 OA
ATOM     77  O   UNL A   1      41.878  19.058  27.713  1.00  0.00    -0.237 OA
ATOM     78  O   UNL A   1      40.101  19.935  26.246  1.00  0.00    -0.744 OA
ENDBRANCH  74  75
ENDBRANCH  55  69
BRANCH  56  79
ATOM     79  C   UNL A   1      46.915  33.112  28.695  1.00  0.00    -0.014 A 
ATOM     80  C   UNL A   1      46.823  34.124  27.723  1.00  0.00     0.010 A 
ATOM     81  C   UNL A   1      47.520  33.405  29.930  1.00  0.00     0.010 A 
ATOM     82  C   UNL A   1      47.342  35.398  27.971  1.00  0.00     0.020 A 
ATOM     83  C   UNL A   1      48.019  34.685  30.192  1.00  0.00     0.020 A 
ATOM     84  C   UNL A   1      47.937  35.670  29.206  1.00  0.00     0.054 A 
BRANCH  84  85
ATOM     85  S   UNL A   1      48.559  37.345  29.529  1.00  0.00     0.124 S 
ATOM     86  O   UNL A   1      49.019  37.757  28.207  1.00  0.00    -0.237 OA
ATOM     87  O   UNL A   1      47.372  38.034  30.029  1.00  0.00    -0.237 OA
ATOM     88  O   UNL A   1      49.610  37.132  30.521  1.00  0.00    -0.744 OA
ENDBRANCH  84  85
ENDBRANCH  56  79
BRANCH  68  89
ATOM     89  C   UNL A   1      49.554  27.305  25.880  1.00  0.00    -0.014 A 
ATOM     90  C   UNL A   1      50.596  26.786  26.668  1.00  0.00     0.010 A 
ATOM     91  C   UNL A   1      49.750  27.468  24.497  1.00  0.00     0.010 A 
ATOM     92  C   UNL A   1      51.822  26.458  26.085  1.00  0.00     0.020 A 
ATOM     93  C   UNL A   1      50.967  27.119  23.907  1.00  0.00     0.020 A 
ATOM     94  C   UNL A   1      51.999  26.628  24.708  1.00  0.00     0.054 A 
BRANCH  94  95
ATOM     95  S   UNL A   1      53.582  26.146  23.964  1.00  0.00     0.124 S 
ATOM     96  O   UNL A   1      54.433  27.285  24.300  1.00  0.00    -0.237 OA
ATOM     97  O   UNL A   1      53.898  24.898  24.656  1.00  0.00    -0.237 OA
ATOM     98  O   UNL A   1      53.267  26.000  22.545  1.00  0.00    -0.744 OA
ENDBRANCH  94  95
ENDBRANCH  68  89
ENDBRANCH  42  43
ENDBRANCH  34  37
ENDBRANCH  32  33
ENDBRANCH  31  32
ENDBRANCH   1  31
TORSDOF 18
ENDMDL
MODEL 3
REMARK VINA RESULT:     -11.3      5.465      9.814
REMARK SMILES COc1ccc(S(=O)(=O)N2CCC[C@H](C(=O)N3CCC[C@H](C(=O)NCCCNC(=O)c4ccc(-c5c6nc(c(-c7ccc(S(=O)(=O)[O-])cc7)c7ccc([nH]7)c(-c7ccc(S(=O)(=O)[O-])cc7)c7nc(c(-c8ccc(S(=O)(=O)[O-])cc8)c8ccc5[nH]8)C=C7)C=C6)cc4)C3)C2)cc1
REMARK SMILES IDX 25 1 24 2 22 3 23 4 21 6 17 7 18 8 91 9 19 10 20 11 15 12
REMARK SMILES IDX 16 13 14 14 10 15 11 16 92 17 12 18 13 19 7 20 8 21 9 22
REMARK SMILES IDX 6 23 3 24 4 25 94 26 5 27 93 28 2 29 1 30 26 31 27 32 28 33
REMARK SMILES IDX 29 34 30 36 31 37 32 38 90 39 33 40 89 41 34 42 35 43 36 44
REMARK SMILES IDX 83 45 37 46 88 47 82 48 84 49 38 50 87 51 81 52 80 53 39 55
REMARK SMILES IDX 69 56 50 57 68 58 51 59 54 60 67 61 85 62 52 63 53 64 66 66
REMARK SMILES IDX 86 67 55 68 40 69 41 70 49 71 42 72 48 73 43 74 44 75 45 76
REMARK SMILES IDX 46 77 47 78 70 79 71 80 79 81 72 82 78 83 73 84 74 85 75 86
REMARK SMILES IDX 76 87 77 88 56 89 57 90 65 91 58 92 64 93 59 94 60 95 61 96
REMARK SMILES IDX 62 97 63 98
REMARK H PARENT 24 5 28 35 84 54 54 65
REMARK Flexibility Score: inf
ROOT
ATOM      1  C   UNL A   1      33.801  29.235  26.348  1.00  0.00     0.117 C 
ENDROOT
BRANCH   1   2
ATOM      2  N   UNL A   1      33.814  28.930  24.939  1.00  0.00    -0.356 N 
ATOM      3  C   UNL A   1      32.769  28.804  24.081  1.00  0.00     0.224 C 
ATOM      4  O   UNL A   1      33.044  28.754  22.877  1.00  0.00    -0.275 OA
ATOM      5  H   UNL A   1      34.705  28.793  24.544  1.00  0.00     0.163 HD
BRANCH   3   6
ATOM      6  C   UNL A   1      31.300  28.721  24.522  1.00  0.00     0.098 C 
ATOM      7  N   UNL A   1      30.198  26.447  24.600  1.00  0.00    -0.342 N 
ATOM      8  C   UNL A   1      29.111  26.901  23.738  1.00  0.00     0.119 C 
ATOM      9  C   UNL A   1      30.923  27.476  25.336  1.00  0.00     0.133 C 
ATOM     10  C   UNL A   1      29.539  27.995  22.772  1.00  0.00     0.022 C 
ATOM     11  C   UNL A   1      30.280  29.136  23.456  1.00  0.00     0.017 C 
BRANCH   7  12
ATOM     12  C   UNL A   1      30.617  25.135  24.487  1.00  0.00     0.227 C 
ATOM     13  O   UNL A   1      30.732  24.418  25.488  1.00  0.00    -0.275 OA
BRANCH  12  14
ATOM     14  C   UNL A   1      31.188  24.617  23.172  1.00  0.00     0.094 C 
ATOM     15  N   UNL A   1      33.008  23.332  24.213  1.00  0.00    -0.197 NA
ATOM     16  C   UNL A   1      34.053  24.275  23.783  1.00  0.00     0.102 C 
ATOM     17  C   UNL A   1      31.745  23.230  23.461  1.00  0.00     0.116 C 
ATOM     18  C   UNL A   1      33.628  25.358  22.795  1.00  0.00     0.018 C 
ATOM     19  C   UNL A   1      32.177  25.402  22.334  1.00  0.00     0.016 C 
BRANCH  15  20
ATOM     20  S   UNL A   1      33.509  21.982  25.114  1.00  0.00     0.243 S 
ATOM     21  O   UNL A   1      33.272  20.791  24.338  1.00  0.00    -0.207 OA
ATOM     22  O   UNL A   1      32.967  22.141  26.453  1.00  0.00    -0.207 OA
BRANCH  20  23
ATOM     23  C   UNL A   1      35.275  22.141  25.279  1.00  0.00     0.082 A 
ATOM     24  C   UNL A   1      38.043  22.198  25.634  1.00  0.00     0.118 A 
ATOM     25  C   UNL A   1      37.451  21.160  24.913  1.00  0.00     0.048 A 
ATOM     26  C   UNL A   1      37.256  23.237  26.125  1.00  0.00     0.048 A 
ATOM     27  C   UNL A   1      36.066  21.121  24.741  1.00  0.00     0.025 A 
ATOM     28  C   UNL A   1      35.873  23.205  25.956  1.00  0.00     0.025 A 
BRANCH  24  29
ATOM     29  O   UNL A   1      39.400  22.125  25.793  1.00  0.00    -0.497 OA
ATOM     30  C   UNL A   1      39.869  22.605  27.051  1.00  0.00     0.278 C 
ENDBRANCH  24  29
ENDBRANCH  20  23
ENDBRANCH  15  20
ENDBRANCH  12  14
ENDBRANCH   7  12
ENDBRANCH   3   6
ENDBRANCH   1   2
BRANCH   1  31
ATOM     31  C   UNL A   1      33.076  30.514  26.713  1.00  0.00     0.042 C 
BRANCH  31  32
ATOM     32  C   UNL A   1      33.966  31.513  27.423  1.00  0.00     0.118 C 
BRANCH  32  33
ATOM     33  N   UNL A   1      33.270  32.745  27.793  1.00  0.00    -0.352 N 
ATOM     34  C   UNL A   1      33.559  33.674  28.766  1.00  0.00     0.251 C 
ATOM     35  H   UNL A   1      32.467  32.942  27.259  1.00  0.00     0.163 HD
ATOM     36  O   UNL A   1      32.797  34.617  28.957  1.00  0.00    -0.269 OA
BRANCH  34  37
ATOM     37  C   UNL A   1      34.760  33.509  29.613  1.00  0.00     0.039 A 
ATOM     38  C   UNL A   1      34.736  32.576  30.654  1.00  0.00     0.014 A 
ATOM     39  C   UNL A   1      35.923  34.231  29.353  1.00  0.00     0.014 A 
ATOM     40  C   UNL A   1      35.906  32.305  31.367  1.00  0.00     0.010 A 
ATOM     41  C   UNL A   1      37.111  33.869  29.971  1.00  0.00     0.010 A 
ATOM     42  C   UNL A   1      37.116  32.911  30.997  1.00  0.00    -0.014 A 
BRANCH  42  43
ATOM     43  C   UNL A   1      38.399  32.595  31.674  1.00  0.00     0.031 A 
ATOM     44  C   UNL A   1      39.358  31.626  31.031  1.00  0.00     0.074 A 
ATOM     45  C   UNL A   1      38.660  33.097  32.898  1.00  0.00     0.049 A 
ATOM     46  N   UNL A   1      40.457  31.106  31.514  1.00  0.00    -0.248 NA
ATOM     47  C   UNL A   1      39.007  31.137  29.686  1.00  0.00     0.031 C 
ATOM     48  C   UNL A   1      37.787  33.999  33.656  1.00  0.00     0.029 A 
ATOM     49  N   UNL A   1      39.738  32.912  33.726  1.00  0.00    -0.354 N 
ATOM     50  C   UNL A   1      40.897  30.200  30.556  1.00  0.00     0.074 A 
ATOM     51  C   UNL A   1      39.919  30.198  29.491  1.00  0.00     0.031 C 
ATOM     52  C   UNL A   1      38.381  34.315  34.818  1.00  0.00     0.029 A 
ATOM     53  C   UNL A   1      39.655  33.610  34.908  1.00  0.00     0.049 A 
ATOM     54  H   UNL A   1      40.501  32.333  33.496  1.00  0.00     0.167 HD
ATOM     55  C   UNL A   1      42.027  29.455  30.547  1.00  0.00     0.031 A 
ATOM     56  C   UNL A   1      40.508  33.673  35.949  1.00  0.00     0.031 A 
ATOM     57  C   UNL A   1      43.024  29.506  31.579  1.00  0.00     0.049 A 
ATOM     58  C   UNL A   1      41.787  32.883  35.891  1.00  0.00     0.074 A 
ATOM     59  C   UNL A   1      44.243  28.853  31.632  1.00  0.00     0.029 A 
ATOM     60  N   UNL A   1      42.926  30.270  32.732  1.00  0.00    -0.354 N 
ATOM     61  N   UNL A   1      42.211  32.071  34.952  1.00  0.00    -0.248 NA
ATOM     62  C   UNL A   1      42.708  33.028  37.026  1.00  0.00     0.031 C 
ATOM     63  C   UNL A   1      44.870  29.203  32.833  1.00  0.00     0.029 A 
ATOM     64  C   UNL A   1      44.060  30.103  33.506  1.00  0.00     0.049 A 
ATOM     65  H   UNL A   1      42.163  30.847  32.964  1.00  0.00     0.167 HD
ATOM     66  C   UNL A   1      43.458  31.627  35.372  1.00  0.00     0.074 A 
ATOM     67  C   UNL A   1      43.726  32.270  36.643  1.00  0.00     0.031 C 
ATOM     68  C   UNL A   1      44.306  30.762  34.763  1.00  0.00     0.031 A 
BRANCH  55  69
ATOM     69  C   UNL A   1      42.240  28.535  29.375  1.00  0.00    -0.014 A 
ATOM     70  C   UNL A   1      41.749  27.217  29.387  1.00  0.00     0.010 A 
ATOM     71  C   UNL A   1      42.934  28.995  28.241  1.00  0.00     0.010 A 
ATOM     72  C   UNL A   1      41.994  26.359  28.313  1.00  0.00     0.020 A 
ATOM     73  C   UNL A   1      43.156  28.147  27.150  1.00  0.00     0.020 A 
ATOM     74  C   UNL A   1      42.703  26.828  27.204  1.00  0.00     0.054 A 
BRANCH  74  75
ATOM     75  S   UNL A   1      43.001  25.696  25.818  1.00  0.00     0.124 S 
ATOM     76  O   UNL A   1      41.823  25.927  24.984  1.00  0.00    -0.237 OA
ATOM     77  O   UNL A   1      44.263  26.185  25.269  1.00  0.00    -0.237 OA
ATOM     78  O   UNL A   1      43.068  24.382  26.452  1.00  0.00    -0.744 OA
ENDBRANCH  74  75
ENDBRANCH  55  69
BRANCH  56  79
ATOM     79  C   UNL A   1      40.197  34.541  37.116  1.00  0.00    -0.014 A 
ATOM     80  C   UNL A   1      39.538  34.008  38.239  1.00  0.00     0.010 A 
ATOM     81  C   UNL A   1      40.571  35.896  37.124  1.00  0.00     0.010 A 
ATOM     82  C   UNL A   1      39.241  34.818  39.339  1.00  0.00     0.020 A 
ATOM     83  C   UNL A   1      40.298  36.704  38.233  1.00  0.00     0.020 A 
ATOM     84  C   UNL A   1      39.624  36.161  39.329  1.00  0.00     0.054 A 
BRANCH  84  85
ATOM     85  S   UNL A   1      39.276  37.182  40.789  1.00  0.00     0.124 S 
ATOM     86  O   UNL A   1      40.618  37.544  41.233  1.00  0.00    -0.237 OA
ATOM     87  O   UNL A   1      38.478  38.271  40.232  1.00  0.00    -0.237 OA
ATOM     88  O   UNL A   1      38.546  36.275  41.673  1.00  0.00    -0.744 OA
ENDBRANCH  84  85
ENDBRANCH  56  79
BRANCH  68  89
ATOM     89  C   UNL A   1      45.618  30.488  35.444  1.00  0.00    -0.014 A 
ATOM     90  C   UNL A   1      46.741  31.298  35.205  1.00  0.00     0.010 A 
ATOM     91  C   UNL A   1      45.707  29.444  36.383  1.00  0.00     0.010 A 
ATOM     92  C   UNL A   1      47.941  31.053  35.877  1.00  0.00     0.020 A 
ATOM     93  C   UNL A   1      46.898  29.211  37.073  1.00  0.00     0.020 A 
ATOM     94  C   UNL A   1      48.011  30.010  36.806  1.00  0.00     0.054 A 
BRANCH  94  95
ATOM     95  S   UNL A   1      49.564  29.743  37.705  1.00  0.00     0.124 S 
ATOM     96  O   UNL A   1      49.426  28.356  38.141  1.00  0.00    -0.237 OA
ATOM     97  O   UNL A   1      50.577  29.982  36.679  1.00  0.00    -0.237 OA
ATOM     98  O   UNL A   1      49.521  30.740  38.773  1.00  0.00    -0.744 OA
ENDBRANCH  94  95
ENDBRANCH  68  89
ENDBRANCH  42  43
ENDBRANCH  34  37
ENDBRANCH  32  33
ENDBRANCH  31  32
ENDBRANCH   1  31
TORSDOF 18
ENDMDL
