MODEL 1
REMARK VINA RESULT:     -10.9      0.000      0.000
REMARK SMILES Cc1cnc(C)c(N2CCC[C@@](CC3CC3)(C(=O)NCCCNC(=O)c3ccc(-c4c5nc(c(-c6ccc(S(=O)(=O)[O-])cc6)c6ccc([nH]6)c(-c6ccc(S(=O)(=O)[O-])cc6)c6nc(c(-c7ccc(S(=O)(=O)[O-])cc7)c7ccc4[nH]7)C=C6)C=C5)cc3)C2)n1
REMARK SMILES IDX 21 1 20 2 19 3 17 4 18 5 12 7 8 8 9 9 86 10 10 11 11 12 7 13
REMARK SMILES IDX 1 14 2 15 3 16 87 17 4 18 5 19 6 20 13 21 14 22 15 23 16 24
REMARK SMILES IDX 22 25 23 26 24 27 25 29 26 30 27 31 85 32 28 33 84 34 29 35
REMARK SMILES IDX 30 36 31 37 78 38 32 39 83 40 77 41 79 42 33 43 82 44 76 45
REMARK SMILES IDX 75 46 34 48 64 49 45 50 63 51 46 52 49 53 62 54 80 55 47 56
REMARK SMILES IDX 48 57 61 59 81 60 50 61 35 62 36 63 44 64 37 65 43 66 38 67
REMARK SMILES IDX 39 68 40 69 41 70 42 71 65 72 66 73 74 74 67 75 73 76 68 77
REMARK SMILES IDX 69 78 70 79 71 80 72 81 51 82 52 83 60 84 53 85 59 86 54 87
REMARK SMILES IDX 55 88 56 89 57 90 58 91
REMARK H PARENT 19 6 23 28 79 47 49 58
REMARK Flexibility Score: inf
ROOT
ATOM      1  C   UNL A   1      31.606  32.363  26.828  1.00  0.00     0.042 C 
ENDROOT
BRANCH   1   2
ATOM      2  C   UNL A   1      31.748  30.871  26.618  1.00  0.00     0.117 C 
BRANCH   2   3
ATOM      3  N   UNL A   1      32.890  30.264  27.227  1.00  0.00    -0.355 N 
ATOM      4  C   UNL A   1      33.514  29.128  26.806  1.00  0.00     0.228 C 
ATOM      5  O   UNL A   1      34.706  29.038  27.113  1.00  0.00    -0.274 OA
ATOM      6  H   UNL A   1      33.260  30.708  28.024  1.00  0.00     0.163 HD
BRANCH   4   7
ATOM      7  C   UNL A   1      32.775  28.020  25.988  1.00  0.00     0.067 C 
ATOM      8  N   UNL A   1      33.181  25.639  25.489  1.00  0.00    -0.354 N 
ATOM      9  C   UNL A   1      32.096  25.092  26.283  1.00  0.00     0.118 C 
ATOM     10  C   UNL A   1      33.808  26.836  26.043  1.00  0.00     0.135 C 
ATOM     11  C   UNL A   1      30.990  26.145  26.323  1.00  0.00     0.023 C 
ATOM     12  C   UNL A   1      31.505  27.531  26.738  1.00  0.00     0.020 C 
BRANCH   8  13
ATOM     13  C   UNL A   1      34.017  24.764  24.817  1.00  0.00     0.150 A 
ATOM     14  C   UNL A   1      37.337  23.263  25.320  1.00  0.00     0.068 C 
ATOM     15  C   UNL A   1      36.039  23.646  24.687  1.00  0.00     0.058 A 
ATOM     16  C   UNL A   1      35.747  23.264  23.387  1.00  0.00     0.135 A 
ATOM     17  N   UNL A   1      35.178  24.399  25.411  1.00  0.00    -0.233 NA
ATOM     18  N   UNL A   1      34.596  23.595  22.768  1.00  0.00    -0.256 NA
ATOM     19  C   UNL A   1      33.730  24.351  23.500  1.00  0.00     0.080 A 
ATOM     20  C   UNL A   1      32.533  24.863  22.753  1.00  0.00     0.071 C 
ENDBRANCH   8  13
BRANCH   7  21
ATOM     21  C   UNL A   1      32.653  28.419  24.477  1.00  0.00     0.022 C 
BRANCH  21  22
ATOM     22  C   UNL A   1      31.456  28.181  23.574  1.00  0.00    -0.010 C 
ATOM     23  C   UNL A   1      30.067  28.782  23.477  1.00  0.00     0.004 C 
ATOM     24  C   UNL A   1      31.153  29.300  22.589  1.00  0.00     0.004 C 
ENDBRANCH  21  22
ENDBRANCH   7  21
ENDBRANCH   4   7
ENDBRANCH   2   3
ENDBRANCH   1   2
BRANCH   1  25
ATOM     25  C   UNL A   1      32.915  33.024  27.220  1.00  0.00     0.118 C 
BRANCH  25  26
ATOM     26  N   UNL A   1      32.742  34.235  28.023  1.00  0.00    -0.352 N 
ATOM     27  C   UNL A   1      33.437  34.697  29.111  1.00  0.00     0.251 C 
ATOM     28  H   UNL A   1      32.002  34.817  27.733  1.00  0.00     0.163 HD
ATOM     29  O   UNL A   1      33.063  35.726  29.670  1.00  0.00    -0.269 OA
BRANCH  27  30
ATOM     30  C   UNL A   1      34.590  33.940  29.636  1.00  0.00     0.039 A 
ATOM     31  C   UNL A   1      35.876  34.323  29.246  1.00  0.00     0.014 A 
ATOM     32  C   UNL A   1      34.415  32.891  30.537  1.00  0.00     0.014 A 
ATOM     33  C   UNL A   1      36.982  33.709  29.833  1.00  0.00     0.010 A 
ATOM     34  C   UNL A   1      35.510  32.375  31.213  1.00  0.00     0.010 A 
ATOM     35  C   UNL A   1      36.807  32.769  30.863  1.00  0.00    -0.014 A 
BRANCH  35  36
ATOM     36  C   UNL A   1      37.966  32.187  31.583  1.00  0.00     0.031 A 
ATOM     37  C   UNL A   1      38.391  32.757  32.911  1.00  0.00     0.074 A 
ATOM     38  C   UNL A   1      38.675  31.197  31.003  1.00  0.00     0.049 A 
ATOM     39  N   UNL A   1      39.405  32.418  33.664  1.00  0.00    -0.248 NA
ATOM     40  C   UNL A   1      37.601  33.881  33.447  1.00  0.00     0.031 C 
ATOM     41  C   UNL A   1      38.410  30.621  29.680  1.00  0.00     0.029 A 
ATOM     42  N   UNL A   1      39.768  30.500  31.451  1.00  0.00    -0.354 N 
ATOM     43  C   UNL A   1      39.392  33.302  34.735  1.00  0.00     0.074 A 
ATOM     44  C   UNL A   1      38.308  34.229  34.511  1.00  0.00     0.031 C 
ATOM     45  C   UNL A   1      39.287  29.633  29.444  1.00  0.00     0.029 A 
ATOM     46  C   UNL A   1      40.200  29.530  30.576  1.00  0.00     0.049 A 
ATOM     47  H   UNL A   1      40.203  30.677  32.316  1.00  0.00     0.167 HD
ATOM     48  C   UNL A   1      40.194  33.322  35.825  1.00  0.00     0.031 A 
ATOM     49  C   UNL A   1      41.217  28.653  30.677  1.00  0.00     0.031 A 
ATOM     50  C   UNL A   1      41.239  32.364  36.066  1.00  0.00     0.049 A 
ATOM     51  C   UNL A   1      42.054  28.659  31.927  1.00  0.00     0.074 A 
ATOM     52  C   UNL A   1      42.047  32.237  37.180  1.00  0.00     0.029 A 
ATOM     53  N   UNL A   1      41.612  31.366  35.180  1.00  0.00    -0.354 N 
ATOM     54  N   UNL A   1      41.965  29.446  32.974  1.00  0.00    -0.248 NA
ATOM     55  C   UNL A   1      43.116  27.648  32.018  1.00  0.00     0.031 C 
ATOM     56  C   UNL A   1      42.943  31.188  36.949  1.00  0.00     0.029 A 
ATOM     57  C   UNL A   1      42.655  30.630  35.714  1.00  0.00     0.049 A 
ATOM     58  H   UNL A   1      41.198  31.204  34.301  1.00  0.00     0.167 HD
ATOM     59  C   UNL A   1      42.947  29.010  33.856  1.00  0.00     0.074 A 
ATOM     60  C   UNL A   1      43.597  27.876  33.231  1.00  0.00     0.031 C 
ATOM     61  C   UNL A   1      43.287  29.506  35.071  1.00  0.00     0.031 A 
BRANCH  48  62
ATOM     62  C   UNL A   1      39.963  34.401  36.851  1.00  0.00    -0.014 A 
ATOM     63  C   UNL A   1      39.058  34.214  37.911  1.00  0.00     0.010 A 
ATOM     64  C   UNL A   1      40.708  35.593  36.788  1.00  0.00     0.010 A 
ATOM     65  C   UNL A   1      38.882  35.210  38.875  1.00  0.00     0.020 A 
ATOM     66  C   UNL A   1      40.556  36.579  37.767  1.00  0.00     0.020 A 
ATOM     67  C   UNL A   1      39.635  36.385  38.799  1.00  0.00     0.054 A 
BRANCH  67  68
ATOM     68  S   UNL A   1      39.429  37.634  40.098  1.00  0.00     0.124 S 
ATOM     69  O   UNL A   1      39.572  36.832  41.311  1.00  0.00    -0.237 OA
ATOM     70  O   UNL A   1      40.525  38.561  39.826  1.00  0.00    -0.237 OA
ATOM     71  O   UNL A   1      38.092  38.167  39.858  1.00  0.00    -0.744 OA
ENDBRANCH  67  68
ENDBRANCH  48  62
BRANCH  49  72
ATOM     72  C   UNL A   1      41.490  27.687  29.576  1.00  0.00    -0.014 A 
ATOM     73  C   UNL A   1      42.663  27.789  28.809  1.00  0.00     0.010 A 
ATOM     74  C   UNL A   1      40.572  26.662  29.287  1.00  0.00     0.010 A 
ATOM     75  C   UNL A   1      42.897  26.907  27.750  1.00  0.00     0.020 A 
ATOM     76  C   UNL A   1      40.816  25.759  28.249  1.00  0.00     0.020 A 
ATOM     77  C   UNL A   1      41.969  25.899  27.474  1.00  0.00     0.054 A 
BRANCH  77  78
ATOM     78  S   UNL A   1      42.304  24.747  26.113  1.00  0.00     0.124 S 
ATOM     79  O   UNL A   1      43.699  24.391  26.352  1.00  0.00    -0.237 OA
ATOM     80  O   UNL A   1      41.329  23.685  26.348  1.00  0.00    -0.237 OA
ATOM     81  O   UNL A   1      42.059  25.552  24.918  1.00  0.00    -0.744 OA
ENDBRANCH  77  78
ENDBRANCH  49  72
BRANCH  61  82
ATOM     82  C   UNL A   1      44.391  28.806  35.813  1.00  0.00    -0.014 A 
ATOM     83  C   UNL A   1      45.726  29.230  35.697  1.00  0.00     0.010 A 
ATOM     84  C   UNL A   1      44.082  27.729  36.664  1.00  0.00     0.010 A 
ATOM     85  C   UNL A   1      46.740  28.561  36.384  1.00  0.00     0.020 A 
ATOM     86  C   UNL A   1      45.089  27.077  37.377  1.00  0.00     0.020 A 
ATOM     87  C   UNL A   1      46.415  27.484  37.217  1.00  0.00     0.054 A 
BRANCH  87  88
ATOM     88  S   UNL A   1      47.746  26.642  38.115  1.00  0.00     0.124 S 
ATOM     89  O   UNL A   1      48.433  27.760  38.755  1.00  0.00    -0.237 OA
ATOM     90  O   UNL A   1      47.015  25.754  39.016  1.00  0.00    -0.237 OA
ATOM     91  O   UNL A   1      48.501  25.967  37.061  1.00  0.00    -0.744 OA
ENDBRANCH  87  88
ENDBRANCH  61  82
ENDBRANCH  35  36
ENDBRANCH  27  30
ENDBRANCH  25  26
ENDBRANCH   1  25
TORSDOF 16
ENDMDL
MODEL 2
REMARK VINA RESULT:     -10.8      3.770      9.514
REMARK SMILES Cc1cnc(C)c(N2CCC[C@@](CC3CC3)(C(=O)NCCCNC(=O)c3ccc(-c4c5nc(c(-c6ccc(S(=O)(=O)[O-])cc6)c6ccc([nH]6)c(-c6ccc(S(=O)(=O)[O-])cc6)c6nc(c(-c7ccc(S(=O)(=O)[O-])cc7)c7ccc4[nH]7)C=C6)C=C5)cc3)C2)n1
REMARK SMILES IDX 21 1 20 2 19 3 17 4 18 5 12 7 8 8 9 9 86 10 10 11 11 12 7 13
REMARK SMILES IDX 1 14 2 15 3 16 87 17 4 18 5 19 6 20 13 21 14 22 15 23 16 24
REMARK SMILES IDX 22 25 23 26 24 27 25 29 26 30 27 31 85 32 28 33 84 34 29 35
REMARK SMILES IDX 30 36 31 37 78 38 32 39 83 40 77 41 79 42 33 43 82 44 76 45
REMARK SMILES IDX 75 46 34 48 64 49 45 50 63 51 46 52 49 53 62 54 80 55 47 56
REMARK SMILES IDX 48 57 61 59 81 60 50 61 35 62 36 63 44 64 37 65 43 66 38 67
REMARK SMILES IDX 39 68 40 69 41 70 42 71 65 72 66 73 74 74 67 75 73 76 68 77
REMARK SMILES IDX 69 78 70 79 71 80 72 81 51 82 52 83 60 84 53 85 59 86 54 87
REMARK SMILES IDX 55 88 56 89 57 90 58 91
REMARK H PARENT 19 6 23 28 79 47 49 58
REMARK Flexibility Score: inf
ROOT
ATOM      1  C   UNL A   1      36.699  23.620  23.791  1.00  0.00     0.042 C 
ENDROOT
BRANCH   1   2
ATOM      2  C   UNL A   1      35.387  23.097  23.250  1.00  0.00     0.117 C 
BRANCH   2   3
ATOM      3  N   UNL A   1      34.445  22.651  24.228  1.00  0.00    -0.355 N 
ATOM      4  C   UNL A   1      33.102  22.882  24.211  1.00  0.00     0.228 C 
ATOM      5  O   UNL A   1      32.417  22.048  24.811  1.00  0.00    -0.274 OA
ATOM      6  H   UNL A   1      34.799  22.128  24.983  1.00  0.00     0.163 HD
BRANCH   4   7
ATOM      7  C   UNL A   1      32.472  24.112  23.481  1.00  0.00     0.067 C 
ATOM      8  N   UNL A   1      32.905  26.540  23.436  1.00  0.00    -0.354 N 
ATOM      9  C   UNL A   1      33.419  26.615  22.080  1.00  0.00     0.118 C 
ATOM     10  C   UNL A   1      33.235  25.311  24.153  1.00  0.00     0.135 C 
ATOM     11  C   UNL A   1      32.757  25.492  21.283  1.00  0.00     0.023 C 
ATOM     12  C   UNL A   1      32.867  24.127  21.978  1.00  0.00     0.020 C 
BRANCH   8  13
ATOM     13  C   UNL A   1      32.860  27.698  24.192  1.00  0.00     0.150 A 
ATOM     14  C   UNL A   1      34.615  29.105  27.102  1.00  0.00     0.068 C 
ATOM     15  C   UNL A   1      33.632  28.934  25.989  1.00  0.00     0.058 A 
ATOM     16  C   UNL A   1      32.596  29.838  25.816  1.00  0.00     0.135 A 
ATOM     17  N   UNL A   1      33.772  27.857  25.180  1.00  0.00    -0.233 NA
ATOM     18  N   UNL A   1      31.678  29.721  24.835  1.00  0.00    -0.256 NA
ATOM     19  C   UNL A   1      31.822  28.637  24.022  1.00  0.00     0.080 A 
ATOM     20  C   UNL A   1      30.705  28.414  23.045  1.00  0.00     0.071 C 
ENDBRANCH   8  13
BRANCH   7  21
ATOM     21  C   UNL A   1      30.963  24.288  23.867  1.00  0.00     0.022 C 
BRANCH  21  22
ATOM     22  C   UNL A   1      30.415  24.610  25.246  1.00  0.00    -0.010 C 
ATOM     23  C   UNL A   1      30.780  25.613  26.323  1.00  0.00     0.004 C 
ATOM     24  C   UNL A   1      29.682  25.938  25.359  1.00  0.00     0.004 C 
ENDBRANCH  21  22
ENDBRANCH   7  21
ENDBRANCH   4   7
ENDBRANCH   2   3
ENDBRANCH   1   2
BRANCH   1  25
ATOM     25  C   UNL A   1      36.870  23.345  25.274  1.00  0.00     0.118 C 
BRANCH  25  26
ATOM     26  N   UNL A   1      38.021  22.496  25.584  1.00  0.00    -0.352 N 
ATOM     27  C   UNL A   1      39.188  22.775  26.248  1.00  0.00     0.251 C 
ATOM     28  H   UNL A   1      37.945  21.569  25.261  1.00  0.00     0.163 HD
ATOM     29  O   UNL A   1      40.053  21.906  26.333  1.00  0.00    -0.269 OA
BRANCH  27  30
ATOM     30  C   UNL A   1      39.423  24.119  26.812  1.00  0.00     0.039 A 
ATOM     31  C   UNL A   1      39.021  24.375  28.125  1.00  0.00     0.014 A 
ATOM     32  C   UNL A   1      40.072  25.108  26.074  1.00  0.00     0.014 A 
ATOM     33  C   UNL A   1      39.353  25.591  28.720  1.00  0.00     0.010 A 
ATOM     34  C   UNL A   1      40.514  26.260  26.706  1.00  0.00     0.010 A 
ATOM     35  C   UNL A   1      40.151  26.521  28.034  1.00  0.00    -0.014 A 
BRANCH  35  36
ATOM     36  C   UNL A   1      40.615  27.771  28.684  1.00  0.00     0.031 A 
ATOM     37  C   UNL A   1      42.010  27.854  29.245  1.00  0.00     0.074 A 
ATOM     38  C   UNL A   1      39.754  28.798  28.832  1.00  0.00     0.049 A 
ATOM     39  N   UNL A   1      42.578  28.839  29.893  1.00  0.00    -0.248 NA
ATOM     40  C   UNL A   1      42.869  26.665  29.099  1.00  0.00     0.031 C 
ATOM     41  C   UNL A   1      38.350  28.801  28.404  1.00  0.00     0.029 A 
ATOM     42  N   UNL A   1      39.931  30.039  29.386  1.00  0.00    -0.354 N 
ATOM     43  C   UNL A   1      43.837  28.377  30.255  1.00  0.00     0.074 A 
ATOM     44  C   UNL A   1      43.934  27.006  29.809  1.00  0.00     0.031 C 
ATOM     45  C   UNL A   1      37.809  30.000  28.673  1.00  0.00     0.029 A 
ATOM     46  C   UNL A   1      38.810  30.835  29.326  1.00  0.00     0.049 A 
ATOM     47  H   UNL A   1      40.779  30.335  29.789  1.00  0.00     0.167 HD
ATOM     48  C   UNL A   1      44.836  29.043  30.878  1.00  0.00     0.031 A 
ATOM     49  C   UNL A   1      38.612  32.099  29.749  1.00  0.00     0.031 A 
ATOM     50  C   UNL A   1      44.750  30.423  31.274  1.00  0.00     0.049 A 
ATOM     51  C   UNL A   1      39.759  32.836  30.384  1.00  0.00     0.074 A 
ATOM     52  C   UNL A   1      45.735  31.221  31.826  1.00  0.00     0.029 A 
ATOM     53  N   UNL A   1      43.615  31.210  31.150  1.00  0.00    -0.354 N 
ATOM     54  N   UNL A   1      40.975  32.409  30.634  1.00  0.00    -0.248 NA
ATOM     55  C   UNL A   1      39.514  34.229  30.778  1.00  0.00     0.031 C 
ATOM     56  C   UNL A   1      45.181  32.480  32.080  1.00  0.00     0.029 A 
ATOM     57  C   UNL A   1      43.869  32.480  31.636  1.00  0.00     0.049 A 
ATOM     58  H   UNL A   1      42.757  30.909  30.773  1.00  0.00     0.167 HD
ATOM     59  C   UNL A   1      41.645  33.490  31.195  1.00  0.00     0.074 A 
ATOM     60  C   UNL A   1      40.708  34.594  31.222  1.00  0.00     0.031 C 
ATOM     61  C   UNL A   1      42.919  33.562  31.653  1.00  0.00     0.031 A 
BRANCH  48  62
ATOM     62  C   UNL A   1      46.115  28.298  31.155  1.00  0.00    -0.014 A 
ATOM     63  C   UNL A   1      46.282  27.556  32.339  1.00  0.00     0.010 A 
ATOM     64  C   UNL A   1      47.140  28.288  30.192  1.00  0.00     0.010 A 
ATOM     65  C   UNL A   1      47.460  26.841  32.565  1.00  0.00     0.020 A 
ATOM     66  C   UNL A   1      48.307  27.550  30.401  1.00  0.00     0.020 A 
ATOM     67  C   UNL A   1      48.465  26.838  31.593  1.00  0.00     0.054 A 
BRANCH  67  68
ATOM     68  S   UNL A   1      49.957  25.852  31.888  1.00  0.00     0.124 S 
ATOM     69  O   UNL A   1      50.066  25.092  30.644  1.00  0.00    -0.237 OA
ATOM     70  O   UNL A   1      50.980  26.874  32.089  1.00  0.00    -0.237 OA
ATOM     71  O   UNL A   1      49.625  25.064  33.071  1.00  0.00    -0.744 OA
ENDBRANCH  67  68
ENDBRANCH  48  62
BRANCH  49  72
ATOM     72  C   UNL A   1      37.285  32.752  29.570  1.00  0.00    -0.014 A 
ATOM     73  C   UNL A   1      36.887  33.235  28.311  1.00  0.00     0.010 A 
ATOM     74  C   UNL A   1      36.414  32.901  30.664  1.00  0.00     0.010 A 
ATOM     75  C   UNL A   1      35.659  33.885  28.156  1.00  0.00     0.020 A 
ATOM     76  C   UNL A   1      35.173  33.523  30.508  1.00  0.00     0.020 A 
ATOM     77  C   UNL A   1      34.810  34.028  29.257  1.00  0.00     0.054 A 
BRANCH  77  78
ATOM     78  S   UNL A   1      33.209  34.850  29.030  1.00  0.00     0.124 S 
ATOM     79  O   UNL A   1      33.613  36.179  28.580  1.00  0.00    -0.237 OA
ATOM     80  O   UNL A   1      32.561  34.011  28.026  1.00  0.00    -0.237 OA
ATOM     81  O   UNL A   1      32.607  34.796  30.361  1.00  0.00    -0.744 OA
ENDBRANCH  77  78
ENDBRANCH  49  72
BRANCH  61  82
ATOM     82  C   UNL A   1      43.377  34.887  32.196  1.00  0.00    -0.014 A 
ATOM     83  C   UNL A   1      43.205  35.215  33.552  1.00  0.00     0.010 A 
ATOM     84  C   UNL A   1      44.020  35.802  31.342  1.00  0.00     0.010 A 
ATOM     85  C   UNL A   1      43.627  36.455  34.036  1.00  0.00     0.020 A 
ATOM     86  C   UNL A   1      44.471  37.030  31.829  1.00  0.00     0.020 A 
ATOM     87  C   UNL A   1      44.254  37.357  33.169  1.00  0.00     0.054 A 
BRANCH  87  88
ATOM     88  S   UNL A   1      44.811  38.953  33.824  1.00  0.00     0.124 S 
ATOM     89  O   UNL A   1      43.622  39.421  34.531  1.00  0.00    -0.237 OA
ATOM     90  O   UNL A   1      45.940  38.577  34.671  1.00  0.00    -0.237 OA
ATOM     91  O   UNL A   1      45.164  39.714  32.627  1.00  0.00    -0.744 OA
ENDBRANCH  87  88
ENDBRANCH  61  82
ENDBRANCH  35  36
ENDBRANCH  27  30
ENDBRANCH  25  26
ENDBRANCH   1  25
TORSDOF 16
ENDMDL
MODEL 3
REMARK VINA RESULT:     -10.8      2.227      8.954
REMARK SMILES Cc1cnc(C)c(N2CCC[C@@](CC3CC3)(C(=O)NCCCNC(=O)c3ccc(-c4c5nc(c(-c6ccc(S(=O)(=O)[O-])cc6)c6ccc([nH]6)c(-c6ccc(S(=O)(=O)[O-])cc6)c6nc(c(-c7ccc(S(=O)(=O)[O-])cc7)c7ccc4[nH]7)C=C6)C=C5)cc3)C2)n1
REMARK SMILES IDX 21 1 20 2 19 3 17 4 18 5 12 7 8 8 9 9 86 10 10 11 11 12 7 13
REMARK SMILES IDX 1 14 2 15 3 16 87 17 4 18 5 19 6 20 13 21 14 22 15 23 16 24
REMARK SMILES IDX 22 25 23 26 24 27 25 29 26 30 27 31 85 32 28 33 84 34 29 35
REMARK SMILES IDX 30 36 31 37 78 38 32 39 83 40 77 41 79 42 33 43 82 44 76 45
REMARK SMILES IDX 75 46 34 48 64 49 45 50 63 51 46 52 49 53 62 54 80 55 47 56
REMARK SMILES IDX 48 57 61 59 81 60 50 61 35 62 36 63 44 64 37 65 43 66 38 67
REMARK SMILES IDX 39 68 40 69 41 70 42 71 65 72 66 73 74 74 67 75 73 76 68 77
REMARK SMILES IDX 69 78 70 79 71 80 72 81 51 82 52 83 60 84 53 85 59 86 54 87
REMARK SMILES IDX 55 88 56 89 57 90 58 91
REMARK H PARENT 19 6 23 28 79 47 49 58
REMARK Flexibility Score: inf
ROOT
ATOM      1  C   UNL A   1      37.711  24.190  26.209  1.00  0.00     0.042 C 
ENDROOT
BRANCH   1   2
ATOM      2  C   UNL A   1      36.746  23.102  25.790  1.00  0.00     0.117 C 
BRANCH   2   3
ATOM      3  N   UNL A   1      36.851  22.669  24.432  1.00  0.00    -0.355 N 
ATOM      4  C   UNL A   1      35.956  22.927  23.436  1.00  0.00     0.228 C 
ATOM      5  O   UNL A   1      36.425  22.920  22.294  1.00  0.00    -0.274 OA
ATOM      6  H   UNL A   1      37.643  22.134  24.193  1.00  0.00     0.163 HD
BRANCH   4   7
ATOM      7  C   UNL A   1      34.448  23.216  23.720  1.00  0.00     0.067 C 
ATOM      8  N   UNL A   1      33.114  25.217  24.269  1.00  0.00    -0.354 N 
ATOM      9  C   UNL A   1      32.395  25.316  23.013  1.00  0.00     0.118 C 
ATOM     10  C   UNL A   1      34.485  24.725  24.158  1.00  0.00     0.135 C 
ATOM     11  C   UNL A   1      32.271  23.900  22.450  1.00  0.00     0.023 C 
ATOM     12  C   UNL A   1      33.615  23.159  22.409  1.00  0.00     0.020 C 
BRANCH   8  13
ATOM     13  C   UNL A   1      32.883  26.175  25.241  1.00  0.00     0.150 A 
ATOM     14  C   UNL A   1      34.723  28.953  26.800  1.00  0.00     0.068 C 
ATOM     15  C   UNL A   1      33.655  27.947  26.513  1.00  0.00     0.058 A 
ATOM     16  C   UNL A   1      32.523  27.872  27.310  1.00  0.00     0.135 A 
ATOM     17  N   UNL A   1      33.845  27.100  25.474  1.00  0.00    -0.233 NA
ATOM     18  N   UNL A   1      31.539  26.975  27.100  1.00  0.00    -0.256 NA
ATOM     19  C   UNL A   1      31.731  26.125  26.053  1.00  0.00     0.080 A 
ATOM     20  C   UNL A   1      30.723  25.020  25.927  1.00  0.00     0.071 C 
ENDBRANCH   8  13
BRANCH   7  21
ATOM     21  C   UNL A   1      33.943  22.415  24.969  1.00  0.00     0.022 C 
BRANCH  21  22
ATOM     22  C   UNL A   1      32.876  21.335  24.979  1.00  0.00    -0.010 C 
ATOM     23  C   UNL A   1      32.719  19.994  24.288  1.00  0.00     0.004 C 
ATOM     24  C   UNL A   1      33.267  20.042  25.680  1.00  0.00     0.004 C 
ENDBRANCH  21  22
ENDBRANCH   7  21
ENDBRANCH   4   7
ENDBRANCH   2   3
ENDBRANCH   1   2
BRANCH   1  25
ATOM     25  C   UNL A   1      38.904  23.648  26.976  1.00  0.00     0.118 C 
BRANCH  25  26
ATOM     26  N   UNL A   1      40.189  23.939  26.341  1.00  0.00    -0.352 N 
ATOM     27  C   UNL A   1      41.054  24.991  26.508  1.00  0.00     0.251 C 
ATOM     28  H   UNL A   1      40.484  23.268  25.683  1.00  0.00     0.163 HD
ATOM     29  O   UNL A   1      42.061  25.057  25.807  1.00  0.00    -0.269 OA
BRANCH  27  30
ATOM     30  C   UNL A   1      40.753  26.056  27.484  1.00  0.00     0.039 A 
ATOM     31  C   UNL A   1      39.811  25.802  28.485  1.00  0.00     0.014 A 
ATOM     32  C   UNL A   1      41.420  27.280  27.446  1.00  0.00     0.014 A 
ATOM     33  C   UNL A   1      39.611  26.743  29.494  1.00  0.00     0.010 A 
ATOM     34  C   UNL A   1      41.315  28.154  28.517  1.00  0.00     0.010 A 
ATOM     35  C   UNL A   1      40.403  27.902  29.549  1.00  0.00    -0.014 A 
BRANCH  35  36
ATOM     36  C   UNL A   1      40.290  28.862  30.674  1.00  0.00     0.031 A 
ATOM     37  C   UNL A   1      41.158  28.697  31.894  1.00  0.00     0.074 A 
ATOM     38  C   UNL A   1      39.356  29.834  30.623  1.00  0.00     0.049 A 
ATOM     39  N   UNL A   1      41.168  29.402  32.996  1.00  0.00    -0.248 NA
ATOM     40  C   UNL A   1      42.110  27.572  31.898  1.00  0.00     0.031 C 
ATOM     41  C   UNL A   1      38.399  30.040  29.529  1.00  0.00     0.029 A 
ATOM     42  N   UNL A   1      39.053  30.830  31.514  1.00  0.00    -0.354 N 
ATOM     43  C   UNL A   1      42.096  28.788  33.828  1.00  0.00     0.074 A 
ATOM     44  C   UNL A   1      42.588  27.622  33.132  1.00  0.00     0.031 C 
ATOM     45  C   UNL A   1      37.649  31.120  29.796  1.00  0.00     0.029 A 
ATOM     46  C   UNL A   1      38.040  31.660  31.093  1.00  0.00     0.049 A 
ATOM     47  H   UNL A   1      39.517  30.943  32.375  1.00  0.00     0.167 HD
ATOM     48  C   UNL A   1      42.523  29.177  35.052  1.00  0.00     0.031 A 
ATOM     49  C   UNL A   1      37.489  32.737  31.684  1.00  0.00     0.031 A 
ATOM     50  C   UNL A   1      42.065  30.367  35.716  1.00  0.00     0.049 A 
ATOM     51  C   UNL A   1      38.025  33.181  33.018  1.00  0.00     0.074 A 
ATOM     52  C   UNL A   1      42.500  30.904  36.914  1.00  0.00     0.029 A 
ATOM     53  N   UNL A   1      41.074  31.209  35.234  1.00  0.00    -0.354 N 
ATOM     54  N   UNL A   1      38.971  32.638  33.748  1.00  0.00    -0.248 NA
ATOM     55  C   UNL A   1      37.432  34.393  33.599  1.00  0.00     0.031 C 
ATOM     56  C   UNL A   1      41.739  32.047  37.179  1.00  0.00     0.029 A 
ATOM     57  C   UNL A   1      40.869  32.250  36.121  1.00  0.00     0.049 A 
ATOM     58  H   UNL A   1      40.589  31.083  34.386  1.00  0.00     0.167 HD
ATOM     59  C   UNL A   1      39.100  33.455  34.864  1.00  0.00     0.074 A 
ATOM     60  C   UNL A   1      38.156  34.542  34.699  1.00  0.00     0.031 C 
ATOM     61  C   UNL A   1      39.921  33.319  35.934  1.00  0.00     0.031 A 
BRANCH  48  62
ATOM     62  C   UNL A   1      43.549  28.320  35.746  1.00  0.00    -0.014 A 
ATOM     63  C   UNL A   1      43.162  27.263  36.590  1.00  0.00     0.010 A 
ATOM     64  C   UNL A   1      44.917  28.535  35.501  1.00  0.00     0.010 A 
ATOM     65  C   UNL A   1      44.125  26.455  37.198  1.00  0.00     0.020 A 
ATOM     66  C   UNL A   1      45.883  27.709  36.083  1.00  0.00     0.020 A 
ATOM     67  C   UNL A   1      45.480  26.680  36.938  1.00  0.00     0.054 A 
BRANCH  67  68
ATOM     68  S   UNL A   1      46.704  25.576  37.693  1.00  0.00     0.124 S 
ATOM     69  O   UNL A   1      47.943  26.326  37.502  1.00  0.00    -0.237 OA
ATOM     70  O   UNL A   1      46.237  25.478  39.073  1.00  0.00    -0.237 OA
ATOM     71  O   UNL A   1      46.594  24.348  36.912  1.00  0.00    -0.744 OA
ENDBRANCH  67  68
ENDBRANCH  48  62
BRANCH  49  72
ATOM     72  C   UNL A   1      36.383  33.478  31.017  1.00  0.00    -0.014 A 
ATOM     73  C   UNL A   1      35.146  33.653  31.662  1.00  0.00     0.010 A 
ATOM     74  C   UNL A   1      36.560  34.010  29.727  1.00  0.00     0.010 A 
ATOM     75  C   UNL A   1      34.096  34.314  31.017  1.00  0.00     0.020 A 
ATOM     76  C   UNL A   1      35.524  34.697  29.090  1.00  0.00     0.020 A 
ATOM     77  C   UNL A   1      34.291  34.829  29.732  1.00  0.00     0.054 A 
BRANCH  77  78
ATOM     78  S   UNL A   1      32.925  35.706  28.922  1.00  0.00     0.124 S 
ATOM     79  O   UNL A   1      32.101  36.100  30.060  1.00  0.00    -0.237 OA
ATOM     80  O   UNL A   1      33.612  36.794  28.230  1.00  0.00    -0.237 OA
ATOM     81  O   UNL A   1      32.341  34.692  28.047  1.00  0.00    -0.744 OA
ENDBRANCH  77  78
ENDBRANCH  49  72
BRANCH  61  82
ATOM     82  C   UNL A   1      39.851  34.384  36.993  1.00  0.00    -0.014 A 
ATOM     83  C   UNL A   1      39.051  34.220  38.137  1.00  0.00     0.010 A 
ATOM     84  C   UNL A   1      40.624  35.551  36.855  1.00  0.00     0.010 A 
ATOM     85  C   UNL A   1      38.990  35.224  39.104  1.00  0.00     0.020 A 
ATOM     86  C   UNL A   1      40.589  36.545  37.834  1.00  0.00     0.020 A 
ATOM     87  C   UNL A   1      39.756  36.384  38.944  1.00  0.00     0.054 A 
BRANCH  87  88
ATOM     88  S   UNL A   1      39.676  37.667  40.222  1.00  0.00     0.124 S 
ATOM     89  O   UNL A   1      39.141  36.927  41.361  1.00  0.00    -0.237 OA
ATOM     90  O   UNL A   1      41.070  38.088  40.343  1.00  0.00    -0.237 OA
ATOM     91  O   UNL A   1      38.777  38.668  39.651  1.00  0.00    -0.744 OA
ENDBRANCH  87  88
ENDBRANCH  61  82
ENDBRANCH  35  36
ENDBRANCH  27  30
ENDBRANCH  25  26
ENDBRANCH   1  25
TORSDOF 16
ENDMDL
