MODEL 1
REMARK VINA RESULT:     -12.2      0.000      0.000
REMARK SMILES Cc1ccc(S(=O)(=O)N2C[C@@H](CC(=O)NCCCNC(=O)c3ccc(-c4c5nc(c(-c6ccc(S(=O)(=O)[O-])cc6)c6ccc([nH]6)c(-c6ccc(S(=O)(=O)[O-])cc6)c6nc(c(-c7ccc(S(=O)(=O)[O-])cc7)c7ccc4[nH]7)C=C6)C=C5)cc3)c3ccccc32)c(C)c1
REMARK SMILES IDX 17 1 16 2 15 3 13 4 14 5 12 7 11 8 9 9 10 10 87 11 82 12
REMARK SMILES IDX 86 13 83 14 85 15 84 16 6 17 7 18 8 19 5 20 1 21 2 22 3 23
REMARK SMILES IDX 90 24 4 25 88 26 89 27 18 28 19 29 20 30 21 32 22 33 23 34
REMARK SMILES IDX 81 35 24 36 80 37 25 38 26 39 27 40 74 41 28 42 79 43 73 44
REMARK SMILES IDX 75 45 29 46 78 47 72 48 71 49 30 51 60 52 41 53 59 54 42 55
REMARK SMILES IDX 45 56 58 57 76 58 43 59 44 60 57 62 77 63 46 64 31 65 32 66
REMARK SMILES IDX 40 67 33 68 39 69 34 70 35 71 36 72 37 73 38 74 61 75 62 76
REMARK SMILES IDX 70 77 63 78 69 79 64 80 65 81 66 82 67 83 68 84 47 85 48 86
REMARK SMILES IDX 56 87 49 88 55 89 50 90 51 91 52 92 53 93 54 94
REMARK H PARENT 15 6 19 31 75 50 45 61
REMARK Flexibility Score: inf
ROOT
ATOM      1  C   UNL A   1      38.321  23.501  26.424  1.00  0.00     0.042 C 
ENDROOT
BRANCH   1   2
ATOM      2  C   UNL A   1      37.692  22.259  25.803  1.00  0.00     0.117 C 
BRANCH   2   3
ATOM      3  N   UNL A   1      37.426  22.471  24.385  1.00  0.00    -0.356 N 
ATOM      4  C   UNL A   1      36.380  23.097  23.773  1.00  0.00     0.220 C 
ATOM      5  O   UNL A   1      36.237  22.947  22.559  1.00  0.00    -0.275 OA
ATOM      6  H   UNL A   1      38.105  22.104  23.774  1.00  0.00     0.163 HD
BRANCH   4   7
ATOM      7  C   UNL A   1      35.466  24.020  24.550  1.00  0.00     0.110 C 
BRANCH   7   8
ATOM      8  C   UNL A   1      34.096  24.243  23.887  1.00  0.00     0.051 C 
ATOM      9  N   UNL A   1      32.872  25.718  25.385  1.00  0.00    -0.265 N 
ATOM     10  C   UNL A   1      33.657  25.709  24.097  1.00  0.00     0.144 C 
ATOM     11  C   UNL A   1      32.349  24.383  25.517  1.00  0.00     0.055 A 
ATOM     12  C   UNL A   1      32.969  23.540  24.592  1.00  0.00    -0.018 A 
ATOM     13  C   UNL A   1      31.424  23.889  26.422  1.00  0.00     0.027 A 
ATOM     14  C   UNL A   1      32.530  22.238  24.420  1.00  0.00     0.006 A 
ATOM     15  C   UNL A   1      31.041  22.550  26.316  1.00  0.00     0.002 A 
ATOM     16  C   UNL A   1      31.562  21.740  25.299  1.00  0.00     0.000 A 
BRANCH   9  17
ATOM     17  S   UNL A   1      31.745  27.012  25.463  1.00  0.00     0.264 S 
ATOM     18  O   UNL A   1      30.704  26.627  26.389  1.00  0.00    -0.201 OA
ATOM     19  O   UNL A   1      31.431  27.387  24.094  1.00  0.00    -0.201 OA
BRANCH  17  20
ATOM     20  C   UNL A   1      32.647  28.397  26.140  1.00  0.00     0.090 A 
ATOM     21  C   UNL A   1      34.967  31.648  27.759  1.00  0.00     0.044 C 
ATOM     22  C   UNL A   1      34.159  30.508  27.214  1.00  0.00    -0.051 A 
ATOM     23  C   UNL A   1      34.579  29.189  27.385  1.00  0.00     0.005 A 
ATOM     24  C   UNL A   1      32.989  30.763  26.486  1.00  0.00     0.008 A 
ATOM     25  C   UNL A   1      33.836  28.142  26.842  1.00  0.00     0.023 A 
ATOM     26  C   UNL A   1      32.212  29.721  25.941  1.00  0.00    -0.030 A 
ATOM     27  C   UNL A   1      31.019  30.125  25.119  1.00  0.00     0.046 C 
ENDBRANCH  17  20
ENDBRANCH   9  17
ENDBRANCH   7   8
ENDBRANCH   4   7
ENDBRANCH   2   3
ENDBRANCH   1   2
BRANCH   1  28
ATOM     28  C   UNL A   1      39.756  23.326  26.902  1.00  0.00     0.118 C 
BRANCH  28  29
ATOM     29  N   UNL A   1      40.696  23.998  26.027  1.00  0.00    -0.352 N 
ATOM     30  C   UNL A   1      41.249  25.255  26.074  1.00  0.00     0.251 C 
ATOM     31  H   UNL A   1      40.991  23.456  25.260  1.00  0.00     0.163 HD
ATOM     32  O   UNL A   1      41.792  25.669  25.049  1.00  0.00    -0.269 OA
BRANCH  30  33
ATOM     33  C   UNL A   1      41.222  26.129  27.283  1.00  0.00     0.039 A 
ATOM     34  C   UNL A   1      40.248  25.860  28.256  1.00  0.00     0.014 A 
ATOM     35  C   UNL A   1      42.016  27.268  27.437  1.00  0.00     0.014 A 
ATOM     36  C   UNL A   1      40.078  26.710  29.357  1.00  0.00     0.010 A 
ATOM     37  C   UNL A   1      41.909  28.066  28.586  1.00  0.00     0.010 A 
ATOM     38  C   UNL A   1      40.916  27.819  29.545  1.00  0.00    -0.014 A 
BRANCH  38  39
ATOM     39  C   UNL A   1      40.725  28.740  30.707  1.00  0.00     0.031 A 
ATOM     40  C   UNL A   1      41.596  28.623  31.938  1.00  0.00     0.074 A 
ATOM     41  C   UNL A   1      39.761  29.682  30.670  1.00  0.00     0.049 A 
ATOM     42  N   UNL A   1      41.571  29.333  33.039  1.00  0.00    -0.248 NA
ATOM     43  C   UNL A   1      42.614  27.559  31.940  1.00  0.00     0.031 C 
ATOM     44  C   UNL A   1      38.834  29.902  29.558  1.00  0.00     0.029 A 
ATOM     45  N   UNL A   1      39.402  30.638  31.591  1.00  0.00    -0.354 N 
ATOM     46  C   UNL A   1      42.549  28.791  33.869  1.00  0.00     0.074 A 
ATOM     47  C   UNL A   1      43.117  27.664  33.162  1.00  0.00     0.031 C 
ATOM     48  C   UNL A   1      38.042  30.947  29.843  1.00  0.00     0.029 A 
ATOM     49  C   UNL A   1      38.367  31.445  31.176  1.00  0.00     0.049 A 
ATOM     50  H   UNL A   1      39.844  30.735  32.465  1.00  0.00     0.167 HD
ATOM     51  C   UNL A   1      42.953  29.198  35.097  1.00  0.00     0.031 A 
ATOM     52  C   UNL A   1      37.742  32.468  31.795  1.00  0.00     0.031 A 
ATOM     53  C   UNL A   1      42.400  30.328  35.800  1.00  0.00     0.049 A 
ATOM     54  C   UNL A   1      38.191  32.885  33.170  1.00  0.00     0.074 A 
ATOM     55  C   UNL A   1      42.785  30.853  37.022  1.00  0.00     0.029 A 
ATOM     56  N   UNL A   1      41.341  31.103  35.351  1.00  0.00    -0.354 N 
ATOM     57  N   UNL A   1      39.162  32.399  33.905  1.00  0.00    -0.248 NA
ATOM     58  C   UNL A   1      37.464  34.001  33.794  1.00  0.00     0.031 C 
ATOM     59  C   UNL A   1      41.917  31.901  37.342  1.00  0.00     0.029 A 
ATOM     60  C   UNL A   1      41.038  32.078  36.287  1.00  0.00     0.049 A 
ATOM     61  H   UNL A   1      40.874  30.978  34.493  1.00  0.00     0.167 HD
ATOM     62  C   UNL A   1      39.181  33.169  35.064  1.00  0.00     0.074 A 
ATOM     63  C   UNL A   1      38.138  34.163  34.924  1.00  0.00     0.031 C 
ATOM     64  C   UNL A   1      39.995  33.063  36.144  1.00  0.00     0.031 A 
BRANCH  51  65
ATOM     65  C   UNL A   1      44.041  28.403  35.780  1.00  0.00    -0.014 A 
ATOM     66  C   UNL A   1      43.740  27.306  36.608  1.00  0.00     0.010 A 
ATOM     67  C   UNL A   1      45.390  28.732  35.552  1.00  0.00     0.010 A 
ATOM     68  C   UNL A   1      44.763  26.587  37.233  1.00  0.00     0.020 A 
ATOM     69  C   UNL A   1      46.418  27.995  36.149  1.00  0.00     0.020 A 
ATOM     70  C   UNL A   1      46.097  26.938  37.001  1.00  0.00     0.054 A 
BRANCH  70  71
ATOM     71  S   UNL A   1      47.403  25.979  37.818  1.00  0.00     0.124 S 
ATOM     72  O   UNL A   1      46.661  25.300  38.877  1.00  0.00    -0.237 OA
ATOM     73  O   UNL A   1      47.888  25.119  36.741  1.00  0.00    -0.237 OA
ATOM     74  O   UNL A   1      48.347  26.996  38.274  1.00  0.00    -0.744 OA
ENDBRANCH  70  71
ENDBRANCH  51  65
BRANCH  52  75
ATOM     75  C   UNL A   1      36.629  33.184  31.110  1.00  0.00    -0.014 A 
ATOM     76  C   UNL A   1      35.298  32.998  31.522  1.00  0.00     0.010 A 
ATOM     77  C   UNL A   1      36.895  34.062  30.042  1.00  0.00     0.010 A 
ATOM     78  C   UNL A   1      34.253  33.659  30.871  1.00  0.00     0.020 A 
ATOM     79  C   UNL A   1      35.856  34.750  29.409  1.00  0.00     0.020 A 
ATOM     80  C   UNL A   1      34.540  34.536  29.821  1.00  0.00     0.054 A 
BRANCH  80  81
ATOM     81  S   UNL A   1      33.171  35.423  29.026  1.00  0.00     0.124 S 
ATOM     82  O   UNL A   1      32.539  34.367  28.241  1.00  0.00    -0.237 OA
ATOM     83  O   UNL A   1      32.405  35.907  30.171  1.00  0.00    -0.237 OA
ATOM     84  O   UNL A   1      33.842  36.464  28.251  1.00  0.00    -0.744 OA
ENDBRANCH  80  81
ENDBRANCH  52  75
BRANCH  64  85
ATOM     85  C   UNL A   1      39.819  34.072  37.251  1.00  0.00    -0.014 A 
ATOM     86  C   UNL A   1      40.370  35.363  37.163  1.00  0.00     0.010 A 
ATOM     87  C   UNL A   1      39.052  33.734  38.381  1.00  0.00     0.010 A 
ATOM     88  C   UNL A   1      40.189  36.282  38.202  1.00  0.00     0.020 A 
ATOM     89  C   UNL A   1      38.841  34.660  39.406  1.00  0.00     0.020 A 
ATOM     90  C   UNL A   1      39.426  35.924  39.317  1.00  0.00     0.054 A 
BRANCH  90  91
ATOM     91  S   UNL A   1      39.178  37.145  40.635  1.00  0.00     0.124 S 
ATOM     92  O   UNL A   1      38.292  38.112  39.992  1.00  0.00    -0.237 OA
ATOM     93  O   UNL A   1      38.572  36.348  41.699  1.00  0.00    -0.237 OA
ATOM     94  O   UNL A   1      40.527  37.630  40.919  1.00  0.00    -0.744 OA
ENDBRANCH  90  91
ENDBRANCH  64  85
ENDBRANCH  38  39
ENDBRANCH  30  33
ENDBRANCH  28  29
ENDBRANCH   1  28
TORSDOF 16
ENDMDL
MODEL 2
REMARK VINA RESULT:     -12.1      6.291     11.624
REMARK SMILES Cc1ccc(S(=O)(=O)N2C[C@@H](CC(=O)NCCCNC(=O)c3ccc(-c4c5nc(c(-c6ccc(S(=O)(=O)[O-])cc6)c6ccc([nH]6)c(-c6ccc(S(=O)(=O)[O-])cc6)c6nc(c(-c7ccc(S(=O)(=O)[O-])cc7)c7ccc4[nH]7)C=C6)C=C5)cc3)c3ccccc32)c(C)c1
REMARK SMILES IDX 17 1 16 2 15 3 13 4 14 5 12 7 11 8 9 9 10 10 87 11 82 12
REMARK SMILES IDX 86 13 83 14 85 15 84 16 6 17 7 18 8 19 5 20 1 21 2 22 3 23
REMARK SMILES IDX 90 24 4 25 88 26 89 27 18 28 19 29 20 30 21 32 22 33 23 34
REMARK SMILES IDX 81 35 24 36 80 37 25 38 26 39 27 40 74 41 28 42 79 43 73 44
REMARK SMILES IDX 75 45 29 46 78 47 72 48 71 49 30 51 60 52 41 53 59 54 42 55
REMARK SMILES IDX 45 56 58 57 76 58 43 59 44 60 57 62 77 63 46 64 31 65 32 66
REMARK SMILES IDX 40 67 33 68 39 69 34 70 35 71 36 72 37 73 38 74 61 75 62 76
REMARK SMILES IDX 70 77 63 78 69 79 64 80 65 81 66 82 67 83 68 84 47 85 48 86
REMARK SMILES IDX 56 87 49 88 55 89 50 90 51 91 52 92 53 93 54 94
REMARK H PARENT 15 6 19 31 75 50 45 61
REMARK Flexibility Score: inf
ROOT
ATOM      1  C   UNL A   1      35.013  30.230  27.463  1.00  0.00     0.042 C 
ENDROOT
BRANCH   1   2
ATOM      2  C   UNL A   1      33.584  30.478  26.993  1.00  0.00     0.117 C 
BRANCH   2   3
ATOM      3  N   UNL A   1      32.649  29.624  27.718  1.00  0.00    -0.356 N 
ATOM      4  C   UNL A   1      31.969  28.518  27.303  1.00  0.00     0.220 C 
ATOM      5  O   UNL A   1      31.050  28.097  28.007  1.00  0.00    -0.275 OA
ATOM      6  H   UNL A   1      32.482  29.889  28.652  1.00  0.00     0.163 HD
BRANCH   4   7
ATOM      7  C   UNL A   1      32.385  27.774  26.052  1.00  0.00     0.110 C 
BRANCH   7   8
ATOM      8  C   UNL A   1      31.348  26.750  25.562  1.00  0.00     0.051 C 
ATOM      9  N   UNL A   1      32.457  24.587  25.669  1.00  0.00    -0.265 N 
ATOM     10  C   UNL A   1      31.466  25.459  26.401  1.00  0.00     0.144 C 
ATOM     11  C   UNL A   1      32.379  25.003  24.293  1.00  0.00     0.055 A 
ATOM     12  C   UNL A   1      31.656  26.193  24.199  1.00  0.00    -0.018 A 
ATOM     13  C   UNL A   1      32.945  24.424  23.169  1.00  0.00     0.027 A 
ATOM     14  C   UNL A   1      31.314  26.716  22.963  1.00  0.00     0.006 A 
ATOM     15  C   UNL A   1      32.682  24.998  21.922  1.00  0.00     0.002 A 
ATOM     16  C   UNL A   1      31.842  26.113  21.816  1.00  0.00     0.000 A 
BRANCH   9  17
ATOM     17  S   UNL A   1      32.236  22.916  25.997  1.00  0.00     0.264 S 
ATOM     18  O   UNL A   1      31.242  22.420  25.072  1.00  0.00    -0.201 OA
ATOM     19  O   UNL A   1      32.058  22.783  27.434  1.00  0.00    -0.201 OA
BRANCH  17  20
ATOM     20  C   UNL A   1      33.805  22.143  25.639  1.00  0.00     0.090 A 
ATOM     21  C   UNL A   1      37.665  20.378  24.892  1.00  0.00     0.044 C 
ATOM     22  C   UNL A   1      36.327  21.007  25.139  1.00  0.00    -0.051 A 
ATOM     23  C   UNL A   1      36.229  22.328  25.575  1.00  0.00     0.005 A 
ATOM     24  C   UNL A   1      35.156  20.254  24.975  1.00  0.00     0.008 A 
ATOM     25  C   UNL A   1      34.979  22.889  25.835  1.00  0.00     0.023 A 
ATOM     26  C   UNL A   1      33.880  20.802  25.215  1.00  0.00    -0.030 A 
ATOM     27  C   UNL A   1      32.707  19.873  25.074  1.00  0.00     0.046 C 
ENDBRANCH  17  20
ENDBRANCH   9  17
ENDBRANCH   7   8
ENDBRANCH   4   7
ENDBRANCH   2   3
ENDBRANCH   1   2
BRANCH   1  28
ATOM     28  C   UNL A   1      35.602  31.329  28.337  1.00  0.00     0.118 C 
BRANCH  28  29
ATOM     29  N   UNL A   1      35.662  30.930  29.729  1.00  0.00    -0.352 N 
ATOM     30  C   UNL A   1      36.532  30.111  30.408  1.00  0.00     0.251 C 
ATOM     31  H   UNL A   1      34.951  31.315  30.289  1.00  0.00     0.163 HD
ATOM     32  O   UNL A   1      36.180  29.716  31.521  1.00  0.00    -0.269 OA
BRANCH  30  33
ATOM     33  C   UNL A   1      37.856  29.679  29.871  1.00  0.00     0.039 A 
ATOM     34  C   UNL A   1      38.849  29.333  30.799  1.00  0.00     0.014 A 
ATOM     35  C   UNL A   1      38.200  29.727  28.518  1.00  0.00     0.014 A 
ATOM     36  C   UNL A   1      40.153  29.038  30.379  1.00  0.00     0.010 A 
ATOM     37  C   UNL A   1      39.478  29.341  28.090  1.00  0.00     0.010 A 
ATOM     38  C   UNL A   1      40.484  29.024  29.015  1.00  0.00    -0.014 A 
BRANCH  38  39
ATOM     39  C   UNL A   1      41.877  28.730  28.564  1.00  0.00     0.031 A 
ATOM     40  C   UNL A   1      42.265  27.343  28.103  1.00  0.00     0.074 A 
ATOM     41  C   UNL A   1      42.810  29.705  28.575  1.00  0.00     0.049 A 
ATOM     42  N   UNL A   1      43.426  26.905  27.681  1.00  0.00    -0.248 NA
ATOM     43  C   UNL A   1      41.218  26.308  28.139  1.00  0.00     0.031 C 
ATOM     44  C   UNL A   1      42.587  31.085  29.010  1.00  0.00     0.029 A 
ATOM     45  N   UNL A   1      44.134  29.687  28.204  1.00  0.00    -0.354 N 
ATOM     46  C   UNL A   1      43.256  25.548  27.422  1.00  0.00     0.074 A 
ATOM     47  C   UNL A   1      41.892  25.224  27.779  1.00  0.00     0.031 C 
ATOM     48  C   UNL A   1      43.718  31.788  28.844  1.00  0.00     0.029 A 
ATOM     49  C   UNL A   1      44.763  30.903  28.339  1.00  0.00     0.049 A 
ATOM     50  H   UNL A   1      44.589  28.879  27.873  1.00  0.00     0.167 HD
ATOM     51  C   UNL A   1      44.142  24.654  26.919  1.00  0.00     0.031 A 
ATOM     52  C   UNL A   1      46.037  31.271  28.090  1.00  0.00     0.031 A 
ATOM     53  C   UNL A   1      45.497  24.975  26.549  1.00  0.00     0.049 A 
ATOM     54  C   UNL A   1      47.009  30.253  27.556  1.00  0.00     0.074 A 
ATOM     55  C   UNL A   1      46.450  24.149  25.976  1.00  0.00     0.029 A 
ATOM     56  N   UNL A   1      46.096  26.213  26.721  1.00  0.00    -0.354 N 
ATOM     57  N   UNL A   1      46.806  28.993  27.258  1.00  0.00    -0.248 NA
ATOM     58  C   UNL A   1      48.384  30.715  27.315  1.00  0.00     0.031 C 
ATOM     59  C   UNL A   1      47.643  24.869  25.864  1.00  0.00     0.029 A 
ATOM     60  C   UNL A   1      47.415  26.164  26.298  1.00  0.00     0.049 A 
ATOM     61  H   UNL A   1      45.650  27.009  27.091  1.00  0.00     0.167 HD
ATOM     62  C   UNL A   1      48.018  28.519  26.765  1.00  0.00     0.074 A 
ATOM     63  C   UNL A   1      48.943  29.633  26.789  1.00  0.00     0.031 C 
ATOM     64  C   UNL A   1      48.332  27.275  26.328  1.00  0.00     0.031 A 
BRANCH  51  65
ATOM     65  C   UNL A   1      43.681  23.224  26.753  1.00  0.00    -0.014 A 
ATOM     66  C   UNL A   1      43.179  22.484  27.839  1.00  0.00     0.010 A 
ATOM     67  C   UNL A   1      43.710  22.628  25.479  1.00  0.00     0.010 A 
ATOM     68  C   UNL A   1      42.762  21.161  27.663  1.00  0.00     0.020 A 
ATOM     69  C   UNL A   1      43.263  21.315  25.293  1.00  0.00     0.020 A 
ATOM     70  C   UNL A   1      42.810  20.584  26.391  1.00  0.00     0.054 A 
BRANCH  70  71
ATOM     71  S   UNL A   1      42.252  18.869  26.192  1.00  0.00     0.124 S 
ATOM     72  O   UNL A   1      43.186  18.362  25.190  1.00  0.00    -0.237 OA
ATOM     73  O   UNL A   1      42.417  18.322  27.537  1.00  0.00    -0.237 OA
ATOM     74  O   UNL A   1      40.869  19.003  25.742  1.00  0.00    -0.744 OA
ENDBRANCH  70  71
ENDBRANCH  51  65
BRANCH  52  75
ATOM     75  C   UNL A   1      46.465  32.678  28.329  1.00  0.00    -0.014 A 
ATOM     76  C   UNL A   1      46.985  33.065  29.577  1.00  0.00     0.010 A 
ATOM     77  C   UNL A   1      46.360  33.639  27.306  1.00  0.00     0.010 A 
ATOM     78  C   UNL A   1      47.375  34.388  29.805  1.00  0.00     0.020 A 
ATOM     79  C   UNL A   1      46.779  34.956  27.520  1.00  0.00     0.020 A 
ATOM     80  C   UNL A   1      47.273  35.325  28.772  1.00  0.00     0.054 A 
BRANCH  80  81
ATOM     81  S   UNL A   1      47.835  37.024  29.075  1.00  0.00     0.124 S 
ATOM     82  O   UNL A   1      47.662  37.147  30.519  1.00  0.00    -0.237 OA
ATOM     83  O   UNL A   1      49.217  36.986  28.603  1.00  0.00    -0.237 OA
ATOM     84  O   UNL A   1      46.929  37.834  28.264  1.00  0.00    -0.744 OA
ENDBRANCH  80  81
ENDBRANCH  52  75
BRANCH  64  85
ATOM     85  C   UNL A   1      49.729  27.053  25.801  1.00  0.00    -0.014 A 
ATOM     86  C   UNL A   1      50.734  26.481  26.600  1.00  0.00     0.010 A 
ATOM     87  C   UNL A   1      50.026  27.387  24.467  1.00  0.00     0.010 A 
ATOM     88  C   UNL A   1      52.020  26.283  26.086  1.00  0.00     0.020 A 
ATOM     89  C   UNL A   1      51.300  27.161  23.939  1.00  0.00     0.020 A 
ATOM     90  C   UNL A   1      52.294  26.624  24.759  1.00  0.00     0.054 A 
BRANCH  90  91
ATOM     91  S   UNL A   1      53.960  26.327  24.106  1.00  0.00     0.124 S 
ATOM     92  O   UNL A   1      53.700  26.140  22.681  1.00  0.00    -0.237 OA
ATOM     93  O   UNL A   1      54.666  27.556  24.461  1.00  0.00    -0.237 OA
ATOM     94  O   UNL A   1      54.405  25.132  24.820  1.00  0.00    -0.744 OA
ENDBRANCH  90  91
ENDBRANCH  64  85
ENDBRANCH  38  39
ENDBRANCH  30  33
ENDBRANCH  28  29
ENDBRANCH   1  28
TORSDOF 16
ENDMDL
MODEL 3
REMARK VINA RESULT:     -12.0      1.517      8.390
REMARK SMILES Cc1ccc(S(=O)(=O)N2C[C@@H](CC(=O)NCCCNC(=O)c3ccc(-c4c5nc(c(-c6ccc(S(=O)(=O)[O-])cc6)c6ccc([nH]6)c(-c6ccc(S(=O)(=O)[O-])cc6)c6nc(c(-c7ccc(S(=O)(=O)[O-])cc7)c7ccc4[nH]7)C=C6)C=C5)cc3)c3ccccc32)c(C)c1
REMARK SMILES IDX 17 1 16 2 15 3 13 4 14 5 12 7 11 8 9 9 10 10 87 11 82 12
REMARK SMILES IDX 86 13 83 14 85 15 84 16 6 17 7 18 8 19 5 20 1 21 2 22 3 23
REMARK SMILES IDX 90 24 4 25 88 26 89 27 18 28 19 29 20 30 21 32 22 33 23 34
REMARK SMILES IDX 81 35 24 36 80 37 25 38 26 39 27 40 74 41 28 42 79 43 73 44
REMARK SMILES IDX 75 45 29 46 78 47 72 48 71 49 30 51 60 52 41 53 59 54 42 55
REMARK SMILES IDX 45 56 58 57 76 58 43 59 44 60 57 62 77 63 46 64 31 65 32 66
REMARK SMILES IDX 40 67 33 68 39 69 34 70 35 71 36 72 37 73 38 74 61 75 62 76
REMARK SMILES IDX 70 77 63 78 69 79 64 80 65 81 66 82 67 83 68 84 47 85 48 86
REMARK SMILES IDX 56 87 49 88 55 89 50 90 51 91 52 92 53 93 54 94
REMARK H PARENT 15 6 19 31 75 50 45 61
REMARK Flexibility Score: inf
ROOT
ATOM      1  C   UNL A   1      39.257  22.563  26.516  1.00  0.00     0.042 C 
ENDROOT
BRANCH   1   2
ATOM      2  C   UNL A   1      38.085  23.494  26.230  1.00  0.00     0.117 C 
BRANCH   2   3
ATOM      3  N   UNL A   1      36.833  22.748  26.187  1.00  0.00    -0.356 N 
ATOM      4  C   UNL A   1      35.544  23.194  26.204  1.00  0.00     0.220 C 
ATOM      5  O   UNL A   1      34.645  22.377  26.404  1.00  0.00    -0.275 OA
ATOM      6  H   UNL A   1      36.933  21.769  26.141  1.00  0.00     0.163 HD
BRANCH   4   7
ATOM      7  C   UNL A   1      35.220  24.640  25.900  1.00  0.00     0.110 C 
BRANCH   7   8
ATOM      8  C   UNL A   1      33.791  24.862  25.378  1.00  0.00     0.051 C 
ATOM      9  N   UNL A   1      33.981  26.546  23.632  1.00  0.00    -0.265 N 
ATOM     10  C   UNL A   1      33.829  25.060  23.846  1.00  0.00     0.144 C 
ATOM     11  C   UNL A   1      33.415  27.156  24.807  1.00  0.00     0.055 A 
ATOM     12  C   UNL A   1      33.202  26.185  25.787  1.00  0.00    -0.018 A 
ATOM     13  C   UNL A   1      33.141  28.490  25.056  1.00  0.00     0.027 A 
ATOM     14  C   UNL A   1      32.527  26.497  26.955  1.00  0.00     0.006 A 
ATOM     15  C   UNL A   1      32.543  28.830  26.273  1.00  0.00     0.002 A 
ATOM     16  C   UNL A   1      32.204  27.836  27.199  1.00  0.00     0.000 A 
BRANCH   9  17
ATOM     17  S   UNL A   1      33.371  27.060  22.111  1.00  0.00     0.264 S 
ATOM     18  O   UNL A   1      33.302  25.896  21.255  1.00  0.00    -0.201 OA
ATOM     19  O   UNL A   1      34.134  28.234  21.720  1.00  0.00    -0.201 OA
BRANCH  17  20
ATOM     20  C   UNL A   1      31.718  27.652  22.429  1.00  0.00     0.090 A 
ATOM     21  C   UNL A   1      27.749  29.201  23.080  1.00  0.00     0.044 C 
ATOM     22  C   UNL A   1      29.137  28.677  22.866  1.00  0.00    -0.051 A 
ATOM     23  C   UNL A   1      30.159  29.518  22.430  1.00  0.00     0.005 A 
ATOM     24  C   UNL A   1      29.411  27.316  23.063  1.00  0.00     0.008 A 
ATOM     25  C   UNL A   1      31.437  29.009  22.201  1.00  0.00     0.023 A 
ATOM     26  C   UNL A   1      30.698  26.779  22.855  1.00  0.00    -0.030 A 
ATOM     27  C   UNL A   1      30.848  25.293  23.030  1.00  0.00     0.046 C 
ENDBRANCH  17  20
ENDBRANCH   9  17
ENDBRANCH   7   8
ENDBRANCH   4   7
ENDBRANCH   2   3
ENDBRANCH   1   2
BRANCH   1  28
ATOM     28  C   UNL A   1      40.491  23.240  27.096  1.00  0.00     0.118 C 
BRANCH  28  29
ATOM     29  N   UNL A   1      41.116  24.126  26.134  1.00  0.00    -0.352 N 
ATOM     30  C   UNL A   1      41.210  25.495  26.080  1.00  0.00     0.251 C 
ATOM     31  H   UNL A   1      41.553  23.662  25.383  1.00  0.00     0.163 HD
ATOM     32  O   UNL A   1      41.544  25.994  25.004  1.00  0.00    -0.269 OA
BRANCH  30  33
ATOM     33  C   UNL A   1      40.927  26.393  27.237  1.00  0.00     0.039 A 
ATOM     34  C   UNL A   1      41.707  27.552  27.366  1.00  0.00     0.014 A 
ATOM     35  C   UNL A   1      40.028  26.083  28.261  1.00  0.00     0.014 A 
ATOM     36  C   UNL A   1      41.587  28.378  28.491  1.00  0.00     0.010 A 
ATOM     37  C   UNL A   1      39.841  26.959  29.340  1.00  0.00     0.010 A 
ATOM     38  C   UNL A   1      40.641  28.101  29.489  1.00  0.00    -0.014 A 
BRANCH  38  39
ATOM     39  C   UNL A   1      40.523  28.969  30.700  1.00  0.00     0.031 A 
ATOM     40  C   UNL A   1      39.461  30.042  30.782  1.00  0.00     0.074 A 
ATOM     41  C   UNL A   1      41.376  28.807  31.732  1.00  0.00     0.049 A 
ATOM     42  N   UNL A   1      39.213  30.889  31.751  1.00  0.00    -0.248 NA
ATOM     43  C   UNL A   1      38.574  30.198  29.617  1.00  0.00     0.031 C 
ATOM     44  C   UNL A   1      42.462  27.826  31.786  1.00  0.00     0.029 A 
ATOM     45  N   UNL A   1      41.464  29.461  32.938  1.00  0.00    -0.354 N 
ATOM     46  C   UNL A   1      38.162  31.686  31.307  1.00  0.00     0.074 A 
ATOM     47  C   UNL A   1      37.850  31.253  29.963  1.00  0.00     0.031 C 
ATOM     48  C   UNL A   1      43.078  27.915  32.976  1.00  0.00     0.029 A 
ATOM     49  C   UNL A   1      42.468  28.990  33.752  1.00  0.00     0.049 A 
ATOM     50  H   UNL A   1      40.863  30.198  33.195  1.00  0.00     0.167 HD
ATOM     51  C   UNL A   1      37.503  32.676  31.958  1.00  0.00     0.031 A 
ATOM     52  C   UNL A   1      42.862  29.377  34.983  1.00  0.00     0.031 A 
ATOM     53  C   UNL A   1      37.802  33.102  33.302  1.00  0.00     0.049 A 
ATOM     54  C   UNL A   1      42.132  30.497  35.675  1.00  0.00     0.074 A 
ATOM     55  C   UNL A   1      37.150  34.056  34.066  1.00  0.00     0.029 A 
ATOM     56  N   UNL A   1      38.839  32.611  34.080  1.00  0.00    -0.354 N 
ATOM     57  N   UNL A   1      41.099  31.191  35.260  1.00  0.00    -0.248 NA
ATOM     58  C   UNL A   1      42.616  30.878  37.010  1.00  0.00     0.031 C 
ATOM     59  C   UNL A   1      37.833  34.189  35.279  1.00  0.00     0.029 A 
ATOM     60  C   UNL A   1      38.866  33.266  35.301  1.00  0.00     0.049 A 
ATOM     61  H   UNL A   1      39.464  31.902  33.805  1.00  0.00     0.167 HD
ATOM     62  C   UNL A   1      40.791  32.068  36.295  1.00  0.00     0.074 A 
ATOM     63  C   UNL A   1      41.735  31.804  37.361  1.00  0.00     0.031 C 
ATOM     64  C   UNL A   1      39.811  33.003  36.357  1.00  0.00     0.031 A 
BRANCH  51  65
ATOM     65  C   UNL A   1      36.396  33.390  31.218  1.00  0.00    -0.014 A 
ATOM     66  C   UNL A   1      35.160  33.665  31.832  1.00  0.00     0.010 A 
ATOM     67  C   UNL A   1      36.615  33.834  29.901  1.00  0.00     0.010 A 
ATOM     68  C   UNL A   1      34.149  34.324  31.126  1.00  0.00     0.020 A 
ATOM     69  C   UNL A   1      35.617  34.523  29.202  1.00  0.00     0.020 A 
ATOM     70  C   UNL A   1      34.383  34.746  29.814  1.00  0.00     0.054 A 
BRANCH  70  71
ATOM     71  S   UNL A   1      33.056  35.608  28.928  1.00  0.00     0.124 S 
ATOM     72  O   UNL A   1      33.801  36.610  28.169  1.00  0.00    -0.237 OA
ATOM     73  O   UNL A   1      32.455  34.540  28.133  1.00  0.00    -0.237 OA
ATOM     74  O   UNL A   1      32.211  36.138  29.996  1.00  0.00    -0.744 OA
ENDBRANCH  70  71
ENDBRANCH  51  65
BRANCH  52  75
ATOM     75  C   UNL A   1      44.001  28.687  35.651  1.00  0.00    -0.014 A 
ATOM     76  C   UNL A   1      45.320  29.137  35.462  1.00  0.00     0.010 A 
ATOM     77  C   UNL A   1      43.773  27.577  36.485  1.00  0.00     0.010 A 
ATOM     78  C   UNL A   1      46.390  28.481  36.078  1.00  0.00     0.020 A 
ATOM     79  C   UNL A   1      44.837  26.938  37.129  1.00  0.00     0.020 A 
ATOM     80  C   UNL A   1      46.140  27.387  36.913  1.00  0.00     0.054 A 
BRANCH  80  81
ATOM     81  S   UNL A   1      47.540  26.586  37.743  1.00  0.00     0.124 S 
ATOM     82  O   UNL A   1      47.948  27.606  38.704  1.00  0.00    -0.237 OA
ATOM     83  O   UNL A   1      46.923  25.390  38.313  1.00  0.00    -0.237 OA
ATOM     84  O   UNL A   1      48.484  26.333  36.657  1.00  0.00    -0.744 OA
ENDBRANCH  80  81
ENDBRANCH  52  75
BRANCH  64  85
ATOM     85  C   UNL A   1      39.680  33.792  37.636  1.00  0.00    -0.014 A 
ATOM     86  C   UNL A   1      40.312  35.038  37.800  1.00  0.00     0.010 A 
ATOM     87  C   UNL A   1      38.874  33.294  38.677  1.00  0.00     0.010 A 
ATOM     88  C   UNL A   1      40.172  35.750  38.995  1.00  0.00     0.020 A 
ATOM     89  C   UNL A   1      38.705  34.019  39.860  1.00  0.00     0.020 A 
ATOM     90  C   UNL A   1      39.369  35.236  40.017  1.00  0.00     0.054 A 
BRANCH  90  91
ATOM     91  S   UNL A   1      39.176  36.196  41.544  1.00  0.00     0.124 S 
ATOM     92  O   UNL A   1      39.056  37.560  41.033  1.00  0.00    -0.237 OA
ATOM     93  O   UNL A   1      37.959  35.633  42.124  1.00  0.00    -0.237 OA
ATOM     94  O   UNL A   1      40.402  35.916  42.288  1.00  0.00    -0.744 OA
ENDBRANCH  90  91
ENDBRANCH  64  85
ENDBRANCH  38  39
ENDBRANCH  30  33
ENDBRANCH  28  29
ENDBRANCH   1  28
TORSDOF 16
ENDMDL
