MODEL 1
REMARK VINA RESULT:     -10.3      0.000      0.000
REMARK SMILES CCC(CC)(NC(=O)N(C)[C@H]1CCC[C@H](C)C1)C(=O)NCCCNC(=O)c1ccc(-c2c3nc(c(-c4ccc(S(=O)(=O)[O-])cc4)c4ccc([nH]4)c(-c4ccc(S(=O)(=O)[O-])cc4)c4nc(c(-c5ccc(S(=O)(=O)[O-])cc5)c5ccc2[nH]5)C=C4)C=C3)cc1
REMARK SMILES IDX 22 1 21 2 20 3 18 4 19 5 3 7 2 8 1 9 4 10 5 11 6 12 7 13
REMARK SMILES IDX 8 15 9 16 10 17 11 18 12 19 17 20 13 21 15 22 14 23 16 24
REMARK SMILES IDX 23 25 24 26 25 27 26 29 27 30 28 31 86 32 29 33 85 34 30 35
REMARK SMILES IDX 31 36 32 37 79 38 33 39 84 40 78 41 80 42 34 43 83 44 77 45
REMARK SMILES IDX 76 46 35 48 65 49 46 50 64 51 47 52 50 53 63 54 81 55 48 56
REMARK SMILES IDX 49 57 62 59 82 60 51 61 36 62 37 63 45 64 38 65 44 66 39 67
REMARK SMILES IDX 40 68 41 69 42 70 43 71 66 72 67 73 75 74 68 75 74 76 69 77
REMARK SMILES IDX 70 78 71 79 72 80 73 81 52 82 53 83 61 84 54 85 60 86 55 87
REMARK SMILES IDX 56 88 57 89 58 90 59 91
REMARK H PARENT 20 6 6 14 24 28 80 47 50 58
REMARK Flexibility Score: inf
ROOT
ATOM      1  C   UNL A   1      32.340  27.750  27.520  1.00  0.00     0.042 C 
ENDROOT
BRANCH   1   2
ATOM      2  C   UNL A   1      31.412  27.383  26.368  1.00  0.00     0.117 C 
BRANCH   2   3
ATOM      3  N   UNL A   1      30.556  26.212  26.568  1.00  0.00    -0.354 N 
ATOM      4  C   UNL A   1      30.726  24.874  26.290  1.00  0.00     0.245 C 
ATOM      5  O   UNL A   1      29.980  24.103  26.907  1.00  0.00    -0.272 OA
ATOM      6  H   UNL A   1      29.689  26.422  26.985  1.00  0.00     0.163 HD
BRANCH   4   7
ATOM      7  C   UNL A   1      31.880  24.341  25.366  1.00  0.00     0.120 C 
BRANCH   7   8
ATOM      8  C   UNL A   1      33.364  24.720  25.683  1.00  0.00     0.035 C 
ATOM      9  C   UNL A   1      34.020  25.779  24.810  1.00  0.00     0.007 C 
ENDBRANCH   7   8
BRANCH   7  10
ATOM     10  C   UNL A   1      31.543  25.002  23.972  1.00  0.00     0.035 C 
ATOM     11  C   UNL A   1      30.379  24.435  23.170  1.00  0.00     0.007 C 
ENDBRANCH   7  10
BRANCH   7  12
ATOM     12  N   UNL A   1      31.771  22.860  25.354  1.00  0.00    -0.323 N 
ATOM     13  C   UNL A   1      32.551  21.797  25.675  1.00  0.00     0.318 C 
ATOM     14  H   UNL A   1      30.892  22.569  25.020  1.00  0.00     0.166 HD
ATOM     15  O   UNL A   1      32.025  20.707  25.424  1.00  0.00    -0.249 OA
BRANCH  13  16
ATOM     16  N   UNL A   1      33.768  21.877  26.325  1.00  0.00    -0.325 N 
ATOM     17  C   UNL A   1      33.990  22.355  27.674  1.00  0.00     0.149 C 
BRANCH  16  18
ATOM     18  C   UNL A   1      34.982  21.363  25.600  1.00  0.00     0.086 C 
ATOM     19  C   UNL A   1      34.959  21.473  24.065  1.00  0.00     0.025 C 
ATOM     20  C   UNL A   1      36.297  21.932  26.151  1.00  0.00     0.028 C 
ATOM     21  C   UNL A   1      35.460  22.793  23.466  1.00  0.00     0.002 C 
ATOM     22  C   UNL A   1      36.667  23.333  25.662  1.00  0.00    -0.012 C 
ATOM     23  C   UNL A   1      36.701  23.387  24.137  1.00  0.00     0.003 C 
ATOM     24  C   UNL A   1      37.996  23.783  26.277  1.00  0.00     0.008 C 
ENDBRANCH  16  18
ENDBRANCH  13  16
ENDBRANCH   7  12
ENDBRANCH   4   7
ENDBRANCH   2   3
ENDBRANCH   1   2
BRANCH   1  25
ATOM     25  C   UNL A   1      33.542  28.613  27.176  1.00  0.00     0.118 C 
BRANCH  25  26
ATOM     26  N   UNL A   1      33.480  29.988  27.614  1.00  0.00    -0.352 N 
ATOM     27  C   UNL A   1      34.464  30.810  28.111  1.00  0.00     0.251 C 
ATOM     28  H   UNL A   1      32.591  30.405  27.544  1.00  0.00     0.163 HD
ATOM     29  O   UNL A   1      34.178  31.989  28.330  1.00  0.00    -0.269 OA
BRANCH  27  30
ATOM     30  C   UNL A   1      35.825  30.318  28.464  1.00  0.00     0.039 A 
ATOM     31  C   UNL A   1      36.804  30.408  27.468  1.00  0.00     0.014 A 
ATOM     32  C   UNL A   1      36.166  29.750  29.697  1.00  0.00     0.014 A 
ATOM     33  C   UNL A   1      38.116  30.000  27.724  1.00  0.00     0.010 A 
ATOM     34  C   UNL A   1      37.500  29.411  29.977  1.00  0.00     0.010 A 
ATOM     35  C   UNL A   1      38.492  29.534  28.994  1.00  0.00    -0.014 A 
BRANCH  35  36
ATOM     36  C   UNL A   1      39.925  29.215  29.264  1.00  0.00     0.031 A 
ATOM     37  C   UNL A   1      40.514  27.875  28.905  1.00  0.00     0.074 A 
ATOM     38  C   UNL A   1      40.720  30.158  29.812  1.00  0.00     0.049 A 
ATOM     39  N   UNL A   1      41.764  27.487  28.956  1.00  0.00    -0.248 NA
ATOM     40  C   UNL A   1      39.584  26.835  28.441  1.00  0.00     0.031 C 
ATOM     41  C   UNL A   1      40.278  31.484  30.250  1.00  0.00     0.029 A 
ATOM     42  N   UNL A   1      42.069  30.158  30.073  1.00  0.00    -0.354 N 
ATOM     43  C   UNL A   1      41.774  26.164  28.529  1.00  0.00     0.074 A 
ATOM     44  C   UNL A   1      40.397  25.801  28.271  1.00  0.00     0.031 C 
ATOM     45  C   UNL A   1      41.340  32.183  30.679  1.00  0.00     0.029 A 
ATOM     46  C   UNL A   1      42.535  31.351  30.576  1.00  0.00     0.049 A 
ATOM     47  H   UNL A   1      42.648  29.377  29.916  1.00  0.00     0.167 HD
ATOM     48  C   UNL A   1      42.830  25.332  28.348  1.00  0.00     0.031 A 
ATOM     49  C   UNL A   1      43.781  31.743  30.909  1.00  0.00     0.031 A 
ATOM     50  C   UNL A   1      44.202  25.685  28.608  1.00  0.00     0.049 A 
ATOM     51  C   UNL A   1      44.936  30.801  30.703  1.00  0.00     0.074 A 
ATOM     52  C   UNL A   1      45.340  24.921  28.406  1.00  0.00     0.029 A 
ATOM     53  N   UNL A   1      44.627  26.895  29.136  1.00  0.00    -0.354 N 
ATOM     54  N   UNL A   1      44.929  29.583  30.218  1.00  0.00    -0.248 NA
ATOM     55  C   UNL A   1      46.269  31.296  31.072  1.00  0.00     0.031 C 
ATOM     56  C   UNL A   1      46.446  25.648  28.860  1.00  0.00     0.029 A 
ATOM     57  C   UNL A   1      46.004  26.888  29.290  1.00  0.00     0.049 A 
ATOM     58  H   UNL A   1      44.036  27.648  29.367  1.00  0.00     0.167 HD
ATOM     59  C   UNL A   1      46.260  29.175  30.203  1.00  0.00     0.074 A 
ATOM     60  C   UNL A   1      47.043  30.284  30.706  1.00  0.00     0.031 C 
ATOM     61  C   UNL A   1      46.781  27.989  29.804  1.00  0.00     0.031 A 
BRANCH  48  62
ATOM     62  C   UNL A   1      42.541  23.941  27.843  1.00  0.00    -0.014 A 
ATOM     63  C   UNL A   1      42.366  22.868  28.735  1.00  0.00     0.010 A 
ATOM     64  C   UNL A   1      42.387  23.714  26.463  1.00  0.00     0.010 A 
ATOM     65  C   UNL A   1      42.085  21.586  28.254  1.00  0.00     0.020 A 
ATOM     66  C   UNL A   1      42.080  22.438  25.980  1.00  0.00     0.020 A 
ATOM     67  C   UNL A   1      41.948  21.378  26.879  1.00  0.00     0.054 A 
BRANCH  67  68
ATOM     68  S   UNL A   1      41.566  19.708  26.285  1.00  0.00     0.124 S 
ATOM     69  O   UNL A   1      41.975  18.883  27.420  1.00  0.00    -0.237 OA
ATOM     70  O   UNL A   1      40.126  19.774  26.045  1.00  0.00    -0.237 OA
ATOM     71  O   UNL A   1      42.389  19.568  25.086  1.00  0.00    -0.744 OA
ENDBRANCH  67  68
ENDBRANCH  48  62
BRANCH  49  72
ATOM     72  C   UNL A   1      44.006  33.111  31.452  1.00  0.00    -0.014 A 
ATOM     73  C   UNL A   1      44.246  34.197  30.590  1.00  0.00     0.010 A 
ATOM     74  C   UNL A   1      43.975  33.336  32.840  1.00  0.00     0.010 A 
ATOM     75  C   UNL A   1      44.467  35.477  31.107  1.00  0.00     0.020 A 
ATOM     76  C   UNL A   1      44.166  34.619  33.359  1.00  0.00     0.020 A 
ATOM     77  C   UNL A   1      44.424  35.680  32.489  1.00  0.00     0.054 A 
BRANCH  77  78
ATOM     78  S   UNL A   1      44.659  37.358  33.137  1.00  0.00     0.124 S 
ATOM     79  O   UNL A   1      44.275  37.200  34.536  1.00  0.00    -0.237 OA
ATOM     80  O   UNL A   1      46.080  37.596  32.894  1.00  0.00    -0.237 OA
ATOM     81  O   UNL A   1      43.753  38.167  32.326  1.00  0.00    -0.744 OA
ENDBRANCH  77  78
ENDBRANCH  49  72
BRANCH  61  82
ATOM     82  C   UNL A   1      48.279  27.835  29.871  1.00  0.00    -0.014 A 
ATOM     83  C   UNL A   1      48.914  27.347  31.027  1.00  0.00     0.010 A 
ATOM     84  C   UNL A   1      49.063  28.162  28.749  1.00  0.00     0.010 A 
ATOM     85  C   UNL A   1      50.307  27.233  31.076  1.00  0.00     0.020 A 
ATOM     86  C   UNL A   1      50.453  28.021  28.783  1.00  0.00     0.020 A 
ATOM     87  C   UNL A   1      51.068  27.576  29.955  1.00  0.00     0.054 A 
BRANCH  87  88
ATOM     88  S   UNL A   1      52.872  27.404  30.036  1.00  0.00     0.124 S 
ATOM     89  O   UNL A   1      53.025  26.064  30.598  1.00  0.00    -0.237 OA
ATOM     90  O   UNL A   1      53.274  27.547  28.639  1.00  0.00    -0.237 OA
ATOM     91  O   UNL A   1      53.287  28.497  30.911  1.00  0.00    -0.744 OA
ENDBRANCH  87  88
ENDBRANCH  61  82
ENDBRANCH  35  36
ENDBRANCH  27  30
ENDBRANCH  25  26
ENDBRANCH   1  25
TORSDOF 18
ENDMDL
MODEL 2
REMARK VINA RESULT:     -10.1      2.891      7.791
REMARK SMILES CCC(CC)(NC(=O)N(C)[C@H]1CCC[C@H](C)C1)C(=O)NCCCNC(=O)c1ccc(-c2c3nc(c(-c4ccc(S(=O)(=O)[O-])cc4)c4ccc([nH]4)c(-c4ccc(S(=O)(=O)[O-])cc4)c4nc(c(-c5ccc(S(=O)(=O)[O-])cc5)c5ccc2[nH]5)C=C4)C=C3)cc1
REMARK SMILES IDX 22 1 21 2 20 3 18 4 19 5 3 7 2 8 1 9 4 10 5 11 6 12 7 13
REMARK SMILES IDX 8 15 9 16 10 17 11 18 12 19 17 20 13 21 15 22 14 23 16 24
REMARK SMILES IDX 23 25 24 26 25 27 26 29 27 30 28 31 86 32 29 33 85 34 30 35
REMARK SMILES IDX 31 36 32 37 79 38 33 39 84 40 78 41 80 42 34 43 83 44 77 45
REMARK SMILES IDX 76 46 35 48 65 49 46 50 64 51 47 52 50 53 63 54 81 55 48 56
REMARK SMILES IDX 49 57 62 59 82 60 51 61 36 62 37 63 45 64 38 65 44 66 39 67
REMARK SMILES IDX 40 68 41 69 42 70 43 71 66 72 67 73 75 74 68 75 74 76 69 77
REMARK SMILES IDX 70 78 71 79 72 80 73 81 52 82 53 83 61 84 54 85 60 86 55 87
REMARK SMILES IDX 56 88 57 89 58 90 59 91
REMARK H PARENT 20 6 6 14 24 28 80 47 50 58
REMARK Flexibility Score: inf
ROOT
ATOM      1  C   UNL A   1      37.795  21.512  24.869  1.00  0.00     0.042 C 
ENDROOT
BRANCH   1   2
ATOM      2  C   UNL A   1      36.429  20.889  25.135  1.00  0.00     0.117 C 
BRANCH   2   3
ATOM      3  N   UNL A   1      35.751  21.307  26.364  1.00  0.00    -0.354 N 
ATOM      4  C   UNL A   1      34.508  21.849  26.605  1.00  0.00     0.245 C 
ATOM      5  O   UNL A   1      34.100  21.749  27.768  1.00  0.00    -0.272 OA
ATOM      6  H   UNL A   1      36.288  21.171  27.178  1.00  0.00     0.163 HD
BRANCH   4   7
ATOM      7  C   UNL A   1      33.601  22.429  25.461  1.00  0.00     0.120 C 
BRANCH   7   8
ATOM      8  C   UNL A   1      33.057  21.476  24.346  1.00  0.00     0.035 C 
ATOM      9  C   UNL A   1      32.828  20.019  24.717  1.00  0.00     0.007 C 
ENDBRANCH   7   8
BRANCH   7  10
ATOM     10  C   UNL A   1      34.563  23.451  24.737  1.00  0.00     0.035 C 
ATOM     11  C   UNL A   1      34.622  23.429  23.215  1.00  0.00     0.007 C 
ENDBRANCH   7  10
BRANCH   7  12
ATOM     12  N   UNL A   1      32.442  23.082  26.120  1.00  0.00    -0.323 N 
ATOM     13  C   UNL A   1      31.597  24.114  25.867  1.00  0.00     0.318 C 
ATOM     14  H   UNL A   1      32.227  22.647  26.977  1.00  0.00     0.166 HD
ATOM     15  O   UNL A   1      30.792  24.326  26.781  1.00  0.00    -0.249 OA
BRANCH  13  16
ATOM     16  N   UNL A   1      31.534  24.809  24.675  1.00  0.00    -0.325 N 
ATOM     17  C   UNL A   1      30.641  24.534  23.568  1.00  0.00     0.149 C 
BRANCH  16  18
ATOM     18  C   UNL A   1      32.426  26.010  24.518  1.00  0.00     0.086 C 
ATOM     19  C   UNL A   1      32.055  26.995  23.395  1.00  0.00     0.025 C 
ATOM     20  C   UNL A   1      32.647  26.769  25.835  1.00  0.00     0.028 C 
ATOM     21  C   UNL A   1      31.047  28.093  23.752  1.00  0.00     0.002 C 
ATOM     22  C   UNL A   1      31.525  27.725  26.244  1.00  0.00    -0.012 C 
ATOM     23  C   UNL A   1      31.231  28.729  25.132  1.00  0.00     0.003 C 
ATOM     24  C   UNL A   1      31.867  28.421  27.564  1.00  0.00     0.008 C 
ENDBRANCH  16  18
ENDBRANCH  13  16
ENDBRANCH   7  12
ENDBRANCH   4   7
ENDBRANCH   2   3
ENDBRANCH   1   2
BRANCH   1  25
ATOM     25  C   UNL A   1      38.834  21.367  25.968  1.00  0.00     0.118 C 
BRANCH  25  26
ATOM     26  N   UNL A   1      39.822  20.332  25.772  1.00  0.00    -0.352 N 
ATOM     27  C   UNL A   1      41.162  20.309  26.081  1.00  0.00     0.251 C 
ATOM     28  H   UNL A   1      39.482  19.510  25.351  1.00  0.00     0.163 HD
ATOM     29  O   UNL A   1      41.781  19.260  25.897  1.00  0.00    -0.269 OA
BRANCH  27  30
ATOM     30  C   UNL A   1      41.902  21.513  26.551  1.00  0.00     0.039 A 
ATOM     31  C   UNL A   1      42.140  22.515  25.603  1.00  0.00     0.014 A 
ATOM     32  C   UNL A   1      42.396  21.682  27.850  1.00  0.00     0.014 A 
ATOM     33  C   UNL A   1      42.798  23.694  25.966  1.00  0.00     0.010 A 
ATOM     34  C   UNL A   1      42.990  22.897  28.231  1.00  0.00     0.010 A 
ATOM     35  C   UNL A   1      43.196  23.919  27.293  1.00  0.00    -0.014 A 
BRANCH  35  36
ATOM     36  C   UNL A   1      43.794  25.234  27.668  1.00  0.00     0.031 A 
ATOM     37  C   UNL A   1      45.241  25.548  27.392  1.00  0.00     0.074 A 
ATOM     38  C   UNL A   1      43.012  26.177  28.236  1.00  0.00     0.049 A 
ATOM     39  N   UNL A   1      45.878  26.684  27.539  1.00  0.00    -0.248 NA
ATOM     40  C   UNL A   1      46.085  24.448  26.902  1.00  0.00     0.031 C 
ATOM     41  C   UNL A   1      41.605  25.999  28.602  1.00  0.00     0.029 A 
ATOM     42  N   UNL A   1      43.281  27.478  28.586  1.00  0.00    -0.354 N 
ATOM     43  C   UNL A   1      47.192  26.439  27.155  1.00  0.00     0.074 A 
ATOM     44  C   UNL A   1      47.272  25.034  26.818  1.00  0.00     0.031 C 
ATOM     45  C   UNL A   1      41.123  27.158  29.077  1.00  0.00     0.029 A 
ATOM     46  C   UNL A   1      42.190  28.154  29.081  1.00  0.00     0.049 A 
ATOM     47  H   UNL A   1      44.172  27.888  28.493  1.00  0.00     0.167 HD
ATOM     48  C   UNL A   1      48.233  27.305  27.071  1.00  0.00     0.031 A 
ATOM     49  C   UNL A   1      42.050  29.434  29.482  1.00  0.00     0.031 A 
ATOM     50  C   UNL A   1      48.161  28.704  27.411  1.00  0.00     0.049 A 
ATOM     51  C   UNL A   1      43.221  30.375  29.383  1.00  0.00     0.074 A 
ATOM     52  C   UNL A   1      49.154  29.665  27.309  1.00  0.00     0.029 A 
ATOM     53  N   UNL A   1      47.044  29.342  27.926  1.00  0.00    -0.354 N 
ATOM     54  N   UNL A   1      44.431  30.140  28.939  1.00  0.00    -0.248 NA
ATOM     55  C   UNL A   1      42.997  31.758  29.824  1.00  0.00     0.031 C 
ATOM     56  C   UNL A   1      48.653  30.871  27.812  1.00  0.00     0.029 A 
ATOM     57  C   UNL A   1      47.330  30.676  28.171  1.00  0.00     0.049 A 
ATOM     58  H   UNL A   1      46.175  28.911  28.093  1.00  0.00     0.167 HD
ATOM     59  C   UNL A   1      45.107  31.353  29.024  1.00  0.00     0.074 A 
ATOM     60  C   UNL A   1      44.164  32.322  29.543  1.00  0.00     0.031 C 
ATOM     61  C   UNL A   1      46.392  31.636  28.699  1.00  0.00     0.031 A 
BRANCH  48  62
ATOM     62  C   UNL A   1      49.555  26.760  26.594  1.00  0.00    -0.014 A 
ATOM     63  C   UNL A   1      50.440  26.122  27.482  1.00  0.00     0.010 A 
ATOM     64  C   UNL A   1      49.893  26.835  25.231  1.00  0.00     0.010 A 
ATOM     65  C   UNL A   1      51.657  25.609  27.023  1.00  0.00     0.020 A 
ATOM     66  C   UNL A   1      51.097  26.299  24.763  1.00  0.00     0.020 A 
ATOM     67  C   UNL A   1      51.980  25.705  25.667  1.00  0.00     0.054 A 
BRANCH  67  68
ATOM     68  S   UNL A   1      53.557  25.014  25.097  1.00  0.00     0.124 S 
ATOM     69  O   UNL A   1      54.496  25.563  26.073  1.00  0.00    -0.237 OA
ATOM     70  O   UNL A   1      53.329  23.574  25.188  1.00  0.00    -0.237 OA
ATOM     71  O   UNL A   1      53.694  25.536  23.740  1.00  0.00    -0.744 OA
ENDBRANCH  67  68
ENDBRANCH  48  62
BRANCH  49  72
ATOM     72  C   UNL A   1      40.736  29.910  29.994  1.00  0.00    -0.014 A 
ATOM     73  C   UNL A   1      39.703  30.263  29.107  1.00  0.00     0.010 A 
ATOM     74  C   UNL A   1      40.509  30.006  31.379  1.00  0.00     0.010 A 
ATOM     75  C   UNL A   1      38.475  30.720  29.595  1.00  0.00     0.020 A 
ATOM     76  C   UNL A   1      39.273  30.434  31.871  1.00  0.00     0.020 A 
ATOM     77  C   UNL A   1      38.267  30.800  30.975  1.00  0.00     0.054 A 
BRANCH  77  78
ATOM     78  S   UNL A   1      36.648  31.342  31.588  1.00  0.00     0.124 S 
ATOM     79  O   UNL A   1      36.032  30.078  31.977  1.00  0.00    -0.237 OA
ATOM     80  O   UNL A   1      37.008  32.236  32.686  1.00  0.00    -0.237 OA
ATOM     81  O   UNL A   1      36.048  32.001  30.430  1.00  0.00    -0.744 OA
ENDBRANCH  77  78
ENDBRANCH  49  72
BRANCH  61  82
ATOM     82  C   UNL A   1      46.851  33.061  28.870  1.00  0.00    -0.014 A 
ATOM     83  C   UNL A   1      46.688  34.011  27.846  1.00  0.00     0.010 A 
ATOM     84  C   UNL A   1      47.436  33.463  30.086  1.00  0.00     0.010 A 
ATOM     85  C   UNL A   1      47.141  35.323  28.017  1.00  0.00     0.020 A 
ATOM     86  C   UNL A   1      47.863  34.780  30.272  1.00  0.00     0.020 A 
ATOM     87  C   UNL A   1      47.731  35.698  29.228  1.00  0.00     0.054 A 
BRANCH  87  88
ATOM     88  S   UNL A   1      48.296  37.409  29.433  1.00  0.00     0.124 S 
ATOM     89  O   UNL A   1      47.074  38.084  29.862  1.00  0.00    -0.237 OA
ATOM     90  O   UNL A   1      49.336  37.287  30.451  1.00  0.00    -0.237 OA
ATOM     91  O   UNL A   1      48.777  37.778  28.103  1.00  0.00    -0.744 OA
ENDBRANCH  87  88
ENDBRANCH  61  82
ENDBRANCH  35  36
ENDBRANCH  27  30
ENDBRANCH  25  26
ENDBRANCH   1  25
TORSDOF 18
ENDMDL
MODEL 3
REMARK VINA RESULT:     -10.1      4.531      9.376
REMARK SMILES CCC(CC)(NC(=O)N(C)[C@H]1CCC[C@H](C)C1)C(=O)NCCCNC(=O)c1ccc(-c2c3nc(c(-c4ccc(S(=O)(=O)[O-])cc4)c4ccc([nH]4)c(-c4ccc(S(=O)(=O)[O-])cc4)c4nc(c(-c5ccc(S(=O)(=O)[O-])cc5)c5ccc2[nH]5)C=C4)C=C3)cc1
REMARK SMILES IDX 22 1 21 2 20 3 18 4 19 5 3 7 2 8 1 9 4 10 5 11 6 12 7 13
REMARK SMILES IDX 8 15 9 16 10 17 11 18 12 19 17 20 13 21 15 22 14 23 16 24
REMARK SMILES IDX 23 25 24 26 25 27 26 29 27 30 28 31 86 32 29 33 85 34 30 35
REMARK SMILES IDX 31 36 32 37 79 38 33 39 84 40 78 41 80 42 34 43 83 44 77 45
REMARK SMILES IDX 76 46 35 48 65 49 46 50 64 51 47 52 50 53 63 54 81 55 48 56
REMARK SMILES IDX 49 57 62 59 82 60 51 61 36 62 37 63 45 64 38 65 44 66 39 67
REMARK SMILES IDX 40 68 41 69 42 70 43 71 66 72 67 73 75 74 68 75 74 76 69 77
REMARK SMILES IDX 70 78 71 79 72 80 73 81 52 82 53 83 61 84 54 85 60 86 55 87
REMARK SMILES IDX 56 88 57 89 58 90 59 91
REMARK H PARENT 20 6 6 14 24 28 80 47 50 58
REMARK Flexibility Score: inf
ROOT
ATOM      1  C   UNL A   1      32.165  30.400  26.932  1.00  0.00     0.042 C 
ENDROOT
BRANCH   1   2
ATOM      2  C   UNL A   1      31.844  30.127  25.467  1.00  0.00     0.117 C 
BRANCH   2   3
ATOM      3  N   UNL A   1      32.977  29.786  24.604  1.00  0.00    -0.354 N 
ATOM      4  C   UNL A   1      33.280  28.666  23.862  1.00  0.00     0.245 C 
ATOM      5  O   UNL A   1      34.117  28.832  22.966  1.00  0.00    -0.272 OA
ATOM      6  H   UNL A   1      33.655  30.498  24.541  1.00  0.00     0.163 HD
BRANCH   4   7
ATOM      7  C   UNL A   1      32.519  27.303  24.036  1.00  0.00     0.120 C 
BRANCH   7   8
ATOM      8  C   UNL A   1      30.957  27.271  23.940  1.00  0.00     0.035 C 
ATOM      9  C   UNL A   1      30.319  27.851  22.687  1.00  0.00     0.007 C 
ENDBRANCH   7   8
BRANCH   7  10
ATOM     10  C   UNL A   1      32.878  26.889  25.517  1.00  0.00     0.035 C 
ATOM     11  C   UNL A   1      31.735  26.660  26.497  1.00  0.00     0.007 C 
ENDBRANCH   7  10
BRANCH   7  12
ATOM     12  N   UNL A   1      33.066  26.372  23.018  1.00  0.00    -0.323 N 
ATOM     13  C   UNL A   1      33.148  25.029  22.830  1.00  0.00     0.318 C 
ATOM     14  H   UNL A   1      33.487  26.862  22.274  1.00  0.00     0.166 HD
ATOM     15  O   UNL A   1      33.779  24.712  21.815  1.00  0.00    -0.249 OA
BRANCH  13  16
ATOM     16  N   UNL A   1      32.508  24.083  23.606  1.00  0.00    -0.325 N 
ATOM     17  C   UNL A   1      31.260  23.417  23.292  1.00  0.00     0.149 C 
BRANCH  16  18
ATOM     18  C   UNL A   1      33.190  23.641  24.872  1.00  0.00     0.086 C 
ATOM     19  C   UNL A   1      32.687  22.327  25.496  1.00  0.00     0.025 C 
ATOM     20  C   UNL A   1      34.721  23.617  24.752  1.00  0.00     0.028 C 
ATOM     21  C   UNL A   1      33.332  21.035  24.984  1.00  0.00     0.002 C 
ATOM     22  C   UNL A   1      35.311  22.383  24.068  1.00  0.00    -0.012 C 
ATOM     23  C   UNL A   1      34.844  21.102  24.757  1.00  0.00     0.003 C 
ATOM     24  C   UNL A   1      36.839  22.476  24.017  1.00  0.00     0.008 C 
ENDBRANCH  16  18
ENDBRANCH  13  16
ENDBRANCH   7  12
ENDBRANCH   4   7
ENDBRANCH   2   3
ENDBRANCH   1   2
BRANCH   1  25
ATOM     25  C   UNL A   1      33.262  31.413  27.210  1.00  0.00     0.118 C 
BRANCH  25  26
ATOM     26  N   UNL A   1      32.823  32.723  27.630  1.00  0.00    -0.352 N 
ATOM     27  C   UNL A   1      33.449  33.666  28.411  1.00  0.00     0.251 C 
ATOM     28  H   UNL A   1      31.931  32.984  27.304  1.00  0.00     0.163 HD
ATOM     29  O   UNL A   1      32.900  34.759  28.552  1.00  0.00    -0.269 OA
BRANCH  27  30
ATOM     30  C   UNL A   1      34.715  33.392  29.147  1.00  0.00     0.039 A 
ATOM     31  C   UNL A   1      34.656  32.434  30.165  1.00  0.00     0.014 A 
ATOM     32  C   UNL A   1      35.928  34.049  28.908  1.00  0.00     0.014 A 
ATOM     33  C   UNL A   1      35.804  32.090  30.885  1.00  0.00     0.010 A 
ATOM     34  C   UNL A   1      37.096  33.650  29.580  1.00  0.00     0.010 A 
ATOM     35  C   UNL A   1      37.047  32.663  30.575  1.00  0.00    -0.014 A 
BRANCH  35  36
ATOM     36  C   UNL A   1      38.271  32.190  31.287  1.00  0.00     0.031 A 
ATOM     37  C   UNL A   1      38.664  32.745  32.631  1.00  0.00     0.074 A 
ATOM     38  C   UNL A   1      39.025  31.219  30.730  1.00  0.00     0.049 A 
ATOM     39  N   UNL A   1      39.621  32.352  33.435  1.00  0.00    -0.248 NA
ATOM     40  C   UNL A   1      37.896  33.894  33.134  1.00  0.00     0.031 C 
ATOM     41  C   UNL A   1      38.792  30.619  29.414  1.00  0.00     0.029 A 
ATOM     42  N   UNL A   1      40.127  30.550  31.206  1.00  0.00    -0.354 N 
ATOM     43  C   UNL A   1      39.568  33.197  34.537  1.00  0.00     0.074 A 
ATOM     44  C   UNL A   1      38.517  34.157  34.275  1.00  0.00     0.031 C 
ATOM     45  C   UNL A   1      39.688  29.641  29.210  1.00  0.00     0.029 A 
ATOM     46  C   UNL A   1      40.580  29.561  30.363  1.00  0.00     0.049 A 
ATOM     47  H   UNL A   1      40.553  30.759  32.069  1.00  0.00     0.167 HD
ATOM     48  C   UNL A   1      40.310  33.169  35.673  1.00  0.00     0.031 A 
ATOM     49  C   UNL A   1      41.589  28.678  30.499  1.00  0.00     0.031 A 
ATOM     50  C   UNL A   1      41.362  32.219  35.937  1.00  0.00     0.049 A 
ATOM     51  C   UNL A   1      42.402  28.668  31.766  1.00  0.00     0.074 A 
ATOM     52  C   UNL A   1      42.132  32.086  37.082  1.00  0.00     0.029 A 
ATOM     53  N   UNL A   1      41.802  31.250  35.050  1.00  0.00    -0.354 N 
ATOM     54  N   UNL A   1      42.278  29.424  32.830  1.00  0.00    -0.248 NA
ATOM     55  C   UNL A   1      43.478  27.671  31.855  1.00  0.00     0.031 C 
ATOM     56  C   UNL A   1      43.071  31.072  36.865  1.00  0.00     0.029 A 
ATOM     57  C   UNL A   1      42.847  30.533  35.609  1.00  0.00     0.049 A 
ATOM     58  H   UNL A   1      41.425  31.093  34.153  1.00  0.00     0.167 HD
ATOM     59  C   UNL A   1      43.246  28.978  33.725  1.00  0.00     0.074 A 
ATOM     60  C   UNL A   1      43.930  27.874  33.085  1.00  0.00     0.031 C 
ATOM     61  C   UNL A   1      43.536  29.442  34.965  1.00  0.00     0.031 A 
BRANCH  48  62
ATOM     62  C   UNL A   1      40.013  34.207  36.725  1.00  0.00    -0.014 A 
ATOM     63  C   UNL A   1      38.994  34.006  37.674  1.00  0.00     0.010 A 
ATOM     64  C   UNL A   1      40.797  35.372  36.801  1.00  0.00     0.010 A 
ATOM     65  C   UNL A   1      38.737  34.971  38.652  1.00  0.00     0.020 A 
ATOM     66  C   UNL A   1      40.561  36.327  37.795  1.00  0.00     0.020 A 
ATOM     67  C   UNL A   1      39.519  36.128  38.704  1.00  0.00     0.054 A 
BRANCH  67  68
ATOM     68  S   UNL A   1      39.176  37.354  39.995  1.00  0.00     0.124 S 
ATOM     69  O   UNL A   1      38.266  38.268  39.308  1.00  0.00    -0.237 OA
ATOM     70  O   UNL A   1      38.573  36.547  41.053  1.00  0.00    -0.237 OA
ATOM     71  O   UNL A   1      40.491  37.906  40.309  1.00  0.00    -0.744 OA
ENDBRANCH  67  68
ENDBRANCH  48  62
BRANCH  49  72
ATOM     72  C   UNL A   1      41.875  27.706  29.408  1.00  0.00    -0.014 A 
ATOM     73  C   UNL A   1      42.897  27.954  28.474  1.00  0.00     0.010 A 
ATOM     74  C   UNL A   1      41.128  26.519  29.303  1.00  0.00     0.010 A 
ATOM     75  C   UNL A   1      43.154  27.042  27.445  1.00  0.00     0.020 A 
ATOM     76  C   UNL A   1      41.401  25.592  28.295  1.00  0.00     0.020 A 
ATOM     77  C   UNL A   1      42.405  25.865  27.364  1.00  0.00     0.054 A 
BRANCH  77  78
ATOM     78  S   UNL A   1      42.790  24.669  26.055  1.00  0.00     0.124 S 
ATOM     79  O   UNL A   1      44.039  24.086  26.534  1.00  0.00    -0.237 OA
ATOM     80  O   UNL A   1      41.628  23.784  26.082  1.00  0.00    -0.237 OA
ATOM     81  O   UNL A   1      42.904  25.498  24.858  1.00  0.00    -0.744 OA
ENDBRANCH  77  78
ENDBRANCH  49  72
BRANCH  61  82
ATOM     82  C   UNL A   1      44.629  28.738  35.728  1.00  0.00    -0.014 A 
ATOM     83  C   UNL A   1      45.923  29.282  35.823  1.00  0.00     0.010 A 
ATOM     84  C   UNL A   1      44.350  27.524  36.383  1.00  0.00     0.010 A 
ATOM     85  C   UNL A   1      46.928  28.602  36.517  1.00  0.00     0.020 A 
ATOM     86  C   UNL A   1      45.344  26.856  37.102  1.00  0.00     0.020 A 
ATOM     87  C   UNL A   1      46.634  27.390  37.148  1.00  0.00     0.054 A 
BRANCH  87  88
ATOM     88  S   UNL A   1      47.949  26.534  38.058  1.00  0.00     0.124 S 
ATOM     89  O   UNL A   1      47.885  25.189  37.492  1.00  0.00    -0.237 OA
ATOM     90  O   UNL A   1      49.139  27.306  37.707  1.00  0.00    -0.237 OA
ATOM     91  O   UNL A   1      47.534  26.643  39.454  1.00  0.00    -0.744 OA
ENDBRANCH  87  88
ENDBRANCH  61  82
ENDBRANCH  35  36
ENDBRANCH  27  30
ENDBRANCH  25  26
ENDBRANCH   1  25
TORSDOF 18
ENDMDL
