MODEL 1
REMARK VINA RESULT:     -10.7      0.000      0.000
REMARK SMILES C=C[C@@H](C)Oc1cnc2ccccc2c1C(=O)NCCCNC(=O)c1ccc(-c2c3nc(c(-c4ccc(S(=O)(=O)[O-])cc4)c4ccc([nH]4)c(-c4ccc(S(=O)(=O)[O-])cc4)c4nc(c(-c5ccc(S(=O)(=O)[O-])cc5)c5ccc2[nH]5)C=C4)C=C3)cc1
REMARK SMILES IDX 20 1 19 2 18 3 16 4 17 5 15 7 6 8 7 9 8 10 14 11 9 12 13 13
REMARK SMILES IDX 10 14 12 15 11 16 5 17 3 18 4 19 2 20 1 21 21 22 22 23 23 24
REMARK SMILES IDX 24 26 25 27 26 28 84 29 27 30 83 31 28 32 29 33 30 34 77 35
REMARK SMILES IDX 31 36 82 37 76 38 78 39 32 40 81 41 75 42 74 43 33 45 63 46
REMARK SMILES IDX 44 47 62 48 45 49 48 50 61 51 79 52 46 53 47 54 60 56 80 57
REMARK SMILES IDX 49 58 34 59 35 60 43 61 36 62 42 63 37 64 38 65 39 66 40 67
REMARK SMILES IDX 41 68 64 69 65 70 73 71 66 72 72 73 67 74 68 75 69 76 70 77
REMARK SMILES IDX 71 78 50 79 51 80 59 81 52 82 58 83 53 84 54 85 55 86 56 87
REMARK SMILES IDX 57 88
REMARK H PARENT 18 6 22 25 78 44 48 55
REMARK Flexibility Score: inf
ROOT
ATOM      1  C   UNL A   1      34.212  28.082  25.511  1.00  0.00     0.042 C 
ENDROOT
BRANCH   1   2
ATOM      2  C   UNL A   1      33.484  28.733  24.324  1.00  0.00     0.118 C 
BRANCH   2   3
ATOM      3  N   UNL A   1      33.516  27.837  23.175  1.00  0.00    -0.352 N 
ATOM      4  C   UNL A   1      33.454  26.481  22.949  1.00  0.00     0.255 C 
ATOM      5  O   UNL A   1      33.738  26.171  21.788  1.00  0.00    -0.269 OA
ATOM      6  H   UNL A   1      33.606  28.338  22.331  1.00  0.00     0.163 HD
BRANCH   4   7
ATOM      7  C   UNL A   1      32.998  25.412  23.918  1.00  0.00     0.092 A 
ATOM      8  C   UNL A   1      31.600  25.263  24.076  1.00  0.00     0.151 A 
ATOM      9  C   UNL A   1      31.147  24.330  24.991  1.00  0.00     0.159 A 
ATOM     10  N   UNL A   1      31.934  23.629  25.826  1.00  0.00    -0.252 NA
ATOM     11  C   UNL A   1      33.848  24.529  24.656  1.00  0.00     0.017 A 
ATOM     12  C   UNL A   1      33.251  23.717  25.651  1.00  0.00     0.071 A 
ATOM     13  C   UNL A   1      35.227  24.312  24.445  1.00  0.00     0.011 A 
ATOM     14  C   UNL A   1      34.032  22.916  26.472  1.00  0.00     0.029 A 
ATOM     15  C   UNL A   1      36.012  23.519  25.283  1.00  0.00     0.001 A 
ATOM     16  C   UNL A   1      35.413  22.835  26.323  1.00  0.00     0.002 A 
BRANCH   8  17
ATOM     17  O   UNL A   1      30.722  25.897  23.243  1.00  0.00    -0.484 OA
BRANCH  17  18
ATOM     18  C   UNL A   1      29.865  26.945  23.720  1.00  0.00     0.192 C 
ATOM     19  C   UNL A   1      28.410  26.515  23.905  1.00  0.00     0.057 C 
BRANCH  18  20
ATOM     20  C   UNL A   1      30.004  28.220  22.920  1.00  0.00     0.009 C 
ATOM     21  C   UNL A   1      29.963  29.454  23.440  1.00  0.00     0.008 C 
ENDBRANCH  18  20
ENDBRANCH  17  18
ENDBRANCH   8  17
ENDBRANCH   4   7
ENDBRANCH   2   3
ENDBRANCH   1   2
BRANCH   1  22
ATOM     22  C   UNL A   1      33.517  28.231  26.859  1.00  0.00     0.118 C 
BRANCH  22  23
ATOM     23  N   UNL A   1      33.402  29.622  27.262  1.00  0.00    -0.352 N 
ATOM     24  C   UNL A   1      34.270  30.421  27.965  1.00  0.00     0.251 C 
ATOM     25  H   UNL A   1      32.567  30.064  26.985  1.00  0.00     0.163 HD
ATOM     26  O   UNL A   1      33.847  31.498  28.403  1.00  0.00    -0.269 OA
BRANCH  24  27
ATOM     27  C   UNL A   1      35.680  30.033  28.222  1.00  0.00     0.039 A 
ATOM     28  C   UNL A   1      36.037  29.611  29.510  1.00  0.00     0.014 A 
ATOM     29  C   UNL A   1      36.675  30.151  27.249  1.00  0.00     0.014 A 
ATOM     30  C   UNL A   1      37.365  29.275  29.803  1.00  0.00     0.010 A 
ATOM     31  C   UNL A   1      37.980  29.731  27.516  1.00  0.00     0.010 A 
ATOM     32  C   UNL A   1      38.347  29.309  28.802  1.00  0.00    -0.014 A 
BRANCH  32  33
ATOM     33  C   UNL A   1      39.765  28.950  29.090  1.00  0.00     0.031 A 
ATOM     34  C   UNL A   1      40.690  29.959  29.725  1.00  0.00     0.074 A 
ATOM     35  C   UNL A   1      40.238  27.736  28.739  1.00  0.00     0.049 A 
ATOM     36  N   UNL A   1      41.967  29.853  29.997  1.00  0.00    -0.248 NA
ATOM     37  C   UNL A   1      40.112  31.267  30.074  1.00  0.00     0.031 C 
ATOM     38  C   UNL A   1      39.462  26.680  28.084  1.00  0.00     0.029 A 
ATOM     39  N   UNL A   1      41.488  27.187  28.882  1.00  0.00    -0.354 N 
ATOM     40  C   UNL A   1      42.347  31.085  30.522  1.00  0.00     0.074 A 
ATOM     41  C   UNL A   1      41.178  31.937  30.485  1.00  0.00     0.031 C 
ATOM     42  C   UNL A   1      40.245  25.603  27.908  1.00  0.00     0.029 A 
ATOM     43  C   UNL A   1      41.585  25.900  28.403  1.00  0.00     0.049 A 
ATOM     44  H   UNL A   1      42.245  27.668  29.289  1.00  0.00     0.167 HD
ATOM     45  C   UNL A   1      43.552  31.470  31.010  1.00  0.00     0.031 A 
ATOM     46  C   UNL A   1      42.633  25.054  28.365  1.00  0.00     0.031 A 
ATOM     47  C   UNL A   1      44.707  30.615  31.072  1.00  0.00     0.049 A 
ATOM     48  C   UNL A   1      43.954  25.494  28.935  1.00  0.00     0.074 A 
ATOM     49  C   UNL A   1      45.958  30.893  31.595  1.00  0.00     0.029 A 
ATOM     50  N   UNL A   1      44.751  29.310  30.605  1.00  0.00    -0.354 N 
ATOM     51  N   UNL A   1      44.278  26.646  29.470  1.00  0.00    -0.248 NA
ATOM     52  C   UNL A   1      45.047  24.510  28.913  1.00  0.00     0.031 C 
ATOM     53  C   UNL A   1      46.769  29.769  31.411  1.00  0.00     0.029 A 
ATOM     54  C   UNL A   1      46.008  28.772  30.821  1.00  0.00     0.049 A 
ATOM     55  H   UNL A   1      43.998  28.836  30.182  1.00  0.00     0.167 HD
ATOM     56  C   UNL A   1      45.600  26.516  29.878  1.00  0.00     0.074 A 
ATOM     57  C   UNL A   1      46.013  25.169  29.537  1.00  0.00     0.031 C 
ATOM     58  C   UNL A   1      46.400  27.427  30.484  1.00  0.00     0.031 A 
BRANCH  45  59
ATOM     59  C   UNL A   1      43.678  32.883  31.519  1.00  0.00    -0.014 A 
ATOM     60  C   UNL A   1      44.035  33.937  30.658  1.00  0.00     0.010 A 
ATOM     61  C   UNL A   1      43.403  33.169  32.869  1.00  0.00     0.010 A 
ATOM     62  C   UNL A   1      44.160  35.240  31.146  1.00  0.00     0.020 A 
ATOM     63  C   UNL A   1      43.500  34.477  33.355  1.00  0.00     0.020 A 
ATOM     64  C   UNL A   1      43.898  35.501  32.493  1.00  0.00     0.054 A 
BRANCH  64  65
ATOM     65  S   UNL A   1      44.053  37.205  33.098  1.00  0.00     0.124 S 
ATOM     66  O   UNL A   1      43.944  37.974  31.859  1.00  0.00    -0.237 OA
ATOM     67  O   UNL A   1      42.915  37.326  34.010  1.00  0.00    -0.237 OA
ATOM     68  O   UNL A   1      45.362  37.231  33.735  1.00  0.00    -0.744 OA
ENDBRANCH  64  65
ENDBRANCH  45  59
BRANCH  46  69
ATOM     69  C   UNL A   1      42.465  23.688  27.796  1.00  0.00    -0.014 A 
ATOM     70  C   UNL A   1      42.775  23.435  26.449  1.00  0.00     0.010 A 
ATOM     71  C   UNL A   1      42.006  22.630  28.602  1.00  0.00     0.010 A 
ATOM     72  C   UNL A   1      42.612  22.155  25.911  1.00  0.00     0.020 A 
ATOM     73  C   UNL A   1      41.867  21.342  28.076  1.00  0.00     0.020 A 
ATOM     74  C   UNL A   1      42.161  21.115  26.728  1.00  0.00     0.054 A 
BRANCH  74  75
ATOM     75  S   UNL A   1      42.007  19.449  26.026  1.00  0.00     0.124 S 
ATOM     76  O   UNL A   1      40.574  19.359  25.768  1.00  0.00    -0.237 OA
ATOM     77  O   UNL A   1      42.860  19.526  24.841  1.00  0.00    -0.237 OA
ATOM     78  O   UNL A   1      42.510  18.583  27.089  1.00  0.00    -0.744 OA
ENDBRANCH  74  75
ENDBRANCH  46  69
BRANCH  58  79
ATOM     79  C   UNL A   1      47.787  26.986  30.866  1.00  0.00    -0.014 A 
ATOM     80  C   UNL A   1      48.888  27.218  30.023  1.00  0.00     0.010 A 
ATOM     81  C   UNL A   1      47.995  26.370  32.113  1.00  0.00     0.010 A 
ATOM     82  C   UNL A   1      50.168  26.809  30.406  1.00  0.00     0.020 A 
ATOM     83  C   UNL A   1      49.277  25.983  32.511  1.00  0.00     0.020 A 
ATOM     84  C   UNL A   1      50.354  26.191  31.647  1.00  0.00     0.054 A 
BRANCH  84  85
ATOM     85  S   UNL A   1      52.029  25.698  32.138  1.00  0.00     0.124 S 
ATOM     86  O   UNL A   1      51.818  24.335  32.614  1.00  0.00    -0.237 OA
ATOM     87  O   UNL A   1      52.779  25.819  30.890  1.00  0.00    -0.237 OA
ATOM     88  O   UNL A   1      52.388  26.671  33.169  1.00  0.00    -0.744 OA
ENDBRANCH  84  85
ENDBRANCH  58  79
ENDBRANCH  32  33
ENDBRANCH  24  27
ENDBRANCH  22  23
ENDBRANCH   1  22
TORSDOF 16
ENDMDL
MODEL 2
REMARK VINA RESULT:     -10.5      4.621     10.342
REMARK SMILES C=C[C@@H](C)Oc1cnc2ccccc2c1C(=O)NCCCNC(=O)c1ccc(-c2c3nc(c(-c4ccc(S(=O)(=O)[O-])cc4)c4ccc([nH]4)c(-c4ccc(S(=O)(=O)[O-])cc4)c4nc(c(-c5ccc(S(=O)(=O)[O-])cc5)c5ccc2[nH]5)C=C4)C=C3)cc1
REMARK SMILES IDX 20 1 19 2 18 3 16 4 17 5 15 7 6 8 7 9 8 10 14 11 9 12 13 13
REMARK SMILES IDX 10 14 12 15 11 16 5 17 3 18 4 19 2 20 1 21 21 22 22 23 23 24
REMARK SMILES IDX 24 26 25 27 26 28 84 29 27 30 83 31 28 32 29 33 30 34 77 35
REMARK SMILES IDX 31 36 82 37 76 38 78 39 32 40 81 41 75 42 74 43 33 45 63 46
REMARK SMILES IDX 44 47 62 48 45 49 48 50 61 51 79 52 46 53 47 54 60 56 80 57
REMARK SMILES IDX 49 58 34 59 35 60 43 61 36 62 42 63 37 64 38 65 39 66 40 67
REMARK SMILES IDX 41 68 64 69 65 70 73 71 66 72 72 73 67 74 68 75 69 76 70 77
REMARK SMILES IDX 71 78 50 79 51 80 59 81 52 82 58 83 53 84 54 85 55 86 56 87
REMARK SMILES IDX 57 88
REMARK H PARENT 18 6 22 25 78 44 48 55
REMARK Flexibility Score: inf
ROOT
ATOM      1  C   UNL A   1      38.661  22.694  26.242  1.00  0.00     0.042 C 
ENDROOT
BRANCH   1   2
ATOM      2  C   UNL A   1      37.591  23.634  25.661  1.00  0.00     0.118 C 
BRANCH   2   3
ATOM      3  N   UNL A   1      36.298  23.343  26.267  1.00  0.00    -0.352 N 
ATOM      4  C   UNL A   1      34.971  23.552  25.965  1.00  0.00     0.255 C 
ATOM      5  O   UNL A   1      34.217  23.305  26.910  1.00  0.00    -0.269 OA
ATOM      6  H   UNL A   1      36.400  22.868  27.124  1.00  0.00     0.163 HD
BRANCH   4   7
ATOM      7  C   UNL A   1      34.388  23.940  24.625  1.00  0.00     0.092 A 
ATOM      8  C   UNL A   1      34.124  22.880  23.724  1.00  0.00     0.151 A 
ATOM      9  C   UNL A   1      33.638  23.201  22.469  1.00  0.00     0.159 A 
ATOM     10  N   UNL A   1      33.500  24.452  21.997  1.00  0.00    -0.252 NA
ATOM     11  C   UNL A   1      34.055  25.267  24.204  1.00  0.00     0.017 A 
ATOM     12  C   UNL A   1      33.690  25.458  22.849  1.00  0.00     0.071 A 
ATOM     13  C   UNL A   1      33.968  26.414  25.022  1.00  0.00     0.011 A 
ATOM     14  C   UNL A   1      33.457  26.733  22.354  1.00  0.00     0.029 A 
ATOM     15  C   UNL A   1      33.749  27.697  24.518  1.00  0.00     0.001 A 
ATOM     16  C   UNL A   1      33.518  27.861  23.165  1.00  0.00     0.002 A 
BRANCH   8  17
ATOM     17  O   UNL A   1      34.190  21.576  24.127  1.00  0.00    -0.484 OA
BRANCH  17  18
ATOM     18  C   UNL A   1      33.036  20.894  24.640  1.00  0.00     0.192 C 
ATOM     19  C   UNL A   1      33.307  20.099  25.916  1.00  0.00     0.057 C 
BRANCH  18  20
ATOM     20  C   UNL A   1      32.322  20.083  23.583  1.00  0.00     0.009 C 
ATOM     21  C   UNL A   1      32.633  18.822  23.251  1.00  0.00     0.008 C 
ENDBRANCH  18  20
ENDBRANCH  17  18
ENDBRANCH   8  17
ENDBRANCH   4   7
ENDBRANCH   2   3
ENDBRANCH   1   2
BRANCH   1  22
ATOM     22  C   UNL A   1      39.783  23.384  27.008  1.00  0.00     0.118 C 
BRANCH  22  23
ATOM     23  N   UNL A   1      40.767  23.976  26.118  1.00  0.00    -0.352 N 
ATOM     24  C   UNL A   1      41.325  25.231  26.114  1.00  0.00     0.251 C 
ATOM     25  H   UNL A   1      41.085  23.382  25.400  1.00  0.00     0.163 HD
ATOM     26  O   UNL A   1      41.953  25.588  25.110  1.00  0.00    -0.269 OA
BRANCH  24  27
ATOM     27  C   UNL A   1      41.192  26.166  27.260  1.00  0.00     0.039 A 
ATOM     28  C   UNL A   1      40.162  25.952  28.186  1.00  0.00     0.014 A 
ATOM     29  C   UNL A   1      42.005  27.293  27.402  1.00  0.00     0.014 A 
ATOM     30  C   UNL A   1      39.978  26.834  29.259  1.00  0.00     0.010 A 
ATOM     31  C   UNL A   1      41.878  28.121  28.519  1.00  0.00     0.010 A 
ATOM     32  C   UNL A   1      40.850  27.916  29.450  1.00  0.00    -0.014 A 
BRANCH  32  33
ATOM     33  C   UNL A   1      40.677  28.864  30.587  1.00  0.00     0.031 A 
ATOM     34  C   UNL A   1      41.546  28.744  31.814  1.00  0.00     0.074 A 
ATOM     35  C   UNL A   1      39.709  29.802  30.542  1.00  0.00     0.049 A 
ATOM     36  N   UNL A   1      41.507  29.434  32.926  1.00  0.00    -0.248 NA
ATOM     37  C   UNL A   1      42.577  27.692  31.802  1.00  0.00     0.031 C 
ATOM     38  C   UNL A   1      38.773  30.004  29.433  1.00  0.00     0.029 A 
ATOM     39  N   UNL A   1      39.349  30.762  31.456  1.00  0.00    -0.354 N 
ATOM     40  C   UNL A   1      42.484  28.884  33.751  1.00  0.00     0.074 A 
ATOM     41  C   UNL A   1      43.066  27.774  33.030  1.00  0.00     0.031 C 
ATOM     42  C   UNL A   1      37.967  31.040  29.719  1.00  0.00     0.029 A 
ATOM     43  C   UNL A   1      38.302  31.554  31.042  1.00  0.00     0.049 A 
ATOM     44  H   UNL A   1      39.798  30.874  32.325  1.00  0.00     0.167 HD
ATOM     45  C   UNL A   1      42.878  29.278  34.987  1.00  0.00     0.031 A 
ATOM     46  C   UNL A   1      37.679  32.578  31.659  1.00  0.00     0.031 A 
ATOM     47  C   UNL A   1      42.319  30.399  35.693  1.00  0.00     0.049 A 
ATOM     48  C   UNL A   1      38.149  33.013  33.020  1.00  0.00     0.074 A 
ATOM     49  C   UNL A   1      42.683  30.910  36.927  1.00  0.00     0.029 A 
ATOM     50  N   UNL A   1      41.282  31.191  35.224  1.00  0.00    -0.354 N 
ATOM     51  N   UNL A   1      39.107  32.509  33.760  1.00  0.00    -0.248 NA
ATOM     52  C   UNL A   1      37.466  34.168  33.620  1.00  0.00     0.031 C 
ATOM     53  C   UNL A   1      41.843  31.988  37.220  1.00  0.00     0.029 A 
ATOM     54  C   UNL A   1      40.989  32.182  36.146  1.00  0.00     0.049 A 
ATOM     55  H   UNL A   1      40.822  31.067  34.362  1.00  0.00     0.167 HD
ATOM     56  C   UNL A   1      39.164  33.305  34.898  1.00  0.00     0.074 A 
ATOM     57  C   UNL A   1      38.152  34.329  34.744  1.00  0.00     0.031 C 
ATOM     58  C   UNL A   1      39.984  33.200  35.973  1.00  0.00     0.031 A 
BRANCH  45  59
ATOM     59  C   UNL A   1      43.974  28.485  35.654  1.00  0.00    -0.014 A 
ATOM     60  C   UNL A   1      45.328  28.823  35.472  1.00  0.00     0.010 A 
ATOM     61  C   UNL A   1      43.647  27.410  36.500  1.00  0.00     0.010 A 
ATOM     62  C   UNL A   1      46.334  28.072  36.085  1.00  0.00     0.020 A 
ATOM     63  C   UNL A   1      44.650  26.674  37.139  1.00  0.00     0.020 A 
ATOM     64  C   UNL A   1      45.989  26.999  36.910  1.00  0.00     0.054 A 
BRANCH  64  65
ATOM     65  S   UNL A   1      47.314  26.049  37.708  1.00  0.00     0.124 S 
ATOM     66  O   UNL A   1      46.617  24.820  38.083  1.00  0.00    -0.237 OA
ATOM     67  O   UNL A   1      48.297  25.906  36.633  1.00  0.00    -0.237 OA
ATOM     68  O   UNL A   1      47.729  26.895  38.818  1.00  0.00    -0.744 OA
ENDBRANCH  64  65
ENDBRANCH  45  59
BRANCH  46  69
ATOM     69  C   UNL A   1      36.562  33.287  30.976  1.00  0.00    -0.014 A 
ATOM     70  C   UNL A   1      35.289  33.351  31.569  1.00  0.00     0.010 A 
ATOM     71  C   UNL A   1      36.768  33.914  29.733  1.00  0.00     0.010 A 
ATOM     72  C   UNL A   1      34.238  34.011  30.927  1.00  0.00     0.020 A 
ATOM     73  C   UNL A   1      35.727  34.599  29.099  1.00  0.00     0.020 A 
ATOM     74  C   UNL A   1      34.464  34.633  29.696  1.00  0.00     0.054 A 
BRANCH  74  75
ATOM     75  S   UNL A   1      33.100  35.531  28.903  1.00  0.00     0.124 S 
ATOM     76  O   UNL A   1      32.467  34.483  28.109  1.00  0.00    -0.237 OA
ATOM     77  O   UNL A   1      32.329  36.010  30.048  1.00  0.00    -0.237 OA
ATOM     78  O   UNL A   1      33.778  36.575  28.139  1.00  0.00    -0.744 OA
ENDBRANCH  74  75
ENDBRANCH  46  69
BRANCH  58  79
ATOM     79  C   UNL A   1      39.857  34.248  37.045  1.00  0.00    -0.014 A 
ATOM     80  C   UNL A   1      40.508  35.489  36.937  1.00  0.00     0.010 A 
ATOM     81  C   UNL A   1      39.033  33.999  38.157  1.00  0.00     0.010 A 
ATOM     82  C   UNL A   1      40.364  36.450  37.941  1.00  0.00     0.020 A 
ATOM     83  C   UNL A   1      38.867  34.967  39.151  1.00  0.00     0.020 A 
ATOM     84  C   UNL A   1      39.547  36.182  39.043  1.00  0.00     0.054 A 
BRANCH  84  85
ATOM     85  S   UNL A   1      39.349  37.457  40.318  1.00  0.00     0.124 S 
ATOM     86  O   UNL A   1      38.744  36.703  41.411  1.00  0.00    -0.237 OA
ATOM     87  O   UNL A   1      40.722  37.901  40.546  1.00  0.00    -0.237 OA
ATOM     88  O   UNL A   1      38.478  38.447  39.686  1.00  0.00    -0.744 OA
ENDBRANCH  84  85
ENDBRANCH  58  79
ENDBRANCH  32  33
ENDBRANCH  24  27
ENDBRANCH  22  23
ENDBRANCH   1  22
TORSDOF 16
ENDMDL
MODEL 3
REMARK VINA RESULT:     -10.4      2.870      3.655
REMARK SMILES C=C[C@@H](C)Oc1cnc2ccccc2c1C(=O)NCCCNC(=O)c1ccc(-c2c3nc(c(-c4ccc(S(=O)(=O)[O-])cc4)c4ccc([nH]4)c(-c4ccc(S(=O)(=O)[O-])cc4)c4nc(c(-c5ccc(S(=O)(=O)[O-])cc5)c5ccc2[nH]5)C=C4)C=C3)cc1
REMARK SMILES IDX 20 1 19 2 18 3 16 4 17 5 15 7 6 8 7 9 8 10 14 11 9 12 13 13
REMARK SMILES IDX 10 14 12 15 11 16 5 17 3 18 4 19 2 20 1 21 21 22 22 23 23 24
REMARK SMILES IDX 24 26 25 27 26 28 84 29 27 30 83 31 28 32 29 33 30 34 77 35
REMARK SMILES IDX 31 36 82 37 76 38 78 39 32 40 81 41 75 42 74 43 33 45 63 46
REMARK SMILES IDX 44 47 62 48 45 49 48 50 61 51 79 52 46 53 47 54 60 56 80 57
REMARK SMILES IDX 49 58 34 59 35 60 43 61 36 62 42 63 37 64 38 65 39 66 40 67
REMARK SMILES IDX 41 68 64 69 65 70 73 71 66 72 72 73 67 74 68 75 69 76 70 77
REMARK SMILES IDX 71 78 50 79 51 80 59 81 52 82 58 83 53 84 54 85 55 86 56 87
REMARK SMILES IDX 57 88
REMARK H PARENT 18 6 22 25 78 44 48 55
REMARK Flexibility Score: inf
ROOT
ATOM      1  C   UNL A   1      33.294  27.776  26.814  1.00  0.00     0.042 C 
ENDROOT
BRANCH   1   2
ATOM      2  C   UNL A   1      31.812  28.122  27.033  1.00  0.00     0.118 C 
BRANCH   2   3
ATOM      3  N   UNL A   1      31.013  26.904  27.014  1.00  0.00    -0.352 N 
ATOM      4  C   UNL A   1      30.700  25.915  26.109  1.00  0.00     0.255 C 
ATOM      5  O   UNL A   1      29.792  25.175  26.498  1.00  0.00    -0.269 OA
ATOM      6  H   UNL A   1      30.580  26.744  27.885  1.00  0.00     0.163 HD
BRANCH   4   7
ATOM      7  C   UNL A   1      31.400  25.616  24.802  1.00  0.00     0.092 A 
ATOM      8  C   UNL A   1      30.818  26.170  23.637  1.00  0.00     0.151 A 
ATOM      9  C   UNL A   1      31.402  25.876  22.418  1.00  0.00     0.159 A 
ATOM     10  N   UNL A   1      32.417  25.012  22.242  1.00  0.00    -0.252 NA
ATOM     11  C   UNL A   1      32.602  24.856  24.647  1.00  0.00     0.017 A 
ATOM     12  C   UNL A   1      33.009  24.527  23.331  1.00  0.00     0.071 A 
ATOM     13  C   UNL A   1      33.488  24.460  25.672  1.00  0.00     0.011 A 
ATOM     14  C   UNL A   1      34.107  23.705  23.116  1.00  0.00     0.029 A 
ATOM     15  C   UNL A   1      34.582  23.621  25.454  1.00  0.00     0.001 A 
ATOM     16  C   UNL A   1      34.878  23.217  24.166  1.00  0.00     0.002 A 
BRANCH   8  17
ATOM     17  O   UNL A   1      29.815  27.094  23.718  1.00  0.00    -0.484 OA
BRANCH  17  18
ATOM     18  C   UNL A   1      29.940  28.387  23.108  1.00  0.00     0.192 C 
ATOM     19  C   UNL A   1      30.661  29.413  23.981  1.00  0.00     0.057 C 
BRANCH  18  20
ATOM     20  C   UNL A   1      28.629  28.901  22.558  1.00  0.00     0.009 C 
ATOM     21  C   UNL A   1      27.433  28.697  23.126  1.00  0.00     0.008 C 
ENDBRANCH  18  20
ENDBRANCH  17  18
ENDBRANCH   8  17
ENDBRANCH   4   7
ENDBRANCH   2   3
ENDBRANCH   1   2
BRANCH   1  22
ATOM     22  C   UNL A   1      34.082  28.787  25.989  1.00  0.00     0.118 C 
BRANCH  22  23
ATOM     23  N   UNL A   1      33.795  30.155  26.385  1.00  0.00    -0.352 N 
ATOM     24  C   UNL A   1      34.321  30.919  27.397  1.00  0.00     0.251 C 
ATOM     25  H   UNL A   1      33.113  30.608  25.839  1.00  0.00     0.163 HD
ATOM     26  O   UNL A   1      33.743  31.970  27.697  1.00  0.00    -0.269 OA
BRANCH  24  27
ATOM     27  C   UNL A   1      35.543  30.522  28.143  1.00  0.00     0.039 A 
ATOM     28  C   UNL A   1      36.786  30.985  27.691  1.00  0.00     0.014 A 
ATOM     29  C   UNL A   1      35.503  29.641  29.226  1.00  0.00     0.014 A 
ATOM     30  C   UNL A   1      37.965  30.601  28.342  1.00  0.00     0.010 A 
ATOM     31  C   UNL A   1      36.668  29.330  29.930  1.00  0.00     0.010 A 
ATOM     32  C   UNL A   1      37.917  29.787  29.484  1.00  0.00    -0.014 A 
BRANCH  32  33
ATOM     33  C   UNL A   1      39.158  29.371  30.197  1.00  0.00     0.031 A 
ATOM     34  C   UNL A   1      39.573  30.068  31.469  1.00  0.00     0.074 A 
ATOM     35  C   UNL A   1      39.940  28.401  29.679  1.00  0.00     0.049 A 
ATOM     36  N   UNL A   1      40.646  29.889  32.198  1.00  0.00    -0.248 NA
ATOM     37  C   UNL A   1      38.679  31.123  31.974  1.00  0.00     0.031 C 
ATOM     38  C   UNL A   1      39.677  27.672  28.436  1.00  0.00     0.029 A 
ATOM     39  N   UNL A   1      41.120  27.864  30.134  1.00  0.00    -0.354 N 
ATOM     40  C   UNL A   1      40.569  30.824  33.226  1.00  0.00     0.074 A 
ATOM     41  C   UNL A   1      39.369  31.598  33.000  1.00  0.00     0.031 C 
ATOM     42  C   UNL A   1      40.649  26.765  28.243  1.00  0.00     0.029 A 
ATOM     43  C   UNL A   1      41.622  26.870  29.325  1.00  0.00     0.049 A 
ATOM     44  H   UNL A   1      41.564  28.162  30.960  1.00  0.00     0.167 HD
ATOM     45  C   UNL A   1      41.406  31.009  34.276  1.00  0.00     0.031 A 
ATOM     46  C   UNL A   1      42.741  26.127  29.440  1.00  0.00     0.031 A 
ATOM     47  C   UNL A   1      42.585  30.221  34.516  1.00  0.00     0.049 A 
ATOM     48  C   UNL A   1      43.643  26.333  30.626  1.00  0.00     0.074 A 
ATOM     49  C   UNL A   1      43.471  30.295  35.578  1.00  0.00     0.029 A 
ATOM     50  N   UNL A   1      43.039  29.204  33.689  1.00  0.00    -0.354 N 
ATOM     51  N   UNL A   1      43.524  27.190  31.612  1.00  0.00    -0.248 NA
ATOM     52  C   UNL A   1      44.820  25.458  30.725  1.00  0.00     0.031 C 
ATOM     53  C   UNL A   1      44.480  29.349  35.374  1.00  0.00     0.029 A 
ATOM     54  C   UNL A   1      44.194  28.649  34.212  1.00  0.00     0.049 A 
ATOM     55  H   UNL A   1      42.603  28.919  32.854  1.00  0.00     0.167 HD
ATOM     56  C   UNL A   1      44.592  26.936  32.465  1.00  0.00     0.074 A 
ATOM     57  C   UNL A   1      45.339  25.839  31.884  1.00  0.00     0.031 C 
ATOM     58  C   UNL A   1      44.921  27.552  33.626  1.00  0.00     0.031 A 
BRANCH  45  59
ATOM     59  C   UNL A   1      41.071  32.112  35.248  1.00  0.00    -0.014 A 
ATOM     60  C   UNL A   1      40.250  31.870  36.365  1.00  0.00     0.010 A 
ATOM     61  C   UNL A   1      41.609  33.398  35.062  1.00  0.00     0.010 A 
ATOM     62  C   UNL A   1      39.936  32.905  37.251  1.00  0.00     0.020 A 
ATOM     63  C   UNL A   1      41.322  34.429  35.963  1.00  0.00     0.020 A 
ATOM     64  C   UNL A   1      40.469  34.179  37.041  1.00  0.00     0.054 A 
BRANCH  64  65
ATOM     65  S   UNL A   1      40.060  35.501  38.215  1.00  0.00     0.124 S 
ATOM     66  O   UNL A   1      41.293  35.601  38.995  1.00  0.00    -0.237 OA
ATOM     67  O   UNL A   1      39.784  36.636  37.335  1.00  0.00    -0.237 OA
ATOM     68  O   UNL A   1      38.906  34.981  38.936  1.00  0.00    -0.744 OA
ENDBRANCH  64  65
ENDBRANCH  45  59
BRANCH  46  69
ATOM     69  C   UNL A   1      43.052  25.091  28.417  1.00  0.00    -0.014 A 
ATOM     70  C   UNL A   1      42.514  23.797  28.526  1.00  0.00     0.010 A 
ATOM     71  C   UNL A   1      43.879  25.396  27.320  1.00  0.00     0.010 A 
ATOM     72  C   UNL A   1      42.811  22.821  27.570  1.00  0.00     0.020 A 
ATOM     73  C   UNL A   1      44.157  24.432  26.347  1.00  0.00     0.020 A 
ATOM     74  C   UNL A   1      43.629  23.145  26.484  1.00  0.00     0.054 A 
BRANCH  74  75
ATOM     75  S   UNL A   1      43.959  21.881  25.225  1.00  0.00     0.124 S 
ATOM     76  O   UNL A   1      43.598  22.578  23.994  1.00  0.00    -0.237 OA
ATOM     77  O   UNL A   1      45.384  21.616  25.408  1.00  0.00    -0.237 OA
ATOM     78  O   UNL A   1      43.075  20.782  25.606  1.00  0.00    -0.744 OA
ENDBRANCH  74  75
ENDBRANCH  46  69
BRANCH  58  79
ATOM     79  C   UNL A   1      46.114  27.023  34.376  1.00  0.00    -0.014 A 
ATOM     80  C   UNL A   1      47.401  27.550  34.171  1.00  0.00     0.010 A 
ATOM     81  C   UNL A   1      45.931  26.013  35.337  1.00  0.00     0.010 A 
ATOM     82  C   UNL A   1      48.490  27.049  34.889  1.00  0.00     0.020 A 
ATOM     83  C   UNL A   1      47.013  25.527  36.075  1.00  0.00     0.020 A 
ATOM     84  C   UNL A   1      48.290  26.039  35.834  1.00  0.00     0.054 A 
BRANCH  84  85
ATOM     85  S   UNL A   1      49.713  25.427  36.778  1.00  0.00     0.124 S 
ATOM     86  O   UNL A   1      49.300  25.687  38.154  1.00  0.00    -0.237 OA
ATOM     87  O   UNL A   1      49.773  24.020  36.395  1.00  0.00    -0.237 OA
ATOM     88  O   UNL A   1      50.825  26.245  36.297  1.00  0.00    -0.744 OA
ENDBRANCH  84  85
ENDBRANCH  58  79
ENDBRANCH  32  33
ENDBRANCH  24  27
ENDBRANCH  22  23
ENDBRANCH   1  22
TORSDOF 16
ENDMDL
