MODEL 1
REMARK VINA RESULT:     -11.8      0.000      0.000
REMARK SMILES CN(C)S(=O)(=O)c1ccc(NC(=O)[C@@H]2CCCC[C@@H]2C(=O)NCCCNC(=O)c2ccc(-c3c4nc(c(-c5ccc(S(=O)(=O)[O-])cc5)c5ccc([nH]5)c(-c5ccc(S(=O)(=O)[O-])cc5)c5nc(c(-c6ccc(S(=O)(=O)[O-])cc6)c6ccc3[nH]6)C=C5)C=C4)cc2)cc1
REMARK SMILES IDX 23 1 22 2 20 3 21 4 19 6 14 7 15 8 16 9 18 10 17 11 12 12
REMARK SMILES IDX 11 13 13 15 10 16 7 17 8 18 90 19 9 20 89 21 4 22 5 23 6 24
REMARK SMILES IDX 2 25 1 26 3 27 24 28 25 29 26 30 27 31 28 33 29 34 30 35
REMARK SMILES IDX 88 36 31 37 87 38 32 39 33 40 34 41 81 42 35 43 86 44 80 45
REMARK SMILES IDX 82 46 36 47 85 48 79 49 78 50 37 52 67 53 48 54 66 55 49 56
REMARK SMILES IDX 52 57 65 58 83 59 50 60 51 61 64 63 84 64 53 65 38 66 39 67
REMARK SMILES IDX 47 68 40 69 46 70 41 71 42 72 43 73 44 74 45 75 68 76 69 77
REMARK SMILES IDX 77 78 70 79 76 80 71 81 72 82 73 83 74 84 75 85 54 86 55 87
REMARK SMILES IDX 63 88 56 89 62 90 57 91 58 92 59 93 60 94 61 95
REMARK H PARENT 22 5 11 14 26 32 82 51 52 62
REMARK Flexibility Score: inf
ROOT
ATOM      1  C   UNL A   1      32.847  30.255  26.170  1.00  0.00     0.117 C 
ENDROOT
BRANCH   1   2
ATOM      2  N   UNL A   1      32.533  28.845  26.271  1.00  0.00    -0.356 N 
ATOM      3  C   UNL A   1      32.172  27.912  25.361  1.00  0.00     0.223 C 
ATOM      4  O   UNL A   1      32.268  26.744  25.755  1.00  0.00    -0.275 OA
ATOM      5  H   UNL A   1      32.594  28.494  27.189  1.00  0.00     0.163 HD
BRANCH   3   6
ATOM      6  C   UNL A   1      31.695  28.243  23.938  1.00  0.00     0.091 C 
ATOM      7  C   UNL A   1      31.017  27.151  23.068  1.00  0.00     0.091 C 
ATOM      8  C   UNL A   1      31.867  26.252  22.143  1.00  0.00     0.014 C 
ATOM      9  C   UNL A   1      33.184  26.845  21.654  1.00  0.00     0.001 C 
ATOM     10  C   UNL A   1      32.877  28.848  23.144  1.00  0.00     0.014 C 
ATOM     11  C   UNL A   1      33.852  27.780  22.647  1.00  0.00     0.001 C 
BRANCH   7  12
ATOM     12  C   UNL A   1      29.846  26.428  23.722  1.00  0.00     0.228 C 
ATOM     13  N   UNL A   1      29.835  25.144  24.163  1.00  0.00    -0.326 N 
ATOM     14  H   UNL A   1      28.933  24.855  24.433  1.00  0.00     0.169 HD
ATOM     15  O   UNL A   1      28.793  27.063  23.883  1.00  0.00    -0.274 OA
BRANCH  13  16
ATOM     16  C   UNL A   1      30.786  24.127  24.332  1.00  0.00     0.041 A 
ATOM     17  C   UNL A   1      32.532  21.980  24.825  1.00  0.00     0.082 A 
ATOM     18  C   UNL A   1      32.188  22.324  23.527  1.00  0.00     0.024 A 
ATOM     19  C   UNL A   1      32.031  22.726  25.894  1.00  0.00     0.024 A 
ATOM     20  C   UNL A   1      31.371  23.420  23.293  1.00  0.00     0.027 A 
ATOM     21  C   UNL A   1      31.157  23.796  25.642  1.00  0.00     0.027 A 
BRANCH  17  22
ATOM     22  S   UNL A   1      33.429  20.475  25.097  1.00  0.00     0.242 S 
ATOM     23  O   UNL A   1      33.094  19.584  24.000  1.00  0.00    -0.207 OA
ATOM     24  O   UNL A   1      33.212  20.091  26.473  1.00  0.00    -0.207 OA
BRANCH  22  25
ATOM     25  N   UNL A   1      35.096  20.884  24.940  1.00  0.00    -0.204 NA
ATOM     26  C   UNL A   1      35.487  21.870  25.985  1.00  0.00     0.124 C 
ATOM     27  C   UNL A   1      36.060  19.759  24.913  1.00  0.00     0.124 C 
ENDBRANCH  22  25
ENDBRANCH  17  22
ENDBRANCH  13  16
ENDBRANCH   7  12
ENDBRANCH   3   6
ENDBRANCH   1   2
BRANCH   1  28
ATOM     28  C   UNL A   1      33.459  30.856  27.445  1.00  0.00     0.042 C 
BRANCH  28  29
ATOM     29  C   UNL A   1      34.920  30.474  27.734  1.00  0.00     0.118 C 
BRANCH  29  30
ATOM     30  N   UNL A   1      35.233  30.722  29.131  1.00  0.00    -0.352 N 
ATOM     31  C   UNL A   1      36.161  30.167  29.970  1.00  0.00     0.251 C 
ATOM     32  H   UNL A   1      34.676  31.416  29.550  1.00  0.00     0.163 HD
ATOM     33  O   UNL A   1      35.916  30.194  31.177  1.00  0.00    -0.269 OA
BRANCH  31  34
ATOM     34  C   UNL A   1      37.450  29.587  29.511  1.00  0.00     0.039 A 
ATOM     35  C   UNL A   1      38.322  29.096  30.493  1.00  0.00     0.014 A 
ATOM     36  C   UNL A   1      37.907  29.696  28.194  1.00  0.00     0.014 A 
ATOM     37  C   UNL A   1      39.636  28.739  30.171  1.00  0.00     0.010 A 
ATOM     38  C   UNL A   1      39.216  29.299  27.865  1.00  0.00     0.010 A 
ATOM     39  C   UNL A   1      40.104  28.838  28.852  1.00  0.00    -0.014 A 
BRANCH  39  40
ATOM     40  C   UNL A   1      41.519  28.490  28.523  1.00  0.00     0.031 A 
ATOM     41  C   UNL A   1      42.604  29.541  28.543  1.00  0.00     0.074 A 
ATOM     42  C   UNL A   1      41.844  27.220  28.207  1.00  0.00     0.049 A 
ATOM     43  N   UNL A   1      43.881  29.419  28.270  1.00  0.00    -0.248 NA
ATOM     44  C   UNL A   1      42.203  30.906  28.917  1.00  0.00     0.031 C 
ATOM     45  C   UNL A   1      40.908  26.095  28.153  1.00  0.00     0.029 A 
ATOM     46  N   UNL A   1      43.054  26.659  27.871  1.00  0.00    -0.354 N 
ATOM     47  C   UNL A   1      44.430  30.689  28.414  1.00  0.00     0.074 A 
ATOM     48  C   UNL A   1      43.342  31.574  28.775  1.00  0.00     0.031 C 
ATOM     49  C   UNL A   1      41.578  24.981  27.818  1.00  0.00     0.029 A 
ATOM     50  C   UNL A   1      42.982  25.314  27.590  1.00  0.00     0.049 A 
ATOM     51  H   UNL A   1      43.893  27.172  27.835  1.00  0.00     0.167 HD
ATOM     52  C   UNL A   1      45.719  31.087  28.268  1.00  0.00     0.031 A 
ATOM     53  C   UNL A   1      43.927  24.445  27.181  1.00  0.00     0.031 A 
ATOM     54  C   UNL A   1      46.808  30.212  27.914  1.00  0.00     0.049 A 
ATOM     55  C   UNL A   1      45.343  24.917  26.986  1.00  0.00     0.074 A 
ATOM     56  C   UNL A   1      48.154  30.522  27.792  1.00  0.00     0.029 A 
ATOM     57  N   UNL A   1      46.684  28.864  27.617  1.00  0.00    -0.354 N 
ATOM     58  N   UNL A   1      45.848  26.110  27.181  1.00  0.00    -0.248 NA
ATOM     59  C   UNL A   1      46.319  23.918  26.524  1.00  0.00     0.031 C 
ATOM     60  C   UNL A   1      48.833  29.375  27.368  1.00  0.00     0.029 A 
ATOM     61  C   UNL A   1      47.922  28.336  27.283  1.00  0.00     0.049 A 
ATOM     62  H   UNL A   1      45.841  28.357  27.638  1.00  0.00     0.167 HD
ATOM     63  C   UNL A   1      47.203  26.002  26.885  1.00  0.00     0.074 A 
ATOM     64  C   UNL A   1      47.443  24.622  26.519  1.00  0.00     0.031 C 
ATOM     65  C   UNL A   1      48.159  26.962  26.917  1.00  0.00     0.031 A 
BRANCH  52  66
ATOM     66  C   UNL A   1      46.030  32.550  28.470  1.00  0.00    -0.014 A 
ATOM     67  C   UNL A   1      45.952  33.466  27.406  1.00  0.00     0.010 A 
ATOM     68  C   UNL A   1      46.348  33.024  29.757  1.00  0.00     0.010 A 
ATOM     69  C   UNL A   1      46.228  34.821  27.616  1.00  0.00     0.020 A 
ATOM     70  C   UNL A   1      46.598  34.382  29.976  1.00  0.00     0.020 A 
ATOM     71  C   UNL A   1      46.556  35.270  28.900  1.00  0.00     0.054 A 
BRANCH  71  72
ATOM     72  S   UNL A   1      46.897  37.035  29.146  1.00  0.00     0.124 S 
ATOM     73  O   UNL A   1      46.761  37.167  30.594  1.00  0.00    -0.237 OA
ATOM     74  O   UNL A   1      48.256  37.174  28.629  1.00  0.00    -0.237 OA
ATOM     75  O   UNL A   1      45.863  37.702  28.360  1.00  0.00    -0.744 OA
ENDBRANCH  71  72
ENDBRANCH  52  66
BRANCH  53  76
ATOM     76  C   UNL A   1      43.560  23.026  26.916  1.00  0.00    -0.014 A 
ATOM     77  C   UNL A   1      42.873  22.271  27.883  1.00  0.00     0.010 A 
ATOM     78  C   UNL A   1      43.888  22.426  25.686  1.00  0.00     0.010 A 
ATOM     79  C   UNL A   1      42.534  20.939  27.631  1.00  0.00     0.020 A 
ATOM     80  C   UNL A   1      43.524  21.104  25.419  1.00  0.00     0.020 A 
ATOM     81  C   UNL A   1      42.858  20.364  26.398  1.00  0.00     0.054 A 
BRANCH  81  82
ATOM     82  S   UNL A   1      42.354  18.653  26.069  1.00  0.00     0.124 S 
ATOM     83  O   UNL A   1      42.634  18.003  27.346  1.00  0.00    -0.237 OA
ATOM     84  O   UNL A   1      40.941  18.799  25.729  1.00  0.00    -0.237 OA
ATOM     85  O   UNL A   1      43.214  18.249  24.959  1.00  0.00    -0.744 OA
ENDBRANCH  81  82
ENDBRANCH  53  76
BRANCH  65  86
ATOM     86  C   UNL A   1      49.570  26.556  26.574  1.00  0.00    -0.014 A 
ATOM     87  C   UNL A   1      50.431  26.017  27.546  1.00  0.00     0.010 A 
ATOM     88  C   UNL A   1      50.021  26.660  25.245  1.00  0.00     0.010 A 
ATOM     89  C   UNL A   1      51.724  25.613  27.202  1.00  0.00     0.020 A 
ATOM     90  C   UNL A   1      51.304  26.232  24.891  1.00  0.00     0.020 A 
ATOM     91  C   UNL A   1      52.152  25.721  25.875  1.00  0.00     0.054 A 
BRANCH  91  92
ATOM     92  S   UNL A   1      53.816  25.140  25.441  1.00  0.00     0.124 S 
ATOM     93  O   UNL A   1      54.606  25.601  26.580  1.00  0.00    -0.237 OA
ATOM     94  O   UNL A   1      53.636  23.693  25.346  1.00  0.00    -0.237 OA
ATOM     95  O   UNL A   1      54.100  25.811  24.175  1.00  0.00    -0.744 OA
ENDBRANCH  91  92
ENDBRANCH  65  86
ENDBRANCH  39  40
ENDBRANCH  31  34
ENDBRANCH  29  30
ENDBRANCH  28  29
ENDBRANCH   1  28
TORSDOF 17
ENDMDL
MODEL 2
REMARK VINA RESULT:     -11.8      4.948      6.239
REMARK SMILES CN(C)S(=O)(=O)c1ccc(NC(=O)[C@@H]2CCCC[C@@H]2C(=O)NCCCNC(=O)c2ccc(-c3c4nc(c(-c5ccc(S(=O)(=O)[O-])cc5)c5ccc([nH]5)c(-c5ccc(S(=O)(=O)[O-])cc5)c5nc(c(-c6ccc(S(=O)(=O)[O-])cc6)c6ccc3[nH]6)C=C5)C=C4)cc2)cc1
REMARK SMILES IDX 23 1 22 2 20 3 21 4 19 6 14 7 15 8 16 9 18 10 17 11 12 12
REMARK SMILES IDX 11 13 13 15 10 16 7 17 8 18 90 19 9 20 89 21 4 22 5 23 6 24
REMARK SMILES IDX 2 25 1 26 3 27 24 28 25 29 26 30 27 31 28 33 29 34 30 35
REMARK SMILES IDX 88 36 31 37 87 38 32 39 33 40 34 41 81 42 35 43 86 44 80 45
REMARK SMILES IDX 82 46 36 47 85 48 79 49 78 50 37 52 67 53 48 54 66 55 49 56
REMARK SMILES IDX 52 57 65 58 83 59 50 60 51 61 64 63 84 64 53 65 38 66 39 67
REMARK SMILES IDX 47 68 40 69 46 70 41 71 42 72 43 73 44 74 45 75 68 76 69 77
REMARK SMILES IDX 77 78 70 79 76 80 71 81 72 82 73 83 74 84 75 85 54 86 55 87
REMARK SMILES IDX 63 88 56 89 62 90 57 91 58 92 59 93 60 94 61 95
REMARK H PARENT 22 5 11 14 26 32 82 51 52 62
REMARK Flexibility Score: inf
ROOT
ATOM      1  C   UNL A   1      31.819  28.974  24.020  1.00  0.00     0.117 C 
ENDROOT
BRANCH   1   2
ATOM      2  N   UNL A   1      31.662  27.619  23.530  1.00  0.00    -0.356 N 
ATOM      3  C   UNL A   1      31.482  26.430  24.149  1.00  0.00     0.223 C 
ATOM      4  O   UNL A   1      31.094  25.519  23.408  1.00  0.00    -0.275 OA
ATOM      5  H   UNL A   1      31.695  27.550  22.549  1.00  0.00     0.163 HD
BRANCH   3   6
ATOM      6  C   UNL A   1      31.710  26.202  25.651  1.00  0.00     0.091 C 
ATOM      7  C   UNL A   1      32.620  25.041  26.135  1.00  0.00     0.091 C 
ATOM      8  C   UNL A   1      32.017  23.647  26.423  1.00  0.00     0.014 C 
ATOM      9  C   UNL A   1      30.545  23.621  26.819  1.00  0.00     0.001 C 
ATOM     10  C   UNL A   1      30.337  26.083  26.353  1.00  0.00     0.014 C 
ATOM     11  C   UNL A   1      29.705  24.704  26.166  1.00  0.00     0.001 C 
BRANCH   7  12
ATOM     12  C   UNL A   1      34.008  24.992  25.509  1.00  0.00     0.228 C 
ATOM     13  N   UNL A   1      34.611  23.905  24.964  1.00  0.00    -0.326 N 
ATOM     14  H   UNL A   1      35.553  24.081  24.737  1.00  0.00     0.169 HD
ATOM     15  O   UNL A   1      34.663  26.045  25.477  1.00  0.00    -0.274 OA
BRANCH  13  16
ATOM     16  C   UNL A   1      34.228  22.594  24.644  1.00  0.00     0.041 A 
ATOM     17  C   UNL A   1      33.422  19.931  24.245  1.00  0.00     0.082 A 
ATOM     18  C   UNL A   1      32.815  20.963  23.546  1.00  0.00     0.024 A 
ATOM     19  C   UNL A   1      34.463  20.215  25.131  1.00  0.00     0.024 A 
ATOM     20  C   UNL A   1      33.258  22.266  23.709  1.00  0.00     0.027 A 
ATOM     21  C   UNL A   1      34.860  21.547  25.329  1.00  0.00     0.027 A 
BRANCH  17  22
ATOM     22  S   UNL A   1      32.716  18.307  24.148  1.00  0.00     0.242 S 
ATOM     23  O   UNL A   1      32.092  18.199  22.841  1.00  0.00    -0.207 OA
ATOM     24  O   UNL A   1      31.964  18.095  25.363  1.00  0.00    -0.207 OA
BRANCH  22  25
ATOM     25  N   UNL A   1      34.047  17.212  24.176  1.00  0.00    -0.204 NA
ATOM     26  C   UNL A   1      33.881  16.225  25.279  1.00  0.00     0.124 C 
ATOM     27  C   UNL A   1      34.363  16.513  22.910  1.00  0.00     0.124 C 
ENDBRANCH  22  25
ENDBRANCH  17  22
ENDBRANCH  13  16
ENDBRANCH   7  12
ENDBRANCH   3   6
ENDBRANCH   1   2
BRANCH   1  28
ATOM     28  C   UNL A   1      33.227  29.293  24.547  1.00  0.00     0.042 C 
BRANCH  28  29
ATOM     29  C   UNL A   1      33.391  29.279  26.075  1.00  0.00     0.118 C 
BRANCH  29  30
ATOM     30  N   UNL A   1      33.474  30.639  26.581  1.00  0.00    -0.352 N 
ATOM     31  C   UNL A   1      34.209  31.193  27.593  1.00  0.00     0.251 C 
ATOM     32  H   UNL A   1      32.895  31.278  26.107  1.00  0.00     0.163 HD
ATOM     33  O   UNL A   1      33.763  32.212  28.121  1.00  0.00    -0.269 OA
BRANCH  31  34
ATOM     34  C   UNL A   1      35.520  30.663  28.049  1.00  0.00     0.039 A 
ATOM     35  C   UNL A   1      35.506  29.663  29.031  1.00  0.00     0.014 A 
ATOM     36  C   UNL A   1      36.741  31.249  27.699  1.00  0.00     0.014 A 
ATOM     37  C   UNL A   1      36.687  29.268  29.671  1.00  0.00     0.010 A 
ATOM     38  C   UNL A   1      37.932  30.823  28.315  1.00  0.00     0.010 A 
ATOM     39  C   UNL A   1      37.918  29.845  29.324  1.00  0.00    -0.014 A 
BRANCH  39  40
ATOM     40  C   UNL A   1      39.168  29.445  30.037  1.00  0.00     0.031 A 
ATOM     41  C   UNL A   1      39.603  30.149  31.301  1.00  0.00     0.074 A 
ATOM     42  C   UNL A   1      39.925  28.438  29.555  1.00  0.00     0.049 A 
ATOM     43  N   UNL A   1      40.665  29.943  32.041  1.00  0.00    -0.248 NA
ATOM     44  C   UNL A   1      38.731  31.224  31.799  1.00  0.00     0.031 C 
ATOM     45  C   UNL A   1      39.631  27.660  28.351  1.00  0.00     0.029 A 
ATOM     46  N   UNL A   1      41.099  27.894  30.021  1.00  0.00    -0.354 N 
ATOM     47  C   UNL A   1      40.605  30.873  33.072  1.00  0.00     0.074 A 
ATOM     48  C   UNL A   1      39.411  31.663  32.850  1.00  0.00     0.031 C 
ATOM     49  C   UNL A   1      40.588  26.735  28.180  1.00  0.00     0.029 A 
ATOM     50  C   UNL A   1      41.589  26.877  29.235  1.00  0.00     0.049 A 
ATOM     51  H   UNL A   1      41.547  28.204  30.841  1.00  0.00     0.167 HD
ATOM     52  C   UNL A   1      41.456  31.055  34.114  1.00  0.00     0.031 A 
ATOM     53  C   UNL A   1      42.719  26.149  29.334  1.00  0.00     0.031 A 
ATOM     54  C   UNL A   1      42.642  30.269  34.345  1.00  0.00     0.049 A 
ATOM     55  C   UNL A   1      43.668  26.394  30.475  1.00  0.00     0.074 A 
ATOM     56  C   UNL A   1      43.534  30.353  35.403  1.00  0.00     0.029 A 
ATOM     57  N   UNL A   1      43.110  29.267  33.511  1.00  0.00    -0.354 N 
ATOM     58  N   UNL A   1      43.562  27.243  31.468  1.00  0.00    -0.248 NA
ATOM     59  C   UNL A   1      44.888  25.573  30.513  1.00  0.00     0.031 C 
ATOM     60  C   UNL A   1      44.569  29.439  35.178  1.00  0.00     0.029 A 
ATOM     61  C   UNL A   1      44.292  28.745  34.013  1.00  0.00     0.049 A 
ATOM     62  H   UNL A   1      42.668  28.971  32.683  1.00  0.00     0.167 HD
ATOM     63  C   UNL A   1      44.689  27.045  32.259  1.00  0.00     0.074 A 
ATOM     64  C   UNL A   1      45.454  25.982  31.641  1.00  0.00     0.031 C 
ATOM     65  C   UNL A   1      45.053  27.688  33.396  1.00  0.00     0.031 A 
BRANCH  52  66
ATOM     66  C   UNL A   1      41.149  32.167  35.086  1.00  0.00    -0.014 A 
ATOM     67  C   UNL A   1      40.528  31.907  36.321  1.00  0.00     0.010 A 
ATOM     68  C   UNL A   1      41.540  33.485  34.784  1.00  0.00     0.010 A 
ATOM     69  C   UNL A   1      40.265  32.950  37.216  1.00  0.00     0.020 A 
ATOM     70  C   UNL A   1      41.305  34.526  35.688  1.00  0.00     0.020 A 
ATOM     71  C   UNL A   1      40.650  34.254  36.891  1.00  0.00     0.054 A 
BRANCH  71  72
ATOM     72  S   UNL A   1      40.309  35.585  38.076  1.00  0.00     0.124 S 
ATOM     73  O   UNL A   1      41.482  35.521  38.944  1.00  0.00    -0.237 OA
ATOM     74  O   UNL A   1      40.226  36.765  37.219  1.00  0.00    -0.237 OA
ATOM     75  O   UNL A   1      39.051  35.182  38.699  1.00  0.00    -0.744 OA
ENDBRANCH  71  72
ENDBRANCH  52  66
BRANCH  53  76
ATOM     76  C   UNL A   1      43.022  25.114  28.307  1.00  0.00    -0.014 A 
ATOM     77  C   UNL A   1      43.659  25.464  27.103  1.00  0.00     0.010 A 
ATOM     78  C   UNL A   1      42.681  23.768  28.533  1.00  0.00     0.010 A 
ATOM     79  C   UNL A   1      43.938  24.490  26.140  1.00  0.00     0.020 A 
ATOM     80  C   UNL A   1      42.985  22.786  27.587  1.00  0.00     0.020 A 
ATOM     81  C   UNL A   1      43.603  23.155  26.391  1.00  0.00     0.054 A 
BRANCH  81  82
ATOM     82  S   UNL A   1      44.029  21.899  25.153  1.00  0.00     0.124 S 
ATOM     83  O   UNL A   1      43.016  20.876  25.396  1.00  0.00    -0.237 OA
ATOM     84  O   UNL A   1      43.898  22.634  23.898  1.00  0.00    -0.237 OA
ATOM     85  O   UNL A   1      45.396  21.523  25.504  1.00  0.00    -0.744 OA
ENDBRANCH  81  82
ENDBRANCH  53  76
BRANCH  65  86
ATOM     86  C   UNL A   1      46.325  27.245  34.073  1.00  0.00    -0.014 A 
ATOM     87  C   UNL A   1      47.558  27.857  33.783  1.00  0.00     0.010 A 
ATOM     88  C   UNL A   1      46.277  26.242  35.059  1.00  0.00     0.010 A 
ATOM     89  C   UNL A   1      48.721  27.457  34.448  1.00  0.00     0.020 A 
ATOM     90  C   UNL A   1      47.432  25.858  35.745  1.00  0.00     0.020 A 
ATOM     91  C   UNL A   1      48.651  26.460  35.426  1.00  0.00     0.054 A 
BRANCH  91  92
ATOM     92  S   UNL A   1      50.164  25.996  36.313  1.00  0.00     0.124 S 
ATOM     93  O   UNL A   1      49.824  26.333  37.693  1.00  0.00    -0.237 OA
ATOM     94  O   UNL A   1      50.280  24.568  36.026  1.00  0.00    -0.237 OA
ATOM     95  O   UNL A   1      51.195  26.833  35.704  1.00  0.00    -0.744 OA
ENDBRANCH  91  92
ENDBRANCH  65  86
ENDBRANCH  39  40
ENDBRANCH  31  34
ENDBRANCH  29  30
ENDBRANCH  28  29
ENDBRANCH   1  28
TORSDOF 17
ENDMDL
MODEL 3
REMARK VINA RESULT:     -11.4      4.989      9.270
REMARK SMILES CN(C)S(=O)(=O)c1ccc(NC(=O)[C@@H]2CCCC[C@@H]2C(=O)NCCCNC(=O)c2ccc(-c3c4nc(c(-c5ccc(S(=O)(=O)[O-])cc5)c5ccc([nH]5)c(-c5ccc(S(=O)(=O)[O-])cc5)c5nc(c(-c6ccc(S(=O)(=O)[O-])cc6)c6ccc3[nH]6)C=C5)C=C4)cc2)cc1
REMARK SMILES IDX 23 1 22 2 20 3 21 4 19 6 14 7 15 8 16 9 18 10 17 11 12 12
REMARK SMILES IDX 11 13 13 15 10 16 7 17 8 18 90 19 9 20 89 21 4 22 5 23 6 24
REMARK SMILES IDX 2 25 1 26 3 27 24 28 25 29 26 30 27 31 28 33 29 34 30 35
REMARK SMILES IDX 88 36 31 37 87 38 32 39 33 40 34 41 81 42 35 43 86 44 80 45
REMARK SMILES IDX 82 46 36 47 85 48 79 49 78 50 37 52 67 53 48 54 66 55 49 56
REMARK SMILES IDX 52 57 65 58 83 59 50 60 51 61 64 63 84 64 53 65 38 66 39 67
REMARK SMILES IDX 47 68 40 69 46 70 41 71 42 72 43 73 44 74 45 75 68 76 69 77
REMARK SMILES IDX 77 78 70 79 76 80 71 81 72 82 73 83 74 84 75 85 54 86 55 87
REMARK SMILES IDX 63 88 56 89 62 90 57 91 58 92 59 93 60 94 61 95
REMARK H PARENT 22 5 11 14 26 32 82 51 52 62
REMARK Flexibility Score: inf
ROOT
ATOM      1  C   UNL A   1      32.184  28.714  23.891  1.00  0.00     0.117 C 
ENDROOT
BRANCH   1   2
ATOM      2  N   UNL A   1      32.035  27.345  23.440  1.00  0.00    -0.356 N 
ATOM      3  C   UNL A   1      31.821  26.178  24.090  1.00  0.00     0.223 C 
ATOM      4  O   UNL A   1      31.454  25.246  23.365  1.00  0.00    -0.275 OA
ATOM      5  H   UNL A   1      32.104  27.244  22.464  1.00  0.00     0.163 HD
BRANCH   3   6
ATOM      6  C   UNL A   1      31.992  25.997  25.606  1.00  0.00     0.091 C 
ATOM      7  C   UNL A   1      32.833  24.817  26.162  1.00  0.00     0.091 C 
ATOM      8  C   UNL A   1      32.160  23.463  26.481  1.00  0.00     0.014 C 
ATOM      9  C   UNL A   1      30.676  23.516  26.829  1.00  0.00     0.001 C 
ATOM     10  C   UNL A   1      30.593  25.965  26.266  1.00  0.00     0.014 C 
ATOM     11  C   UNL A   1      29.907  24.609  26.108  1.00  0.00     0.001 C 
BRANCH   7  12
ATOM     12  C   UNL A   1      34.237  24.685  25.585  1.00  0.00     0.228 C 
ATOM     13  N   UNL A   1      34.784  23.569  25.038  1.00  0.00    -0.326 N 
ATOM     14  H   UNL A   1      35.743  23.684  24.848  1.00  0.00     0.169 HD
ATOM     15  O   UNL A   1      34.964  25.690  25.599  1.00  0.00    -0.274 OA
BRANCH  13  16
ATOM     16  C   UNL A   1      34.324  22.294  24.676  1.00  0.00     0.041 A 
ATOM     17  C   UNL A   1      33.391  19.687  24.193  1.00  0.00     0.082 A 
ATOM     18  C   UNL A   1      32.740  20.781  23.645  1.00  0.00     0.024 A 
ATOM     19  C   UNL A   1      34.537  19.882  24.966  1.00  0.00     0.024 A 
ATOM     20  C   UNL A   1      33.241  22.058  23.843  1.00  0.00     0.027 A 
ATOM     21  C   UNL A   1      34.998  21.186  25.207  1.00  0.00     0.027 A 
BRANCH  17  22
ATOM     22  S   UNL A   1      32.627  18.092  24.070  1.00  0.00     0.242 S 
ATOM     23  O   UNL A   1      32.065  17.999  22.733  1.00  0.00    -0.207 OA
ATOM     24  O   UNL A   1      31.807  17.918  25.246  1.00  0.00    -0.207 OA
BRANCH  22  25
ATOM     25  N   UNL A   1      33.910  16.945  24.170  1.00  0.00    -0.204 NA
ATOM     26  C   UNL A   1      33.475  15.750  24.944  1.00  0.00     0.124 C 
ATOM     27  C   UNL A   1      34.533  16.526  22.893  1.00  0.00     0.124 C 
ENDBRANCH  22  25
ENDBRANCH  17  22
ENDBRANCH  13  16
ENDBRANCH   7  12
ENDBRANCH   3   6
ENDBRANCH   1   2
BRANCH   1  28
ATOM     28  C   UNL A   1      33.563  29.030  24.493  1.00  0.00     0.042 C 
BRANCH  28  29
ATOM     29  C   UNL A   1      33.651  28.988  26.027  1.00  0.00     0.118 C 
BRANCH  29  30
ATOM     30  N   UNL A   1      33.642  30.339  26.564  1.00  0.00    -0.352 N 
ATOM     31  C   UNL A   1      34.321  30.912  27.604  1.00  0.00     0.251 C 
ATOM     32  H   UNL A   1      33.036  30.954  26.092  1.00  0.00     0.163 HD
ATOM     33  O   UNL A   1      33.804  31.891  28.145  1.00  0.00    -0.269 OA
BRANCH  31  34
ATOM     34  C   UNL A   1      35.652  30.451  28.077  1.00  0.00     0.039 A 
ATOM     35  C   UNL A   1      35.677  29.503  29.110  1.00  0.00     0.014 A 
ATOM     36  C   UNL A   1      36.851  31.059  27.688  1.00  0.00     0.014 A 
ATOM     37  C   UNL A   1      36.875  29.182  29.760  1.00  0.00     0.010 A 
ATOM     38  C   UNL A   1      38.059  30.705  28.316  1.00  0.00     0.010 A 
ATOM     39  C   UNL A   1      38.084  29.781  29.375  1.00  0.00    -0.014 A 
BRANCH  39  40
ATOM     40  C   UNL A   1      39.350  29.461  30.098  1.00  0.00     0.031 A 
ATOM     41  C   UNL A   1      40.272  28.370  29.607  1.00  0.00     0.074 A 
ATOM     42  C   UNL A   1      39.689  30.154  31.205  1.00  0.00     0.049 A 
ATOM     43  N   UNL A   1      41.403  27.948  30.119  1.00  0.00    -0.248 NA
ATOM     44  C   UNL A   1      39.872  27.659  28.383  1.00  0.00     0.031 C 
ATOM     45  C   UNL A   1      38.904  31.241  31.795  1.00  0.00     0.029 A 
ATOM     46  N   UNL A   1      40.782  30.049  32.032  1.00  0.00    -0.354 N 
ATOM     47  C   UNL A   1      41.837  26.911  29.299  1.00  0.00     0.074 A 
ATOM     48  C   UNL A   1      40.833  26.751  28.267  1.00  0.00     0.031 C 
ATOM     49  C   UNL A   1      39.545  31.708  32.877  1.00  0.00     0.029 A 
ATOM     50  C   UNL A   1      40.764  30.930  33.088  1.00  0.00     0.049 A 
ATOM     51  H   UNL A   1      41.509  29.403  31.882  1.00  0.00     0.167 HD
ATOM     52  C   UNL A   1      42.966  26.163  29.386  1.00  0.00     0.031 A 
ATOM     53  C   UNL A   1      41.616  31.091  34.120  1.00  0.00     0.031 A 
ATOM     54  C   UNL A   1      43.972  26.321  30.406  1.00  0.00     0.049 A 
ATOM     55  C   UNL A   1      42.842  30.224  34.219  1.00  0.00     0.074 A 
ATOM     56  C   UNL A   1      45.171  25.639  30.541  1.00  0.00     0.029 A 
ATOM     57  N   UNL A   1      43.900  27.209  31.467  1.00  0.00    -0.354 N 
ATOM     58  N   UNL A   1      43.257  29.287  33.402  1.00  0.00    -0.248 NA
ATOM     59  C   UNL A   1      43.720  30.443  35.378  1.00  0.00     0.031 C 
ATOM     60  C   UNL A   1      45.796  26.077  31.713  1.00  0.00     0.029 A 
ATOM     61  C   UNL A   1      45.017  27.073  32.277  1.00  0.00     0.049 A 
ATOM     62  H   UNL A   1      43.163  27.843  31.623  1.00  0.00     0.167 HD
ATOM     63  C   UNL A   1      44.453  28.820  33.936  1.00  0.00     0.074 A 
ATOM     64  C   UNL A   1      44.706  29.591  35.135  1.00  0.00     0.031 C 
ATOM     65  C   UNL A   1      45.267  27.840  33.471  1.00  0.00     0.031 A 
BRANCH  52  66
ATOM     66  C   UNL A   1      43.172  25.080  28.356  1.00  0.00    -0.014 A 
ATOM     67  C   UNL A   1      43.663  25.378  27.072  1.00  0.00     0.010 A 
ATOM     68  C   UNL A   1      42.926  23.737  28.698  1.00  0.00     0.010 A 
ATOM     69  C   UNL A   1      43.863  24.358  26.136  1.00  0.00     0.020 A 
ATOM     70  C   UNL A   1      43.150  22.712  27.774  1.00  0.00     0.020 A 
ATOM     71  C   UNL A   1      43.599  23.031  26.491  1.00  0.00     0.054 A 
BRANCH  71  72
ATOM     72  S   UNL A   1      43.879  21.727  25.261  1.00  0.00     0.124 S 
ATOM     73  O   UNL A   1      43.714  22.458  24.007  1.00  0.00    -0.237 OA
ATOM     74  O   UNL A   1      45.241  21.292  25.558  1.00  0.00    -0.237 OA
ATOM     75  O   UNL A   1      42.837  20.746  25.550  1.00  0.00    -0.744 OA
ENDBRANCH  71  72
ENDBRANCH  52  66
BRANCH  53  76
ATOM     76  C   UNL A   1      41.331  32.120  35.159  1.00  0.00    -0.014 A 
ATOM     77  C   UNL A   1      40.548  31.805  36.283  1.00  0.00     0.010 A 
ATOM     78  C   UNL A   1      41.853  33.420  35.031  1.00  0.00     0.010 A 
ATOM     79  C   UNL A   1      40.281  32.776  37.253  1.00  0.00     0.020 A 
ATOM     80  C   UNL A   1      41.613  34.385  36.012  1.00  0.00     0.020 A 
ATOM     81  C   UNL A   1      40.819  34.059  37.113  1.00  0.00     0.054 A 
BRANCH  81  82
ATOM     82  S   UNL A   1      40.509  35.285  38.415  1.00  0.00     0.124 S 
ATOM     83  O   UNL A   1      39.065  35.471  38.320  1.00  0.00    -0.237 OA
ATOM     84  O   UNL A   1      40.982  34.598  39.614  1.00  0.00    -0.237 OA
ATOM     85  O   UNL A   1      41.318  36.431  38.005  1.00  0.00    -0.744 OA
ENDBRANCH  81  82
ENDBRANCH  53  76
BRANCH  65  86
ATOM     86  C   UNL A   1      46.532  27.557  34.241  1.00  0.00    -0.014 A 
ATOM     87  C   UNL A   1      46.567  26.581  35.252  1.00  0.00     0.010 A 
ATOM     88  C   UNL A   1      47.718  28.236  33.906  1.00  0.00     0.010 A 
ATOM     89  C   UNL A   1      47.759  26.307  35.931  1.00  0.00     0.020 A 
ATOM     90  C   UNL A   1      48.917  27.946  34.563  1.00  0.00     0.020 A 
ATOM     91  C   UNL A   1      48.927  26.991  35.580  1.00  0.00     0.054 A 
BRANCH  91  92
ATOM     92  S   UNL A   1      50.473  26.579  36.438  1.00  0.00     0.124 S 
ATOM     93  O   UNL A   1      51.306  26.085  35.345  1.00  0.00    -0.237 OA
ATOM     94  O   UNL A   1      50.878  27.864  37.005  1.00  0.00    -0.237 OA
ATOM     95  O   UNL A   1      50.070  25.573  37.417  1.00  0.00    -0.744 OA
ENDBRANCH  91  92
ENDBRANCH  65  86
ENDBRANCH  39  40
ENDBRANCH  31  34
ENDBRANCH  29  30
ENDBRANCH  28  29
ENDBRANCH   1  28
TORSDOF 17
ENDMDL
