MODEL 1
REMARK VINA RESULT:     -12.3      0.000      0.000
REMARK SMILES C[C@@H](C(=O)NCCCNC(=O)c1ccc(-c2c3nc(c(-c4ccc(S(=O)(=O)[O-])cc4)c4ccc([nH]4)c(-c4ccc(S(=O)(=O)[O-])cc4)c4nc(c(-c5ccc(S(=O)(=O)[O-])cc5)c5ccc2[nH]5)C=C4)C=C3)cc1)c1ccc(C[C@H]2CCCC2=O)c(-c2ccccc2)c1
REMARK SMILES IDX 7 1 6 2 5 3 3 4 4 5 2 7 1 8 72 9 73 10 90 11 74 12 83 13
REMARK SMILES IDX 75 14 84 15 85 16 89 17 86 18 88 19 87 20 76 21 77 22 78 23
REMARK SMILES IDX 81 24 79 25 80 26 82 27 8 28 9 29 10 30 11 32 12 33 13 34
REMARK SMILES IDX 71 35 14 36 70 37 15 38 16 39 17 40 64 41 18 42 69 43 63 44
REMARK SMILES IDX 65 45 19 46 68 47 62 48 61 49 20 51 50 52 31 53 49 54 32 55
REMARK SMILES IDX 35 56 48 57 66 58 33 59 34 60 47 62 67 63 36 64 21 65 22 66
REMARK SMILES IDX 30 67 23 68 29 69 24 70 25 71 26 72 27 73 28 74 51 75 52 76
REMARK SMILES IDX 60 77 53 78 59 79 54 80 55 81 56 82 57 83 58 84 37 85 38 86
REMARK SMILES IDX 46 87 39 88 45 89 40 90 41 91 42 92 43 93 44 94
REMARK H PARENT 5 6 9 31 65 50 35 61
REMARK Flexibility Score: inf
ROOT
ATOM      1  C   UNL A   1      31.624  32.529  26.679  1.00  0.00     0.042 C 
ENDROOT
BRANCH   1   2
ATOM      2  C   UNL A   1      31.352  31.026  26.595  1.00  0.00     0.117 C 
BRANCH   2   3
ATOM      3  N   UNL A   1      31.908  30.445  25.386  1.00  0.00    -0.356 N 
ATOM      4  C   UNL A   1      32.833  29.452  25.221  1.00  0.00     0.227 C 
ATOM      5  O   UNL A   1      33.297  29.320  24.086  1.00  0.00    -0.274 OA
ATOM      6  H   UNL A   1      31.563  30.830  24.547  1.00  0.00     0.163 HD
BRANCH   4   7
ATOM      7  C   UNL A   1      33.244  28.573  26.419  1.00  0.00     0.105 C 
ATOM      8  C   UNL A   1      34.712  28.889  26.740  1.00  0.00     0.023 C 
BRANCH   7   9
ATOM      9  C   UNL A   1      33.012  27.067  26.218  1.00  0.00    -0.035 A 
ATOM     10  C   UNL A   1      31.771  26.481  26.493  1.00  0.00     0.005 A 
ATOM     11  C   UNL A   1      34.016  26.219  25.718  1.00  0.00     0.013 A 
ATOM     12  C   UNL A   1      31.595  25.100  26.420  1.00  0.00     0.004 A 
ATOM     13  C   UNL A   1      33.878  24.812  25.661  1.00  0.00    -0.015 A 
ATOM     14  C   UNL A   1      32.654  24.244  26.078  1.00  0.00    -0.039 A 
BRANCH  13  15
ATOM     15  C   UNL A   1      35.033  24.011  25.205  1.00  0.00    -0.018 A 
ATOM     16  C   UNL A   1      35.227  23.709  23.847  1.00  0.00     0.009 A 
ATOM     17  C   UNL A   1      35.985  23.539  26.126  1.00  0.00     0.009 A 
ATOM     18  C   UNL A   1      36.300  22.917  23.430  1.00  0.00     0.001 A 
ATOM     19  C   UNL A   1      37.067  22.759  25.709  1.00  0.00     0.001 A 
ATOM     20  C   UNL A   1      37.217  22.438  24.362  1.00  0.00     0.000 A 
ENDBRANCH  13  15
BRANCH  14  21
ATOM     21  C   UNL A   1      32.424  22.754  26.246  1.00  0.00     0.047 C 
BRANCH  21  22
ATOM     22  C   UNL A   1      31.578  22.063  25.164  1.00  0.00     0.060 C 
ATOM     23  C   UNL A   1      31.375  22.824  23.851  1.00  0.00     0.012 C 
ATOM     24  C   UNL A   1      32.180  20.762  24.682  1.00  0.00     0.136 C 
ATOM     25  C   UNL A   1      32.403  22.266  22.873  1.00  0.00     0.009 C 
ATOM     26  C   UNL A   1      32.519  20.788  23.214  1.00  0.00     0.076 C 
ATOM     27  O   UNL A   1      32.347  19.783  25.400  1.00  0.00    -0.299 OA
ENDBRANCH  21  22
ENDBRANCH  14  21
ENDBRANCH   7   9
ENDBRANCH   4   7
ENDBRANCH   2   3
ENDBRANCH   1   2
BRANCH   1  28
ATOM     28  C   UNL A   1      32.847  32.910  27.508  1.00  0.00     0.118 C 
BRANCH  28  29
ATOM     29  N   UNL A   1      32.790  34.280  27.986  1.00  0.00    -0.352 N 
ATOM     30  C   UNL A   1      33.498  34.887  28.992  1.00  0.00     0.251 C 
ATOM     31  H   UNL A   1      32.147  34.860  27.518  1.00  0.00     0.163 HD
ATOM     32  O   UNL A   1      33.156  36.011  29.362  1.00  0.00    -0.269 OA
BRANCH  30  33
ATOM     33  C   UNL A   1      34.646  34.214  29.642  1.00  0.00     0.039 A 
ATOM     34  C   UNL A   1      34.399  33.397  30.752  1.00  0.00     0.014 A 
ATOM     35  C   UNL A   1      35.962  34.421  29.218  1.00  0.00     0.014 A 
ATOM     36  C   UNL A   1      35.461  32.774  31.413  1.00  0.00     0.010 A 
ATOM     37  C   UNL A   1      37.014  33.741  29.834  1.00  0.00     0.010 A 
ATOM     38  C   UNL A   1      36.777  32.929  30.952  1.00  0.00    -0.014 A 
BRANCH  38  39
ATOM     39  C   UNL A   1      37.915  32.286  31.660  1.00  0.00     0.031 A 
ATOM     40  C   UNL A   1      38.361  32.804  33.003  1.00  0.00     0.074 A 
ATOM     41  C   UNL A   1      38.565  31.254  31.089  1.00  0.00     0.049 A 
ATOM     42  N   UNL A   1      39.339  32.385  33.766  1.00  0.00    -0.248 NA
ATOM     43  C   UNL A   1      37.630  33.958  33.548  1.00  0.00     0.031 C 
ATOM     44  C   UNL A   1      38.261  30.684  29.774  1.00  0.00     0.029 A 
ATOM     45  N   UNL A   1      39.620  30.501  31.541  1.00  0.00    -0.354 N 
ATOM     46  C   UNL A   1      39.349  33.231  34.869  1.00  0.00     0.074 A 
ATOM     47  C   UNL A   1      38.315  34.219  34.651  1.00  0.00     0.031 C 
ATOM     48  C   UNL A   1      39.093  29.656  29.538  1.00  0.00     0.029 A 
ATOM     49  C   UNL A   1      40.007  29.512  30.668  1.00  0.00     0.049 A 
ATOM     50  H   UNL A   1      40.059  30.654  32.410  1.00  0.00     0.167 HD
ATOM     51  C   UNL A   1      40.130  33.181  35.976  1.00  0.00     0.031 A 
ATOM     52  C   UNL A   1      40.984  28.589  30.766  1.00  0.00     0.031 A 
ATOM     53  C   UNL A   1      41.150  32.191  36.200  1.00  0.00     0.049 A 
ATOM     54  C   UNL A   1      41.822  28.535  32.012  1.00  0.00     0.074 A 
ATOM     55  C   UNL A   1      41.967  32.030  37.306  1.00  0.00     0.029 A 
ATOM     56  N   UNL A   1      41.488  31.188  35.304  1.00  0.00    -0.354 N 
ATOM     57  N   UNL A   1      41.780  29.312  33.068  1.00  0.00    -0.248 NA
ATOM     58  C   UNL A   1      42.826  27.464  32.090  1.00  0.00     0.031 C 
ATOM     59  C   UNL A   1      42.824  30.951  37.063  1.00  0.00     0.029 A 
ATOM     60  C   UNL A   1      42.506  30.409  35.827  1.00  0.00     0.049 A 
ATOM     61  H   UNL A   1      41.066  31.050  34.425  1.00  0.00     0.167 HD
ATOM     62  C   UNL A   1      42.733  28.809  33.947  1.00  0.00     0.074 A 
ATOM     63  C   UNL A   1      43.324  27.652  33.304  1.00  0.00     0.031 C 
ATOM     64  C   UNL A   1      43.085  29.262  35.175  1.00  0.00     0.031 A 
BRANCH  51  65
ATOM     65  C   UNL A   1      39.905  34.236  37.029  1.00  0.00    -0.014 A 
ATOM     66  C   UNL A   1      39.069  33.987  38.133  1.00  0.00     0.010 A 
ATOM     67  C   UNL A   1      40.547  35.482  36.923  1.00  0.00     0.010 A 
ATOM     68  C   UNL A   1      38.838  34.983  39.086  1.00  0.00     0.020 A 
ATOM     69  C   UNL A   1      40.341  36.472  37.890  1.00  0.00     0.020 A 
ATOM     70  C   UNL A   1      39.471  36.223  38.954  1.00  0.00     0.054 A 
BRANCH  70  71
ATOM     71  S   UNL A   1      39.158  37.498  40.205  1.00  0.00     0.124 S 
ATOM     72  O   UNL A   1      38.153  38.327  39.544  1.00  0.00    -0.237 OA
ATOM     73  O   UNL A   1      38.679  36.720  41.345  1.00  0.00    -0.237 OA
ATOM     74  O   UNL A   1      40.463  38.129  40.390  1.00  0.00    -0.744 OA
ENDBRANCH  70  71
ENDBRANCH  51  65
BRANCH  52  75
ATOM     75  C   UNL A   1      41.197  27.621  29.656  1.00  0.00    -0.014 A 
ATOM     76  C   UNL A   1      40.289  26.572  29.438  1.00  0.00     0.010 A 
ATOM     77  C   UNL A   1      42.301  27.761  28.795  1.00  0.00     0.010 A 
ATOM     78  C   UNL A   1      40.485  25.671  28.387  1.00  0.00     0.020 A 
ATOM     79  C   UNL A   1      42.487  26.878  27.727  1.00  0.00     0.020 A 
ATOM     80  C   UNL A   1      41.583  25.832  27.536  1.00  0.00     0.054 A 
BRANCH  80  81
ATOM     81  S   UNL A   1      41.785  24.692  26.139  1.00  0.00     0.124 S 
ATOM     82  O   UNL A   1      41.805  25.606  25.001  1.00  0.00    -0.237 OA
ATOM     83  O   UNL A   1      43.053  24.035  26.446  1.00  0.00    -0.237 OA
ATOM     84  O   UNL A   1      40.609  23.830  26.231  1.00  0.00    -0.744 OA
ENDBRANCH  80  81
ENDBRANCH  52  75
BRANCH  64  85
ATOM     85  C   UNL A   1      44.133  28.484  35.924  1.00  0.00    -0.014 A 
ATOM     86  C   UNL A   1      45.495  28.822  35.836  1.00  0.00     0.010 A 
ATOM     87  C   UNL A   1      43.742  27.419  36.756  1.00  0.00     0.010 A 
ATOM     88  C   UNL A   1      46.451  28.084  36.540  1.00  0.00     0.020 A 
ATOM     89  C   UNL A   1      44.692  26.696  37.481  1.00  0.00     0.020 A 
ATOM     90  C   UNL A   1      46.044  27.022  37.354  1.00  0.00     0.054 A 
BRANCH  90  91
ATOM     91  S   UNL A   1      47.300  26.095  38.278  1.00  0.00     0.124 S 
ATOM     92  O   UNL A   1      46.484  25.339  39.223  1.00  0.00    -0.237 OA
ATOM     93  O   UNL A   1      47.950  25.304  37.236  1.00  0.00    -0.237 OA
ATOM     94  O   UNL A   1      48.134  27.139  38.869  1.00  0.00    -0.744 OA
ENDBRANCH  90  91
ENDBRANCH  64  85
ENDBRANCH  38  39
ENDBRANCH  30  33
ENDBRANCH  28  29
ENDBRANCH   1  28
TORSDOF 17
ENDMDL
MODEL 2
REMARK VINA RESULT:     -12.0      2.452      8.952
REMARK SMILES C[C@@H](C(=O)NCCCNC(=O)c1ccc(-c2c3nc(c(-c4ccc(S(=O)(=O)[O-])cc4)c4ccc([nH]4)c(-c4ccc(S(=O)(=O)[O-])cc4)c4nc(c(-c5ccc(S(=O)(=O)[O-])cc5)c5ccc2[nH]5)C=C4)C=C3)cc1)c1ccc(C[C@H]2CCCC2=O)c(-c2ccccc2)c1
REMARK SMILES IDX 7 1 6 2 5 3 3 4 4 5 2 7 1 8 72 9 73 10 90 11 74 12 83 13
REMARK SMILES IDX 75 14 84 15 85 16 89 17 86 18 88 19 87 20 76 21 77 22 78 23
REMARK SMILES IDX 81 24 79 25 80 26 82 27 8 28 9 29 10 30 11 32 12 33 13 34
REMARK SMILES IDX 71 35 14 36 70 37 15 38 16 39 17 40 64 41 18 42 69 43 63 44
REMARK SMILES IDX 65 45 19 46 68 47 62 48 61 49 20 51 50 52 31 53 49 54 32 55
REMARK SMILES IDX 35 56 48 57 66 58 33 59 34 60 47 62 67 63 36 64 21 65 22 66
REMARK SMILES IDX 30 67 23 68 29 69 24 70 25 71 26 72 27 73 28 74 51 75 52 76
REMARK SMILES IDX 60 77 53 78 59 79 54 80 55 81 56 82 57 83 58 84 37 85 38 86
REMARK SMILES IDX 46 87 39 88 45 89 40 90 41 91 42 92 43 93 44 94
REMARK H PARENT 5 6 9 31 65 50 35 61
REMARK Flexibility Score: inf
ROOT
ATOM      1  C   UNL A   1      39.530  22.342  26.488  1.00  0.00     0.042 C 
ENDROOT
BRANCH   1   2
ATOM      2  C   UNL A   1      38.097  22.771  26.166  1.00  0.00     0.117 C 
BRANCH   2   3
ATOM      3  N   UNL A   1      37.886  22.909  24.736  1.00  0.00    -0.356 N 
ATOM      4  C   UNL A   1      36.736  22.855  23.999  1.00  0.00     0.227 C 
ATOM      5  O   UNL A   1      36.873  22.769  22.776  1.00  0.00    -0.274 OA
ATOM      6  H   UNL A   1      38.704  23.067  24.211  1.00  0.00     0.163 HD
BRANCH   4   7
ATOM      7  C   UNL A   1      35.365  22.899  24.703  1.00  0.00     0.105 C 
ATOM      8  C   UNL A   1      34.708  21.522  24.519  1.00  0.00     0.023 C 
BRANCH   7   9
ATOM      9  C   UNL A   1      34.443  24.039  24.241  1.00  0.00    -0.035 A 
ATOM     10  C   UNL A   1      33.906  24.060  22.950  1.00  0.00     0.005 A 
ATOM     11  C   UNL A   1      34.071  25.089  25.100  1.00  0.00     0.013 A 
ATOM     12  C   UNL A   1      33.166  25.149  22.495  1.00  0.00     0.004 A 
ATOM     13  C   UNL A   1      33.346  26.223  24.660  1.00  0.00    -0.015 A 
ATOM     14  C   UNL A   1      32.938  26.271  23.309  1.00  0.00    -0.039 A 
BRANCH  13  15
ATOM     15  C   UNL A   1      33.091  27.311  25.627  1.00  0.00    -0.018 A 
ATOM     16  C   UNL A   1      33.967  28.402  25.751  1.00  0.00     0.009 A 
ATOM     17  C   UNL A   1      31.948  27.289  26.445  1.00  0.00     0.009 A 
ATOM     18  C   UNL A   1      33.740  29.406  26.695  1.00  0.00     0.001 A 
ATOM     19  C   UNL A   1      31.711  28.300  27.380  1.00  0.00     0.001 A 
ATOM     20  C   UNL A   1      32.614  29.352  27.513  1.00  0.00     0.000 A 
ENDBRANCH  13  15
BRANCH  14  21
ATOM     21  C   UNL A   1      32.321  27.492  22.653  1.00  0.00     0.047 C 
BRANCH  21  22
ATOM     22  C   UNL A   1      30.850  27.370  22.222  1.00  0.00     0.060 C 
ATOM     23  C   UNL A   1      29.956  26.447  23.055  1.00  0.00     0.012 C 
ATOM     24  C   UNL A   1      30.100  28.681  22.295  1.00  0.00     0.136 C 
ATOM     25  C   UNL A   1      29.206  27.349  24.029  1.00  0.00     0.009 C 
ATOM     26  C   UNL A   1      28.947  28.638  23.263  1.00  0.00     0.076 C 
ATOM     27  O   UNL A   1      30.382  29.664  21.618  1.00  0.00    -0.299 OA
ENDBRANCH  21  22
ENDBRANCH  14  21
ENDBRANCH   7   9
ENDBRANCH   4   7
ENDBRANCH   2   3
ENDBRANCH   1   2
BRANCH   1  28
ATOM     28  C   UNL A   1      40.416  23.452  27.047  1.00  0.00     0.118 C 
BRANCH  28  29
ATOM     29  N   UNL A   1      41.077  24.214  26.003  1.00  0.00    -0.352 N 
ATOM     30  C   UNL A   1      41.379  25.552  25.951  1.00  0.00     0.251 C 
ATOM     31  H   UNL A   1      41.350  23.694  25.213  1.00  0.00     0.163 HD
ATOM     32  O   UNL A   1      41.771  26.030  24.886  1.00  0.00    -0.269 OA
BRANCH  30  33
ATOM     33  C   UNL A   1      41.228  26.422  27.140  1.00  0.00     0.039 A 
ATOM     34  C   UNL A   1      40.183  26.156  28.033  1.00  0.00     0.014 A 
ATOM     35  C   UNL A   1      42.054  27.529  27.356  1.00  0.00     0.014 A 
ATOM     36  C   UNL A   1      39.987  26.977  29.146  1.00  0.00     0.010 A 
ATOM     37  C   UNL A   1      41.903  28.305  28.507  1.00  0.00     0.010 A 
ATOM     38  C   UNL A   1      40.854  28.052  29.401  1.00  0.00    -0.014 A 
BRANCH  38  39
ATOM     39  C   UNL A   1      40.641  28.942  30.573  1.00  0.00     0.031 A 
ATOM     40  C   UNL A   1      41.491  28.785  31.807  1.00  0.00     0.074 A 
ATOM     41  C   UNL A   1      39.669  29.874  30.541  1.00  0.00     0.049 A 
ATOM     42  N   UNL A   1      41.446  29.455  32.931  1.00  0.00    -0.248 NA
ATOM     43  C   UNL A   1      42.508  27.721  31.785  1.00  0.00     0.031 C 
ATOM     44  C   UNL A   1      38.748  30.101  29.424  1.00  0.00     0.029 A 
ATOM     45  N   UNL A   1      39.292  30.805  31.477  1.00  0.00    -0.354 N 
ATOM     46  C   UNL A   1      42.414  28.885  33.752  1.00  0.00     0.074 A 
ATOM     47  C   UNL A   1      42.992  27.782  33.017  1.00  0.00     0.031 C 
ATOM     48  C   UNL A   1      37.930  31.121  29.731  1.00  0.00     0.029 A 
ATOM     49  C   UNL A   1      38.247  31.602  31.072  1.00  0.00     0.049 A 
ATOM     50  H   UNL A   1      39.728  30.893  32.356  1.00  0.00     0.167 HD
ATOM     51  C   UNL A   1      42.805  29.257  34.995  1.00  0.00     0.031 A 
ATOM     52  C   UNL A   1      37.617  32.610  31.707  1.00  0.00     0.031 A 
ATOM     53  C   UNL A   1      42.240  30.363  35.722  1.00  0.00     0.049 A 
ATOM     54  C   UNL A   1      38.082  33.022  33.075  1.00  0.00     0.074 A 
ATOM     55  C   UNL A   1      42.593  30.845  36.970  1.00  0.00     0.029 A 
ATOM     56  N   UNL A   1      41.204  31.164  35.262  1.00  0.00    -0.354 N 
ATOM     57  N   UNL A   1      39.035  32.504  33.813  1.00  0.00    -0.248 NA
ATOM     58  C   UNL A   1      37.401  34.172  33.688  1.00  0.00     0.031 C 
ATOM     59  C   UNL A   1      41.749  31.917  37.280  1.00  0.00     0.029 A 
ATOM     60  C   UNL A   1      40.902  32.133  36.204  1.00  0.00     0.049 A 
ATOM     61  H   UNL A   1      40.752  31.059  34.394  1.00  0.00     0.167 HD
ATOM     62  C   UNL A   1      39.086  33.279  34.966  1.00  0.00     0.074 A 
ATOM     63  C   UNL A   1      38.078  34.311  34.820  1.00  0.00     0.031 C 
ATOM     64  C   UNL A   1      39.895  33.151  36.045  1.00  0.00     0.031 A 
BRANCH  51  65
ATOM     65  C   UNL A   1      43.901  28.453  35.644  1.00  0.00    -0.014 A 
ATOM     66  C   UNL A   1      43.599  27.382  36.506  1.00  0.00     0.010 A 
ATOM     67  C   UNL A   1      45.247  28.757  35.376  1.00  0.00     0.010 A 
ATOM     68  C   UNL A   1      44.623  26.665  37.131  1.00  0.00     0.020 A 
ATOM     69  C   UNL A   1      46.275  28.022  35.977  1.00  0.00     0.020 A 
ATOM     70  C   UNL A   1      45.955  26.994  36.867  1.00  0.00     0.054 A 
BRANCH  70  71
ATOM     71  S   UNL A   1      47.266  26.045  37.686  1.00  0.00     0.124 S 
ATOM     72  O   UNL A   1      46.508  24.961  38.306  1.00  0.00    -0.237 OA
ATOM     73  O   UNL A   1      48.125  25.653  36.571  1.00  0.00    -0.237 OA
ATOM     74  O   UNL A   1      47.857  27.004  38.617  1.00  0.00    -0.744 OA
ENDBRANCH  70  71
ENDBRANCH  51  65
BRANCH  52  75
ATOM     75  C   UNL A   1      36.494  33.317  31.034  1.00  0.00    -0.014 A 
ATOM     76  C   UNL A   1      35.229  33.390  31.641  1.00  0.00     0.010 A 
ATOM     77  C   UNL A   1      36.694  33.943  29.790  1.00  0.00     0.010 A 
ATOM     78  C   UNL A   1      34.179  34.066  31.012  1.00  0.00     0.020 A 
ATOM     79  C   UNL A   1      35.654  34.641  29.170  1.00  0.00     0.020 A 
ATOM     80  C   UNL A   1      34.399  34.690  29.780  1.00  0.00     0.054 A 
BRANCH  80  81
ATOM     81  S   UNL A   1      33.042  35.616  29.010  1.00  0.00     0.124 S 
ATOM     82  O   UNL A   1      33.761  36.644  28.264  1.00  0.00    -0.237 OA
ATOM     83  O   UNL A   1      32.378  34.595  28.203  1.00  0.00    -0.237 OA
ATOM     84  O   UNL A   1      32.268  36.095  30.153  1.00  0.00    -0.744 OA
ENDBRANCH  80  81
ENDBRANCH  52  75
BRANCH  64  85
ATOM     85  C   UNL A   1      39.751  34.173  37.142  1.00  0.00    -0.014 A 
ATOM     86  C   UNL A   1      40.284  35.466  37.008  1.00  0.00     0.010 A 
ATOM     87  C   UNL A   1      39.039  33.840  38.308  1.00  0.00     0.010 A 
ATOM     88  C   UNL A   1      40.140  36.399  38.040  1.00  0.00     0.020 A 
ATOM     89  C   UNL A   1      38.870  34.777  39.330  1.00  0.00     0.020 A 
ATOM     90  C   UNL A   1      39.437  36.046  39.197  1.00  0.00     0.054 A 
BRANCH  90  91
ATOM     91  S   UNL A   1      39.240  37.280  40.512  1.00  0.00     0.124 S 
ATOM     92  O   UNL A   1      38.717  36.472  41.609  1.00  0.00    -0.237 OA
ATOM     93  O   UNL A   1      40.600  37.782  40.692  1.00  0.00    -0.237 OA
ATOM     94  O   UNL A   1      38.299  38.243  39.943  1.00  0.00    -0.744 OA
ENDBRANCH  90  91
ENDBRANCH  64  85
ENDBRANCH  38  39
ENDBRANCH  30  33
ENDBRANCH  28  29
ENDBRANCH   1  28
TORSDOF 17
ENDMDL
MODEL 3
REMARK VINA RESULT:     -11.8      4.203      9.868
REMARK SMILES C[C@@H](C(=O)NCCCNC(=O)c1ccc(-c2c3nc(c(-c4ccc(S(=O)(=O)[O-])cc4)c4ccc([nH]4)c(-c4ccc(S(=O)(=O)[O-])cc4)c4nc(c(-c5ccc(S(=O)(=O)[O-])cc5)c5ccc2[nH]5)C=C4)C=C3)cc1)c1ccc(C[C@H]2CCCC2=O)c(-c2ccccc2)c1
REMARK SMILES IDX 7 1 6 2 5 3 3 4 4 5 2 7 1 8 72 9 73 10 90 11 74 12 83 13
REMARK SMILES IDX 75 14 84 15 85 16 89 17 86 18 88 19 87 20 76 21 77 22 78 23
REMARK SMILES IDX 81 24 79 25 80 26 82 27 8 28 9 29 10 30 11 32 12 33 13 34
REMARK SMILES IDX 71 35 14 36 70 37 15 38 16 39 17 40 64 41 18 42 69 43 63 44
REMARK SMILES IDX 65 45 19 46 68 47 62 48 61 49 20 51 50 52 31 53 49 54 32 55
REMARK SMILES IDX 35 56 48 57 66 58 33 59 34 60 47 62 67 63 36 64 21 65 22 66
REMARK SMILES IDX 30 67 23 68 29 69 24 70 25 71 26 72 27 73 28 74 51 75 52 76
REMARK SMILES IDX 60 77 53 78 59 79 54 80 55 81 56 82 57 83 58 84 37 85 38 86
REMARK SMILES IDX 46 87 39 88 45 89 40 90 41 91 42 92 43 93 44 94
REMARK H PARENT 5 6 9 31 65 50 35 61
REMARK Flexibility Score: inf
ROOT
ATOM      1  C   UNL A   1      35.002  23.220  26.284  1.00  0.00     0.042 C 
ENDROOT
BRANCH   1   2
ATOM      2  C   UNL A   1      34.363  22.440  25.133  1.00  0.00     0.117 C 
BRANCH   2   3
ATOM      3  N   UNL A   1      34.405  23.186  23.888  1.00  0.00    -0.356 N 
ATOM      4  C   UNL A   1      33.420  23.859  23.222  1.00  0.00     0.227 C 
ATOM      5  O   UNL A   1      33.677  24.206  22.067  1.00  0.00    -0.274 OA
ATOM      6  H   UNL A   1      35.288  23.212  23.452  1.00  0.00     0.163 HD
BRANCH   4   7
ATOM      7  C   UNL A   1      32.073  24.144  23.918  1.00  0.00     0.105 C 
ATOM      8  C   UNL A   1      31.026  23.207  23.296  1.00  0.00     0.023 C 
BRANCH   7   9
ATOM      9  C   UNL A   1      31.626  25.614  23.873  1.00  0.00    -0.035 A 
ATOM     10  C   UNL A   1      30.677  26.055  22.944  1.00  0.00     0.005 A 
ATOM     11  C   UNL A   1      32.119  26.570  24.779  1.00  0.00     0.013 A 
ATOM     12  C   UNL A   1      30.358  27.407  22.828  1.00  0.00     0.004 A 
ATOM     13  C   UNL A   1      31.837  27.952  24.668  1.00  0.00    -0.015 A 
ATOM     14  C   UNL A   1      30.981  28.377  23.629  1.00  0.00    -0.039 A 
BRANCH  13  15
ATOM     15  C   UNL A   1      32.485  28.879  25.619  1.00  0.00    -0.018 A 
ATOM     16  C   UNL A   1      31.807  29.998  26.131  1.00  0.00     0.009 A 
ATOM     17  C   UNL A   1      33.804  28.655  26.052  1.00  0.00     0.009 A 
ATOM     18  C   UNL A   1      32.441  30.891  26.999  1.00  0.00     0.001 A 
ATOM     19  C   UNL A   1      34.435  29.540  26.931  1.00  0.00     0.001 A 
ATOM     20  C   UNL A   1      33.757  30.664  27.395  1.00  0.00     0.000 A 
ENDBRANCH  13  15
BRANCH  14  21
ATOM     21  C   UNL A   1      30.736  29.832  23.274  1.00  0.00     0.047 C 
BRANCH  21  22
ATOM     22  C   UNL A   1      29.282  30.325  23.366  1.00  0.00     0.060 C 
ATOM     23  C   UNL A   1      29.036  31.622  24.142  1.00  0.00     0.012 C 
ATOM     24  C   UNL A   1      28.680  30.650  22.017  1.00  0.00     0.136 C 
ATOM     25  C   UNL A   1      28.952  32.732  23.101  1.00  0.00     0.009 C 
ATOM     26  C   UNL A   1      28.280  32.097  21.892  1.00  0.00     0.076 C 
ATOM     27  O   UNL A   1      28.509  29.820  21.130  1.00  0.00    -0.299 OA
ENDBRANCH  21  22
ENDBRANCH  14  21
ENDBRANCH   7   9
ENDBRANCH   4   7
ENDBRANCH   2   3
ENDBRANCH   1   2
BRANCH   1  28
ATOM     28  C   UNL A   1      36.356  23.843  25.957  1.00  0.00     0.118 C 
BRANCH  28  29
ATOM     29  N   UNL A   1      37.432  22.868  25.961  1.00  0.00    -0.352 N 
ATOM     30  C   UNL A   1      38.757  23.025  26.281  1.00  0.00     0.251 C 
ATOM     31  H   UNL A   1      37.172  21.956  25.696  1.00  0.00     0.163 HD
ATOM     32  O   UNL A   1      39.540  22.108  26.032  1.00  0.00    -0.269 OA
BRANCH  30  33
ATOM     33  C   UNL A   1      39.257  24.275  26.900  1.00  0.00     0.039 A 
ATOM     34  C   UNL A   1      38.948  24.523  28.242  1.00  0.00     0.014 A 
ATOM     35  C   UNL A   1      39.967  25.230  26.167  1.00  0.00     0.014 A 
ATOM     36  C   UNL A   1      39.371  25.708  28.851  1.00  0.00     0.010 A 
ATOM     37  C   UNL A   1      40.452  26.379  26.796  1.00  0.00     0.010 A 
ATOM     38  C   UNL A   1      40.140  26.641  28.137  1.00  0.00    -0.014 A 
BRANCH  38  39
ATOM     39  C   UNL A   1      40.578  27.912  28.770  1.00  0.00     0.031 A 
ATOM     40  C   UNL A   1      41.980  28.046  29.307  1.00  0.00     0.074 A 
ATOM     41  C   UNL A   1      39.713  28.938  28.888  1.00  0.00     0.049 A 
ATOM     42  N   UNL A   1      42.541  29.068  29.904  1.00  0.00    -0.248 NA
ATOM     43  C   UNL A   1      42.858  26.873  29.178  1.00  0.00     0.031 C 
ATOM     44  C   UNL A   1      38.316  28.923  28.449  1.00  0.00     0.029 A 
ATOM     45  N   UNL A   1      39.881  30.193  29.416  1.00  0.00    -0.354 N 
ATOM     46  C   UNL A   1      43.827  28.655  30.234  1.00  0.00     0.074 A 
ATOM     47  C   UNL A   1      43.946  27.274  29.819  1.00  0.00     0.031 C 
ATOM     48  C   UNL A   1      37.762  30.120  28.703  1.00  0.00     0.029 A 
ATOM     49  C   UNL A   1      38.754  30.977  29.347  1.00  0.00     0.049 A 
ATOM     50  H   UNL A   1      40.730  30.504  29.808  1.00  0.00     0.167 HD
ATOM     51  C   UNL A   1      44.829  29.363  30.810  1.00  0.00     0.031 A 
ATOM     52  C   UNL A   1      38.541  32.244  29.753  1.00  0.00     0.031 A 
ATOM     53  C   UNL A   1      44.717  30.740  31.211  1.00  0.00     0.049 A 
ATOM     54  C   UNL A   1      39.672  33.020  30.366  1.00  0.00     0.074 A 
ATOM     55  C   UNL A   1      45.686  31.559  31.765  1.00  0.00     0.029 A 
ATOM     56  N   UNL A   1      43.566  31.506  31.094  1.00  0.00    -0.354 N 
ATOM     57  N   UNL A   1      40.898  32.628  30.621  1.00  0.00    -0.248 NA
ATOM     58  C   UNL A   1      39.399  34.419  30.725  1.00  0.00     0.031 C 
ATOM     59  C   UNL A   1      45.111  32.809  32.016  1.00  0.00     0.029 A 
ATOM     60  C   UNL A   1      43.798  32.785  31.572  1.00  0.00     0.049 A 
ATOM     61  H   UNL A   1      42.711  31.187  30.725  1.00  0.00     0.167 HD
ATOM     62  C   UNL A   1      41.549  33.738  31.148  1.00  0.00     0.074 A 
ATOM     63  C   UNL A   1      40.586  34.821  31.159  1.00  0.00     0.031 C 
ATOM     64  C   UNL A   1      42.829  33.851  31.579  1.00  0.00     0.031 A 
BRANCH  51  65
ATOM     65  C   UNL A   1      46.137  28.650  31.037  1.00  0.00    -0.014 A 
ATOM     66  C   UNL A   1      47.150  28.670  30.061  1.00  0.00     0.010 A 
ATOM     67  C   UNL A   1      46.363  27.967  32.245  1.00  0.00     0.010 A 
ATOM     68  C   UNL A   1      48.346  27.975  30.267  1.00  0.00     0.020 A 
ATOM     69  C   UNL A   1      47.570  27.295  32.466  1.00  0.00     0.020 A 
ATOM     70  C   UNL A   1      48.545  27.286  31.466  1.00  0.00     0.054 A 
BRANCH  70  71
ATOM     71  S   UNL A   1      50.106  26.396  31.711  1.00  0.00     0.124 S 
ATOM     72  O   UNL A   1      50.948  26.975  30.667  1.00  0.00    -0.237 OA
ATOM     73  O   UNL A   1      50.470  26.754  33.081  1.00  0.00    -0.237 OA
ATOM     74  O   UNL A   1      49.741  24.995  31.513  1.00  0.00    -0.744 OA
ENDBRANCH  70  71
ENDBRANCH  51  65
BRANCH  52  75
ATOM     75  C   UNL A   1      37.202  32.865  29.561  1.00  0.00    -0.014 A 
ATOM     76  C   UNL A   1      36.353  33.087  30.658  1.00  0.00     0.010 A 
ATOM     77  C   UNL A   1      36.781  33.260  28.278  1.00  0.00     0.010 A 
ATOM     78  C   UNL A   1      35.100  33.682  30.476  1.00  0.00     0.020 A 
ATOM     79  C   UNL A   1      35.540  33.877  28.095  1.00  0.00     0.020 A 
ATOM     80  C   UNL A   1      34.703  34.075  29.194  1.00  0.00     0.054 A 
BRANCH  80  81
ATOM     81  S   UNL A   1      33.101  34.903  28.988  1.00  0.00     0.124 S 
ATOM     82  O   UNL A   1      32.470  34.090  27.953  1.00  0.00    -0.237 OA
ATOM     83  O   UNL A   1      32.515  34.796  30.322  1.00  0.00    -0.237 OA
ATOM     84  O   UNL A   1      33.469  36.258  28.585  1.00  0.00    -0.744 OA
ENDBRANCH  80  81
ENDBRANCH  52  75
BRANCH  64  85
ATOM     85  C   UNL A   1      43.276  35.203  32.067  1.00  0.00    -0.014 A 
ATOM     86  C   UNL A   1      43.155  35.568  33.419  1.00  0.00     0.010 A 
ATOM     87  C   UNL A   1      43.860  36.107  31.161  1.00  0.00     0.010 A 
ATOM     88  C   UNL A   1      43.576  36.830  33.849  1.00  0.00     0.020 A 
ATOM     89  C   UNL A   1      44.305  37.359  31.592  1.00  0.00     0.020 A 
ATOM     90  C   UNL A   1      44.144  37.720  32.932  1.00  0.00     0.054 A 
BRANCH  90  91
ATOM     91  S   UNL A   1      44.707  39.341  33.518  1.00  0.00     0.124 S 
ATOM     92  O   UNL A   1      44.604  39.191  34.966  1.00  0.00    -0.237 OA
ATOM     93  O   UNL A   1      46.067  39.422  32.988  1.00  0.00    -0.237 OA
ATOM     94  O   UNL A   1      43.756  40.274  32.918  1.00  0.00    -0.744 OA
ENDBRANCH  90  91
ENDBRANCH  64  85
ENDBRANCH  38  39
ENDBRANCH  30  33
ENDBRANCH  28  29
ENDBRANCH   1  28
TORSDOF 17
ENDMDL
