MODEL 1
REMARK VINA RESULT:     -11.2      0.000      0.000
REMARK SMILES Cc1cc(C(=O)Nc2ccn(C)n2)sc1/C=C/C(=O)NCCCNC(=O)c1ccc(-c2c3nc(c(-c4ccc(S(=O)(=O)[O-])cc4)c4ccc([nH]4)c(-c4ccc(S(=O)(=O)[O-])cc4)c4nc(c(-c5ccc(S(=O)(=O)[O-])cc5)c5ccc2[nH]5)C=C4)C=C3)cc1
REMARK SMILES IDX 22 1 21 2 20 3 18 4 19 5 17 7 16 8 15 9 1 10 2 11 3 12 4 13
REMARK SMILES IDX 14 14 5 15 6 16 7 17 8 19 9 20 13 21 10 22 11 23 12 24 23 25
REMARK SMILES IDX 24 26 25 27 26 29 27 30 28 31 86 32 29 33 85 34 30 35 31 36
REMARK SMILES IDX 32 37 79 38 33 39 84 40 78 41 80 42 34 43 83 44 77 45 76 46
REMARK SMILES IDX 35 48 65 49 46 50 64 51 47 52 50 53 63 54 81 55 48 56 49 57
REMARK SMILES IDX 62 59 82 60 51 61 36 62 37 63 45 64 38 65 44 66 39 67 40 68
REMARK SMILES IDX 41 69 42 70 43 71 66 72 67 73 75 74 68 75 74 76 69 77 70 78
REMARK SMILES IDX 71 79 72 80 73 81 52 82 53 83 61 84 54 85 60 86 55 87 56 88
REMARK SMILES IDX 57 89 58 90 59 91
REMARK H PARENT 20 6 7 18 24 28 80 47 50 58
REMARK Flexibility Score: inf
ROOT
ATOM      1  C   UNL A   1      38.475  19.749  25.034  1.00  0.00     0.042 C 
ENDROOT
BRANCH   1   2
ATOM      2  C   UNL A   1      37.570  20.897  24.594  1.00  0.00     0.118 C 
BRANCH   2   3
ATOM      3  N   UNL A   1      37.998  22.158  25.174  1.00  0.00    -0.352 N 
ATOM      4  C   UNL A   1      37.263  23.189  25.669  1.00  0.00     0.244 C 
ATOM      5  O   UNL A   1      37.824  24.130  26.226  1.00  0.00    -0.270 OA
ATOM      6  H   UNL A   1      38.973  22.286  25.214  1.00  0.00     0.163 HD
BRANCH   4   7
ATOM      7  C   UNL A   1      35.787  23.147  25.629  1.00  0.00     0.072 C 
ATOM      8  C   UNL A   1      35.049  22.286  26.346  1.00  0.00     0.025 C 
BRANCH   8   9
ATOM      9  C   UNL A   1      33.627  22.185  26.268  1.00  0.00     0.031 A 
ATOM     10  C   UNL A   1      33.310  20.894  24.059  1.00  0.00     0.046 C 
ATOM     11  C   UNL A   1      32.838  21.702  25.227  1.00  0.00    -0.032 A 
ATOM     12  C   UNL A   1      31.476  22.142  25.377  1.00  0.00     0.029 A 
ATOM     13  C   UNL A   1      31.256  22.849  26.547  1.00  0.00     0.093 A 
ATOM     14  S   UNL A   1      32.601  22.615  27.575  1.00  0.00    -0.130 S 
BRANCH  13  15
ATOM     15  C   UNL A   1      30.015  23.486  26.980  1.00  0.00     0.266 C 
ATOM     16  O   UNL A   1      29.179  22.868  27.646  1.00  0.00    -0.268 OA
ATOM     17  N   UNL A   1      29.764  24.823  26.752  1.00  0.00    -0.304 N 
ATOM     18  H   UNL A   1      29.095  25.227  27.350  1.00  0.00     0.171 HD
BRANCH  17  19
ATOM     19  C   UNL A   1      30.300  25.678  25.824  1.00  0.00     0.154 A 
ATOM     20  C   UNL A   1      31.488  26.446  25.879  1.00  0.00     0.068 A 
ATOM     21  N   UNL A   1      29.662  25.864  24.667  1.00  0.00    -0.155 NA
ATOM     22  C   UNL A   1      31.442  27.257  24.768  1.00  0.00     0.110 A 
ATOM     23  N   UNL A   1      30.287  26.926  24.126  1.00  0.00    -0.274 N 
ATOM     24  C   UNL A   1      29.657  27.646  23.047  1.00  0.00     0.173 C 
ENDBRANCH  17  19
ENDBRANCH  13  15
ENDBRANCH   8   9
ENDBRANCH   4   7
ENDBRANCH   2   3
ENDBRANCH   1   2
BRANCH   1  25
ATOM     25  C   UNL A   1      39.544  20.183  26.031  1.00  0.00     0.118 C 
BRANCH  25  26
ATOM     26  N   UNL A   1      40.640  19.226  26.092  1.00  0.00    -0.352 N 
ATOM     27  C   UNL A   1      41.995  19.435  26.124  1.00  0.00     0.251 C 
ATOM     28  H   UNL A   1      40.365  18.281  26.113  1.00  0.00     0.163 HD
ATOM     29  O   UNL A   1      42.751  18.490  25.918  1.00  0.00    -0.269 OA
BRANCH  27  30
ATOM     30  C   UNL A   1      42.544  20.780  26.400  1.00  0.00     0.039 A 
ATOM     31  C   UNL A   1      42.985  21.559  25.326  1.00  0.00     0.014 A 
ATOM     32  C   UNL A   1      42.678  21.254  27.708  1.00  0.00     0.014 A 
ATOM     33  C   UNL A   1      43.518  22.828  25.562  1.00  0.00     0.010 A 
ATOM     34  C   UNL A   1      43.144  22.546  27.936  1.00  0.00     0.010 A 
ATOM     35  C   UNL A   1      43.578  23.342  26.867  1.00  0.00    -0.014 A 
BRANCH  35  36
ATOM     36  C   UNL A   1      44.100  24.707  27.131  1.00  0.00     0.031 A 
ATOM     37  C   UNL A   1      43.165  25.806  27.556  1.00  0.00     0.074 A 
ATOM     38  C   UNL A   1      45.405  24.968  26.929  1.00  0.00     0.049 A 
ATOM     39  N   UNL A   1      43.424  27.070  27.774  1.00  0.00    -0.248 NA
ATOM     40  C   UNL A   1      41.749  25.444  27.740  1.00  0.00     0.031 C 
ATOM     41  C   UNL A   1      46.404  23.995  26.478  1.00  0.00     0.029 A 
ATOM     42  N   UNL A   1      46.117  26.133  27.069  1.00  0.00    -0.354 N 
ATOM     43  C   UNL A   1      42.207  27.656  28.102  1.00  0.00     0.074 A 
ATOM     44  C   UNL A   1      41.200  26.620  28.007  1.00  0.00     0.031 C 
ATOM     45  C   UNL A   1      47.602  24.599  26.401  1.00  0.00     0.029 A 
ATOM     46  C   UNL A   1      47.450  26.005  26.759  1.00  0.00     0.049 A 
ATOM     47  H   UNL A   1      45.710  26.980  27.363  1.00  0.00     0.167 HD
ATOM     48  C   UNL A   1      41.950  28.936  28.465  1.00  0.00     0.031 A 
ATOM     49  C   UNL A   1      48.440  26.919  26.757  1.00  0.00     0.031 A 
ATOM     50  C   UNL A   1      42.956  29.960  28.568  1.00  0.00     0.049 A 
ATOM     51  C   UNL A   1      48.133  28.333  27.164  1.00  0.00     0.074 A 
ATOM     52  C   UNL A   1      42.808  31.274  28.975  1.00  0.00     0.029 A 
ATOM     53  N   UNL A   1      44.298  29.786  28.262  1.00  0.00    -0.354 N 
ATOM     54  N   UNL A   1      46.984  28.854  27.523  1.00  0.00    -0.248 NA
ATOM     55  C   UNL A   1      49.258  29.277  27.179  1.00  0.00     0.031 C 
ATOM     56  C   UNL A   1      44.051  31.908  28.871  1.00  0.00     0.029 A 
ATOM     57  C   UNL A   1      44.984  30.972  28.453  1.00  0.00     0.049 A 
ATOM     58  H   UNL A   1      44.702  28.943  27.954  1.00  0.00     0.167 HD
ATOM     59  C   UNL A   1      47.253  30.183  27.831  1.00  0.00     0.074 A 
ATOM     60  C   UNL A   1      48.674  30.380  27.630  1.00  0.00     0.031 C 
ATOM     61  C   UNL A   1      46.400  31.153  28.243  1.00  0.00     0.031 A 
BRANCH  48  62
ATOM     62  C   UNL A   1      40.521  29.297  28.774  1.00  0.00    -0.014 A 
ATOM     63  C   UNL A   1      40.108  29.562  30.093  1.00  0.00     0.010 A 
ATOM     64  C   UNL A   1      39.584  29.408  27.731  1.00  0.00     0.010 A 
ATOM     65  C   UNL A   1      38.776  29.884  30.367  1.00  0.00     0.020 A 
ATOM     66  C   UNL A   1      38.257  29.758  27.998  1.00  0.00     0.020 A 
ATOM     67  C   UNL A   1      37.858  29.976  29.318  1.00  0.00     0.054 A 
BRANCH  67  68
ATOM     68  S   UNL A   1      36.139  30.411  29.702  1.00  0.00     0.124 S 
ATOM     69  O   UNL A   1      36.187  31.871  29.681  1.00  0.00    -0.237 OA
ATOM     70  O   UNL A   1      35.399  29.792  28.605  1.00  0.00    -0.237 OA
ATOM     71  O   UNL A   1      35.916  29.813  31.015  1.00  0.00    -0.744 OA
ENDBRANCH  67  68
ENDBRANCH  48  62
BRANCH  49  72
ATOM     72  C   UNL A   1      49.819  26.512  26.370  1.00  0.00    -0.014 A 
ATOM     73  C   UNL A   1      50.678  25.922  27.313  1.00  0.00     0.010 A 
ATOM     74  C   UNL A   1      50.269  26.690  25.050  1.00  0.00     0.010 A 
ATOM     75  C   UNL A   1      51.968  25.527  26.946  1.00  0.00     0.020 A 
ATOM     76  C   UNL A   1      51.548  26.272  24.672  1.00  0.00     0.020 A 
ATOM     77  C   UNL A   1      52.393  25.702  25.626  1.00  0.00     0.054 A 
BRANCH  77  78
ATOM     78  S   UNL A   1      54.048  25.126  25.156  1.00  0.00     0.124 S 
ATOM     79  O   UNL A   1      54.302  25.888  23.939  1.00  0.00    -0.237 OA
ATOM     80  O   UNL A   1      54.853  25.499  26.317  1.00  0.00    -0.237 OA
ATOM     81  O   UNL A   1      53.868  23.687  24.971  1.00  0.00    -0.744 OA
ENDBRANCH  77  78
ENDBRANCH  49  72
BRANCH  61  82
ATOM     82  C   UNL A   1      46.984  32.508  28.536  1.00  0.00    -0.014 A 
ATOM     83  C   UNL A   1      47.489  32.824  29.809  1.00  0.00     0.010 A 
ATOM     84  C   UNL A   1      47.076  33.461  27.505  1.00  0.00     0.010 A 
ATOM     85  C   UNL A   1      48.044  34.082  30.055  1.00  0.00     0.020 A 
ATOM     86  C   UNL A   1      47.655  34.710  27.739  1.00  0.00     0.020 A 
ATOM     87  C   UNL A   1      48.123  35.018  29.018  1.00  0.00     0.054 A 
BRANCH  87  88
ATOM     88  S   UNL A   1      48.886  36.630  29.352  1.00  0.00     0.124 S 
ATOM     89  O   UNL A   1      49.883  36.290  30.363  1.00  0.00    -0.237 OA
ATOM     90  O   UNL A   1      49.419  37.009  28.046  1.00  0.00    -0.237 OA
ATOM     91  O   UNL A   1      47.771  37.448  29.824  1.00  0.00    -0.744 OA
ENDBRANCH  87  88
ENDBRANCH  61  82
ENDBRANCH  35  36
ENDBRANCH  27  30
ENDBRANCH  25  26
ENDBRANCH   1  25
TORSDOF 16
ENDMDL
MODEL 2
REMARK VINA RESULT:     -11.2      0.531      8.219
REMARK SMILES Cc1cc(C(=O)Nc2ccn(C)n2)sc1/C=C/C(=O)NCCCNC(=O)c1ccc(-c2c3nc(c(-c4ccc(S(=O)(=O)[O-])cc4)c4ccc([nH]4)c(-c4ccc(S(=O)(=O)[O-])cc4)c4nc(c(-c5ccc(S(=O)(=O)[O-])cc5)c5ccc2[nH]5)C=C4)C=C3)cc1
REMARK SMILES IDX 22 1 21 2 20 3 18 4 19 5 17 7 16 8 15 9 1 10 2 11 3 12 4 13
REMARK SMILES IDX 14 14 5 15 6 16 7 17 8 19 9 20 13 21 10 22 11 23 12 24 23 25
REMARK SMILES IDX 24 26 25 27 26 29 27 30 28 31 86 32 29 33 85 34 30 35 31 36
REMARK SMILES IDX 32 37 79 38 33 39 84 40 78 41 80 42 34 43 83 44 77 45 76 46
REMARK SMILES IDX 35 48 65 49 46 50 64 51 47 52 50 53 63 54 81 55 48 56 49 57
REMARK SMILES IDX 62 59 82 60 51 61 36 62 37 63 45 64 38 65 44 66 39 67 40 68
REMARK SMILES IDX 41 69 42 70 43 71 66 72 67 73 75 74 68 75 74 76 69 77 70 78
REMARK SMILES IDX 71 79 72 80 73 81 52 82 53 83 61 84 54 85 60 86 55 87 56 88
REMARK SMILES IDX 57 89 58 90 59 91
REMARK H PARENT 20 6 7 18 24 28 80 47 50 58
REMARK Flexibility Score: inf
ROOT
ATOM      1  C   UNL A   1      38.559  19.579  25.061  1.00  0.00     0.042 C 
ENDROOT
BRANCH   1   2
ATOM      2  C   UNL A   1      37.476  20.602  24.729  1.00  0.00     0.118 C 
BRANCH   2   3
ATOM      3  N   UNL A   1      37.883  21.944  25.108  1.00  0.00    -0.352 N 
ATOM      4  C   UNL A   1      37.185  22.928  25.732  1.00  0.00     0.244 C 
ATOM      5  O   UNL A   1      37.753  23.965  26.069  1.00  0.00    -0.270 OA
ATOM      6  H   UNL A   1      38.811  22.177  24.874  1.00  0.00     0.163 HD
BRANCH   4   7
ATOM      7  C   UNL A   1      35.767  22.729  26.097  1.00  0.00     0.072 C 
ATOM      8  C   UNL A   1      34.814  22.392  25.215  1.00  0.00     0.025 C 
BRANCH   8   9
ATOM      9  C   UNL A   1      33.429  22.263  25.537  1.00  0.00     0.031 A 
ATOM     10  C   UNL A   1      32.656  20.483  23.841  1.00  0.00     0.046 C 
ATOM     11  C   UNL A   1      32.438  21.540  24.877  1.00  0.00    -0.032 A 
ATOM     12  C   UNL A   1      31.130  21.992  25.275  1.00  0.00     0.029 A 
ATOM     13  C   UNL A   1      31.164  22.954  26.270  1.00  0.00     0.093 A 
ATOM     14  S   UNL A   1      32.738  22.981  26.935  1.00  0.00    -0.130 S 
BRANCH  13  15
ATOM     15  C   UNL A   1      30.031  23.664  26.857  1.00  0.00     0.266 C 
ATOM     16  O   UNL A   1      29.244  23.093  27.617  1.00  0.00    -0.268 OA
ATOM     17  N   UNL A   1      29.843  25.018  26.670  1.00  0.00    -0.304 N 
ATOM     18  H   UNL A   1      29.281  25.456  27.348  1.00  0.00     0.171 HD
BRANCH  17  19
ATOM     19  C   UNL A   1      30.316  25.849  25.688  1.00  0.00     0.154 A 
ATOM     20  C   UNL A   1      31.553  26.532  25.596  1.00  0.00     0.068 A 
ATOM     21  N   UNL A   1      29.551  26.098  24.623  1.00  0.00    -0.155 NA
ATOM     22  C   UNL A   1      31.424  27.362  24.506  1.00  0.00     0.110 A 
ATOM     23  N   UNL A   1      30.176  27.123  24.015  1.00  0.00    -0.274 N 
ATOM     24  C   UNL A   1      29.467  27.904  23.031  1.00  0.00     0.173 C 
ENDBRANCH  17  19
ENDBRANCH  13  15
ENDBRANCH   8   9
ENDBRANCH   4   7
ENDBRANCH   2   3
ENDBRANCH   1   2
BRANCH   1  25
ATOM     25  C   UNL A   1      39.541  20.074  26.117  1.00  0.00     0.118 C 
BRANCH  25  26
ATOM     26  N   UNL A   1      40.699  19.197  26.225  1.00  0.00    -0.352 N 
ATOM     27  C   UNL A   1      42.036  19.499  26.262  1.00  0.00     0.251 C 
ATOM     28  H   UNL A   1      40.488  18.237  26.280  1.00  0.00     0.163 HD
ATOM     29  O   UNL A   1      42.857  18.601  26.100  1.00  0.00    -0.269 OA
BRANCH  27  30
ATOM     30  C   UNL A   1      42.489  20.888  26.490  1.00  0.00     0.039 A 
ATOM     31  C   UNL A   1      42.647  21.335  27.806  1.00  0.00     0.014 A 
ATOM     32  C   UNL A   1      42.707  21.765  25.423  1.00  0.00     0.014 A 
ATOM     33  C   UNL A   1      43.064  22.646  28.048  1.00  0.00     0.010 A 
ATOM     34  C   UNL A   1      43.190  23.048  25.665  1.00  0.00     0.010 A 
ATOM     35  C   UNL A   1      43.363  23.505  26.978  1.00  0.00    -0.014 A 
BRANCH  35  36
ATOM     36  C   UNL A   1      43.851  24.887  27.218  1.00  0.00     0.031 A 
ATOM     37  C   UNL A   1      45.305  25.221  27.024  1.00  0.00     0.074 A 
ATOM     38  C   UNL A   1      42.994  25.824  27.668  1.00  0.00     0.049 A 
ATOM     39  N   UNL A   1      45.926  26.352  27.239  1.00  0.00    -0.248 NA
ATOM     40  C   UNL A   1      46.180  24.138  26.546  1.00  0.00     0.031 C 
ATOM     41  C   UNL A   1      41.569  25.611  27.933  1.00  0.00     0.029 A 
ATOM     42  N   UNL A   1      43.199  27.142  27.989  1.00  0.00    -0.354 N 
ATOM     43  C   UNL A   1      47.263  26.114  26.942  1.00  0.00     0.074 A 
ATOM     44  C   UNL A   1      47.371  24.718  26.576  1.00  0.00     0.031 C 
ATOM     45  C   UNL A   1      41.024  26.764  28.355  1.00  0.00     0.029 A 
ATOM     46  C   UNL A   1      42.064  27.784  28.426  1.00  0.00     0.049 A 
ATOM     47  H   UNL A   1      44.074  27.585  27.915  1.00  0.00     0.167 HD
ATOM     48  C   UNL A   1      48.304  26.981  26.955  1.00  0.00     0.031 A 
ATOM     49  C   UNL A   1      41.881  29.052  28.843  1.00  0.00     0.031 A 
ATOM     50  C   UNL A   1      48.189  28.371  27.309  1.00  0.00     0.049 A 
ATOM     51  C   UNL A   1      43.051  29.997  28.849  1.00  0.00     0.074 A 
ATOM     52  C   UNL A   1      49.173  29.344  27.306  1.00  0.00     0.029 A 
ATOM     53  N   UNL A   1      47.020  28.987  27.729  1.00  0.00    -0.354 N 
ATOM     54  N   UNL A   1      44.297  29.766  28.511  1.00  0.00    -0.248 NA
ATOM     55  C   UNL A   1      42.786  31.377  29.277  1.00  0.00     0.031 C 
ATOM     56  C   UNL A   1      48.609  30.538  27.769  1.00  0.00     0.029 A 
ATOM     57  C   UNL A   1      47.261  30.322  28.006  1.00  0.00     0.049 A 
ATOM     58  H   UNL A   1      46.147  28.541  27.818  1.00  0.00     0.167 HD
ATOM     59  C   UNL A   1      44.960  30.978  28.663  1.00  0.00     0.074 A 
ATOM     60  C   UNL A   1      43.974  31.941  29.108  1.00  0.00     0.031 C 
ATOM     61  C   UNL A   1      46.268  31.267  28.453  1.00  0.00     0.031 A 
BRANCH  48  62
ATOM     62  C   UNL A   1      49.660  26.445  26.577  1.00  0.00    -0.014 A 
ATOM     63  C   UNL A   1      50.097  26.452  25.240  1.00  0.00     0.010 A 
ATOM     64  C   UNL A   1      50.524  25.957  27.575  1.00  0.00     0.010 A 
ATOM     65  C   UNL A   1      51.353  25.940  24.901  1.00  0.00     0.020 A 
ATOM     66  C   UNL A   1      51.793  25.471  27.244  1.00  0.00     0.020 A 
ATOM     67  C   UNL A   1      52.191  25.448  25.906  1.00  0.00     0.054 A 
BRANCH  67  68
ATOM     68  S   UNL A   1      53.821  24.803  25.439  1.00  0.00     0.124 S 
ATOM     69  O   UNL A   1      54.210  25.717  24.368  1.00  0.00    -0.237 OA
ATOM     70  O   UNL A   1      54.583  24.930  26.678  1.00  0.00    -0.237 OA
ATOM     71  O   UNL A   1      53.544  23.432  25.019  1.00  0.00    -0.744 OA
ENDBRANCH  67  68
ENDBRANCH  48  62
BRANCH  49  72
ATOM     72  C   UNL A   1      40.529  29.500  29.273  1.00  0.00    -0.014 A 
ATOM     73  C   UNL A   1      40.245  29.703  30.635  1.00  0.00     0.010 A 
ATOM     74  C   UNL A   1      39.527  29.754  28.319  1.00  0.00     0.010 A 
ATOM     75  C   UNL A   1      38.979  30.138  31.037  1.00  0.00     0.020 A 
ATOM     76  C   UNL A   1      38.269  30.215  28.714  1.00  0.00     0.020 A 
ATOM     77  C   UNL A   1      37.999  30.394  30.072  1.00  0.00     0.054 A 
BRANCH  77  78
ATOM     78  S   UNL A   1      36.383  31.018  30.612  1.00  0.00     0.124 S 
ATOM     79  O   UNL A   1      36.005  30.043  31.628  1.00  0.00    -0.237 OA
ATOM     80  O   UNL A   1      36.709  32.354  31.105  1.00  0.00    -0.237 OA
ATOM     81  O   UNL A   1      35.583  30.993  29.388  1.00  0.00    -0.744 OA
ENDBRANCH  77  78
ENDBRANCH  49  72
BRANCH  61  82
ATOM     82  C   UNL A   1      46.704  32.690  28.671  1.00  0.00    -0.014 A 
ATOM     83  C   UNL A   1      47.237  33.108  29.903  1.00  0.00     0.010 A 
ATOM     84  C   UNL A   1      46.626  33.610  27.610  1.00  0.00     0.010 A 
ATOM     85  C   UNL A   1      47.652  34.431  30.080  1.00  0.00     0.020 A 
ATOM     86  C   UNL A   1      47.066  34.926  27.773  1.00  0.00     0.020 A 
ATOM     87  C   UNL A   1      47.563  35.332  29.013  1.00  0.00     0.054 A 
BRANCH  87  88
ATOM     88  S   UNL A   1      48.147  37.032  29.255  1.00  0.00     0.124 S 
ATOM     89  O   UNL A   1      47.260  37.785  28.371  1.00  0.00    -0.237 OA
ATOM     90  O   UNL A   1      47.937  37.244  30.684  1.00  0.00    -0.237 OA
ATOM     91  O   UNL A   1      49.546  36.979  28.837  1.00  0.00    -0.744 OA
ENDBRANCH  87  88
ENDBRANCH  61  82
ENDBRANCH  35  36
ENDBRANCH  27  30
ENDBRANCH  25  26
ENDBRANCH   1  25
TORSDOF 16
ENDMDL
MODEL 3
REMARK VINA RESULT:     -11.1      7.026     11.047
REMARK SMILES Cc1cc(C(=O)Nc2ccn(C)n2)sc1/C=C/C(=O)NCCCNC(=O)c1ccc(-c2c3nc(c(-c4ccc(S(=O)(=O)[O-])cc4)c4ccc([nH]4)c(-c4ccc(S(=O)(=O)[O-])cc4)c4nc(c(-c5ccc(S(=O)(=O)[O-])cc5)c5ccc2[nH]5)C=C4)C=C3)cc1
REMARK SMILES IDX 22 1 21 2 20 3 18 4 19 5 17 7 16 8 15 9 1 10 2 11 3 12 4 13
REMARK SMILES IDX 14 14 5 15 6 16 7 17 8 19 9 20 13 21 10 22 11 23 12 24 23 25
REMARK SMILES IDX 24 26 25 27 26 29 27 30 28 31 86 32 29 33 85 34 30 35 31 36
REMARK SMILES IDX 32 37 79 38 33 39 84 40 78 41 80 42 34 43 83 44 77 45 76 46
REMARK SMILES IDX 35 48 65 49 46 50 64 51 47 52 50 53 63 54 81 55 48 56 49 57
REMARK SMILES IDX 62 59 82 60 51 61 36 62 37 63 45 64 38 65 44 66 39 67 40 68
REMARK SMILES IDX 41 69 42 70 43 71 66 72 67 73 75 74 68 75 74 76 69 77 70 78
REMARK SMILES IDX 71 79 72 80 73 81 52 82 53 83 61 84 54 85 60 86 55 87 56 88
REMARK SMILES IDX 57 89 58 90 59 91
REMARK H PARENT 20 6 7 18 24 28 80 47 50 58
REMARK Flexibility Score: inf
ROOT
ATOM      1  C   UNL A   1      33.708  33.857  28.807  1.00  0.00     0.042 C 
ENDROOT
BRANCH   1   2
ATOM      2  C   UNL A   1      34.927  33.452  27.983  1.00  0.00     0.118 C 
BRANCH   2   3
ATOM      3  N   UNL A   1      35.604  32.308  28.569  1.00  0.00    -0.352 N 
ATOM      4  C   UNL A   1      35.364  30.978  28.423  1.00  0.00     0.244 C 
ATOM      5  O   UNL A   1      36.132  30.157  28.920  1.00  0.00    -0.270 OA
ATOM      6  H   UNL A   1      36.353  32.531  29.167  1.00  0.00     0.163 HD
BRANCH   4   7
ATOM      7  C   UNL A   1      34.239  30.504  27.590  1.00  0.00     0.072 C 
ATOM      8  C   UNL A   1      34.267  29.363  26.886  1.00  0.00     0.025 C 
BRANCH   8   9
ATOM      9  C   UNL A   1      33.217  28.925  26.022  1.00  0.00     0.031 A 
ATOM     10  C   UNL A   1      31.430  28.153  27.713  1.00  0.00     0.046 C 
ATOM     11  C   UNL A   1      32.028  28.276  26.346  1.00  0.00    -0.032 A 
ATOM     12  C   UNL A   1      31.453  27.660  25.180  1.00  0.00     0.029 A 
ATOM     13  C   UNL A   1      32.154  27.930  24.017  1.00  0.00     0.093 A 
ATOM     14  S   UNL A   1      33.236  29.215  24.331  1.00  0.00    -0.130 S 
BRANCH  13  15
ATOM     15  C   UNL A   1      31.882  27.416  22.676  1.00  0.00     0.266 C 
ATOM     16  O   UNL A   1      32.690  26.684  22.098  1.00  0.00    -0.268 OA
ATOM     17  N   UNL A   1      30.680  27.642  22.039  1.00  0.00    -0.304 N 
ATOM     18  H   UNL A   1      30.465  27.002  21.323  1.00  0.00     0.171 HD
BRANCH  17  19
ATOM     19  C   UNL A   1      29.739  28.617  22.246  1.00  0.00     0.154 A 
ATOM     20  C   UNL A   1      28.588  28.605  23.071  1.00  0.00     0.068 A 
ATOM     21  N   UNL A   1      29.859  29.782  21.607  1.00  0.00    -0.155 NA
ATOM     22  C   UNL A   1      27.911  29.760  22.756  1.00  0.00     0.110 A 
ATOM     23  N   UNL A   1      28.672  30.383  21.814  1.00  0.00    -0.274 N 
ATOM     24  C   UNL A   1      28.290  31.500  20.987  1.00  0.00     0.173 C 
ENDBRANCH  17  19
ENDBRANCH  13  15
ENDBRANCH   8   9
ENDBRANCH   4   7
ENDBRANCH   2   3
ENDBRANCH   1   2
BRANCH   1  25
ATOM     25  C   UNL A   1      33.725  35.328  29.210  1.00  0.00     0.118 C 
BRANCH  25  26
ATOM     26  N   UNL A   1      32.907  35.568  30.391  1.00  0.00    -0.352 N 
ATOM     27  C   UNL A   1      33.060  35.121  31.678  1.00  0.00     0.251 C 
ATOM     28  H   UNL A   1      32.120  36.141  30.241  1.00  0.00     0.163 HD
ATOM     29  O   UNL A   1      32.124  35.230  32.465  1.00  0.00    -0.269 OA
BRANCH  27  30
ATOM     30  C   UNL A   1      34.334  34.513  32.119  1.00  0.00     0.039 A 
ATOM     31  C   UNL A   1      34.359  33.148  32.417  1.00  0.00     0.014 A 
ATOM     32  C   UNL A   1      35.485  35.288  32.292  1.00  0.00     0.014 A 
ATOM     33  C   UNL A   1      35.547  32.552  32.846  1.00  0.00     0.010 A 
ATOM     34  C   UNL A   1      36.685  34.679  32.651  1.00  0.00     0.010 A 
ATOM     35  C   UNL A   1      36.726  33.308  32.942  1.00  0.00    -0.014 A 
BRANCH  35  36
ATOM     36  C   UNL A   1      38.008  32.682  33.352  1.00  0.00     0.031 A 
ATOM     37  C   UNL A   1      38.570  32.935  34.724  1.00  0.00     0.074 A 
ATOM     38  C   UNL A   1      38.693  31.934  32.466  1.00  0.00     0.049 A 
ATOM     39  N   UNL A   1      39.701  32.525  35.240  1.00  0.00    -0.248 NA
ATOM     40  C   UNL A   1      37.769  33.776  35.629  1.00  0.00     0.031 C 
ATOM     41  C   UNL A   1      38.272  31.649  31.092  1.00  0.00     0.029 A 
ATOM     42  N   UNL A   1      39.895  31.282  32.586  1.00  0.00    -0.354 N 
ATOM     43  C   UNL A   1      39.755  33.070  36.517  1.00  0.00     0.074 A 
ATOM     44  C   UNL A   1      38.566  33.880  36.682  1.00  0.00     0.031 C 
ATOM     45  C   UNL A   1      39.188  30.861  30.505  1.00  0.00     0.029 A 
ATOM     46  C   UNL A   1      40.278  30.618  31.444  1.00  0.00     0.049 A 
ATOM     47  H   UNL A   1      40.432  31.290  33.412  1.00  0.00     0.167 HD
ATOM     48  C   UNL A   1      40.699  32.901  37.474  1.00  0.00     0.031 A 
ATOM     49  C   UNL A   1      41.385  29.898  31.180  1.00  0.00     0.031 A 
ATOM     50  C   UNL A   1      41.874  32.086  37.310  1.00  0.00     0.049 A 
ATOM     51  C   UNL A   1      42.419  29.722  32.258  1.00  0.00     0.074 A 
ATOM     52  C   UNL A   1      42.865  31.809  38.235  1.00  0.00     0.029 A 
ATOM     53  N   UNL A   1      42.216  31.416  36.145  1.00  0.00    -0.354 N 
ATOM     54  N   UNL A   1      42.425  30.202  33.478  1.00  0.00    -0.248 NA
ATOM     55  C   UNL A   1      43.588  28.896  31.926  1.00  0.00     0.031 C 
ATOM     56  C   UNL A   1      43.831  31.009  37.615  1.00  0.00     0.029 A 
ATOM     57  C   UNL A   1      43.412  30.742  36.322  1.00  0.00     0.049 A 
ATOM     58  H   UNL A   1      41.688  31.420  35.315  1.00  0.00     0.167 HD
ATOM     59  C   UNL A   1      43.585  29.716  34.070  1.00  0.00     0.074 A 
ATOM     60  C   UNL A   1      44.247  28.893  33.077  1.00  0.00     0.031 C 
ATOM     61  C   UNL A   1      44.060  29.931  35.321  1.00  0.00     0.031 A 
BRANCH  48  62
ATOM     62  C   UNL A   1      40.497  33.616  38.785  1.00  0.00    -0.014 A 
ATOM     63  C   UNL A   1      39.779  33.017  39.836  1.00  0.00     0.010 A 
ATOM     64  C   UNL A   1      41.060  34.890  38.982  1.00  0.00     0.010 A 
ATOM     65  C   UNL A   1      39.588  33.697  41.042  1.00  0.00     0.020 A 
ATOM     66  C   UNL A   1      40.896  35.562  40.197  1.00  0.00     0.020 A 
ATOM     67  C   UNL A   1      40.145  34.968  41.214  1.00  0.00     0.054 A 
BRANCH  67  68
ATOM     68  S   UNL A   1      39.895  35.821  42.794  1.00  0.00     0.124 S 
ATOM     69  O   UNL A   1      40.718  35.023  43.700  1.00  0.00    -0.237 OA
ATOM     70  O   UNL A   1      40.391  37.165  42.516  1.00  0.00    -0.237 OA
ATOM     71  O   UNL A   1      38.454  35.725  43.015  1.00  0.00    -0.744 OA
ENDBRANCH  67  68
ENDBRANCH  48  62
BRANCH  49  72
ATOM     72  C   UNL A   1      41.559  29.275  29.840  1.00  0.00    -0.014 A 
ATOM     73  C   UNL A   1      42.213  29.974  28.810  1.00  0.00     0.010 A 
ATOM     74  C   UNL A   1      41.094  27.971  29.596  1.00  0.00     0.010 A 
ATOM     75  C   UNL A   1      42.388  29.383  27.555  1.00  0.00     0.020 A 
ATOM     76  C   UNL A   1      41.292  27.366  28.351  1.00  0.00     0.020 A 
ATOM     77  C   UNL A   1      41.929  28.080  27.335  1.00  0.00     0.054 A 
BRANCH  77  78
ATOM     78  S   UNL A   1      42.223  27.311  25.719  1.00  0.00     0.124 S 
ATOM     79  O   UNL A   1      43.512  26.660  25.922  1.00  0.00    -0.237 OA
ATOM     80  O   UNL A   1      41.076  26.416  25.582  1.00  0.00    -0.237 OA
ATOM     81  O   UNL A   1      42.230  28.446  24.798  1.00  0.00    -0.744 OA
ENDBRANCH  77  78
ENDBRANCH  49  72
BRANCH  61  82
ATOM     82  C   UNL A   1      45.342  29.241  35.700  1.00  0.00    -0.014 A 
ATOM     83  C   UNL A   1      45.338  27.947  36.251  1.00  0.00     0.010 A 
ATOM     84  C   UNL A   1      46.572  29.878  35.454  1.00  0.00     0.010 A 
ATOM     85  C   UNL A   1      46.541  27.317  36.580  1.00  0.00     0.020 A 
ATOM     86  C   UNL A   1      47.778  29.241  35.756  1.00  0.00     0.020 A 
ATOM     87  C   UNL A   1      47.754  27.969  36.331  1.00  0.00     0.054 A 
BRANCH  87  88
ATOM     88  S   UNL A   1      49.304  27.114  36.729  1.00  0.00     0.124 S 
ATOM     89  O   UNL A   1      49.181  26.920  38.171  1.00  0.00    -0.237 OA
ATOM     90  O   UNL A   1      49.216  25.899  35.922  1.00  0.00    -0.237 OA
ATOM     91  O   UNL A   1      50.337  28.059  36.311  1.00  0.00    -0.744 OA
ENDBRANCH  87  88
ENDBRANCH  61  82
ENDBRANCH  35  36
ENDBRANCH  27  30
ENDBRANCH  25  26
ENDBRANCH   1  25
TORSDOF 16
ENDMDL
