MODEL 1
REMARK VINA RESULT:     -11.6      0.000      0.000
REMARK SMILES C[C@H](c1ccncc1)[N@H+]1[C@@H]2CC[C@H]1C[C@H](CC(=O)NCCCNC(=O)c1ccc(-c3c4nc(c(-c5ccc(S(=O)(=O)[O-])cc5)c5ccc([nH]5)c(-c5ccc(S(=O)(=O)[O-])cc5)c5nc(c(-c6ccc(S(=O)(=O)[O-])cc6)c6ccc3[nH]6)C=C5)C=C4)cc1)C2
REMARK SMILES IDX 21 1 20 2 19 3 17 4 18 5 16 7 15 8 9 9 10 10 13 11 11 13
REMARK SMILES IDX 86 14 12 15 14 16 2 17 1 18 3 19 4 20 8 21 5 22 7 23 6 24
REMARK SMILES IDX 22 25 23 26 24 27 25 29 26 30 27 31 85 32 28 33 84 34 29 35
REMARK SMILES IDX 30 36 31 37 78 38 32 39 83 40 77 41 79 42 33 43 82 44 76 45
REMARK SMILES IDX 75 46 34 48 64 49 45 50 63 51 46 52 49 53 62 54 80 55 47 56
REMARK SMILES IDX 48 57 61 59 81 60 50 61 35 62 36 63 44 64 37 65 43 66 38 67
REMARK SMILES IDX 39 68 40 69 41 70 42 71 65 72 66 73 74 74 67 75 73 76 68 77
REMARK SMILES IDX 69 78 70 79 71 80 72 81 51 82 52 83 60 84 53 85 59 86 54 87
REMARK SMILES IDX 55 88 56 89 57 90 58 91
REMARK H PARENT 19 6 9 12 23 28 79 47 49 58
REMARK Flexibility Score: inf
ROOT
ATOM      1  C   UNL A   1      32.918  27.867  25.878  1.00  0.00     0.042 C 
ENDROOT
BRANCH   1   2
ATOM      2  C   UNL A   1      31.400  27.679  25.815  1.00  0.00     0.117 C 
BRANCH   2   3
ATOM      3  N   UNL A   1      30.947  26.467  26.485  1.00  0.00    -0.356 N 
ATOM      4  C   UNL A   1      30.854  25.172  26.073  1.00  0.00     0.220 C 
ATOM      5  O   UNL A   1      30.442  24.339  26.885  1.00  0.00    -0.275 OA
ATOM      6  H   UNL A   1      30.652  26.612  27.412  1.00  0.00     0.163 HD
BRANCH   4   7
ATOM      7  C   UNL A   1      31.252  24.747  24.674  1.00  0.00     0.104 C 
BRANCH   7   8
ATOM      8  C   UNL A   1      32.768  24.504  24.494  1.00  0.00     0.010 C 
ATOM      9  N   UNL A   1      34.314  21.962  24.638  1.00  0.00    -0.324 N 
ATOM     10  C   UNL A   1      34.240  22.675  23.366  1.00  0.00     0.185 C 
ATOM     11  C   UNL A   1      34.598  23.022  25.605  1.00  0.00     0.185 C 
ATOM     12  H   UNL A   1      35.027  21.242  24.520  1.00  0.00     0.349 HD
ATOM     13  C   UNL A   1      35.548  23.481  23.443  1.00  0.00     0.071 C 
ATOM     14  C   UNL A   1      33.033  23.629  23.250  1.00  0.00     0.069 C 
ATOM     15  C   UNL A   1      35.744  23.767  24.930  1.00  0.00     0.071 C 
ATOM     16  C   UNL A   1      33.374  23.921  25.777  1.00  0.00     0.069 C 
BRANCH   9  17
ATOM     17  C   UNL A   1      33.364  20.925  25.067  1.00  0.00     0.212 C 
ATOM     18  C   UNL A   1      33.560  20.690  26.572  1.00  0.00     0.081 C 
BRANCH  17  19
ATOM     19  C   UNL A   1      33.342  19.601  24.321  1.00  0.00     0.012 A 
ATOM     20  C   UNL A   1      34.288  18.594  24.550  1.00  0.00     0.030 A 
ATOM     21  C   UNL A   1      32.347  19.348  23.368  1.00  0.00     0.030 A 
ATOM     22  C   UNL A   1      34.246  17.443  23.777  1.00  0.00     0.111 A 
ATOM     23  C   UNL A   1      32.380  18.158  22.654  1.00  0.00     0.111 A 
ATOM     24  N   UNL A   1      33.317  17.204  22.828  1.00  0.00    -0.265 NA
ENDBRANCH  17  19
ENDBRANCH   9  17
ENDBRANCH   7   8
ENDBRANCH   4   7
ENDBRANCH   2   3
ENDBRANCH   1   2
BRANCH   1  25
ATOM     25  C   UNL A   1      33.453  28.264  27.247  1.00  0.00     0.118 C 
BRANCH  25  26
ATOM     26  N   UNL A   1      33.415  29.702  27.433  1.00  0.00    -0.352 N 
ATOM     27  C   UNL A   1      34.355  30.535  27.993  1.00  0.00     0.251 C 
ATOM     28  H   UNL A   1      32.598  30.146  27.112  1.00  0.00     0.163 HD
ATOM     29  O   UNL A   1      34.020  31.675  28.305  1.00  0.00    -0.269 OA
BRANCH  27  30
ATOM     30  C   UNL A   1      35.751  30.083  28.232  1.00  0.00     0.039 A 
ATOM     31  C   UNL A   1      36.095  29.617  29.507  1.00  0.00     0.014 A 
ATOM     32  C   UNL A   1      36.742  30.181  27.251  1.00  0.00     0.014 A 
ATOM     33  C   UNL A   1      37.413  29.238  29.787  1.00  0.00     0.010 A 
ATOM     34  C   UNL A   1      38.037  29.726  27.507  1.00  0.00     0.010 A 
ATOM     35  C   UNL A   1      38.396  29.277  28.786  1.00  0.00    -0.014 A 
BRANCH  35  36
ATOM     36  C   UNL A   1      39.810  28.912  29.076  1.00  0.00     0.031 A 
ATOM     37  C   UNL A   1      40.729  29.912  29.735  1.00  0.00     0.074 A 
ATOM     38  C   UNL A   1      40.285  27.702  28.719  1.00  0.00     0.049 A 
ATOM     39  N   UNL A   1      42.000  29.798  30.029  1.00  0.00    -0.248 NA
ATOM     40  C   UNL A   1      40.150  31.219  30.086  1.00  0.00     0.031 C 
ATOM     41  C   UNL A   1      39.516  26.651  28.049  1.00  0.00     0.029 A 
ATOM     42  N   UNL A   1      41.535  27.151  28.869  1.00  0.00    -0.354 N 
ATOM     43  C   UNL A   1      42.376  31.024  30.569  1.00  0.00     0.074 A 
ATOM     44  C   UNL A   1      41.211  31.879  30.526  1.00  0.00     0.031 C 
ATOM     45  C   UNL A   1      40.300  25.574  27.874  1.00  0.00     0.029 A 
ATOM     46  C   UNL A   1      41.636  25.867  28.386  1.00  0.00     0.049 A 
ATOM     47  H   UNL A   1      42.288  27.630  29.285  1.00  0.00     0.167 HD
ATOM     48  C   UNL A   1      43.576  31.400  31.075  1.00  0.00     0.031 A 
ATOM     49  C   UNL A   1      42.684  25.020  28.356  1.00  0.00     0.031 A 
ATOM     50  C   UNL A   1      44.725  30.539  31.154  1.00  0.00     0.049 A 
ATOM     51  C   UNL A   1      44.003  25.458  28.935  1.00  0.00     0.074 A 
ATOM     52  C   UNL A   1      45.963  30.807  31.714  1.00  0.00     0.029 A 
ATOM     53  N   UNL A   1      44.779  29.244  30.665  1.00  0.00    -0.354 N 
ATOM     54  N   UNL A   1      44.318  26.600  29.497  1.00  0.00    -0.248 NA
ATOM     55  C   UNL A   1      45.104  24.484  28.886  1.00  0.00     0.031 C 
ATOM     56  C   UNL A   1      46.779  29.687  31.525  1.00  0.00     0.029 A 
ATOM     57  C   UNL A   1      46.034  28.706  30.893  1.00  0.00     0.049 A 
ATOM     58  H   UNL A   1      44.035  28.776  30.221  1.00  0.00     0.167 HD
ATOM     59  C   UNL A   1      45.645  26.471  29.896  1.00  0.00     0.074 A 
ATOM     60  C   UNL A   1      46.068  25.138  29.521  1.00  0.00     0.031 C 
ATOM     61  C   UNL A   1      46.439  27.374  30.520  1.00  0.00     0.031 A 
BRANCH  48  62
ATOM     62  C   UNL A   1      43.709  32.813  31.582  1.00  0.00    -0.014 A 
ATOM     63  C   UNL A   1      43.939  33.885  30.701  1.00  0.00     0.010 A 
ATOM     64  C   UNL A   1      43.558  33.077  32.956  1.00  0.00     0.010 A 
ATOM     65  C   UNL A   1      44.058  35.189  31.189  1.00  0.00     0.020 A 
ATOM     66  C   UNL A   1      43.648  34.384  33.444  1.00  0.00     0.020 A 
ATOM     67  C   UNL A   1      43.916  35.430  32.558  1.00  0.00     0.054 A 
BRANCH  67  68
ATOM     68  S   UNL A   1      44.051  37.136  33.162  1.00  0.00     0.124 S 
ATOM     69  O   UNL A   1      45.301  37.088  33.916  1.00  0.00    -0.237 OA
ATOM     70  O   UNL A   1      44.093  37.912  31.925  1.00  0.00    -0.237 OA
ATOM     71  O   UNL A   1      42.844  37.315  33.966  1.00  0.00    -0.744 OA
ENDBRANCH  67  68
ENDBRANCH  48  62
BRANCH  49  72
ATOM     72  C   UNL A   1      42.526  23.657  27.779  1.00  0.00    -0.014 A 
ATOM     73  C   UNL A   1      42.112  22.586  28.591  1.00  0.00     0.010 A 
ATOM     74  C   UNL A   1      42.790  23.421  26.418  1.00  0.00     0.010 A 
ATOM     75  C   UNL A   1      41.987  21.300  28.059  1.00  0.00     0.020 A 
ATOM     76  C   UNL A   1      42.640  22.141  25.876  1.00  0.00     0.020 A 
ATOM     77  C   UNL A   1      42.252  21.086  26.703  1.00  0.00     0.054 A 
BRANCH  77  78
ATOM     78  S   UNL A   1      42.041  19.417  26.023  1.00  0.00     0.124 S 
ATOM     79  O   UNL A   1      42.515  18.580  27.119  1.00  0.00    -0.237 OA
ATOM     80  O   UNL A   1      40.604  19.362  25.758  1.00  0.00    -0.237 OA
ATOM     81  O   UNL A   1      42.884  19.428  24.830  1.00  0.00    -0.744 OA
ENDBRANCH  77  78
ENDBRANCH  49  72
BRANCH  61  82
ATOM     82  C   UNL A   1      47.835  26.942  30.877  1.00  0.00    -0.014 A 
ATOM     83  C   UNL A   1      48.909  27.139  29.992  1.00  0.00     0.010 A 
ATOM     84  C   UNL A   1      48.082  26.375  32.142  1.00  0.00     0.010 A 
ATOM     85  C   UNL A   1      50.201  26.750  30.354  1.00  0.00     0.020 A 
ATOM     86  C   UNL A   1      49.376  26.009  32.516  1.00  0.00     0.020 A 
ATOM     87  C   UNL A   1      50.426  26.185  31.613  1.00  0.00     0.054 A 
BRANCH  87  88
ATOM     88  S   UNL A   1      52.119  25.725  32.077  1.00  0.00     0.124 S 
ATOM     89  O   UNL A   1      52.338  26.535  33.271  1.00  0.00    -0.237 OA
ATOM     90  O   UNL A   1      52.011  24.286  32.304  1.00  0.00    -0.237 OA
ATOM     91  O   UNL A   1      52.912  26.106  30.910  1.00  0.00    -0.744 OA
ENDBRANCH  87  88
ENDBRANCH  61  82
ENDBRANCH  35  36
ENDBRANCH  27  30
ENDBRANCH  25  26
ENDBRANCH   1  25
TORSDOF 16
ENDMDL
MODEL 2
REMARK VINA RESULT:     -11.3      2.754      9.550
REMARK SMILES C[C@H](c1ccncc1)[N@H+]1[C@@H]2CC[C@H]1C[C@H](CC(=O)NCCCNC(=O)c1ccc(-c3c4nc(c(-c5ccc(S(=O)(=O)[O-])cc5)c5ccc([nH]5)c(-c5ccc(S(=O)(=O)[O-])cc5)c5nc(c(-c6ccc(S(=O)(=O)[O-])cc6)c6ccc3[nH]6)C=C5)C=C4)cc1)C2
REMARK SMILES IDX 21 1 20 2 19 3 17 4 18 5 16 7 15 8 9 9 10 10 13 11 11 13
REMARK SMILES IDX 86 14 12 15 14 16 2 17 1 18 3 19 4 20 8 21 5 22 7 23 6 24
REMARK SMILES IDX 22 25 23 26 24 27 25 29 26 30 27 31 85 32 28 33 84 34 29 35
REMARK SMILES IDX 30 36 31 37 78 38 32 39 83 40 77 41 79 42 33 43 82 44 76 45
REMARK SMILES IDX 75 46 34 48 64 49 45 50 63 51 46 52 49 53 62 54 80 55 47 56
REMARK SMILES IDX 48 57 61 59 81 60 50 61 35 62 36 63 44 64 37 65 43 66 38 67
REMARK SMILES IDX 39 68 40 69 41 70 42 71 65 72 66 73 74 74 67 75 73 76 68 77
REMARK SMILES IDX 69 78 70 79 71 80 72 81 51 82 52 83 60 84 53 85 59 86 54 87
REMARK SMILES IDX 55 88 56 89 57 90 58 91
REMARK H PARENT 19 6 9 12 23 28 79 47 49 58
REMARK Flexibility Score: inf
ROOT
ATOM      1  C   UNL A   1      35.635  23.724  24.649  1.00  0.00     0.042 C 
ENDROOT
BRANCH   1   2
ATOM      2  C   UNL A   1      34.473  22.728  24.673  1.00  0.00     0.117 C 
BRANCH   2   3
ATOM      3  N   UNL A   1      33.759  22.716  25.943  1.00  0.00    -0.356 N 
ATOM      4  C   UNL A   1      32.756  23.494  26.439  1.00  0.00     0.220 C 
ATOM      5  O   UNL A   1      32.327  23.230  27.565  1.00  0.00    -0.275 OA
ATOM      6  H   UNL A   1      34.058  22.012  26.561  1.00  0.00     0.163 HD
BRANCH   4   7
ATOM      7  C   UNL A   1      32.162  24.638  25.642  1.00  0.00     0.104 C 
BRANCH   7   8
ATOM      8  C   UNL A   1      32.573  26.040  26.146  1.00  0.00     0.010 C 
ATOM      9  N   UNL A   1      32.012  28.720  24.973  1.00  0.00    -0.324 N 
ATOM     10  C   UNL A   1      31.437  28.381  26.270  1.00  0.00     0.185 C 
ATOM     11  C   UNL A   1      33.400  28.271  25.089  1.00  0.00     0.185 C 
ATOM     12  H   UNL A   1      31.860  29.721  24.846  1.00  0.00     0.349 HD
ATOM     13  C   UNL A   1      32.497  29.002  27.195  1.00  0.00     0.071 C 
ATOM     14  C   UNL A   1      31.326  26.864  26.531  1.00  0.00     0.069 C 
ATOM     15  C   UNL A   1      33.812  28.864  26.432  1.00  0.00     0.071 C 
ATOM     16  C   UNL A   1      33.460  26.745  25.112  1.00  0.00     0.069 C 
BRANCH   9  17
ATOM     17  C   UNL A   1      31.355  28.475  23.681  1.00  0.00     0.212 C 
ATOM     18  C   UNL A   1      32.291  28.963  22.566  1.00  0.00     0.081 C 
BRANCH  17  19
ATOM     19  C   UNL A   1      29.949  29.009  23.465  1.00  0.00     0.012 A 
ATOM     20  C   UNL A   1      29.642  30.374  23.549  1.00  0.00     0.030 A 
ATOM     21  C   UNL A   1      28.901  28.130  23.162  1.00  0.00     0.030 A 
ATOM     22  C   UNL A   1      28.322  30.777  23.412  1.00  0.00     0.111 A 
ATOM     23  C   UNL A   1      27.613  28.631  23.029  1.00  0.00     0.111 A 
ATOM     24  N   UNL A   1      27.297  29.935  23.160  1.00  0.00    -0.265 NA
ENDBRANCH  17  19
ENDBRANCH   9  17
ENDBRANCH   7   8
ENDBRANCH   4   7
ENDBRANCH   2   3
ENDBRANCH   1   2
BRANCH   1  25
ATOM     25  C   UNL A   1      36.424  23.813  25.948  1.00  0.00     0.118 C 
BRANCH  25  26
ATOM     26  N   UNL A   1      37.471  22.812  26.000  1.00  0.00    -0.352 N 
ATOM     27  C   UNL A   1      38.807  22.959  26.295  1.00  0.00     0.251 C 
ATOM     28  H   UNL A   1      37.186  21.893  25.795  1.00  0.00     0.163 HD
ATOM     29  O   UNL A   1      39.576  22.042  26.019  1.00  0.00    -0.269 OA
BRANCH  27  30
ATOM     30  C   UNL A   1      39.331  24.199  26.927  1.00  0.00     0.039 A 
ATOM     31  C   UNL A   1      39.075  24.417  28.286  1.00  0.00     0.014 A 
ATOM     32  C   UNL A   1      39.997  25.183  26.191  1.00  0.00     0.014 A 
ATOM     33  C   UNL A   1      39.501  25.600  28.902  1.00  0.00     0.010 A 
ATOM     34  C   UNL A   1      40.492  26.325  26.824  1.00  0.00     0.010 A 
ATOM     35  C   UNL A   1      40.224  26.562  28.180  1.00  0.00    -0.014 A 
BRANCH  35  36
ATOM     36  C   UNL A   1      40.653  27.841  28.811  1.00  0.00     0.031 A 
ATOM     37  C   UNL A   1      42.050  27.979  29.367  1.00  0.00     0.074 A 
ATOM     38  C   UNL A   1      39.786  28.867  28.921  1.00  0.00     0.049 A 
ATOM     39  N   UNL A   1      42.595  28.993  29.990  1.00  0.00    -0.248 NA
ATOM     40  C   UNL A   1      42.941  26.816  29.226  1.00  0.00     0.031 C 
ATOM     41  C   UNL A   1      38.398  28.860  28.454  1.00  0.00     0.029 A 
ATOM     42  N   UNL A   1      39.945  30.119  29.464  1.00  0.00    -0.354 N 
ATOM     43  C   UNL A   1      43.876  28.579  30.340  1.00  0.00     0.074 A 
ATOM     44  C   UNL A   1      44.014  27.210  29.896  1.00  0.00     0.031 C 
ATOM     45  C   UNL A   1      37.843  30.059  28.701  1.00  0.00     0.029 A 
ATOM     46  C   UNL A   1      38.821  30.907  29.376  1.00  0.00     0.049 A 
ATOM     47  H   UNL A   1      40.786  30.424  29.875  1.00  0.00     0.167 HD
ATOM     48  C   UNL A   1      44.859  29.279  30.957  1.00  0.00     0.031 A 
ATOM     49  C   UNL A   1      38.600  32.171  29.792  1.00  0.00     0.031 A 
ATOM     50  C   UNL A   1      44.738  30.653  31.366  1.00  0.00     0.049 A 
ATOM     51  C   UNL A   1      39.711  32.931  30.464  1.00  0.00     0.074 A 
ATOM     52  C   UNL A   1      45.702  31.469  31.934  1.00  0.00     0.029 A 
ATOM     53  N   UNL A   1      43.587  31.416  31.247  1.00  0.00    -0.354 N 
ATOM     54  N   UNL A   1      40.935  32.541  30.729  1.00  0.00    -0.248 NA
ATOM     55  C   UNL A   1      39.413  34.309  30.882  1.00  0.00     0.031 C 
ATOM     56  C   UNL A   1      45.120  32.714  32.197  1.00  0.00     0.029 A 
ATOM     57  C   UNL A   1      43.810  32.687  31.748  1.00  0.00     0.049 A 
ATOM     58  H   UNL A   1      42.738  31.101  30.863  1.00  0.00     0.167 HD
ATOM     59  C   UNL A   1      41.562  33.635  31.316  1.00  0.00     0.074 A 
ATOM     60  C   UNL A   1      40.586  34.704  31.358  1.00  0.00     0.031 C 
ATOM     61  C   UNL A   1      42.832  33.744  31.776  1.00  0.00     0.031 A 
BRANCH  48  62
ATOM     62  C   UNL A   1      46.158  28.567  31.234  1.00  0.00    -0.014 A 
ATOM     63  C   UNL A   1      46.405  27.960  32.478  1.00  0.00     0.010 A 
ATOM     64  C   UNL A   1      47.127  28.467  30.218  1.00  0.00     0.010 A 
ATOM     65  C   UNL A   1      47.615  27.301  32.715  1.00  0.00     0.020 A 
ATOM     66  C   UNL A   1      48.326  27.785  30.443  1.00  0.00     0.020 A 
ATOM     67  C   UNL A   1      48.570  27.221  31.697  1.00  0.00     0.054 A 
BRANCH  67  68
ATOM     68  S   UNL A   1      50.122  26.340  32.026  1.00  0.00     0.124 S 
ATOM     69  O   UNL A   1      50.770  26.378  30.717  1.00  0.00    -0.237 OA
ATOM     70  O   UNL A   1      50.745  27.161  33.060  1.00  0.00    -0.237 OA
ATOM     71  O   UNL A   1      49.682  25.017  32.465  1.00  0.00    -0.744 OA
ENDBRANCH  67  68
ENDBRANCH  48  62
BRANCH  49  72
ATOM     72  C   UNL A   1      37.276  32.811  29.562  1.00  0.00    -0.014 A 
ATOM     73  C   UNL A   1      36.374  32.978  30.626  1.00  0.00     0.010 A 
ATOM     74  C   UNL A   1      36.909  33.254  28.278  1.00  0.00     0.010 A 
ATOM     75  C   UNL A   1      35.120  33.555  30.410  1.00  0.00     0.020 A 
ATOM     76  C   UNL A   1      35.666  33.856  28.062  1.00  0.00     0.020 A 
ATOM     77  C   UNL A   1      34.773  33.991  29.128  1.00  0.00     0.054 A 
BRANCH  77  78
ATOM     78  S   UNL A   1      33.158  34.777  28.876  1.00  0.00     0.124 S 
ATOM     79  O   UNL A   1      32.572  34.702  30.210  1.00  0.00    -0.237 OA
ATOM     80  O   UNL A   1      33.524  36.116  28.419  1.00  0.00    -0.237 OA
ATOM     81  O   UNL A   1      32.524  33.936  27.864  1.00  0.00    -0.744 OA
ENDBRANCH  77  78
ENDBRANCH  49  72
BRANCH  61  82
ATOM     82  C   UNL A   1      43.258  35.078  32.327  1.00  0.00    -0.014 A 
ATOM     83  C   UNL A   1      43.124  35.379  33.693  1.00  0.00     0.010 A 
ATOM     84  C   UNL A   1      43.850  36.024  31.469  1.00  0.00     0.010 A 
ATOM     85  C   UNL A   1      43.548  36.617  34.186  1.00  0.00     0.020 A 
ATOM     86  C   UNL A   1      44.298  37.250  31.964  1.00  0.00     0.020 A 
ATOM     87  C   UNL A   1      44.130  37.545  33.318  1.00  0.00     0.054 A 
BRANCH  87  88
ATOM     88  S   UNL A   1      44.710  39.128  33.989  1.00  0.00     0.124 S 
ATOM     89  O   UNL A   1      44.835  38.827  35.412  1.00  0.00    -0.237 OA
ATOM     90  O   UNL A   1      45.970  39.337  33.278  1.00  0.00    -0.237 OA
ATOM     91  O   UNL A   1      43.643  40.063  33.639  1.00  0.00    -0.744 OA
ENDBRANCH  87  88
ENDBRANCH  61  82
ENDBRANCH  35  36
ENDBRANCH  27  30
ENDBRANCH  25  26
ENDBRANCH   1  25
TORSDOF 16
ENDMDL
MODEL 3
REMARK VINA RESULT:     -11.1      2.821      3.981
REMARK SMILES C[C@H](c1ccncc1)[N@H+]1[C@@H]2CC[C@H]1C[C@H](CC(=O)NCCCNC(=O)c1ccc(-c3c4nc(c(-c5ccc(S(=O)(=O)[O-])cc5)c5ccc([nH]5)c(-c5ccc(S(=O)(=O)[O-])cc5)c5nc(c(-c6ccc(S(=O)(=O)[O-])cc6)c6ccc3[nH]6)C=C5)C=C4)cc1)C2
REMARK SMILES IDX 21 1 20 2 19 3 17 4 18 5 16 7 15 8 9 9 10 10 13 11 11 13
REMARK SMILES IDX 86 14 12 15 14 16 2 17 1 18 3 19 4 20 8 21 5 22 7 23 6 24
REMARK SMILES IDX 22 25 23 26 24 27 25 29 26 30 27 31 85 32 28 33 84 34 29 35
REMARK SMILES IDX 30 36 31 37 78 38 32 39 83 40 77 41 79 42 33 43 82 44 76 45
REMARK SMILES IDX 75 46 34 48 64 49 45 50 63 51 46 52 49 53 62 54 80 55 47 56
REMARK SMILES IDX 48 57 61 59 81 60 50 61 35 62 36 63 44 64 37 65 43 66 38 67
REMARK SMILES IDX 39 68 40 69 41 70 42 71 65 72 66 73 74 74 67 75 73 76 68 77
REMARK SMILES IDX 69 78 70 79 71 80 72 81 51 82 52 83 60 84 53 85 59 86 54 87
REMARK SMILES IDX 55 88 56 89 57 90 58 91
REMARK H PARENT 19 6 9 12 23 28 79 47 49 58
REMARK Flexibility Score: inf
ROOT
ATOM      1  C   UNL A   1      32.837  28.202  27.032  1.00  0.00     0.042 C 
ENDROOT
BRANCH   1   2
ATOM      2  C   UNL A   1      31.549  27.896  26.265  1.00  0.00     0.117 C 
BRANCH   2   3
ATOM      3  N   UNL A   1      30.921  26.648  26.679  1.00  0.00    -0.356 N 
ATOM      4  C   UNL A   1      31.152  25.349  26.341  1.00  0.00     0.220 C 
ATOM      5  O   UNL A   1      30.458  24.483  26.879  1.00  0.00    -0.275 OA
ATOM      6  H   UNL A   1      30.189  26.766  27.326  1.00  0.00     0.163 HD
BRANCH   4   7
ATOM      7  C   UNL A   1      32.233  24.959  25.352  1.00  0.00     0.104 C 
BRANCH   7   8
ATOM      8  C   UNL A   1      32.473  23.437  25.245  1.00  0.00     0.010 C 
ATOM      9  N   UNL A   1      35.011  21.942  24.795  1.00  0.00    -0.324 N 
ATOM     10  C   UNL A   1      34.310  21.780  26.065  1.00  0.00     0.185 C 
ATOM     11  C   UNL A   1      33.942  21.843  23.801  1.00  0.00     0.185 C 
ATOM     12  H   UNL A   1      35.731  21.219  24.772  1.00  0.00     0.349 HD
ATOM     13  C   UNL A   1      33.500  20.510  25.754  1.00  0.00     0.071 C 
ATOM     14  C   UNL A   1      33.359  22.945  26.411  1.00  0.00     0.069 C 
ATOM     15  C   UNL A   1      33.200  20.592  24.259  1.00  0.00     0.071 C 
ATOM     16  C   UNL A   1      33.044  23.078  23.868  1.00  0.00     0.069 C 
BRANCH   9  17
ATOM     17  C   UNL A   1      36.046  22.955  24.539  1.00  0.00     0.212 C 
ATOM     18  C   UNL A   1      36.354  22.955  23.035  1.00  0.00     0.081 C 
BRANCH  17  19
ATOM     19  C   UNL A   1      37.333  22.902  25.344  1.00  0.00     0.012 A 
ATOM     20  C   UNL A   1      38.156  21.768  25.374  1.00  0.00     0.030 A 
ATOM     21  C   UNL A   1      37.743  24.015  26.090  1.00  0.00     0.030 A 
ATOM     22  C   UNL A   1      39.276  21.770  26.190  1.00  0.00     0.111 A 
ATOM     23  C   UNL A   1      38.889  23.926  26.868  1.00  0.00     0.111 A 
ATOM     24  N   UNL A   1      39.659  22.822  26.945  1.00  0.00    -0.265 NA
ENDBRANCH  17  19
ENDBRANCH   9  17
ENDBRANCH   7   8
ENDBRANCH   4   7
ENDBRANCH   2   3
ENDBRANCH   1   2
BRANCH   1  25
ATOM     25  C   UNL A   1      33.845  29.048  26.268  1.00  0.00     0.118 C 
BRANCH  25  26
ATOM     26  N   UNL A   1      33.701  30.456  26.584  1.00  0.00    -0.352 N 
ATOM     27  C   UNL A   1      34.380  31.219  27.506  1.00  0.00     0.251 C 
ATOM     28  H   UNL A   1      33.019  30.936  26.063  1.00  0.00     0.163 HD
ATOM     29  O   UNL A   1      33.924  32.318  27.811  1.00  0.00    -0.269 OA
BRANCH  27  30
ATOM     30  C   UNL A   1      35.636  30.737  28.139  1.00  0.00     0.039 A 
ATOM     31  C   UNL A   1      35.556  29.719  29.096  1.00  0.00     0.014 A 
ATOM     32  C   UNL A   1      36.876  31.322  27.865  1.00  0.00     0.014 A 
ATOM     33  C   UNL A   1      36.710  29.280  29.757  1.00  0.00     0.010 A 
ATOM     34  C   UNL A   1      38.037  30.828  28.464  1.00  0.00     0.010 A 
ATOM     35  C   UNL A   1      37.965  29.823  29.439  1.00  0.00    -0.014 A 
BRANCH  35  36
ATOM     36  C   UNL A   1      39.198  29.393  30.157  1.00  0.00     0.031 A 
ATOM     37  C   UNL A   1      39.601  30.078  31.440  1.00  0.00     0.074 A 
ATOM     38  C   UNL A   1      39.976  28.418  29.646  1.00  0.00     0.049 A 
ATOM     39  N   UNL A   1      40.658  29.877  32.186  1.00  0.00    -0.248 NA
ATOM     40  C   UNL A   1      38.714  31.143  31.935  1.00  0.00     0.031 C 
ATOM     41  C   UNL A   1      39.720  27.694  28.399  1.00  0.00     0.029 A 
ATOM     42  N   UNL A   1      41.145  27.869  30.113  1.00  0.00    -0.354 N 
ATOM     43  C   UNL A   1      40.577  30.808  33.217  1.00  0.00     0.074 A 
ATOM     44  C   UNL A   1      39.391  31.600  32.979  1.00  0.00     0.031 C 
ATOM     45  C   UNL A   1      40.684  26.775  28.218  1.00  0.00     0.029 A 
ATOM     46  C   UNL A   1      41.645  26.869  29.312  1.00  0.00     0.049 A 
ATOM     47  H   UNL A   1      41.583  28.163  30.945  1.00  0.00     0.167 HD
ATOM     48  C   UNL A   1      41.403  30.979  34.278  1.00  0.00     0.031 A 
ATOM     49  C   UNL A   1      42.753  26.112  29.443  1.00  0.00     0.031 A 
ATOM     50  C   UNL A   1      42.563  30.169  34.538  1.00  0.00     0.049 A 
ATOM     51  C   UNL A   1      43.648  26.313  30.637  1.00  0.00     0.074 A 
ATOM     52  C   UNL A   1      43.421  30.219  35.623  1.00  0.00     0.029 A 
ATOM     53  N   UNL A   1      43.025  29.160  33.708  1.00  0.00    -0.354 N 
ATOM     54  N   UNL A   1      43.518  27.157  31.632  1.00  0.00    -0.248 NA
ATOM     55  C   UNL A   1      44.833  25.447  30.730  1.00  0.00     0.031 C 
ATOM     56  C   UNL A   1      44.427  29.268  35.429  1.00  0.00     0.029 A 
ATOM     57  C   UNL A   1      44.167  28.593  34.247  1.00  0.00     0.049 A 
ATOM     58  H   UNL A   1      42.604  28.887  32.861  1.00  0.00     0.167 HD
ATOM     59  C   UNL A   1      44.588  26.904  32.484  1.00  0.00     0.074 A 
ATOM     60  C   UNL A   1      45.347  25.821  31.894  1.00  0.00     0.031 C 
ATOM     61  C   UNL A   1      44.909  27.510  33.652  1.00  0.00     0.031 A 
BRANCH  48  62
ATOM     62  C   UNL A   1      41.083  32.093  35.242  1.00  0.00    -0.014 A 
ATOM     63  C   UNL A   1      40.188  31.897  36.309  1.00  0.00     0.010 A 
ATOM     64  C   UNL A   1      41.721  33.340  35.102  1.00  0.00     0.010 A 
ATOM     65  C   UNL A   1      39.906  32.941  37.195  1.00  0.00     0.020 A 
ATOM     66  C   UNL A   1      41.461  34.377  36.003  1.00  0.00     0.020 A 
ATOM     67  C   UNL A   1      40.541  34.176  37.033  1.00  0.00     0.054 A 
BRANCH  67  68
ATOM     68  S   UNL A   1      40.172  35.506  38.212  1.00  0.00     0.124 S 
ATOM     69  O   UNL A   1      39.189  34.868  39.085  1.00  0.00    -0.237 OA
ATOM     70  O   UNL A   1      41.475  35.768  38.819  1.00  0.00    -0.237 OA
ATOM     71  O   UNL A   1      39.652  36.581  37.369  1.00  0.00    -0.744 OA
ENDBRANCH  67  68
ENDBRANCH  48  62
BRANCH  49  72
ATOM     72  C   UNL A   1      43.069  25.071  28.427  1.00  0.00    -0.014 A 
ATOM     73  C   UNL A   1      43.763  25.412  27.253  1.00  0.00     0.010 A 
ATOM     74  C   UNL A   1      42.676  23.735  28.625  1.00  0.00     0.010 A 
ATOM     75  C   UNL A   1      44.039  24.443  26.285  1.00  0.00     0.020 A 
ATOM     76  C   UNL A   1      42.974  22.757  27.672  1.00  0.00     0.020 A 
ATOM     77  C   UNL A   1      43.642  23.120  26.500  1.00  0.00     0.054 A 
BRANCH  77  78
ATOM     78  S   UNL A   1      44.048  21.869  25.251  1.00  0.00     0.124 S 
ATOM     79  O   UNL A   1      45.424  21.529  25.598  1.00  0.00    -0.237 OA
ATOM     80  O   UNL A   1      43.054  20.829  25.509  1.00  0.00    -0.237 OA
ATOM     81  O   UNL A   1      43.877  22.581  23.988  1.00  0.00    -0.744 OA
ENDBRANCH  77  78
ENDBRANCH  49  72
BRANCH  61  82
ATOM     82  C   UNL A   1      46.111  26.993  34.396  1.00  0.00    -0.014 A 
ATOM     83  C   UNL A   1      45.995  25.959  35.340  1.00  0.00     0.010 A 
ATOM     84  C   UNL A   1      47.384  27.519  34.104  1.00  0.00     0.010 A 
ATOM     85  C   UNL A   1      47.129  25.479  36.002  1.00  0.00     0.020 A 
ATOM     86  C   UNL A   1      48.521  27.024  34.745  1.00  0.00     0.020 A 
ATOM     87  C   UNL A   1      48.384  26.016  35.702  1.00  0.00     0.054 A 
BRANCH  87  88
ATOM     88  S   UNL A   1      49.846  25.349  36.544  1.00  0.00     0.124 S 
ATOM     89  O   UNL A   1      50.704  26.526  36.641  1.00  0.00    -0.237 OA
ATOM     90  O   UNL A   1      49.296  24.866  37.809  1.00  0.00    -0.237 OA
ATOM     91  O   UNL A   1      50.319  24.304  35.639  1.00  0.00    -0.744 OA
ENDBRANCH  87  88
ENDBRANCH  61  82
ENDBRANCH  35  36
ENDBRANCH  27  30
ENDBRANCH  25  26
ENDBRANCH   1  25
TORSDOF 16
ENDMDL
