MODEL 1
REMARK VINA RESULT:     -10.4      0.000      0.000
REMARK SMILES CC(C)(C)OC(=O)[C@]1(C(=O)NCCCNC(=O)c2ccc(-c3c4nc(c(-c5ccc(S(=O)(=O)[O-])cc5)c5ccc([nH]5)c(-c5ccc(S(=O)(=O)[O-])cc5)c5nc(c(-c6ccc(S(=O)(=O)[O-])cc6)c6ccc3[nH]6)C=C5)C=C4)cc2)CC=CC[C@@H]1[NH3+]
REMARK SMILES IDX 13 1 12 2 11 3 9 4 10 5 8 7 78 8 82 9 79 10 81 11 80 12 6 13
REMARK SMILES IDX 7 14 5 15 2 16 1 17 3 18 4 19 83 20 14 24 15 25 16 26 17 28
REMARK SMILES IDX 18 29 19 30 77 31 20 32 76 33 21 34 22 35 23 36 70 37 24 38
REMARK SMILES IDX 75 39 69 40 71 41 25 42 74 43 68 44 67 45 26 47 56 48 37 49
REMARK SMILES IDX 55 50 38 51 41 52 54 53 72 54 39 55 40 56 53 58 73 59 42 60
REMARK SMILES IDX 27 61 28 62 36 63 29 64 35 65 30 66 31 67 32 68 33 69 34 70
REMARK SMILES IDX 57 71 58 72 66 73 59 74 65 75 60 76 61 77 62 78 63 79 64 80
REMARK SMILES IDX 43 81 44 82 52 83 45 84 51 85 46 86 47 87 48 88 49 89 50 90
REMARK H PARENT 11 6 83 21 83 22 83 23 15 27 71 46 41 57
REMARK Flexibility Score: inf
ROOT
ATOM      1  C   UNL A   1      34.100  27.548  25.496  1.00  0.00     0.042 C 
ENDROOT
BRANCH   1   2
ATOM      2  C   UNL A   1      33.432  26.276  24.985  1.00  0.00     0.117 C 
BRANCH   2   3
ATOM      3  N   UNL A   1      32.632  25.622  26.011  1.00  0.00    -0.355 N 
ATOM      4  C   UNL A   1      32.469  24.303  26.355  1.00  0.00     0.244 C 
ATOM      5  O   UNL A   1      31.787  24.128  27.368  1.00  0.00    -0.274 OA
ATOM      6  H   UNL A   1      32.107  26.245  26.564  1.00  0.00     0.163 HD
BRANCH   4   7
ATOM      7  C   UNL A   1      33.182  23.159  25.592  1.00  0.00     0.201 C 
ATOM      8  C   UNL A   1      32.550  23.032  24.172  1.00  0.00     0.062 C 
ATOM      9  C   UNL A   1      34.714  23.505  25.670  1.00  0.00     0.212 C 
ATOM     10  C   UNL A   1      33.469  23.161  22.999  1.00  0.00    -0.029 C 
ATOM     11  C   UNL A   1      35.544  23.298  24.386  1.00  0.00     0.093 C 
ATOM     12  C   UNL A   1      34.795  23.281  23.097  1.00  0.00    -0.025 C 
BRANCH   7  13
ATOM     13  C   UNL A   1      32.991  21.751  26.159  1.00  0.00     0.328 C 
ATOM     14  O   UNL A   1      33.360  21.457  27.294  1.00  0.00    -0.251 OA
BRANCH  13  15
ATOM     15  O   UNL A   1      32.388  20.878  25.322  1.00  0.00    -0.459 OA
BRANCH  15  16
ATOM     16  C   UNL A   1      33.038  19.650  24.899  1.00  0.00     0.104 C 
ATOM     17  C   UNL A   1      32.461  19.342  23.508  1.00  0.00     0.056 C 
ATOM     18  C   UNL A   1      32.703  18.473  25.823  1.00  0.00     0.056 C 
ATOM     19  C   UNL A   1      34.548  19.874  24.767  1.00  0.00     0.056 C 
ENDBRANCH  15  16
ENDBRANCH  13  15
ENDBRANCH   7  13
BRANCH   9  20
ATOM     20  N   UNL A   1      35.464  22.894  26.800  1.00  0.00    -0.353 N 
ATOM     21  H   UNL A   1      35.025  23.158  27.681  1.00  0.00     0.344 HD
ATOM     22  H   UNL A   1      36.428  23.227  26.787  1.00  0.00     0.344 HD
ATOM     23  H   UNL A   1      35.454  21.878  26.706  1.00  0.00     0.344 HD
ENDBRANCH   9  20
ENDBRANCH   4   7
ENDBRANCH   2   3
ENDBRANCH   1   2
BRANCH   1  24
ATOM     24  C   UNL A   1      33.713  27.893  26.926  1.00  0.00     0.118 C 
BRANCH  24  25
ATOM     25  N   UNL A   1      33.446  29.315  27.091  1.00  0.00    -0.352 N 
ATOM     26  C   UNL A   1      34.216  30.281  27.687  1.00  0.00     0.251 C 
ATOM     27  H   UNL A   1      32.590  29.629  26.720  1.00  0.00     0.163 HD
ATOM     28  O   UNL A   1      33.727  31.387  27.922  1.00  0.00    -0.269 OA
BRANCH  26  29
ATOM     29  C   UNL A   1      35.618  29.995  28.064  1.00  0.00     0.039 A 
ATOM     30  C   UNL A   1      35.905  29.614  29.377  1.00  0.00     0.014 A 
ATOM     31  C   UNL A   1      36.651  30.115  27.130  1.00  0.00     0.014 A 
ATOM     32  C   UNL A   1      37.219  29.304  29.738  1.00  0.00     0.010 A 
ATOM     33  C   UNL A   1      37.941  29.720  27.466  1.00  0.00     0.010 A 
ATOM     34  C   UNL A   1      38.244  29.324  28.778  1.00  0.00    -0.014 A 
BRANCH  34  35
ATOM     35  C   UNL A   1      39.642  28.960  29.122  1.00  0.00     0.031 A 
ATOM     36  C   UNL A   1      40.548  29.982  29.758  1.00  0.00     0.074 A 
ATOM     37  C   UNL A   1      40.118  27.741  28.800  1.00  0.00     0.049 A 
ATOM     38  N   UNL A   1      41.820  29.890  30.046  1.00  0.00    -0.248 NA
ATOM     39  C   UNL A   1      39.952  31.289  30.086  1.00  0.00     0.031 C 
ATOM     40  C   UNL A   1      39.351  26.673  28.154  1.00  0.00     0.029 A 
ATOM     41  N   UNL A   1      41.367  27.197  28.964  1.00  0.00    -0.354 N 
ATOM     42  C   UNL A   1      42.180  31.129  30.568  1.00  0.00     0.074 A 
ATOM     43  C   UNL A   1      41.006  31.971  30.505  1.00  0.00     0.031 C 
ATOM     44  C   UNL A   1      40.138  25.597  27.999  1.00  0.00     0.029 A 
ATOM     45  C   UNL A   1      41.477  25.911  28.487  1.00  0.00     0.049 A 
ATOM     46  H   UNL A   1      42.116  27.681  29.382  1.00  0.00     0.167 HD
ATOM     47  C   UNL A   1      43.374  31.524  31.070  1.00  0.00     0.031 A 
ATOM     48  C   UNL A   1      42.539  25.083  28.435  1.00  0.00     0.031 A 
ATOM     49  C   UNL A   1      44.536  30.679  31.141  1.00  0.00     0.049 A 
ATOM     50  C   UNL A   1      43.861  25.551  28.982  1.00  0.00     0.074 A 
ATOM     51  C   UNL A   1      45.777  30.967  31.680  1.00  0.00     0.029 A 
ATOM     52  N   UNL A   1      44.601  29.380  30.657  1.00  0.00    -0.354 N 
ATOM     53  N   UNL A   1      44.166  26.706  29.523  1.00  0.00    -0.248 NA
ATOM     54  C   UNL A   1      44.978  24.600  28.921  1.00  0.00     0.031 C 
ATOM     55  C   UNL A   1      46.610  29.865  31.468  1.00  0.00     0.029 A 
ATOM     56  C   UNL A   1      45.869  28.863  30.861  1.00  0.00     0.049 A 
ATOM     57  H   UNL A   1      43.856  28.899  30.230  1.00  0.00     0.167 HD
ATOM     58  C   UNL A   1      45.501  26.608  29.898  1.00  0.00     0.074 A 
ATOM     59  C   UNL A   1      45.940  25.277  29.533  1.00  0.00     0.031 C 
ATOM     60  C   UNL A   1      46.290  27.534  30.497  1.00  0.00     0.031 A 
BRANCH  47  61
ATOM     61  C   UNL A   1      43.486  32.941  31.575  1.00  0.00    -0.014 A 
ATOM     62  C   UNL A   1      43.035  33.295  32.860  1.00  0.00     0.010 A 
ATOM     63  C   UNL A   1      44.085  33.924  30.768  1.00  0.00     0.010 A 
ATOM     64  C   UNL A   1      43.142  34.613  33.310  1.00  0.00     0.020 A 
ATOM     65  C   UNL A   1      44.224  35.238  31.227  1.00  0.00     0.020 A 
ATOM     66  C   UNL A   1      43.735  35.577  32.489  1.00  0.00     0.054 A 
BRANCH  66  67
ATOM     67  S   UNL A   1      43.880  37.275  33.111  1.00  0.00     0.124 S 
ATOM     68  O   UNL A   1      43.647  38.059  31.901  1.00  0.00    -0.237 OA
ATOM     69  O   UNL A   1      42.823  37.339  34.116  1.00  0.00    -0.237 OA
ATOM     70  O   UNL A   1      45.242  37.336  33.639  1.00  0.00    -0.744 OA
ENDBRANCH  66  67
ENDBRANCH  47  61
BRANCH  48  71
ATOM     71  C   UNL A   1      42.392  23.720  27.852  1.00  0.00    -0.014 A 
ATOM     72  C   UNL A   1      42.644  23.495  26.486  1.00  0.00     0.010 A 
ATOM     73  C   UNL A   1      42.008  22.635  28.662  1.00  0.00     0.010 A 
ATOM     74  C   UNL A   1      42.493  22.216  25.938  1.00  0.00     0.020 A 
ATOM     75  C   UNL A   1      41.888  21.351  28.125  1.00  0.00     0.020 A 
ATOM     76  C   UNL A   1      42.119  21.152  26.763  1.00  0.00     0.054 A 
BRANCH  76  77
ATOM     77  S   UNL A   1      41.979  19.494  26.039  1.00  0.00     0.124 S 
ATOM     78  O   UNL A   1      40.545  19.395  25.785  1.00  0.00    -0.237 OA
ATOM     79  O   UNL A   1      42.827  19.595  24.855  1.00  0.00    -0.237 OA
ATOM     80  O   UNL A   1      42.490  18.617  27.091  1.00  0.00    -0.744 OA
ENDBRANCH  76  77
ENDBRANCH  48  71
BRANCH  60  81
ATOM     81  C   UNL A   1      47.701  27.131  30.841  1.00  0.00    -0.014 A 
ATOM     82  C   UNL A   1      47.992  26.398  32.005  1.00  0.00     0.010 A 
ATOM     83  C   UNL A   1      48.743  27.441  29.946  1.00  0.00     0.010 A 
ATOM     84  C   UNL A   1      49.306  26.007  32.281  1.00  0.00     0.020 A 
ATOM     85  C   UNL A   1      50.050  27.024  30.203  1.00  0.00     0.020 A 
ATOM     86  C   UNL A   1      50.326  26.320  31.376  1.00  0.00     0.054 A 
BRANCH  86  87
ATOM     87  S   UNL A   1      52.013  25.756  31.733  1.00  0.00     0.124 S 
ATOM     88  O   UNL A   1      51.797  24.353  32.075  1.00  0.00    -0.237 OA
ATOM     89  O   UNL A   1      52.703  25.995  30.468  1.00  0.00    -0.237 OA
ATOM     90  O   UNL A   1      52.437  26.609  32.839  1.00  0.00    -0.744 OA
ENDBRANCH  86  87
ENDBRANCH  60  81
ENDBRANCH  34  35
ENDBRANCH  26  29
ENDBRANCH  24  25
ENDBRANCH   1  24
TORSDOF 17
ENDMDL
MODEL 2
REMARK VINA RESULT:     -10.1      2.968      9.433
REMARK SMILES CC(C)(C)OC(=O)[C@]1(C(=O)NCCCNC(=O)c2ccc(-c3c4nc(c(-c5ccc(S(=O)(=O)[O-])cc5)c5ccc([nH]5)c(-c5ccc(S(=O)(=O)[O-])cc5)c5nc(c(-c6ccc(S(=O)(=O)[O-])cc6)c6ccc3[nH]6)C=C5)C=C4)cc2)CC=CC[C@@H]1[NH3+]
REMARK SMILES IDX 13 1 12 2 11 3 9 4 10 5 8 7 78 8 82 9 79 10 81 11 80 12 6 13
REMARK SMILES IDX 7 14 5 15 2 16 1 17 3 18 4 19 83 20 14 24 15 25 16 26 17 28
REMARK SMILES IDX 18 29 19 30 77 31 20 32 76 33 21 34 22 35 23 36 70 37 24 38
REMARK SMILES IDX 75 39 69 40 71 41 25 42 74 43 68 44 67 45 26 47 56 48 37 49
REMARK SMILES IDX 55 50 38 51 41 52 54 53 72 54 39 55 40 56 53 58 73 59 42 60
REMARK SMILES IDX 27 61 28 62 36 63 29 64 35 65 30 66 31 67 32 68 33 69 34 70
REMARK SMILES IDX 57 71 58 72 66 73 59 74 65 75 60 76 61 77 62 78 63 79 64 80
REMARK SMILES IDX 43 81 44 82 52 83 45 84 51 85 46 86 47 87 48 88 49 89 50 90
REMARK H PARENT 11 6 83 21 83 22 83 23 15 27 71 46 41 57
REMARK Flexibility Score: inf
ROOT
ATOM      1  C   UNL A   1      35.058  23.593  25.771  1.00  0.00     0.042 C 
ENDROOT
BRANCH   1   2
ATOM      2  C   UNL A   1      34.023  24.624  25.333  1.00  0.00     0.117 C 
BRANCH   2   3
ATOM      3  N   UNL A   1      34.143  24.962  23.921  1.00  0.00    -0.355 N 
ATOM      4  C   UNL A   1      33.557  25.935  23.150  1.00  0.00     0.244 C 
ATOM      5  O   UNL A   1      33.993  25.992  21.997  1.00  0.00    -0.274 OA
ATOM      6  H   UNL A   1      34.764  24.381  23.424  1.00  0.00     0.163 HD
BRANCH   4   7
ATOM      7  C   UNL A   1      32.527  26.935  23.731  1.00  0.00     0.201 C 
ATOM      8  C   UNL A   1      31.199  26.175  24.024  1.00  0.00     0.062 C 
ATOM      9  C   UNL A   1      33.254  27.614  24.949  1.00  0.00     0.212 C 
ATOM     10  C   UNL A   1      30.675  26.226  25.424  1.00  0.00    -0.029 C 
ATOM     11  C   UNL A   1      32.422  27.820  26.232  1.00  0.00     0.093 C 
ATOM     12  C   UNL A   1      31.220  26.954  26.402  1.00  0.00    -0.025 C 
BRANCH   7  13
ATOM     13  C   UNL A   1      32.063  28.046  22.787  1.00  0.00     0.328 C 
ATOM     14  O   UNL A   1      32.839  28.904  22.369  1.00  0.00    -0.251 OA
BRANCH  13  15
ATOM     15  O   UNL A   1      30.754  28.000  22.454  1.00  0.00    -0.459 OA
BRANCH  15  16
ATOM     16  C   UNL A   1      29.822  29.034  22.869  1.00  0.00     0.104 C 
ATOM     17  C   UNL A   1      29.720  29.994  21.673  1.00  0.00     0.056 C 
ATOM     18  C   UNL A   1      30.342  29.828  24.074  1.00  0.00     0.056 C 
ATOM     19  C   UNL A   1      28.442  28.422  23.128  1.00  0.00     0.056 C 
ENDBRANCH  15  16
ENDBRANCH  13  15
ENDBRANCH   7  13
BRANCH   9  20
ATOM     20  N   UNL A   1      33.966  28.886  24.659  1.00  0.00    -0.353 N 
ATOM     21  H   UNL A   1      34.129  28.963  23.655  1.00  0.00     0.344 HD
ATOM     22  H   UNL A   1      34.860  28.896  25.150  1.00  0.00     0.344 HD
ATOM     23  H   UNL A   1      33.398  29.674  24.971  1.00  0.00     0.344 HD
ENDBRANCH   9  20
ENDBRANCH   4   7
ENDBRANCH   2   3
ENDBRANCH   1   2
BRANCH   1  24
ATOM     24  C   UNL A   1      36.491  24.076  25.603  1.00  0.00     0.118 C 
BRANCH  24  25
ATOM     25  N   UNL A   1      37.452  22.991  25.744  1.00  0.00    -0.352 N 
ATOM     26  C   UNL A   1      38.745  23.030  26.199  1.00  0.00     0.251 C 
ATOM     27  H   UNL A   1      37.126  22.102  25.476  1.00  0.00     0.163 HD
ATOM     28  O   UNL A   1      39.472  22.048  26.042  1.00  0.00    -0.269 OA
BRANCH  26  29
ATOM     29  C   UNL A   1      39.272  24.245  26.857  1.00  0.00     0.039 A 
ATOM     30  C   UNL A   1      40.019  25.157  26.105  1.00  0.00     0.014 A 
ATOM     31  C   UNL A   1      39.046  24.482  28.216  1.00  0.00     0.014 A 
ATOM     32  C   UNL A   1      40.491  26.328  26.703  1.00  0.00     0.010 A 
ATOM     33  C   UNL A   1      39.439  25.688  28.786  1.00  0.00     0.010 A 
ATOM     34  C   UNL A   1      40.178  26.619  28.040  1.00  0.00    -0.014 A 
BRANCH  34  35
ATOM     35  C   UNL A   1      40.632  27.874  28.692  1.00  0.00     0.031 A 
ATOM     36  C   UNL A   1      42.017  27.957  29.280  1.00  0.00     0.074 A 
ATOM     37  C   UNL A   1      39.780  28.911  28.819  1.00  0.00     0.049 A 
ATOM     38  N   UNL A   1      42.564  28.924  29.967  1.00  0.00    -0.248 NA
ATOM     39  C   UNL A   1      42.890  26.785  29.093  1.00  0.00     0.031 C 
ATOM     40  C   UNL A   1      38.403  28.945  28.320  1.00  0.00     0.029 A 
ATOM     41  N   UNL A   1      39.944  30.135  29.417  1.00  0.00    -0.354 N 
ATOM     42  C   UNL A   1      43.833  28.471  30.314  1.00  0.00     0.074 A 
ATOM     43  C   UNL A   1      43.954  27.123  29.806  1.00  0.00     0.031 C 
ATOM     44  C   UNL A   1      37.858  30.137  28.611  1.00  0.00     0.029 A 
ATOM     45  C   UNL A   1      38.825  30.934  29.359  1.00  0.00     0.049 A 
ATOM     46  H   UNL A   1      40.784  30.417  29.847  1.00  0.00     0.167 HD
ATOM     47  C   UNL A   1      44.816  29.125  30.977  1.00  0.00     0.031 A 
ATOM     48  C   UNL A   1      38.598  32.163  29.863  1.00  0.00     0.031 A 
ATOM     49  C   UNL A   1      44.696  30.472  31.469  1.00  0.00     0.049 A 
ATOM     50  C   UNL A   1      39.699  32.862  30.614  1.00  0.00     0.074 A 
ATOM     51  C   UNL A   1      45.651  31.242  32.108  1.00  0.00     0.029 A 
ATOM     52  N   UNL A   1      43.549  31.248  31.381  1.00  0.00    -0.354 N 
ATOM     53  N   UNL A   1      40.912  32.439  30.881  1.00  0.00    -0.248 NA
ATOM     54  C   UNL A   1      39.405  34.208  31.121  1.00  0.00     0.031 C 
ATOM     55  C   UNL A   1      45.065  32.462  32.458  1.00  0.00     0.029 A 
ATOM     56  C   UNL A   1      43.765  32.479  31.975  1.00  0.00     0.049 A 
ATOM     57  H   UNL A   1      42.707  30.964  30.958  1.00  0.00     0.167 HD
ATOM     58  C   UNL A   1      41.536  33.481  31.557  1.00  0.00     0.074 A 
ATOM     59  C   UNL A   1      40.571  34.557  31.648  1.00  0.00     0.031 C 
ATOM     60  C   UNL A   1      42.797  33.543  32.053  1.00  0.00     0.031 A 
BRANCH  47  61
ATOM     61  C   UNL A   1      46.108  28.387  31.218  1.00  0.00    -0.014 A 
ATOM     62  C   UNL A   1      47.177  28.469  30.305  1.00  0.00     0.010 A 
ATOM     63  C   UNL A   1      46.272  27.629  32.392  1.00  0.00     0.010 A 
ATOM     64  C   UNL A   1      48.365  27.774  30.542  1.00  0.00     0.020 A 
ATOM     65  C   UNL A   1      47.472  26.959  32.648  1.00  0.00     0.020 A 
ATOM     66  C   UNL A   1      48.505  27.021  31.712  1.00  0.00     0.054 A 
BRANCH  66  67
ATOM     67  S   UNL A   1      50.068  26.149  32.001  1.00  0.00     0.124 S 
ATOM     68  O   UNL A   1      50.347  26.487  33.395  1.00  0.00    -0.237 OA
ATOM     69  O   UNL A   1      49.708  24.756  31.752  1.00  0.00    -0.237 OA
ATOM     70  O   UNL A   1      50.981  26.738  31.024  1.00  0.00    -0.744 OA
ENDBRANCH  66  67
ENDBRANCH  47  61
BRANCH  48  71
ATOM     71  C   UNL A   1      37.273  32.815  29.664  1.00  0.00    -0.014 A 
ATOM     72  C   UNL A   1      37.015  33.571  28.506  1.00  0.00     0.010 A 
ATOM     73  C   UNL A   1      36.258  32.676  30.628  1.00  0.00     0.010 A 
ATOM     74  C   UNL A   1      35.775  34.193  28.327  1.00  0.00     0.020 A 
ATOM     75  C   UNL A   1      35.007  33.269  30.438  1.00  0.00     0.020 A 
ATOM     76  C   UNL A   1      34.777  34.035  29.293  1.00  0.00     0.054 A 
BRANCH  76  77
ATOM     77  S   UNL A   1      33.161  34.810  29.015  1.00  0.00     0.124 S 
ATOM     78  O   UNL A   1      33.538  36.113  28.478  1.00  0.00    -0.237 OA
ATOM     79  O   UNL A   1      32.531  33.892  28.069  1.00  0.00    -0.237 OA
ATOM     80  O   UNL A   1      32.558  34.831  30.347  1.00  0.00    -0.744 OA
ENDBRANCH  76  77
ENDBRANCH  48  71
BRANCH  60  81
ATOM     81  C   UNL A   1      43.229  34.834  32.700  1.00  0.00    -0.014 A 
ATOM     82  C   UNL A   1      43.824  35.866  31.953  1.00  0.00     0.010 A 
ATOM     83  C   UNL A   1      42.974  35.036  34.069  1.00  0.00     0.010 A 
ATOM     84  C   UNL A   1      44.182  37.067  32.573  1.00  0.00     0.020 A 
ATOM     85  C   UNL A   1      43.302  36.246  34.684  1.00  0.00     0.020 A 
ATOM     86  C   UNL A   1      43.916  37.250  33.935  1.00  0.00     0.054 A 
BRANCH  86  87
ATOM     87  S   UNL A   1      44.345  38.837  34.702  1.00  0.00     0.124 S 
ATOM     88  O   UNL A   1      43.321  39.724  34.157  1.00  0.00    -0.237 OA
ATOM     89  O   UNL A   1      44.228  38.543  36.128  1.00  0.00    -0.237 OA
ATOM     90  O   UNL A   1      45.704  39.092  34.234  1.00  0.00    -0.744 OA
ENDBRANCH  86  87
ENDBRANCH  60  81
ENDBRANCH  34  35
ENDBRANCH  26  29
ENDBRANCH  24  25
ENDBRANCH   1  24
TORSDOF 17
ENDMDL
MODEL 3
REMARK VINA RESULT:      -9.9      1.233      2.028
REMARK SMILES CC(C)(C)OC(=O)[C@]1(C(=O)NCCCNC(=O)c2ccc(-c3c4nc(c(-c5ccc(S(=O)(=O)[O-])cc5)c5ccc([nH]5)c(-c5ccc(S(=O)(=O)[O-])cc5)c5nc(c(-c6ccc(S(=O)(=O)[O-])cc6)c6ccc3[nH]6)C=C5)C=C4)cc2)CC=CC[C@@H]1[NH3+]
REMARK SMILES IDX 13 1 12 2 11 3 9 4 10 5 8 7 78 8 82 9 79 10 81 11 80 12 6 13
REMARK SMILES IDX 7 14 5 15 2 16 1 17 3 18 4 19 83 20 14 24 15 25 16 26 17 28
REMARK SMILES IDX 18 29 19 30 77 31 20 32 76 33 21 34 22 35 23 36 70 37 24 38
REMARK SMILES IDX 75 39 69 40 71 41 25 42 74 43 68 44 67 45 26 47 56 48 37 49
REMARK SMILES IDX 55 50 38 51 41 52 54 53 72 54 39 55 40 56 53 58 73 59 42 60
REMARK SMILES IDX 27 61 28 62 36 63 29 64 35 65 30 66 31 67 32 68 33 69 34 70
REMARK SMILES IDX 57 71 58 72 66 73 59 74 65 75 60 76 61 77 62 78 63 79 64 80
REMARK SMILES IDX 43 81 44 82 52 83 45 84 51 85 46 86 47 87 48 88 49 89 50 90
REMARK H PARENT 11 6 83 21 83 22 83 23 15 27 71 46 41 57
REMARK Flexibility Score: inf
ROOT
ATOM      1  C   UNL A   1      34.038  27.988  25.848  1.00  0.00     0.042 C 
ENDROOT
BRANCH   1   2
ATOM      2  C   UNL A   1      32.905  27.700  24.870  1.00  0.00     0.117 C 
BRANCH   2   3
ATOM      3  N   UNL A   1      33.395  27.313  23.554  1.00  0.00    -0.355 N 
ATOM      4  C   UNL A   1      33.547  26.091  22.947  1.00  0.00     0.244 C 
ATOM      5  O   UNL A   1      33.891  26.158  21.763  1.00  0.00    -0.274 OA
ATOM      6  H   UNL A   1      33.670  28.073  22.992  1.00  0.00     0.163 HD
BRANCH   4   7
ATOM      7  C   UNL A   1      33.201  24.765  23.668  1.00  0.00     0.201 C 
ATOM      8  C   UNL A   1      31.721  24.830  24.155  1.00  0.00     0.062 C 
ATOM      9  C   UNL A   1      33.573  23.631  22.644  1.00  0.00     0.212 C 
ATOM     10  C   UNL A   1      30.796  23.755  23.679  1.00  0.00    -0.029 C 
ATOM     11  C   UNL A   1      32.583  22.455  22.513  1.00  0.00     0.093 C 
ATOM     12  C   UNL A   1      31.180  22.705  22.950  1.00  0.00    -0.025 C 
BRANCH   7  13
ATOM     13  C   UNL A   1      33.958  24.488  24.968  1.00  0.00     0.328 C 
ATOM     14  O   UNL A   1      35.171  24.667  25.058  1.00  0.00    -0.251 OA
BRANCH  13  15
ATOM     15  O   UNL A   1      33.193  24.044  25.989  1.00  0.00    -0.459 OA
BRANCH  15  16
ATOM     16  C   UNL A   1      33.479  22.797  26.675  1.00  0.00     0.104 C 
ATOM     17  C   UNL A   1      32.339  22.619  27.690  1.00  0.00     0.056 C 
ATOM     18  C   UNL A   1      34.801  22.857  27.450  1.00  0.00     0.056 C 
ATOM     19  C   UNL A   1      33.440  21.631  25.682  1.00  0.00     0.056 C 
ENDBRANCH  15  16
ENDBRANCH  13  15
ENDBRANCH   7  13
BRANCH   9  20
ATOM     20  N   UNL A   1      34.941  23.061  22.770  1.00  0.00    -0.353 N 
ATOM     21  H   UNL A   1      34.965  22.136  22.343  1.00  0.00     0.344 HD
ATOM     22  H   UNL A   1      35.188  22.986  23.758  1.00  0.00     0.344 HD
ATOM     23  H   UNL A   1      35.609  23.671  22.298  1.00  0.00     0.344 HD
ENDBRANCH   9  20
ENDBRANCH   4   7
ENDBRANCH   2   3
ENDBRANCH   1   2
BRANCH   1  24
ATOM     24  C   UNL A   1      33.549  28.310  27.252  1.00  0.00     0.118 C 
BRANCH  24  25
ATOM     25  N   UNL A   1      33.460  29.745  27.483  1.00  0.00    -0.352 N 
ATOM     26  C   UNL A   1      34.374  30.591  28.060  1.00  0.00     0.251 C 
ATOM     27  H   UNL A   1      32.626  30.170  27.180  1.00  0.00     0.163 HD
ATOM     28  O   UNL A   1      34.032  31.734  28.364  1.00  0.00    -0.269 OA
BRANCH  26  29
ATOM     29  C   UNL A   1      35.752  30.131  28.333  1.00  0.00     0.039 A 
ATOM     30  C   UNL A   1      36.700  30.171  27.306  1.00  0.00     0.014 A 
ATOM     31  C   UNL A   1      36.110  29.645  29.594  1.00  0.00     0.014 A 
ATOM     32  C   UNL A   1      38.015  29.775  27.560  1.00  0.00     0.010 A 
ATOM     33  C   UNL A   1      37.438  29.337  29.868  1.00  0.00     0.010 A 
ATOM     34  C   UNL A   1      38.404  29.385  28.851  1.00  0.00    -0.014 A 
BRANCH  34  35
ATOM     35  C   UNL A   1      39.804  28.998  29.160  1.00  0.00     0.031 A 
ATOM     36  C   UNL A   1      40.746  30.007  29.765  1.00  0.00     0.074 A 
ATOM     37  C   UNL A   1      40.249  27.768  28.835  1.00  0.00     0.049 A 
ATOM     38  N   UNL A   1      42.023  29.893  30.021  1.00  0.00    -0.248 NA
ATOM     39  C   UNL A   1      40.182  31.326  30.100  1.00  0.00     0.031 C 
ATOM     40  C   UNL A   1      39.445  26.710  28.216  1.00  0.00     0.029 A 
ATOM     41  N   UNL A   1      41.492  27.202  28.969  1.00  0.00    -0.354 N 
ATOM     42  C   UNL A   1      42.419  31.128  30.523  1.00  0.00     0.074 A 
ATOM     43  C   UNL A   1      41.260  31.992  30.487  1.00  0.00     0.031 C 
ATOM     44  C   UNL A   1      40.209  25.618  28.048  1.00  0.00     0.029 A 
ATOM     45  C   UNL A   1      41.565  25.911  28.498  1.00  0.00     0.049 A 
ATOM     46  H   UNL A   1      42.260  27.674  29.364  1.00  0.00     0.167 HD
ATOM     47  C   UNL A   1      43.633  31.504  30.991  1.00  0.00     0.031 A 
ATOM     48  C   UNL A   1      42.610  25.062  28.424  1.00  0.00     0.031 A 
ATOM     49  C   UNL A   1      44.781  30.638  31.038  1.00  0.00     0.049 A 
ATOM     50  C   UNL A   1      43.954  25.509  28.932  1.00  0.00     0.074 A 
ATOM     51  C   UNL A   1      46.041  30.906  31.541  1.00  0.00     0.029 A 
ATOM     52  N   UNL A   1      44.809  29.335  30.561  1.00  0.00    -0.354 N 
ATOM     53  N   UNL A   1      44.295  26.663  29.457  1.00  0.00    -0.248 NA
ATOM     54  C   UNL A   1      45.052  24.538  28.848  1.00  0.00     0.031 C 
ATOM     55  C   UNL A   1      46.848  29.788  31.315  1.00  0.00     0.029 A 
ATOM     56  C   UNL A   1      46.072  28.796  30.735  1.00  0.00     0.049 A 
ATOM     57  H   UNL A   1      44.044  28.865  30.158  1.00  0.00     0.167 HD
ATOM     58  C   UNL A   1      45.637  26.541  29.798  1.00  0.00     0.074 A 
ATOM     59  C   UNL A   1      46.042  25.200  29.430  1.00  0.00     0.031 C 
ATOM     60  C   UNL A   1      46.459  27.457  30.369  1.00  0.00     0.031 A 
BRANCH  47  61
ATOM     61  C   UNL A   1      43.784  32.921  31.484  1.00  0.00    -0.014 A 
ATOM     62  C   UNL A   1      43.575  33.251  32.836  1.00  0.00     0.010 A 
ATOM     63  C   UNL A   1      44.179  33.933  30.589  1.00  0.00     0.010 A 
ATOM     64  C   UNL A   1      43.715  34.570  33.273  1.00  0.00     0.020 A 
ATOM     65  C   UNL A   1      44.352  35.248  31.030  1.00  0.00     0.020 A 
ATOM     66  C   UNL A   1      44.101  35.561  32.367  1.00  0.00     0.054 A 
BRANCH  66  67
ATOM     67  S   UNL A   1      44.297  37.260  32.970  1.00  0.00     0.124 S 
ATOM     68  O   UNL A   1      44.428  38.010  31.723  1.00  0.00    -0.237 OA
ATOM     69  O   UNL A   1      43.057  37.482  33.709  1.00  0.00    -0.237 OA
ATOM     70  O   UNL A   1      45.505  37.201  33.790  1.00  0.00    -0.744 OA
ENDBRANCH  66  67
ENDBRANCH  47  61
BRANCH  48  71
ATOM     71  C   UNL A   1      42.422  23.699  27.854  1.00  0.00    -0.014 A 
ATOM     72  C   UNL A   1      42.863  23.400  26.552  1.00  0.00     0.010 A 
ATOM     73  C   UNL A   1      41.811  22.686  28.616  1.00  0.00     0.010 A 
ATOM     74  C   UNL A   1      42.675  22.123  26.015  1.00  0.00     0.020 A 
ATOM     75  C   UNL A   1      41.649  21.400  28.094  1.00  0.00     0.020 A 
ATOM     76  C   UNL A   1      42.072  21.129  26.791  1.00  0.00     0.054 A 
BRANCH  76  77
ATOM     77  S   UNL A   1      41.883  19.467  26.091  1.00  0.00     0.124 S 
ATOM     78  O   UNL A   1      42.723  19.543  24.900  1.00  0.00    -0.237 OA
ATOM     79  O   UNL A   1      42.384  18.614  27.166  1.00  0.00    -0.237 OA
ATOM     80  O   UNL A   1      40.448  19.362  25.839  1.00  0.00    -0.744 OA
ENDBRANCH  76  77
ENDBRANCH  48  71
BRANCH  60  81
ATOM     81  C   UNL A   1      47.871  27.030  30.679  1.00  0.00    -0.014 A 
ATOM     82  C   UNL A   1      48.923  27.259  29.774  1.00  0.00     0.010 A 
ATOM     83  C   UNL A   1      48.154  26.446  31.928  1.00  0.00     0.010 A 
ATOM     84  C   UNL A   1      50.229  26.884  30.104  1.00  0.00     0.020 A 
ATOM     85  C   UNL A   1      49.462  26.100  32.273  1.00  0.00     0.020 A 
ATOM     86  C   UNL A   1      50.490  26.310  31.353  1.00  0.00     0.054 A 
BRANCH  86  87
ATOM     87  S   UNL A   1      52.202  25.881  31.775  1.00  0.00     0.124 S 
ATOM     88  O   UNL A   1      52.902  26.162  30.525  1.00  0.00    -0.237 OA
ATOM     89  O   UNL A   1      52.495  26.791  32.879  1.00  0.00    -0.237 OA
ATOM     90  O   UNL A   1      52.125  24.469  32.141  1.00  0.00    -0.744 OA
ENDBRANCH  86  87
ENDBRANCH  60  81
ENDBRANCH  34  35
ENDBRANCH  26  29
ENDBRANCH  24  25
ENDBRANCH   1  24
TORSDOF 17
ENDMDL
