MODEL 1
REMARK VINA RESULT:     -11.0      0.000      0.000
REMARK SMILES COc1ccc(N2CC[C@H](C(=O)NCCCNC(=O)c3ccc(-c4c5nc(c(-c6ccc(S(=O)(=O)[O-])cc6)c6ccc([nH]6)c(-c6ccc(S(=O)(=O)[O-])cc6)c6nc(c(-c7ccc(S(=O)(=O)[O-])cc7)c7ccc4[nH]7)C=C6)C=C5)cc3)C2=O)cc1
REMARK SMILES IDX 15 1 14 2 13 3 11 4 12 5 10 7 7 8 8 9 80 10 9 11 81 12 6 13
REMARK SMILES IDX 3 14 4 15 83 16 5 17 82 18 2 19 1 20 16 21 17 22 18 23 19 25
REMARK SMILES IDX 20 26 21 27 79 28 22 29 78 30 23 31 24 32 25 33 72 34 26 35
REMARK SMILES IDX 77 36 71 37 73 38 27 39 76 40 70 41 69 42 28 44 58 45 39 46
REMARK SMILES IDX 57 47 40 48 43 49 56 50 74 51 41 52 42 53 55 55 75 56 44 57
REMARK SMILES IDX 29 58 30 59 38 60 31 61 37 62 32 63 33 64 34 65 35 66 36 67
REMARK SMILES IDX 59 68 60 69 68 70 61 71 67 72 62 73 63 74 64 75 65 76 66 77
REMARK SMILES IDX 45 78 46 79 54 80 47 81 53 82 48 83 49 84 50 85 51 86 52 87
REMARK H PARENT 13 6 17 24 73 43 43 54
REMARK Flexibility Score: inf
ROOT
ATOM      1  C   UNL A   1      33.765  27.424  25.238  1.00  0.00     0.042 C 
ENDROOT
BRANCH   1   2
ATOM      2  C   UNL A   1      33.038  26.088  25.152  1.00  0.00     0.117 C 
BRANCH   2   3
ATOM      3  N   UNL A   1      33.509  25.285  24.039  1.00  0.00    -0.355 N 
ATOM      4  C   UNL A   1      32.852  24.832  22.935  1.00  0.00     0.232 C 
ATOM      5  O   UNL A   1      33.470  24.089  22.170  1.00  0.00    -0.274 OA
ATOM      6  H   UNL A   1      34.457  25.024  24.090  1.00  0.00     0.163 HD
BRANCH   4   7
ATOM      7  C   UNL A   1      31.446  25.293  22.639  1.00  0.00     0.169 C 
ATOM      8  N   UNL A   1      30.163  27.151  23.296  1.00  0.00    -0.312 N 
ATOM      9  C   UNL A   1      29.482  25.996  23.823  1.00  0.00     0.127 C 
ATOM     10  C   UNL A   1      31.307  26.793  22.576  1.00  0.00     0.239 C 
ATOM     11  C   UNL A   1      30.511  24.892  23.780  1.00  0.00     0.045 C 
ATOM     12  O   UNL A   1      32.061  27.526  21.942  1.00  0.00    -0.274 OA
BRANCH   8  13
ATOM     13  C   UNL A   1      29.573  28.435  23.333  1.00  0.00     0.044 A 
ATOM     14  C   UNL A   1      28.436  31.015  23.281  1.00  0.00     0.119 A 
ATOM     15  C   UNL A   1      27.719  29.916  22.807  1.00  0.00     0.048 A 
ATOM     16  C   UNL A   1      29.708  30.819  23.813  1.00  0.00     0.048 A 
ATOM     17  C   UNL A   1      28.294  28.642  22.807  1.00  0.00     0.030 A 
ATOM     18  C   UNL A   1      30.263  29.533  23.858  1.00  0.00     0.030 A 
BRANCH  14  19
ATOM     19  O   UNL A   1      27.778  32.211  23.210  1.00  0.00    -0.497 OA
ATOM     20  C   UNL A   1      28.594  33.349  22.958  1.00  0.00     0.278 C 
ENDBRANCH  14  19
ENDBRANCH   8  13
ENDBRANCH   4   7
ENDBRANCH   2   3
ENDBRANCH   1   2
BRANCH   1  21
ATOM     21  C   UNL A   1      34.139  27.832  26.660  1.00  0.00     0.118 C 
BRANCH  21  22
ATOM     22  N   UNL A   1      33.715  29.189  26.986  1.00  0.00    -0.352 N 
ATOM     23  C   UNL A   1      34.366  30.161  27.709  1.00  0.00     0.251 C 
ATOM     24  H   UNL A   1      32.832  29.448  26.636  1.00  0.00     0.163 HD
ATOM     25  O   UNL A   1      33.772  31.185  28.032  1.00  0.00    -0.269 OA
BRANCH  23  26
ATOM     26  C   UNL A   1      35.773  29.956  28.110  1.00  0.00     0.039 A 
ATOM     27  C   UNL A   1      36.063  29.600  29.430  1.00  0.00     0.014 A 
ATOM     28  C   UNL A   1      36.801  30.105  27.178  1.00  0.00     0.014 A 
ATOM     29  C   UNL A   1      37.381  29.310  29.795  1.00  0.00     0.010 A 
ATOM     30  C   UNL A   1      38.100  29.747  27.522  1.00  0.00     0.010 A 
ATOM     31  C   UNL A   1      38.403  29.342  28.832  1.00  0.00    -0.014 A 
BRANCH  31  32
ATOM     32  C   UNL A   1      39.804  28.965  29.149  1.00  0.00     0.031 A 
ATOM     33  C   UNL A   1      40.740  30.005  29.702  1.00  0.00     0.074 A 
ATOM     34  C   UNL A   1      40.262  27.738  28.834  1.00  0.00     0.049 A 
ATOM     35  N   UNL A   1      42.038  29.949  29.857  1.00  0.00    -0.248 NA
ATOM     36  C   UNL A   1      40.139  31.287  30.105  1.00  0.00     0.031 C 
ATOM     37  C   UNL A   1      39.459  26.646  28.279  1.00  0.00     0.029 A 
ATOM     38  N   UNL A   1      41.527  27.209  28.915  1.00  0.00    -0.354 N 
ATOM     39  C   UNL A   1      42.412  31.197  30.341  1.00  0.00     0.074 A 
ATOM     40  C   UNL A   1      41.211  32.000  30.421  1.00  0.00     0.031 C 
ATOM     41  C   UNL A   1      40.248  25.577  28.078  1.00  0.00     0.029 A 
ATOM     42  C   UNL A   1      41.620  25.923  28.437  1.00  0.00     0.049 A 
ATOM     43  H   UNL A   1      42.295  27.705  29.281  1.00  0.00     0.167 HD
ATOM     44  C   UNL A   1      43.644  31.632  30.698  1.00  0.00     0.031 A 
ATOM     45  C   UNL A   1      42.691  25.121  28.282  1.00  0.00     0.031 A 
ATOM     46  C   UNL A   1      44.831  30.825  30.633  1.00  0.00     0.049 A 
ATOM     47  C   UNL A   1      44.053  25.631  28.671  1.00  0.00     0.074 A 
ATOM     48  C   UNL A   1      46.121  31.161  31.004  1.00  0.00     0.029 A 
ATOM     49  N   UNL A   1      44.873  29.516  30.175  1.00  0.00    -0.354 N 
ATOM     50  N   UNL A   1      44.386  26.806  29.149  1.00  0.00    -0.248 NA
ATOM     51  C   UNL A   1      45.183  24.707  28.504  1.00  0.00     0.031 C 
ATOM     52  C   UNL A   1      46.950  30.067  30.736  1.00  0.00     0.029 A 
ATOM     53  C   UNL A   1      46.167  29.032  30.249  1.00  0.00     0.049 A 
ATOM     54  H   UNL A   1      44.098  29.007  29.847  1.00  0.00     0.167 HD
ATOM     55  C   UNL A   1      45.756  26.747  29.380  1.00  0.00     0.074 A 
ATOM     56  C   UNL A   1      46.191  25.422  28.986  1.00  0.00     0.031 C 
ATOM     57  C   UNL A   1      46.577  27.702  29.880  1.00  0.00     0.031 A 
BRANCH  44  58
ATOM     58  C   UNL A   1      43.766  33.052  31.183  1.00  0.00    -0.014 A 
ATOM     59  C   UNL A   1      43.642  33.366  32.548  1.00  0.00     0.010 A 
ATOM     60  C   UNL A   1      44.040  34.084  30.266  1.00  0.00     0.010 A 
ATOM     61  C   UNL A   1      43.744  34.689  32.983  1.00  0.00     0.020 A 
ATOM     62  C   UNL A   1      44.172  35.406  30.701  1.00  0.00     0.020 A 
ATOM     63  C   UNL A   1      44.005  35.702  32.055  1.00  0.00     0.054 A 
BRANCH  63  64
ATOM     64  S   UNL A   1      44.149  37.409  32.650  1.00  0.00     0.124 S 
ATOM     65  O   UNL A   1      43.917  38.173  31.427  1.00  0.00    -0.237 OA
ATOM     66  O   UNL A   1      43.090  37.491  33.652  1.00  0.00    -0.237 OA
ATOM     67  O   UNL A   1      45.510  37.478  33.179  1.00  0.00    -0.744 OA
ENDBRANCH  63  64
ENDBRANCH  44  58
BRANCH  45  68
ATOM     68  C   UNL A   1      42.521  23.745  27.740  1.00  0.00    -0.014 A 
ATOM     69  C   UNL A   1      42.247  22.671  28.606  1.00  0.00     0.010 A 
ATOM     70  C   UNL A   1      42.621  23.499  26.359  1.00  0.00     0.010 A 
ATOM     71  C   UNL A   1      42.099  21.375  28.104  1.00  0.00     0.020 A 
ATOM     72  C   UNL A   1      42.447  22.209  25.850  1.00  0.00     0.020 A 
ATOM     73  C   UNL A   1      42.200  21.152  26.729  1.00  0.00     0.054 A 
BRANCH  73  74
ATOM     74  S   UNL A   1      41.958  19.469  26.095  1.00  0.00     0.124 S 
ATOM     75  O   UNL A   1      42.402  18.654  27.221  1.00  0.00    -0.237 OA
ATOM     76  O   UNL A   1      40.524  19.438  25.818  1.00  0.00    -0.237 OA
ATOM     77  O   UNL A   1      42.814  19.423  24.911  1.00  0.00    -0.744 OA
ENDBRANCH  73  74
ENDBRANCH  45  68
BRANCH  57  78
ATOM     78  C   UNL A   1      48.020  27.341  30.102  1.00  0.00    -0.014 A 
ATOM     79  C   UNL A   1      49.011  27.665  29.162  1.00  0.00     0.010 A 
ATOM     80  C   UNL A   1      48.397  26.753  31.325  1.00  0.00     0.010 A 
ATOM     81  C   UNL A   1      50.356  27.400  29.436  1.00  0.00     0.020 A 
ATOM     82  C   UNL A   1      49.741  26.508  31.612  1.00  0.00     0.020 A 
ATOM     83  C   UNL A   1      50.713  26.827  30.663  1.00  0.00     0.054 A 
BRANCH  83  84
ATOM     84  S   UNL A   1      52.470  26.570  31.031  1.00  0.00     0.124 S 
ATOM     85  O   UNL A   1      52.433  25.375  31.869  1.00  0.00    -0.237 OA
ATOM     86  O   UNL A   1      53.054  26.389  29.703  1.00  0.00    -0.237 OA
ATOM     87  O   UNL A   1      52.865  27.799  31.716  1.00  0.00    -0.744 OA
ENDBRANCH  83  84
ENDBRANCH  57  78
ENDBRANCH  31  32
ENDBRANCH  23  26
ENDBRANCH  21  22
ENDBRANCH   1  21
TORSDOF 15
ENDMDL
MODEL 2
REMARK VINA RESULT:     -10.9      1.540      3.824
REMARK SMILES COc1ccc(N2CC[C@H](C(=O)NCCCNC(=O)c3ccc(-c4c5nc(c(-c6ccc(S(=O)(=O)[O-])cc6)c6ccc([nH]6)c(-c6ccc(S(=O)(=O)[O-])cc6)c6nc(c(-c7ccc(S(=O)(=O)[O-])cc7)c7ccc4[nH]7)C=C6)C=C5)cc3)C2=O)cc1
REMARK SMILES IDX 15 1 14 2 13 3 11 4 12 5 10 7 7 8 8 9 80 10 9 11 81 12 6 13
REMARK SMILES IDX 3 14 4 15 83 16 5 17 82 18 2 19 1 20 16 21 17 22 18 23 19 25
REMARK SMILES IDX 20 26 21 27 79 28 22 29 78 30 23 31 24 32 25 33 72 34 26 35
REMARK SMILES IDX 77 36 71 37 73 38 27 39 76 40 70 41 69 42 28 44 58 45 39 46
REMARK SMILES IDX 57 47 40 48 43 49 56 50 74 51 41 52 42 53 55 55 75 56 44 57
REMARK SMILES IDX 29 58 30 59 38 60 31 61 37 62 32 63 33 64 34 65 35 66 36 67
REMARK SMILES IDX 59 68 60 69 68 70 61 71 67 72 62 73 63 74 64 75 65 76 66 77
REMARK SMILES IDX 45 78 46 79 54 80 47 81 53 82 48 83 49 84 50 85 51 86 52 87
REMARK H PARENT 13 6 17 24 73 43 43 54
REMARK Flexibility Score: inf
ROOT
ATOM      1  C   UNL A   1      33.395  28.334  25.507  1.00  0.00     0.042 C 
ENDROOT
BRANCH   1   2
ATOM      2  C   UNL A   1      32.279  27.386  25.087  1.00  0.00     0.117 C 
BRANCH   2   3
ATOM      3  N   UNL A   1      31.398  27.988  24.103  1.00  0.00    -0.355 N 
ATOM      4  C   UNL A   1      31.139  27.634  22.814  1.00  0.00     0.232 C 
ATOM      5  O   UNL A   1      30.400  28.372  22.158  1.00  0.00    -0.274 OA
ATOM      6  H   UNL A   1      30.908  28.782  24.418  1.00  0.00     0.163 HD
BRANCH   4   7
ATOM      7  C   UNL A   1      31.684  26.344  22.251  1.00  0.00     0.169 C 
ATOM      8  N   UNL A   1      32.490  24.354  23.209  1.00  0.00    -0.312 N 
ATOM      9  C   UNL A   1      33.603  24.927  22.497  1.00  0.00     0.127 C 
ATOM     10  C   UNL A   1      31.336  25.133  23.079  1.00  0.00     0.239 C 
ATOM     11  C   UNL A   1      33.212  26.368  22.270  1.00  0.00     0.045 C 
ATOM     12  O   UNL A   1      30.208  24.888  23.497  1.00  0.00    -0.274 OA
BRANCH   8  13
ATOM     13  C   UNL A   1      32.555  23.051  23.753  1.00  0.00     0.044 A 
ATOM     14  C   UNL A   1      32.814  20.448  24.805  1.00  0.00     0.119 A 
ATOM     15  C   UNL A   1      33.141  21.560  25.580  1.00  0.00     0.048 A 
ATOM     16  C   UNL A   1      32.324  20.638  23.516  1.00  0.00     0.048 A 
ATOM     17  C   UNL A   1      33.040  22.848  25.049  1.00  0.00     0.030 A 
ATOM     18  C   UNL A   1      32.175  21.933  23.002  1.00  0.00     0.030 A 
BRANCH  14  19
ATOM     19  O   UNL A   1      32.975  19.240  25.426  1.00  0.00    -0.497 OA
ATOM     20  C   UNL A   1      33.633  18.237  24.661  1.00  0.00     0.278 C 
ENDBRANCH  14  19
ENDBRANCH   8  13
ENDBRANCH   4   7
ENDBRANCH   2   3
ENDBRANCH   1   2
BRANCH   1  21
ATOM     21  C   UNL A   1      33.563  28.457  27.018  1.00  0.00     0.118 C 
BRANCH  21  22
ATOM     22  N   UNL A   1      33.487  29.838  27.483  1.00  0.00    -0.352 N 
ATOM     23  C   UNL A   1      34.412  30.581  28.177  1.00  0.00     0.251 C 
ATOM     24  H   UNL A   1      32.649  30.307  27.267  1.00  0.00     0.163 HD
ATOM     25  O   UNL A   1      34.098  31.673  28.639  1.00  0.00    -0.269 OA
BRANCH  23  26
ATOM     26  C   UNL A   1      35.776  30.050  28.379  1.00  0.00     0.039 A 
ATOM     27  C   UNL A   1      36.676  30.051  27.309  1.00  0.00     0.014 A 
ATOM     28  C   UNL A   1      36.166  29.562  29.627  1.00  0.00     0.014 A 
ATOM     29  C   UNL A   1      37.996  29.640  27.516  1.00  0.00     0.010 A 
ATOM     30  C   UNL A   1      37.496  29.223  29.849  1.00  0.00     0.010 A 
ATOM     31  C   UNL A   1      38.426  29.263  28.798  1.00  0.00    -0.014 A 
BRANCH  31  32
ATOM     32  C   UNL A   1      39.835  28.896  29.087  1.00  0.00     0.031 A 
ATOM     33  C   UNL A   1      40.780  29.946  29.606  1.00  0.00     0.074 A 
ATOM     34  C   UNL A   1      40.291  27.666  28.777  1.00  0.00     0.049 A 
ATOM     35  N   UNL A   1      42.081  29.897  29.731  1.00  0.00    -0.248 NA
ATOM     36  C   UNL A   1      40.184  31.231  30.005  1.00  0.00     0.031 C 
ATOM     37  C   UNL A   1      39.479  26.564  28.254  1.00  0.00     0.029 A 
ATOM     38  N   UNL A   1      41.559  27.143  28.835  1.00  0.00    -0.354 N 
ATOM     39  C   UNL A   1      42.461  31.152  30.191  1.00  0.00     0.074 A 
ATOM     40  C   UNL A   1      41.259  31.951  30.289  1.00  0.00     0.031 C 
ATOM     41  C   UNL A   1      40.268  25.496  28.049  1.00  0.00     0.029 A 
ATOM     42  C   UNL A   1      41.646  25.852  28.372  1.00  0.00     0.049 A 
ATOM     43  H   UNL A   1      42.334  27.647  29.177  1.00  0.00     0.167 HD
ATOM     44  C   UNL A   1      43.699  31.596  30.514  1.00  0.00     0.031 A 
ATOM     45  C   UNL A   1      42.717  25.051  28.203  1.00  0.00     0.031 A 
ATOM     46  C   UNL A   1      44.888  30.792  30.432  1.00  0.00     0.049 A 
ATOM     47  C   UNL A   1      44.086  25.571  28.553  1.00  0.00     0.074 A 
ATOM     48  C   UNL A   1      46.184  31.137  30.769  1.00  0.00     0.029 A 
ATOM     49  N   UNL A   1      44.924  29.478  29.990  1.00  0.00    -0.354 N 
ATOM     50  N   UNL A   1      44.424  26.753  29.009  1.00  0.00    -0.248 NA
ATOM     51  C   UNL A   1      45.215  24.649  28.372  1.00  0.00     0.031 C 
ATOM     52  C   UNL A   1      47.012  30.043  30.497  1.00  0.00     0.029 A 
ATOM     53  C   UNL A   1      46.221  29.000  30.040  1.00  0.00     0.049 A 
ATOM     54  H   UNL A   1      44.143  28.962  29.686  1.00  0.00     0.167 HD
ATOM     55  C   UNL A   1      45.799  26.702  29.210  1.00  0.00     0.074 A 
ATOM     56  C   UNL A   1      46.231  25.374  28.822  1.00  0.00     0.031 C 
ATOM     57  C   UNL A   1      46.628  27.666  29.678  1.00  0.00     0.031 A 
BRANCH  44  58
ATOM     58  C   UNL A   1      43.827  33.023  30.978  1.00  0.00    -0.014 A 
ATOM     59  C   UNL A   1      44.104  34.059  30.068  1.00  0.00     0.010 A 
ATOM     60  C   UNL A   1      43.636  33.336  32.336  1.00  0.00     0.010 A 
ATOM     61  C   UNL A   1      44.233  35.376  30.514  1.00  0.00     0.020 A 
ATOM     62  C   UNL A   1      43.736  34.658  32.782  1.00  0.00     0.020 A 
ATOM     63  C   UNL A   1      44.053  35.667  31.870  1.00  0.00     0.054 A 
BRANCH  63  64
ATOM     64  S   UNL A   1      44.210  37.388  32.418  1.00  0.00     0.124 S 
ATOM     65  O   UNL A   1      45.625  37.462  32.773  1.00  0.00    -0.237 OA
ATOM     66  O   UNL A   1      43.820  38.142  31.229  1.00  0.00    -0.237 OA
ATOM     67  O   UNL A   1      43.280  37.480  33.542  1.00  0.00    -0.744 OA
ENDBRANCH  63  64
ENDBRANCH  44  58
BRANCH  45  68
ATOM     68  C   UNL A   1      42.539  23.668  27.682  1.00  0.00    -0.014 A 
ATOM     69  C   UNL A   1      42.610  23.416  26.300  1.00  0.00     0.010 A 
ATOM     70  C   UNL A   1      42.308  22.594  28.561  1.00  0.00     0.010 A 
ATOM     71  C   UNL A   1      42.431  22.121  25.805  1.00  0.00     0.020 A 
ATOM     72  C   UNL A   1      42.155  21.293  28.072  1.00  0.00     0.020 A 
ATOM     73  C   UNL A   1      42.205  21.068  26.694  1.00  0.00     0.054 A 
BRANCH  73  74
ATOM     74  S   UNL A   1      42.021  19.388  26.032  1.00  0.00     0.124 S 
ATOM     75  O   UNL A   1      42.945  19.404  24.904  1.00  0.00    -0.237 OA
ATOM     76  O   UNL A   1      42.419  18.556  27.164  1.00  0.00    -0.237 OA
ATOM     77  O   UNL A   1      40.604  19.313  25.681  1.00  0.00    -0.744 OA
ENDBRANCH  73  74
ENDBRANCH  45  68
BRANCH  57  78
ATOM     78  C   UNL A   1      48.077  27.313  29.873  1.00  0.00    -0.014 A 
ATOM     79  C   UNL A   1      49.044  27.620  28.902  1.00  0.00     0.010 A 
ATOM     80  C   UNL A   1      48.485  26.750  31.097  1.00  0.00     0.010 A 
ATOM     81  C   UNL A   1      50.396  27.364  29.148  1.00  0.00     0.020 A 
ATOM     82  C   UNL A   1      49.837  26.514  31.356  1.00  0.00     0.020 A 
ATOM     83  C   UNL A   1      50.784  26.817  30.377  1.00  0.00     0.054 A 
BRANCH  83  84
ATOM     84  S   UNL A   1      52.551  26.571  30.706  1.00  0.00     0.124 S 
ATOM     85  O   UNL A   1      52.927  27.844  31.313  1.00  0.00    -0.237 OA
ATOM     86  O   UNL A   1      52.553  25.420  31.607  1.00  0.00    -0.237 OA
ATOM     87  O   UNL A   1      53.119  26.320  29.383  1.00  0.00    -0.744 OA
ENDBRANCH  83  84
ENDBRANCH  57  78
ENDBRANCH  31  32
ENDBRANCH  23  26
ENDBRANCH  21  22
ENDBRANCH   1  21
TORSDOF 15
ENDMDL
MODEL 3
REMARK VINA RESULT:     -10.9      3.619      7.965
REMARK SMILES COc1ccc(N2CC[C@H](C(=O)NCCCNC(=O)c3ccc(-c4c5nc(c(-c6ccc(S(=O)(=O)[O-])cc6)c6ccc([nH]6)c(-c6ccc(S(=O)(=O)[O-])cc6)c6nc(c(-c7ccc(S(=O)(=O)[O-])cc7)c7ccc4[nH]7)C=C6)C=C5)cc3)C2=O)cc1
REMARK SMILES IDX 15 1 14 2 13 3 11 4 12 5 10 7 7 8 8 9 80 10 9 11 81 12 6 13
REMARK SMILES IDX 3 14 4 15 83 16 5 17 82 18 2 19 1 20 16 21 17 22 18 23 19 25
REMARK SMILES IDX 20 26 21 27 79 28 22 29 78 30 23 31 24 32 25 33 72 34 26 35
REMARK SMILES IDX 77 36 71 37 73 38 27 39 76 40 70 41 69 42 28 44 58 45 39 46
REMARK SMILES IDX 57 47 40 48 43 49 56 50 74 51 41 52 42 53 55 55 75 56 44 57
REMARK SMILES IDX 29 58 30 59 38 60 31 61 37 62 32 63 33 64 34 65 35 66 36 67
REMARK SMILES IDX 59 68 60 69 68 70 61 71 67 72 62 73 63 74 64 75 65 76 66 77
REMARK SMILES IDX 45 78 46 79 54 80 47 81 53 82 48 83 49 84 50 85 51 86 52 87
REMARK H PARENT 13 6 17 24 73 43 43 54
REMARK Flexibility Score: inf
ROOT
ATOM      1  C   UNL A   1      38.140  19.873  25.081  1.00  0.00     0.042 C 
ENDROOT
BRANCH   1   2
ATOM      2  C   UNL A   1      36.990  20.851  24.875  1.00  0.00     0.117 C 
BRANCH   2   3
ATOM      3  N   UNL A   1      35.701  20.231  25.122  1.00  0.00    -0.355 N 
ATOM      4  C   UNL A   1      34.441  20.728  24.986  1.00  0.00     0.232 C 
ATOM      5  O   UNL A   1      33.504  20.012  25.346  1.00  0.00    -0.274 OA
ATOM      6  H   UNL A   1      35.745  19.300  25.440  1.00  0.00     0.163 HD
BRANCH   4   7
ATOM      7  C   UNL A   1      34.215  22.077  24.348  1.00  0.00     0.169 C 
ATOM      8  N   UNL A   1      33.085  24.030  25.010  1.00  0.00    -0.312 N 
ATOM      9  C   UNL A   1      32.400  23.558  23.834  1.00  0.00     0.127 C 
ATOM     10  C   UNL A   1      34.169  23.211  25.341  1.00  0.00     0.239 C 
ATOM     11  C   UNL A   1      32.837  22.121  23.687  1.00  0.00     0.045 C 
ATOM     12  O   UNL A   1      34.996  23.375  26.234  1.00  0.00    -0.274 OA
BRANCH   8  13
ATOM     13  C   UNL A   1      32.797  25.294  25.574  1.00  0.00     0.044 A 
ATOM     14  C   UNL A   1      32.175  27.853  26.580  1.00  0.00     0.119 A 
ATOM     15  C   UNL A   1      31.202  26.856  26.534  1.00  0.00     0.048 A 
ATOM     16  C   UNL A   1      33.469  27.561  26.156  1.00  0.00     0.048 A 
ATOM     17  C   UNL A   1      31.503  25.597  26.010  1.00  0.00     0.030 A 
ATOM     18  C   UNL A   1      33.782  26.282  25.676  1.00  0.00     0.030 A 
BRANCH  14  19
ATOM     19  O   UNL A   1      31.757  29.050  27.093  1.00  0.00    -0.497 OA
ATOM     20  C   UNL A   1      32.294  30.210  26.469  1.00  0.00     0.278 C 
ENDBRANCH  14  19
ENDBRANCH   8  13
ENDBRANCH   4   7
ENDBRANCH   2   3
ENDBRANCH   1   2
BRANCH   1  21
ATOM     21  C   UNL A   1      39.295  20.443  25.899  1.00  0.00     0.118 C 
BRANCH  21  22
ATOM     22  N   UNL A   1      40.390  19.494  26.065  1.00  0.00    -0.352 N 
ATOM     23  C   UNL A   1      41.722  19.728  26.315  1.00  0.00     0.251 C 
ATOM     24  H   UNL A   1      40.140  18.545  25.986  1.00  0.00     0.163 HD
ATOM     25  O   UNL A   1      42.530  18.808  26.244  1.00  0.00    -0.269 OA
BRANCH  23  26
ATOM     26  C   UNL A   1      42.175  21.094  26.650  1.00  0.00     0.039 A 
ATOM     27  C   UNL A   1      42.388  21.435  27.989  1.00  0.00     0.014 A 
ATOM     28  C   UNL A   1      42.401  22.031  25.640  1.00  0.00     0.014 A 
ATOM     29  C   UNL A   1      42.908  22.693  28.308  1.00  0.00     0.010 A 
ATOM     30  C   UNL A   1      42.986  23.252  25.952  1.00  0.00     0.010 A 
ATOM     31  C   UNL A   1      43.250  23.595  27.289  1.00  0.00    -0.014 A 
BRANCH  31  32
ATOM     32  C   UNL A   1      43.880  24.910  27.570  1.00  0.00     0.031 A 
ATOM     33  C   UNL A   1      43.016  26.066  27.994  1.00  0.00     0.074 A 
ATOM     34  C   UNL A   1      45.194  25.095  27.334  1.00  0.00     0.049 A 
ATOM     35  N   UNL A   1      43.323  27.334  28.093  1.00  0.00    -0.248 NA
ATOM     36  C   UNL A   1      41.614  25.758  28.319  1.00  0.00     0.031 C 
ATOM     37  C   UNL A   1      46.136  24.058  26.906  1.00  0.00     0.029 A 
ATOM     38  N   UNL A   1      45.961  26.232  27.398  1.00  0.00    -0.354 N 
ATOM     39  C   UNL A   1      42.146  27.978  28.458  1.00  0.00     0.074 A 
ATOM     40  C   UNL A   1      41.113  26.967  28.528  1.00  0.00     0.031 C 
ATOM     41  C   UNL A   1      47.354  24.605  26.755  1.00  0.00     0.029 A 
ATOM     42  C   UNL A   1      47.269  26.038  27.022  1.00  0.00     0.049 A 
ATOM     43  H   UNL A   1      45.607  27.104  27.688  1.00  0.00     0.167 HD
ATOM     44  C   UNL A   1      41.946  29.291  28.721  1.00  0.00     0.031 A 
ATOM     45  C   UNL A   1      48.281  26.917  26.883  1.00  0.00     0.031 A 
ATOM     46  C   UNL A   1      42.980  30.288  28.667  1.00  0.00     0.049 A 
ATOM     47  C   UNL A   1      48.032  28.374  27.166  1.00  0.00     0.074 A 
ATOM     48  C   UNL A   1      42.888  31.638  28.950  1.00  0.00     0.029 A 
ATOM     49  N   UNL A   1      44.299  30.040  28.314  1.00  0.00    -0.354 N 
ATOM     50  N   UNL A   1      46.918  28.962  27.533  1.00  0.00    -0.248 NA
ATOM     51  C   UNL A   1      49.175  29.286  27.022  1.00  0.00     0.031 C 
ATOM     52  C   UNL A   1      44.143  32.216  28.733  1.00  0.00     0.029 A 
ATOM     53  C   UNL A   1      45.029  31.214  28.367  1.00  0.00     0.049 A 
ATOM     54  H   UNL A   1      44.661  29.161  28.064  1.00  0.00     0.167 HD
ATOM     55  C   UNL A   1      47.238  30.304  27.705  1.00  0.00     0.074 A 
ATOM     56  C   UNL A   1      48.648  30.443  27.399  1.00  0.00     0.031 C 
ATOM     57  C   UNL A   1      46.437  31.329  28.087  1.00  0.00     0.031 A 
BRANCH  44  58
ATOM     58  C   UNL A   1      40.550  29.722  29.084  1.00  0.00    -0.014 A 
ATOM     59  C   UNL A   1      39.509  29.678  28.140  1.00  0.00     0.010 A 
ATOM     60  C   UNL A   1      40.268  30.148  30.395  1.00  0.00     0.010 A 
ATOM     61  C   UNL A   1      38.221  30.094  28.486  1.00  0.00     0.020 A 
ATOM     62  C   UNL A   1      38.974  30.537  30.753  1.00  0.00     0.020 A 
ATOM     63  C   UNL A   1      37.963  30.525  29.790  1.00  0.00     0.054 A 
BRANCH  63  64
ATOM     64  S   UNL A   1      36.278  31.044  30.216  1.00  0.00     0.124 S 
ATOM     65  O   UNL A   1      35.901  30.045  31.214  1.00  0.00    -0.237 OA
ATOM     66  O   UNL A   1      36.477  32.397  30.727  1.00  0.00    -0.237 OA
ATOM     67  O   UNL A   1      35.558  30.960  28.947  1.00  0.00    -0.744 OA
ENDBRANCH  63  64
ENDBRANCH  44  58
BRANCH  45  68
ATOM     68  C   UNL A   1      49.628  26.443  26.462  1.00  0.00    -0.014 A 
ATOM     69  C   UNL A   1      49.974  26.411  25.099  1.00  0.00     0.010 A 
ATOM     70  C   UNL A   1      50.575  26.030  27.417  1.00  0.00     0.010 A 
ATOM     71  C   UNL A   1      51.233  25.955  24.697  1.00  0.00     0.020 A 
ATOM     72  C   UNL A   1      51.845  25.599  27.020  1.00  0.00     0.020 A 
ATOM     73  C   UNL A   1      52.160  25.552  25.661  1.00  0.00     0.054 A 
BRANCH  73  74
ATOM     74  S   UNL A   1      53.804  25.007  25.118  1.00  0.00     0.124 S 
ATOM     75  O   UNL A   1      53.636  23.560  25.049  1.00  0.00    -0.237 OA
ATOM     76  O   UNL A   1      53.956  25.689  23.835  1.00  0.00    -0.237 OA
ATOM     77  O   UNL A   1      54.689  25.486  26.178  1.00  0.00    -0.744 OA
ENDBRANCH  73  74
ENDBRANCH  45  68
BRANCH  57  78
ATOM     78  C   UNL A   1      47.067  32.682  28.272  1.00  0.00    -0.014 A 
ATOM     79  C   UNL A   1      47.667  33.053  29.486  1.00  0.00     0.010 A 
ATOM     80  C   UNL A   1      47.140  33.557  27.172  1.00  0.00     0.010 A 
ATOM     81  C   UNL A   1      48.325  34.281  29.600  1.00  0.00     0.020 A 
ATOM     82  C   UNL A   1      47.817  34.774  27.275  1.00  0.00     0.020 A 
ATOM     83  C   UNL A   1      48.400  35.132  28.492  1.00  0.00     0.054 A 
BRANCH  83  84
ATOM     84  S   UNL A   1      49.330  36.682  28.640  1.00  0.00     0.124 S 
ATOM     85  O   UNL A   1      49.999  36.759  27.345  1.00  0.00    -0.237 OA
ATOM     86  O   UNL A   1      48.277  37.669  28.864  1.00  0.00    -0.237 OA
ATOM     87  O   UNL A   1      50.211  36.450  29.783  1.00  0.00    -0.744 OA
ENDBRANCH  83  84
ENDBRANCH  57  78
ENDBRANCH  31  32
ENDBRANCH  23  26
ENDBRANCH  21  22
ENDBRANCH   1  21
TORSDOF 15
ENDMDL
