MODEL 1
REMARK VINA RESULT:     -11.4      0.000      0.000
REMARK SMILES CN1C(=O)/C(=C\c2cccc(Cl)c2)Sc2ccc(C(=O)NCCCNC(=O)c3ccc(-c4c5nc(c(-c6ccc(S(=O)(=O)[O-])cc6)c6ccc([nH]6)c(-c6ccc(S(=O)(=O)[O-])cc6)c6nc(c(-c7ccc(S(=O)(=O)[O-])cc7)c7ccc4[nH]7)C=C6)C=C5)cc3)cc21
REMARK SMILES IDX 24 1 23 2 22 3 21 4 19 5 20 6 18 8 1 9 2 10 3 11 89 12 4 13
REMARK SMILES IDX 5 14 15 15 88 16 6 17 14 18 16 19 17 20 7 21 8 22 13 23 9 24
REMARK SMILES IDX 11 25 10 26 12 27 25 28 26 29 27 31 28 32 29 33 87 34 30 35
REMARK SMILES IDX 86 36 31 37 32 38 33 39 80 40 34 41 85 42 79 43 81 44 35 45
REMARK SMILES IDX 84 46 78 47 77 48 36 50 66 51 47 52 65 53 48 54 51 55 64 56
REMARK SMILES IDX 82 57 49 58 50 59 63 61 83 62 52 63 37 64 38 65 46 66 39 67
REMARK SMILES IDX 45 68 40 69 41 70 42 71 43 72 44 73 67 74 68 75 76 76 69 77
REMARK SMILES IDX 75 78 70 79 71 80 72 81 73 82 74 83 53 84 54 85 62 86 55 87
REMARK SMILES IDX 61 88 56 89 57 90 58 91 59 92 60 93
REMARK H PARENT 21 7 25 30 81 49 51 60
REMARK Flexibility Score: inf
ROOT
ATOM      1  C   UNL A   1      34.445  32.399  28.708  1.00  0.00     0.118 C 
ENDROOT
BRANCH   1   2
ATOM      2  C   UNL A   1      33.825  33.634  28.064  1.00  0.00     0.042 C 
BRANCH   2   3
ATOM      3  C   UNL A   1      34.395  34.946  28.597  1.00  0.00     0.118 C 
BRANCH   3   4
ATOM      4  N   UNL A   1      33.375  35.734  29.263  1.00  0.00    -0.352 N 
ATOM      5  C   UNL A   1      33.152  36.043  30.577  1.00  0.00     0.251 C 
ATOM      6  O   UNL A   1      32.227  36.822  30.819  1.00  0.00    -0.269 OA
ATOM      7  H   UNL A   1      32.714  36.125  28.647  1.00  0.00     0.163 HD
BRANCH   5   8
ATOM      8  C   UNL A   1      33.971  35.528  31.714  1.00  0.00     0.041 A 
ATOM      9  C   UNL A   1      37.565  33.579  30.524  1.00  0.00     0.153 C 
ATOM     10  N   UNL A   1      37.208  33.619  31.936  1.00  0.00    -0.310 N 
ATOM     11  C   UNL A   1      38.154  33.142  32.837  1.00  0.00     0.264 C 
ATOM     12  C   UNL A   1      35.988  34.252  32.340  1.00  0.00     0.058 A 
ATOM     13  O   UNL A   1      39.336  32.976  32.532  1.00  0.00    -0.268 OA
ATOM     14  C   UNL A   1      37.652  32.742  34.187  1.00  0.00     0.078 C 
ATOM     15  C   UNL A   1      35.703  34.495  33.692  1.00  0.00     0.036 A 
ATOM     16  C   UNL A   1      35.088  34.744  31.374  1.00  0.00     0.041 A 
ATOM     17  C   UNL A   1      37.955  31.547  34.729  1.00  0.00     0.029 C 
ATOM     18  S   UNL A   1      36.685  33.880  35.040  1.00  0.00    -0.082 SA
ATOM     19  C   UNL A   1      34.604  35.293  34.036  1.00  0.00     0.018 A 
ATOM     20  C   UNL A   1      33.767  35.831  33.055  1.00  0.00     0.015 A 
BRANCH  17  21
ATOM     21  C   UNL A   1      38.791  30.531  34.080  1.00  0.00    -0.023 A 
ATOM     22  C   UNL A   1      38.203  29.609  33.204  1.00  0.00     0.008 A 
ATOM     23  C   UNL A   1      40.151  30.426  34.382  1.00  0.00     0.028 A 
ATOM     24  C   UNL A   1      38.956  28.568  32.661  1.00  0.00     0.002 A 
ATOM     25  C   UNL A   1      40.901  29.389  33.826  1.00  0.00     0.041 A 
ATOM     26  C   UNL A   1      40.309  28.456  32.974  1.00  0.00     0.020 A 
ATOM     27  Cl  UNL A   1      42.574  29.243  34.209  1.00  0.00    -0.084 Cl
ENDBRANCH  17  21
ENDBRANCH   5   8
ENDBRANCH   3   4
ENDBRANCH   2   3
ENDBRANCH   1   2
BRANCH   1  28
ATOM     28  N   UNL A   1      33.895  31.160  28.175  1.00  0.00    -0.352 N 
ATOM     29  C   UNL A   1      34.533  29.999  27.804  1.00  0.00     0.251 C 
ATOM     30  H   UNL A   1      32.917  31.154  28.061  1.00  0.00     0.163 HD
ATOM     31  O   UNL A   1      33.915  29.141  27.187  1.00  0.00    -0.269 OA
BRANCH  29  32
ATOM     32  C   UNL A   1      35.964  29.801  28.125  1.00  0.00     0.039 A 
ATOM     33  C   UNL A   1      36.956  30.097  27.189  1.00  0.00     0.014 A 
ATOM     34  C   UNL A   1      36.320  29.317  29.388  1.00  0.00     0.014 A 
ATOM     35  C   UNL A   1      38.278  29.750  27.449  1.00  0.00     0.010 A 
ATOM     36  C   UNL A   1      37.661  29.050  29.680  1.00  0.00     0.010 A 
ATOM     37  C   UNL A   1      38.646  29.219  28.695  1.00  0.00    -0.014 A 
BRANCH  37  38
ATOM     38  C   UNL A   1      40.064  28.844  28.940  1.00  0.00     0.031 A 
ATOM     39  C   UNL A   1      40.980  29.765  29.702  1.00  0.00     0.074 A 
ATOM     40  C   UNL A   1      40.506  27.637  28.534  1.00  0.00     0.049 A 
ATOM     41  N   UNL A   1      42.231  29.581  30.040  1.00  0.00    -0.248 NA
ATOM     42  C   UNL A   1      40.426  31.056  30.144  1.00  0.00     0.031 C 
ATOM     43  C   UNL A   1      39.700  26.648  27.812  1.00  0.00     0.029 A 
ATOM     44  N   UNL A   1      41.720  27.018  28.698  1.00  0.00    -0.354 N 
ATOM     45  C   UNL A   1      42.615  30.730  30.724  1.00  0.00     0.074 A 
ATOM     46  C   UNL A   1      41.477  31.623  30.722  1.00  0.00     0.031 C 
ATOM     47  C   UNL A   1      40.417  25.526  27.660  1.00  0.00     0.029 A 
ATOM     48  C   UNL A   1      41.756  25.735  28.205  1.00  0.00     0.049 A 
ATOM     49  H   UNL A   1      42.492  27.452  29.129  1.00  0.00     0.167 HD
ATOM     50  C   UNL A   1      43.803  31.006  31.311  1.00  0.00     0.031 A 
ATOM     51  C   UNL A   1      42.749  24.825  28.183  1.00  0.00     0.031 A 
ATOM     52  C   UNL A   1      44.927  30.106  31.318  1.00  0.00     0.049 A 
ATOM     53  C   UNL A   1      44.076  25.178  28.791  1.00  0.00     0.074 A 
ATOM     54  C   UNL A   1      46.172  30.299  31.892  1.00  0.00     0.029 A 
ATOM     55  N   UNL A   1      44.945  28.848  30.737  1.00  0.00    -0.354 N 
ATOM     56  N   UNL A   1      44.421  26.273  29.423  1.00  0.00    -0.248 NA
ATOM     57  C   UNL A   1      45.149  24.181  28.680  1.00  0.00     0.031 C 
ATOM     58  C   UNL A   1      46.961  29.183  31.606  1.00  0.00     0.029 A 
ATOM     59  C   UNL A   1      46.188  28.264  30.914  1.00  0.00     0.049 A 
ATOM     60  H   UNL A   1      44.187  28.432  30.266  1.00  0.00     0.167 HD
ATOM     61  C   UNL A   1      45.749  26.096  29.791  1.00  0.00     0.074 A 
ATOM     62  C   UNL A   1      46.139  24.779  29.331  1.00  0.00     0.031 C 
ATOM     63  C   UNL A   1      46.568  26.954  30.447  1.00  0.00     0.031 A 
BRANCH  50  64
ATOM     64  C   UNL A   1      43.968  32.336  32.003  1.00  0.00    -0.014 A 
ATOM     65  C   UNL A   1      43.566  32.481  33.344  1.00  0.00     0.010 A 
ATOM     66  C   UNL A   1      44.409  33.468  31.296  1.00  0.00     0.010 A 
ATOM     67  C   UNL A   1      43.574  33.736  33.957  1.00  0.00     0.020 A 
ATOM     68  C   UNL A   1      44.445  34.723  31.914  1.00  0.00     0.020 A 
ATOM     69  C   UNL A   1      44.006  34.852  33.234  1.00  0.00     0.054 A 
BRANCH  69  70
ATOM     70  S   UNL A   1      43.994  36.478  34.039  1.00  0.00     0.124 S 
ATOM     71  O   UNL A   1      44.260  36.136  35.432  1.00  0.00    -0.237 OA
ATOM     72  O   UNL A   1      45.066  37.186  33.345  1.00  0.00    -0.237 OA
ATOM     73  O   UNL A   1      42.650  36.983  33.764  1.00  0.00    -0.744 OA
ENDBRANCH  69  70
ENDBRANCH  50  64
BRANCH  51  74
ATOM     74  C   UNL A   1      42.495  23.489  27.575  1.00  0.00    -0.014 A 
ATOM     75  C   UNL A   1      41.950  22.446  28.349  1.00  0.00     0.010 A 
ATOM     76  C   UNL A   1      42.888  23.223  26.252  1.00  0.00     0.010 A 
ATOM     77  C   UNL A   1      41.867  21.150  27.837  1.00  0.00     0.020 A 
ATOM     78  C   UNL A   1      42.776  21.931  25.725  1.00  0.00     0.020 A 
ATOM     79  C   UNL A   1      42.298  20.897  26.533  1.00  0.00     0.054 A 
BRANCH  79  80
ATOM     80  S   UNL A   1      42.243  19.194  25.911  1.00  0.00     0.124 S 
ATOM     81  O   UNL A   1      42.778  18.446  27.046  1.00  0.00    -0.237 OA
ATOM     82  O   UNL A   1      40.821  18.996  25.643  1.00  0.00    -0.237 OA
ATOM     83  O   UNL A   1      43.098  19.234  24.728  1.00  0.00    -0.744 OA
ENDBRANCH  79  80
ENDBRANCH  51  74
BRANCH  63  84
ATOM     84  C   UNL A   1      47.985  26.520  30.714  1.00  0.00    -0.014 A 
ATOM     85  C   UNL A   1      48.299  25.865  31.920  1.00  0.00     0.010 A 
ATOM     86  C   UNL A   1      49.024  26.888  29.841  1.00  0.00     0.010 A 
ATOM     87  C   UNL A   1      49.630  25.623  32.269  1.00  0.00     0.020 A 
ATOM     88  C   UNL A   1      50.354  26.623  30.175  1.00  0.00     0.020 A 
ATOM     89  C   UNL A   1      50.650  26.018  31.400  1.00  0.00     0.054 A 
BRANCH  89  90
ATOM     90  S   UNL A   1      52.374  25.740  31.892  1.00  0.00     0.124 S 
ATOM     91  O   UNL A   1      53.089  25.957  30.637  1.00  0.00    -0.237 OA
ATOM     92  O   UNL A   1      52.583  26.757  32.919  1.00  0.00    -0.237 OA
ATOM     93  O   UNL A   1      52.373  24.363  32.380  1.00  0.00    -0.744 OA
ENDBRANCH  89  90
ENDBRANCH  63  84
ENDBRANCH  37  38
ENDBRANCH  29  32
ENDBRANCH   1  28
TORSDOF 14
ENDMDL
MODEL 2
REMARK VINA RESULT:     -11.1      0.701      8.042
REMARK SMILES CN1C(=O)/C(=C\c2cccc(Cl)c2)Sc2ccc(C(=O)NCCCNC(=O)c3ccc(-c4c5nc(c(-c6ccc(S(=O)(=O)[O-])cc6)c6ccc([nH]6)c(-c6ccc(S(=O)(=O)[O-])cc6)c6nc(c(-c7ccc(S(=O)(=O)[O-])cc7)c7ccc4[nH]7)C=C6)C=C5)cc3)cc21
REMARK SMILES IDX 24 1 23 2 22 3 21 4 19 5 20 6 18 8 1 9 2 10 3 11 89 12 4 13
REMARK SMILES IDX 5 14 15 15 88 16 6 17 14 18 16 19 17 20 7 21 8 22 13 23 9 24
REMARK SMILES IDX 11 25 10 26 12 27 25 28 26 29 27 31 28 32 29 33 87 34 30 35
REMARK SMILES IDX 86 36 31 37 32 38 33 39 80 40 34 41 85 42 79 43 81 44 35 45
REMARK SMILES IDX 84 46 78 47 77 48 36 50 66 51 47 52 65 53 48 54 51 55 64 56
REMARK SMILES IDX 82 57 49 58 50 59 63 61 83 62 52 63 37 64 38 65 46 66 39 67
REMARK SMILES IDX 45 68 40 69 41 70 42 71 43 72 44 73 67 74 68 75 76 76 69 77
REMARK SMILES IDX 75 78 70 79 71 80 72 81 73 82 74 83 53 84 54 85 62 86 55 87
REMARK SMILES IDX 61 88 56 89 57 90 58 91 59 92 60 93
REMARK H PARENT 21 7 25 30 81 49 51 60
REMARK Flexibility Score: inf
ROOT
ATOM      1  C   UNL A   1      34.691  32.460  28.090  1.00  0.00     0.118 C 
ENDROOT
BRANCH   1   2
ATOM      2  C   UNL A   1      33.665  33.587  28.095  1.00  0.00     0.042 C 
BRANCH   2   3
ATOM      3  C   UNL A   1      34.204  34.895  28.668  1.00  0.00     0.118 C 
BRANCH   3   4
ATOM      4  N   UNL A   1      33.175  35.624  29.384  1.00  0.00    -0.352 N 
ATOM      5  C   UNL A   1      32.998  35.921  30.708  1.00  0.00     0.251 C 
ATOM      6  O   UNL A   1      32.042  36.646  30.995  1.00  0.00    -0.269 OA
ATOM      7  H   UNL A   1      32.463  35.976  28.801  1.00  0.00     0.163 HD
BRANCH   5   8
ATOM      8  C   UNL A   1      33.899  35.456  31.803  1.00  0.00     0.041 A 
ATOM      9  C   UNL A   1      37.495  33.630  30.436  1.00  0.00     0.153 C 
ATOM     10  N   UNL A   1      37.216  33.678  31.866  1.00  0.00    -0.310 N 
ATOM     11  C   UNL A   1      38.230  33.251  32.717  1.00  0.00     0.264 C 
ATOM     12  C   UNL A   1      35.997  34.268  32.330  1.00  0.00     0.058 A 
ATOM     13  O   UNL A   1      39.398  33.126  32.348  1.00  0.00    -0.268 OA
ATOM     14  C   UNL A   1      37.820  32.852  34.100  1.00  0.00     0.078 C 
ATOM     15  C   UNL A   1      35.779  34.521  33.693  1.00  0.00     0.036 A 
ATOM     16  C   UNL A   1      35.026  34.711  31.410  1.00  0.00     0.041 A 
ATOM     17  C   UNL A   1      38.201  31.678  34.638  1.00  0.00     0.029 C 
ATOM     18  S   UNL A   1      36.858  33.965  34.991  1.00  0.00    -0.082 SA
ATOM     19  C   UNL A   1      34.670  35.281  34.088  1.00  0.00     0.018 A 
ATOM     20  C   UNL A   1      33.759  35.771  33.149  1.00  0.00     0.015 A 
BRANCH  17  21
ATOM     21  C   UNL A   1      39.038  30.686  33.956  1.00  0.00    -0.023 A 
ATOM     22  C   UNL A   1      38.432  29.640  33.247  1.00  0.00     0.008 A 
ATOM     23  C   UNL A   1      40.430  30.730  34.066  1.00  0.00     0.028 A 
ATOM     24  C   UNL A   1      39.205  28.625  32.684  1.00  0.00     0.002 A 
ATOM     25  C   UNL A   1      41.199  29.717  33.490  1.00  0.00     0.041 A 
ATOM     26  C   UNL A   1      40.592  28.662  32.807  1.00  0.00     0.020 A 
ATOM     27  Cl  UNL A   1      42.914  29.755  33.639  1.00  0.00    -0.084 Cl
ENDBRANCH  17  21
ENDBRANCH   5   8
ENDBRANCH   3   4
ENDBRANCH   2   3
ENDBRANCH   1   2
BRANCH   1  28
ATOM     28  N   UNL A   1      34.075  31.150  27.928  1.00  0.00    -0.352 N 
ATOM     29  C   UNL A   1      34.654  29.903  27.865  1.00  0.00     0.251 C 
ATOM     30  H   UNL A   1      33.093  31.158  27.851  1.00  0.00     0.163 HD
ATOM     31  O   UNL A   1      33.980  28.940  27.522  1.00  0.00    -0.269 OA
BRANCH  29  32
ATOM     32  C   UNL A   1      36.090  29.733  28.184  1.00  0.00     0.039 A 
ATOM     33  C   UNL A   1      37.071  29.977  27.221  1.00  0.00     0.014 A 
ATOM     34  C   UNL A   1      36.461  29.330  29.470  1.00  0.00     0.014 A 
ATOM     35  C   UNL A   1      38.397  29.654  27.488  1.00  0.00     0.010 A 
ATOM     36  C   UNL A   1      37.806  29.088  29.764  1.00  0.00     0.010 A 
ATOM     37  C   UNL A   1      38.781  29.202  28.761  1.00  0.00    -0.014 A 
BRANCH  37  38
ATOM     38  C   UNL A   1      40.203  28.851  29.014  1.00  0.00     0.031 A 
ATOM     39  C   UNL A   1      40.739  27.497  28.631  1.00  0.00     0.074 A 
ATOM     40  C   UNL A   1      41.031  29.783  29.527  1.00  0.00     0.049 A 
ATOM     41  N   UNL A   1      41.958  27.036  28.741  1.00  0.00    -0.248 NA
ATOM     42  C   UNL A   1      39.789  26.535  28.047  1.00  0.00     0.031 C 
ATOM     43  C   UNL A   1      40.632  31.140  29.910  1.00  0.00     0.029 A 
ATOM     44  N   UNL A   1      42.380  29.752  29.780  1.00  0.00    -0.354 N 
ATOM     45  C   UNL A   1      41.922  25.735  28.251  1.00  0.00     0.074 A 
ATOM     46  C   UNL A   1      40.552  25.463  27.876  1.00  0.00     0.031 C 
ATOM     47  C   UNL A   1      41.720  31.830  30.281  1.00  0.00     0.029 A 
ATOM     48  C   UNL A   1      42.883  30.948  30.234  1.00  0.00     0.049 A 
ATOM     49  H   UNL A   1      42.934  28.948  29.650  1.00  0.00     0.167 HD
ATOM     50  C   UNL A   1      42.941  24.855  28.115  1.00  0.00     0.031 A 
ATOM     51  C   UNL A   1      44.136  31.304  30.581  1.00  0.00     0.031 A 
ATOM     52  C   UNL A   1      44.304  25.138  28.480  1.00  0.00     0.049 A 
ATOM     53  C   UNL A   1      45.239  30.291  30.474  1.00  0.00     0.074 A 
ATOM     54  C   UNL A   1      45.407  24.308  28.373  1.00  0.00     0.029 A 
ATOM     55  N   UNL A   1      44.756  26.336  29.010  1.00  0.00    -0.354 N 
ATOM     56  N   UNL A   1      45.181  29.062  30.019  1.00  0.00    -0.248 NA
ATOM     57  C   UNL A   1      46.573  30.703  30.931  1.00  0.00     0.031 C 
ATOM     58  C   UNL A   1      46.513  24.982  28.895  1.00  0.00     0.029 A 
ATOM     59  C   UNL A   1      46.115  26.259  29.262  1.00  0.00     0.049 A 
ATOM     60  H   UNL A   1      44.193  27.125  29.184  1.00  0.00     0.167 HD
ATOM     61  C   UNL A   1      46.469  28.556  30.127  1.00  0.00     0.074 A 
ATOM     62  C   UNL A   1      47.292  29.617  30.671  1.00  0.00     0.031 C 
ATOM     63  C   UNL A   1      46.924  27.320  29.809  1.00  0.00     0.031 A 
BRANCH  50  64
ATOM     64  C   UNL A   1      42.639  23.492  27.544  1.00  0.00    -0.014 A 
ATOM     65  C   UNL A   1      42.229  22.451  28.398  1.00  0.00     0.010 A 
ATOM     66  C   UNL A   1      42.872  23.210  26.187  1.00  0.00     0.010 A 
ATOM     67  C   UNL A   1      42.086  21.148  27.915  1.00  0.00     0.020 A 
ATOM     68  C   UNL A   1      42.703  21.912  25.692  1.00  0.00     0.020 A 
ATOM     69  C   UNL A   1      42.332  20.885  26.565  1.00  0.00     0.054 A 
BRANCH  69  70
ATOM     70  S   UNL A   1      42.159  19.185  25.956  1.00  0.00     0.124 S 
ATOM     71  O   UNL A   1      43.003  19.196  24.765  1.00  0.00    -0.237 OA
ATOM     72  O   UNL A   1      42.656  18.392  27.077  1.00  0.00    -0.237 OA
ATOM     73  O   UNL A   1      40.725  19.058  25.705  1.00  0.00    -0.744 OA
ENDBRANCH  69  70
ENDBRANCH  50  64
BRANCH  51  74
ATOM     74  C   UNL A   1      44.392  32.697  31.041  1.00  0.00    -0.014 A 
ATOM     75  C   UNL A   1      44.189  33.050  32.390  1.00  0.00     0.010 A 
ATOM     76  C   UNL A   1      44.741  33.699  30.119  1.00  0.00     0.010 A 
ATOM     77  C   UNL A   1      44.262  34.385  32.793  1.00  0.00     0.020 A 
ATOM     78  C   UNL A   1      44.846  35.033  30.527  1.00  0.00     0.020 A 
ATOM     79  C   UNL A   1      44.573  35.371  31.854  1.00  0.00     0.054 A 
BRANCH  79  80
ATOM     80  S   UNL A   1      44.596  37.105  32.386  1.00  0.00     0.124 S 
ATOM     81  O   UNL A   1      46.029  37.355  32.522  1.00  0.00    -0.237 OA
ATOM     82  O   UNL A   1      43.942  37.791  31.274  1.00  0.00    -0.237 OA
ATOM     83  O   UNL A   1      43.841  37.089  33.636  1.00  0.00    -0.744 OA
ENDBRANCH  79  80
ENDBRANCH  51  74
BRANCH  63  84
ATOM     84  C   UNL A   1      48.381  27.016  30.040  1.00  0.00    -0.014 A 
ATOM     85  C   UNL A   1      48.810  26.575  31.305  1.00  0.00     0.010 A 
ATOM     86  C   UNL A   1      49.339  27.306  29.052  1.00  0.00     0.010 A 
ATOM     87  C   UNL A   1      50.173  26.469  31.594  1.00  0.00     0.020 A 
ATOM     88  C   UNL A   1      50.702  27.174  29.329  1.00  0.00     0.020 A 
ATOM     89  C   UNL A   1      51.110  26.783  30.607  1.00  0.00     0.054 A 
BRANCH  89  90
ATOM     90  S   UNL A   1      52.875  26.686  31.015  1.00  0.00     0.124 S 
ATOM     91  O   UNL A   1      52.928  25.500  31.865  1.00  0.00    -0.237 OA
ATOM     92  O   UNL A   1      53.501  26.548  29.702  1.00  0.00    -0.237 OA
ATOM     93  O   UNL A   1      53.140  27.954  31.692  1.00  0.00    -0.744 OA
ENDBRANCH  89  90
ENDBRANCH  63  84
ENDBRANCH  37  38
ENDBRANCH  29  32
ENDBRANCH   1  28
TORSDOF 14
ENDMDL
MODEL 3
REMARK VINA RESULT:     -11.0      3.007     11.958
REMARK SMILES CN1C(=O)/C(=C\c2cccc(Cl)c2)Sc2ccc(C(=O)NCCCNC(=O)c3ccc(-c4c5nc(c(-c6ccc(S(=O)(=O)[O-])cc6)c6ccc([nH]6)c(-c6ccc(S(=O)(=O)[O-])cc6)c6nc(c(-c7ccc(S(=O)(=O)[O-])cc7)c7ccc4[nH]7)C=C6)C=C5)cc3)cc21
REMARK SMILES IDX 24 1 23 2 22 3 21 4 19 5 20 6 18 8 1 9 2 10 3 11 89 12 4 13
REMARK SMILES IDX 5 14 15 15 88 16 6 17 14 18 16 19 17 20 7 21 8 22 13 23 9 24
REMARK SMILES IDX 11 25 10 26 12 27 25 28 26 29 27 31 28 32 29 33 87 34 30 35
REMARK SMILES IDX 86 36 31 37 32 38 33 39 80 40 34 41 85 42 79 43 81 44 35 45
REMARK SMILES IDX 84 46 78 47 77 48 36 50 66 51 47 52 65 53 48 54 51 55 64 56
REMARK SMILES IDX 82 57 49 58 50 59 63 61 83 62 52 63 37 64 38 65 46 66 39 67
REMARK SMILES IDX 45 68 40 69 41 70 42 71 43 72 44 73 67 74 68 75 76 76 69 77
REMARK SMILES IDX 75 78 70 79 71 80 72 81 73 82 74 83 53 84 54 85 62 86 55 87
REMARK SMILES IDX 61 88 56 89 57 90 58 91 59 92 60 93
REMARK H PARENT 21 7 25 30 81 49 51 60
REMARK Flexibility Score: inf
ROOT
ATOM      1  C   UNL A   1      40.288  21.610  26.931  1.00  0.00     0.118 C 
ENDROOT
BRANCH   1   2
ATOM      2  C   UNL A   1      40.669  20.185  26.547  1.00  0.00     0.042 C 
BRANCH   2   3
ATOM      3  C   UNL A   1      42.077  19.795  26.989  1.00  0.00     0.118 C 
BRANCH   3   4
ATOM      4  N   UNL A   1      42.696  18.886  26.044  1.00  0.00    -0.352 N 
ATOM      5  C   UNL A   1      43.780  19.003  25.217  1.00  0.00     0.251 C 
ATOM      6  O   UNL A   1      44.110  17.999  24.581  1.00  0.00    -0.269 OA
ATOM      7  H   UNL A   1      42.248  18.010  25.987  1.00  0.00     0.163 HD
BRANCH   5   8
ATOM      8  C   UNL A   1      44.596  20.245  25.069  1.00  0.00     0.041 A 
ATOM      9  C   UNL A   1      43.443  23.403  27.683  1.00  0.00     0.153 C 
ATOM     10  N   UNL A   1      44.499  23.634  26.705  1.00  0.00    -0.310 N 
ATOM     11  C   UNL A   1      45.178  24.844  26.790  1.00  0.00     0.264 C 
ATOM     12  C   UNL A   1      44.873  22.583  25.807  1.00  0.00     0.058 A 
ATOM     13  O   UNL A   1      45.132  25.563  27.788  1.00  0.00    -0.268 OA
ATOM     14  C   UNL A   1      45.904  25.292  25.561  1.00  0.00     0.078 C 
ATOM     15  C   UNL A   1      46.013  22.688  24.994  1.00  0.00     0.036 A 
ATOM     16  C   UNL A   1      44.162  21.367  25.798  1.00  0.00     0.041 A 
ATOM     17  C   UNL A   1      45.742  26.530  25.056  1.00  0.00     0.029 C 
ATOM     18  S   UNL A   1      46.979  24.169  24.825  1.00  0.00    -0.082 SA
ATOM     19  C   UNL A   1      46.462  21.567  24.283  1.00  0.00     0.018 A 
ATOM     20  C   UNL A   1      45.779  20.350  24.347  1.00  0.00     0.015 A 
BRANCH  17  21
ATOM     21  C   UNL A   1      44.865  27.553  25.634  1.00  0.00    -0.023 A 
ATOM     22  C   UNL A   1      43.483  27.483  25.415  1.00  0.00     0.008 A 
ATOM     23  C   UNL A   1      45.399  28.635  26.340  1.00  0.00     0.028 A 
ATOM     24  C   UNL A   1      42.643  28.503  25.862  1.00  0.00     0.002 A 
ATOM     25  C   UNL A   1      44.550  29.646  26.795  1.00  0.00     0.041 A 
ATOM     26  C   UNL A   1      43.177  29.588  26.552  1.00  0.00     0.020 A 
ATOM     27  Cl  UNL A   1      45.204  30.991  27.647  1.00  0.00    -0.084 Cl
ENDBRANCH  17  21
ENDBRANCH   5   8
ENDBRANCH   3   4
ENDBRANCH   2   3
ENDBRANCH   1   2
BRANCH   1  28
ATOM     28  N   UNL A   1      39.062  22.051  26.278  1.00  0.00    -0.352 N 
ATOM     29  C   UNL A   1      38.382  23.242  26.389  1.00  0.00     0.251 C 
ATOM     30  H   UNL A   1      38.658  21.396  25.664  1.00  0.00     0.163 HD
ATOM     31  O   UNL A   1      37.259  23.343  25.912  1.00  0.00    -0.269 OA
BRANCH  29  32
ATOM     32  C   UNL A   1      38.993  24.384  27.106  1.00  0.00     0.039 A 
ATOM     33  C   UNL A   1      38.729  24.604  28.459  1.00  0.00     0.014 A 
ATOM     34  C   UNL A   1      39.850  25.245  26.413  1.00  0.00     0.014 A 
ATOM     35  C   UNL A   1      39.179  25.770  29.070  1.00  0.00     0.010 A 
ATOM     36  C   UNL A   1      40.373  26.372  27.054  1.00  0.00     0.010 A 
ATOM     37  C   UNL A   1      40.003  26.670  28.374  1.00  0.00    -0.014 A 
BRANCH  37  38
ATOM     38  C   UNL A   1      40.456  27.916  29.048  1.00  0.00     0.031 A 
ATOM     39  C   UNL A   1      41.889  28.074  29.485  1.00  0.00     0.074 A 
ATOM     40  C   UNL A   1      39.588  28.935  29.202  1.00  0.00     0.049 A 
ATOM     41  N   UNL A   1      42.466  29.104  30.048  1.00  0.00    -0.248 NA
ATOM     42  C   UNL A   1      42.793  26.933  29.260  1.00  0.00     0.031 C 
ATOM     43  C   UNL A   1      38.182  28.909  28.791  1.00  0.00     0.029 A 
ATOM     44  N   UNL A   1      39.762  30.200  29.706  1.00  0.00    -0.354 N 
ATOM     45  C   UNL A   1      43.790  28.736  30.253  1.00  0.00     0.074 A 
ATOM     46  C   UNL A   1      43.928  27.374  29.788  1.00  0.00     0.031 C 
ATOM     47  C   UNL A   1      37.643  30.120  28.994  1.00  0.00     0.029 A 
ATOM     48  C   UNL A   1      38.638  30.988  29.616  1.00  0.00     0.049 A 
ATOM     49  H   UNL A   1      40.610  30.513  30.096  1.00  0.00     0.167 HD
ATOM     50  C   UNL A   1      44.802  29.473  30.769  1.00  0.00     0.031 A 
ATOM     51  C   UNL A   1      38.422  32.264  29.994  1.00  0.00     0.031 A 
ATOM     52  C   UNL A   1      44.660  30.833  31.220  1.00  0.00     0.049 A 
ATOM     53  C   UNL A   1      39.545  33.041  30.616  1.00  0.00     0.074 A 
ATOM     54  C   UNL A   1      45.631  31.662  31.754  1.00  0.00     0.029 A 
ATOM     55  N   UNL A   1      43.484  31.566  31.184  1.00  0.00    -0.354 N 
ATOM     56  N   UNL A   1      40.788  32.671  30.810  1.00  0.00    -0.248 NA
ATOM     57  C   UNL A   1      39.241  34.403  31.077  1.00  0.00     0.031 C 
ATOM     58  C   UNL A   1      45.029  32.875  32.096  1.00  0.00     0.029 A 
ATOM     59  C   UNL A   1      43.698  32.828  31.711  1.00  0.00     0.049 A 
ATOM     60  H   UNL A   1      42.624  31.237  30.836  1.00  0.00     0.167 HD
ATOM     61  C   UNL A   1      41.417  33.755  31.409  1.00  0.00     0.074 A 
ATOM     62  C   UNL A   1      40.425  34.804  31.526  1.00  0.00     0.031 C 
ATOM     63  C   UNL A   1      42.701  33.864  31.828  1.00  0.00     0.031 A 
BRANCH  50  64
ATOM     64  C   UNL A   1      46.166  28.839  30.882  1.00  0.00    -0.014 A 
ATOM     65  C   UNL A   1      47.059  28.904  29.796  1.00  0.00     0.010 A 
ATOM     66  C   UNL A   1      46.518  28.081  32.012  1.00  0.00     0.010 A 
ATOM     67  C   UNL A   1      48.266  28.200  29.825  1.00  0.00     0.020 A 
ATOM     68  C   UNL A   1      47.738  27.397  32.057  1.00  0.00     0.020 A 
ATOM     69  C   UNL A   1      48.594  27.444  30.953  1.00  0.00     0.054 A 
BRANCH  69  70
ATOM     70  S   UNL A   1      50.157  26.522  30.968  1.00  0.00     0.124 S 
ATOM     71  O   UNL A   1      50.595  26.678  32.351  1.00  0.00    -0.237 OA
ATOM     72  O   UNL A   1      49.737  25.176  30.585  1.00  0.00    -0.237 OA
ATOM     73  O   UNL A   1      50.971  27.216  29.971  1.00  0.00    -0.744 OA
ENDBRANCH  69  70
ENDBRANCH  50  64
BRANCH  51  74
ATOM     74  C   UNL A   1      37.081  32.870  29.764  1.00  0.00    -0.014 A 
ATOM     75  C   UNL A   1      36.811  33.571  28.572  1.00  0.00     0.010 A 
ATOM     76  C   UNL A   1      36.102  32.837  30.773  1.00  0.00     0.010 A 
ATOM     77  C   UNL A   1      35.619  34.283  28.422  1.00  0.00     0.020 A 
ATOM     78  C   UNL A   1      34.894  33.524  30.612  1.00  0.00     0.020 A 
ATOM     79  C   UNL A   1      34.676  34.270  29.451  1.00  0.00     0.054 A 
BRANCH  79  80
ATOM     80  S   UNL A   1      33.165  35.256  29.262  1.00  0.00     0.124 S 
ATOM     81  O   UNL A   1      32.415  34.468  28.287  1.00  0.00    -0.237 OA
ATOM     82  O   UNL A   1      32.617  35.267  30.616  1.00  0.00    -0.237 OA
ATOM     83  O   UNL A   1      33.656  36.545  28.781  1.00  0.00    -0.744 OA
ENDBRANCH  79  80
ENDBRANCH  51  74
BRANCH  63  84
ATOM     84  C   UNL A   1      43.134  35.157  32.466  1.00  0.00    -0.014 A 
ATOM     85  C   UNL A   1      42.768  35.436  33.796  1.00  0.00     0.010 A 
ATOM     86  C   UNL A   1      43.775  36.152  31.708  1.00  0.00     0.010 A 
ATOM     87  C   UNL A   1      42.995  36.701  34.344  1.00  0.00     0.020 A 
ATOM     88  C   UNL A   1      44.029  37.409  32.261  1.00  0.00     0.020 A 
ATOM     89  C   UNL A   1      43.612  37.684  33.566  1.00  0.00     0.054 A 
BRANCH  89  90
ATOM     90  S   UNL A   1      43.856  39.335  34.277  1.00  0.00     0.124 S 
ATOM     91  O   UNL A   1      42.693  40.060  33.772  1.00  0.00    -0.237 OA
ATOM     92  O   UNL A   1      43.857  39.071  35.714  1.00  0.00    -0.237 OA
ATOM     93  O   UNL A   1      45.142  39.758  33.728  1.00  0.00    -0.744 OA
ENDBRANCH  89  90
ENDBRANCH  63  84
ENDBRANCH  37  38
ENDBRANCH  29  32
ENDBRANCH   1  28
TORSDOF 14
ENDMDL
