MODEL 1
REMARK VINA RESULT:     -10.5      0.000      0.000
REMARK SMILES CC(C)(C)OC(=O)NC[C@H]1CC[C@@H](C(=O)NCCCNC(=O)c2ccc(-c3c4nc(c(-c5ccc(S(=O)(=O)[O-])cc5)c5ccc([nH]5)c(-c5ccc(S(=O)(=O)[O-])cc5)c5nc(c(-c6ccc(S(=O)(=O)[O-])cc6)c6ccc3[nH]6)C=C5)C=C4)cc2)CC1
REMARK SMILES IDX 17 1 16 2 14 3 15 4 13 6 10 7 11 8 84 9 12 10 83 11 9 12
REMARK SMILES IDX 8 13 6 14 7 15 5 17 2 18 1 19 3 20 4 21 18 22 19 23 20 24
REMARK SMILES IDX 21 25 22 27 23 28 24 29 82 30 25 31 81 32 26 33 27 34 28 35
REMARK SMILES IDX 75 36 29 37 80 38 74 39 76 40 30 41 79 42 73 43 72 44 31 46
REMARK SMILES IDX 61 47 42 48 60 49 43 50 46 51 59 52 77 53 44 54 45 55 58 57
REMARK SMILES IDX 78 58 47 59 32 60 33 61 41 62 34 63 40 64 35 65 36 66 37 67
REMARK SMILES IDX 38 68 39 69 62 70 63 71 71 72 64 73 70 74 65 75 66 76 67 77
REMARK SMILES IDX 68 78 69 79 48 80 49 81 57 82 50 83 56 84 51 85 52 86 53 87
REMARK SMILES IDX 54 88 55 89
REMARK H PARENT 16 5 8 16 20 26 76 45 46 56
REMARK Flexibility Score: inf
ROOT
ATOM      1  C   UNL A   1      34.128  24.928  25.506  1.00  0.00     0.117 C 
ENDROOT
BRANCH   1   2
ATOM      2  N   UNL A   1      33.996  26.185  24.788  1.00  0.00    -0.356 N 
ATOM      3  C   UNL A   1      33.326  26.606  23.690  1.00  0.00     0.223 C 
ATOM      4  O   UNL A   1      33.533  27.793  23.392  1.00  0.00    -0.275 OA
ATOM      5  H   UNL A   1      34.524  26.906  25.202  1.00  0.00     0.163 HD
BRANCH   3   6
ATOM      6  C   UNL A   1      32.362  25.797  22.795  1.00  0.00     0.078 C 
ATOM      7  C   UNL A   1      31.997  22.805  22.672  1.00  0.00     0.008 C 
ATOM      8  C   UNL A   1      31.280  23.649  23.746  1.00  0.00     0.006 C 
ATOM      9  C   UNL A   1      33.245  23.493  22.101  1.00  0.00     0.006 C 
ATOM     10  C   UNL A   1      31.154  25.136  23.451  1.00  0.00     0.014 C 
ATOM     11  C   UNL A   1      33.000  24.943  21.706  1.00  0.00     0.014 C 
BRANCH   7  12
ATOM     12  C   UNL A   1      32.266  21.405  23.271  1.00  0.00     0.123 C 
BRANCH  12  13
ATOM     13  N   UNL A   1      32.815  21.382  24.608  1.00  0.00    -0.321 N 
ATOM     14  C   UNL A   1      32.874  20.272  25.407  1.00  0.00     0.407 C 
ATOM     15  O   UNL A   1      33.371  20.294  26.517  1.00  0.00    -0.225 OA
ATOM     16  H   UNL A   1      33.173  22.224  24.969  1.00  0.00     0.167 HD
BRANCH  14  17
ATOM     17  O   UNL A   1      32.230  19.224  24.844  1.00  0.00    -0.444 OA
BRANCH  17  18
ATOM     18  C   UNL A   1      32.957  18.044  24.447  1.00  0.00     0.106 C 
ATOM     19  C   UNL A   1      32.510  17.826  22.986  1.00  0.00     0.056 C 
ATOM     20  C   UNL A   1      32.583  16.878  25.366  1.00  0.00     0.056 C 
ATOM     21  C   UNL A   1      34.465  18.278  24.427  1.00  0.00     0.056 C 
ENDBRANCH  17  18
ENDBRANCH  14  17
ENDBRANCH  12  13
ENDBRANCH   7  12
ENDBRANCH   3   6
ENDBRANCH   1   2
BRANCH   1  22
ATOM     22  C   UNL A   1      35.414  24.168  25.151  1.00  0.00     0.042 C 
BRANCH  22  23
ATOM     23  C   UNL A   1      36.010  23.117  26.122  1.00  0.00     0.118 C 
BRANCH  23  24
ATOM     24  N   UNL A   1      37.340  22.551  25.844  1.00  0.00    -0.352 N 
ATOM     25  C   UNL A   1      38.650  22.869  26.198  1.00  0.00     0.251 C 
ATOM     26  H   UNL A   1      37.293  21.755  25.267  1.00  0.00     0.163 HD
ATOM     27  O   UNL A   1      39.519  22.042  25.911  1.00  0.00    -0.269 OA
BRANCH  25  28
ATOM     28  C   UNL A   1      39.104  24.187  26.757  1.00  0.00     0.039 A 
ATOM     29  C   UNL A   1      38.818  24.465  28.116  1.00  0.00     0.014 A 
ATOM     30  C   UNL A   1      39.875  25.107  26.052  1.00  0.00     0.014 A 
ATOM     31  C   UNL A   1      39.371  25.583  28.779  1.00  0.00     0.010 A 
ATOM     32  C   UNL A   1      40.444  26.212  26.715  1.00  0.00     0.010 A 
ATOM     33  C   UNL A   1      40.204  26.469  28.083  1.00  0.00    -0.014 A 
BRANCH  33  34
ATOM     34  C   UNL A   1      40.563  27.819  28.629  1.00  0.00     0.031 A 
ATOM     35  C   UNL A   1      41.975  27.961  29.144  1.00  0.00     0.074 A 
ATOM     36  C   UNL A   1      39.713  28.863  28.749  1.00  0.00     0.049 A 
ATOM     37  N   UNL A   1      42.519  28.905  29.866  1.00  0.00    -0.248 NA
ATOM     38  C   UNL A   1      42.881  26.840  28.836  1.00  0.00     0.031 C 
ATOM     39  C   UNL A   1      38.332  28.913  28.273  1.00  0.00     0.029 A 
ATOM     40  N   UNL A   1      39.897  30.100  29.340  1.00  0.00    -0.354 N 
ATOM     41  C   UNL A   1      43.808  28.463  30.141  1.00  0.00     0.074 A 
ATOM     42  C   UNL A   1      43.945  27.150  29.556  1.00  0.00     0.031 C 
ATOM     43  C   UNL A   1      37.795  30.108  28.596  1.00  0.00     0.029 A 
ATOM     44  C   UNL A   1      38.776  30.904  29.336  1.00  0.00     0.049 A 
ATOM     45  H   UNL A   1      40.756  30.381  29.732  1.00  0.00     0.167 HD
ATOM     46  C   UNL A   1      44.807  29.094  30.802  1.00  0.00     0.031 A 
ATOM     47  C   UNL A   1      38.563  32.127  29.879  1.00  0.00     0.031 A 
ATOM     48  C   UNL A   1      44.692  30.409  31.362  1.00  0.00     0.049 A 
ATOM     49  C   UNL A   1      39.683  32.806  30.645  1.00  0.00     0.074 A 
ATOM     50  C   UNL A   1      45.654  31.149  32.023  1.00  0.00     0.029 A 
ATOM     51  N   UNL A   1      43.545  31.186  31.317  1.00  0.00    -0.354 N 
ATOM     52  N   UNL A   1      40.904  32.383  30.879  1.00  0.00    -0.248 NA
ATOM     53  C   UNL A   1      39.397  34.135  31.217  1.00  0.00     0.031 C 
ATOM     54  C   UNL A   1      45.073  32.355  32.425  1.00  0.00     0.029 A 
ATOM     55  C   UNL A   1      43.771  32.393  31.951  1.00  0.00     0.049 A 
ATOM     56  H   UNL A   1      42.696  30.918  30.895  1.00  0.00     0.167 HD
ATOM     57  C   UNL A   1      41.537  33.405  31.588  1.00  0.00     0.074 A 
ATOM     58  C   UNL A   1      40.572  34.471  31.735  1.00  0.00     0.031 C 
ATOM     59  C   UNL A   1      42.805  33.456  32.072  1.00  0.00     0.031 A 
BRANCH  46  60
ATOM     60  C   UNL A   1      46.101  28.340  30.965  1.00  0.00    -0.014 A 
ATOM     61  C   UNL A   1      47.093  28.372  29.967  1.00  0.00     0.010 A 
ATOM     62  C   UNL A   1      46.322  27.577  32.126  1.00  0.00     0.010 A 
ATOM     63  C   UNL A   1      48.253  27.605  30.097  1.00  0.00     0.020 A 
ATOM     64  C   UNL A   1      47.500  26.842  32.279  1.00  0.00     0.020 A 
ATOM     65  C   UNL A   1      48.448  26.844  31.253  1.00  0.00     0.054 A 
BRANCH  65  66
ATOM     66  S   UNL A   1      49.972  25.874  31.402  1.00  0.00     0.124 S 
ATOM     67  O   UNL A   1      49.546  24.775  32.265  1.00  0.00    -0.237 OA
ATOM     68  O   UNL A   1      50.255  25.512  30.017  1.00  0.00    -0.237 OA
ATOM     69  O   UNL A   1      50.920  26.808  32.006  1.00  0.00    -0.744 OA
ENDBRANCH  65  66
ENDBRANCH  46  60
BRANCH  47  70
ATOM     70  C   UNL A   1      37.237  32.818  29.741  1.00  0.00    -0.014 A 
ATOM     71  C   UNL A   1      36.983  33.680  28.656  1.00  0.00     0.010 A 
ATOM     72  C   UNL A   1      36.236  32.662  30.718  1.00  0.00     0.010 A 
ATOM     73  C   UNL A   1      35.770  34.377  28.556  1.00  0.00     0.020 A 
ATOM     74  C   UNL A   1      35.009  33.333  30.607  1.00  0.00     0.020 A 
ATOM     75  C   UNL A   1      34.787  34.194  29.530  1.00  0.00     0.054 A 
BRANCH  75  76
ATOM     76  S   UNL A   1      33.198  35.060  29.348  1.00  0.00     0.124 S 
ATOM     77  O   UNL A   1      33.618  36.381  28.890  1.00  0.00    -0.237 OA
ATOM     78  O   UNL A   1      32.505  34.239  28.359  1.00  0.00    -0.237 OA
ATOM     79  O   UNL A   1      32.627  35.018  30.693  1.00  0.00    -0.744 OA
ENDBRANCH  75  76
ENDBRANCH  47  70
BRANCH  59  80
ATOM     80  C   UNL A   1      43.257  34.723  32.755  1.00  0.00    -0.014 A 
ATOM     81  C   UNL A   1      43.736  35.824  32.026  1.00  0.00     0.010 A 
ATOM     82  C   UNL A   1      43.108  34.840  34.151  1.00  0.00     0.010 A 
ATOM     83  C   UNL A   1      44.079  37.011  32.682  1.00  0.00     0.020 A 
ATOM     84  C   UNL A   1      43.420  36.034  34.806  1.00  0.00     0.020 A 
ATOM     85  C   UNL A   1      43.916  37.109  34.069  1.00  0.00     0.054 A 
BRANCH  85  86
ATOM     86  S   UNL A   1      44.319  38.677  34.887  1.00  0.00     0.124 S 
ATOM     87  O   UNL A   1      43.470  39.623  34.169  1.00  0.00    -0.237 OA
ATOM     88  O   UNL A   1      43.939  38.419  36.275  1.00  0.00    -0.237 OA
ATOM     89  O   UNL A   1      45.754  38.829  34.659  1.00  0.00    -0.744 OA
ENDBRANCH  85  86
ENDBRANCH  59  80
ENDBRANCH  33  34
ENDBRANCH  25  28
ENDBRANCH  23  24
ENDBRANCH  22  23
ENDBRANCH   1  22
TORSDOF 17
ENDMDL
MODEL 2
REMARK VINA RESULT:     -10.3      4.557      9.596
REMARK SMILES CC(C)(C)OC(=O)NC[C@H]1CC[C@@H](C(=O)NCCCNC(=O)c2ccc(-c3c4nc(c(-c5ccc(S(=O)(=O)[O-])cc5)c5ccc([nH]5)c(-c5ccc(S(=O)(=O)[O-])cc5)c5nc(c(-c6ccc(S(=O)(=O)[O-])cc6)c6ccc3[nH]6)C=C5)C=C4)cc2)CC1
REMARK SMILES IDX 17 1 16 2 14 3 15 4 13 6 10 7 11 8 84 9 12 10 83 11 9 12
REMARK SMILES IDX 8 13 6 14 7 15 5 17 2 18 1 19 3 20 4 21 18 22 19 23 20 24
REMARK SMILES IDX 21 25 22 27 23 28 24 29 82 30 25 31 81 32 26 33 27 34 28 35
REMARK SMILES IDX 75 36 29 37 80 38 74 39 76 40 30 41 79 42 73 43 72 44 31 46
REMARK SMILES IDX 61 47 42 48 60 49 43 50 46 51 59 52 77 53 44 54 45 55 58 57
REMARK SMILES IDX 78 58 47 59 32 60 33 61 41 62 34 63 40 64 35 65 36 66 37 67
REMARK SMILES IDX 38 68 39 69 62 70 63 71 71 72 64 73 70 74 65 75 66 76 67 77
REMARK SMILES IDX 68 78 69 79 48 80 49 81 57 82 50 83 56 84 51 85 52 86 53 87
REMARK SMILES IDX 54 88 55 89
REMARK H PARENT 16 5 8 16 20 26 76 45 46 56
REMARK Flexibility Score: inf
ROOT
ATOM      1  C   UNL A   1      34.784  30.078  27.593  1.00  0.00     0.117 C 
ENDROOT
BRANCH   1   2
ATOM      2  N   UNL A   1      33.515  29.372  27.658  1.00  0.00    -0.356 N 
ATOM      3  C   UNL A   1      32.549  29.035  26.772  1.00  0.00     0.223 C 
ATOM      4  O   UNL A   1      31.579  28.447  27.276  1.00  0.00    -0.275 OA
ATOM      5  H   UNL A   1      33.307  29.064  28.570  1.00  0.00     0.163 HD
BRANCH   3   6
ATOM      6  C   UNL A   1      32.523  29.294  25.250  1.00  0.00     0.078 C 
ATOM      7  C   UNL A   1      31.890  27.346  23.035  1.00  0.00     0.008 C 
ATOM      8  C   UNL A   1      30.764  28.068  23.804  1.00  0.00     0.006 C 
ATOM      9  C   UNL A   1      33.207  27.279  23.821  1.00  0.00     0.006 C 
ATOM     10  C   UNL A   1      31.168  29.331  24.549  1.00  0.00     0.014 C 
ATOM     11  C   UNL A   1      33.611  28.617  24.425  1.00  0.00     0.014 C 
BRANCH   7  12
ATOM     12  C   UNL A   1      31.350  25.967  22.588  1.00  0.00     0.123 C 
BRANCH  12  13
ATOM     13  N   UNL A   1      32.201  24.833  22.867  1.00  0.00    -0.321 N 
ATOM     14  C   UNL A   1      31.894  23.826  23.742  1.00  0.00     0.407 C 
ATOM     15  O   UNL A   1      32.630  22.875  23.925  1.00  0.00    -0.225 OA
ATOM     16  H   UNL A   1      33.062  24.780  22.393  1.00  0.00     0.167 HD
BRANCH  14  17
ATOM     17  O   UNL A   1      30.754  24.092  24.421  1.00  0.00    -0.444 OA
BRANCH  17  18
ATOM     18  C   UNL A   1      30.798  24.448  25.817  1.00  0.00     0.106 C 
ATOM     19  C   UNL A   1      30.456  23.125  26.533  1.00  0.00     0.056 C 
ATOM     20  C   UNL A   1      29.781  25.558  26.096  1.00  0.00     0.056 C 
ATOM     21  C   UNL A   1      32.202  24.852  26.262  1.00  0.00     0.056 C 
ENDBRANCH  17  18
ENDBRANCH  14  17
ENDBRANCH  12  13
ENDBRANCH   7  12
ENDBRANCH   3   6
ENDBRANCH   1   2
BRANCH   1  22
ATOM     22  C   UNL A   1      34.691  31.524  28.101  1.00  0.00     0.042 C 
BRANCH  22  23
ATOM     23  C   UNL A   1      35.463  31.973  29.367  1.00  0.00     0.118 C 
BRANCH  23  24
ATOM     24  N   UNL A   1      35.632  31.028  30.482  1.00  0.00    -0.352 N 
ATOM     25  C   UNL A   1      36.704  30.342  31.051  1.00  0.00     0.251 C 
ATOM     26  H   UNL A   1      34.781  30.831  30.936  1.00  0.00     0.163 HD
ATOM     27  O   UNL A   1      36.486  29.755  32.114  1.00  0.00    -0.269 OA
BRANCH  25  28
ATOM     28  C   UNL A   1      38.044  30.136  30.406  1.00  0.00     0.039 A 
ATOM     29  C   UNL A   1      39.145  29.835  31.245  1.00  0.00     0.014 A 
ATOM     30  C   UNL A   1      38.252  30.121  29.030  1.00  0.00     0.014 A 
ATOM     31  C   UNL A   1      40.393  29.434  30.719  1.00  0.00     0.010 A 
ATOM     32  C   UNL A   1      39.489  29.703  28.502  1.00  0.00     0.010 A 
ATOM     33  C   UNL A   1      40.577  29.353  29.333  1.00  0.00    -0.014 A 
BRANCH  33  34
ATOM     34  C   UNL A   1      41.939  29.242  28.716  1.00  0.00     0.031 A 
ATOM     35  C   UNL A   1      42.308  27.875  28.190  1.00  0.00     0.074 A 
ATOM     36  C   UNL A   1      42.855  30.234  28.662  1.00  0.00     0.049 A 
ATOM     37  N   UNL A   1      43.465  27.401  27.811  1.00  0.00    -0.248 NA
ATOM     38  C   UNL A   1      41.209  26.894  28.140  1.00  0.00     0.031 C 
ATOM     39  C   UNL A   1      42.656  31.618  29.087  1.00  0.00     0.029 A 
ATOM     40  N   UNL A   1      44.169  30.212  28.232  1.00  0.00    -0.354 N 
ATOM     41  C   UNL A   1      43.241  26.057  27.532  1.00  0.00     0.074 A 
ATOM     42  C   UNL A   1      41.856  25.782  27.836  1.00  0.00     0.031 C 
ATOM     43  C   UNL A   1      43.802  32.307  28.904  1.00  0.00     0.029 A 
ATOM     44  C   UNL A   1      44.836  31.411  28.383  1.00  0.00     0.049 A 
ATOM     45  H   UNL A   1      44.593  29.409  27.851  1.00  0.00     0.167 HD
ATOM     46  C   UNL A   1      44.097  25.129  27.046  1.00  0.00     0.031 A 
ATOM     47  C   UNL A   1      46.129  31.740  28.146  1.00  0.00     0.031 A 
ATOM     48  C   UNL A   1      45.466  25.397  26.713  1.00  0.00     0.049 A 
ATOM     49  C   UNL A   1      47.084  30.678  27.631  1.00  0.00     0.074 A 
ATOM     50  C   UNL A   1      46.408  24.534  26.185  1.00  0.00     0.029 A 
ATOM     51  N   UNL A   1      46.087  26.627  26.869  1.00  0.00    -0.354 N 
ATOM     52  N   UNL A   1      46.850  29.416  27.353  1.00  0.00    -0.248 NA
ATOM     53  C   UNL A   1      48.480  31.089  27.392  1.00  0.00     0.031 C 
ATOM     54  C   UNL A   1      47.615  25.228  26.069  1.00  0.00     0.029 A 
ATOM     55  C   UNL A   1      47.405  26.542  26.459  1.00  0.00     0.049 A 
ATOM     56  H   UNL A   1      45.654  27.440  27.218  1.00  0.00     0.167 HD
ATOM     57  C   UNL A   1      48.054  28.898  26.874  1.00  0.00     0.074 A 
ATOM     58  C   UNL A   1      49.010  29.983  26.886  1.00  0.00     0.031 C 
ATOM     59  C   UNL A   1      48.341  27.638  26.458  1.00  0.00     0.031 A 
BRANCH  46  60
ATOM     60  C   UNL A   1      43.562  23.732  26.870  1.00  0.00    -0.014 A 
ATOM     61  C   UNL A   1      43.225  23.235  25.597  1.00  0.00     0.010 A 
ATOM     62  C   UNL A   1      43.380  22.909  27.996  1.00  0.00     0.010 A 
ATOM     63  C   UNL A   1      42.657  21.967  25.459  1.00  0.00     0.020 A 
ATOM     64  C   UNL A   1      42.851  21.623  27.858  1.00  0.00     0.020 A 
ATOM     65  C   UNL A   1      42.472  21.170  26.593  1.00  0.00     0.054 A 
BRANCH  65  66
ATOM     66  S   UNL A   1      41.750  19.521  26.380  1.00  0.00     0.124 S 
ATOM     67  O   UNL A   1      42.111  18.870  27.638  1.00  0.00    -0.237 OA
ATOM     68  O   UNL A   1      40.331  19.814  26.209  1.00  0.00    -0.237 OA
ATOM     69  O   UNL A   1      42.423  18.997  25.194  1.00  0.00    -0.744 OA
ENDBRANCH  65  66
ENDBRANCH  46  60
BRANCH  47  70
ATOM     70  C   UNL A   1      46.634  33.132  28.389  1.00  0.00    -0.014 A 
ATOM     71  C   UNL A   1      46.602  34.100  27.365  1.00  0.00     0.010 A 
ATOM     72  C   UNL A   1      47.198  33.491  29.628  1.00  0.00     0.010 A 
ATOM     73  C   UNL A   1      47.130  35.383  27.567  1.00  0.00     0.020 A 
ATOM     74  C   UNL A   1      47.699  34.783  29.845  1.00  0.00     0.020 A 
ATOM     75  C   UNL A   1      47.671  35.719  28.810  1.00  0.00     0.054 A 
BRANCH  75  76
ATOM     76  S   UNL A   1      48.293  37.407  29.070  1.00  0.00     0.124 S 
ATOM     77  O   UNL A   1      48.516  37.867  27.703  1.00  0.00    -0.237 OA
ATOM     78  O   UNL A   1      47.186  38.045  29.778  1.00  0.00    -0.237 OA
ATOM     79  O   UNL A   1      49.502  37.209  29.868  1.00  0.00    -0.744 OA
ENDBRANCH  75  76
ENDBRANCH  47  70
BRANCH  59  80
ATOM     80  C   UNL A   1      49.724  27.360  25.923  1.00  0.00    -0.014 A 
ATOM     81  C   UNL A   1      50.742  26.841  26.741  1.00  0.00     0.010 A 
ATOM     82  C   UNL A   1      49.975  27.534  24.548  1.00  0.00     0.010 A 
ATOM     83  C   UNL A   1      51.992  26.525  26.199  1.00  0.00     0.020 A 
ATOM     84  C   UNL A   1      51.212  27.190  23.997  1.00  0.00     0.020 A 
ATOM     85  C   UNL A   1      52.218  26.699  24.829  1.00  0.00     0.054 A 
BRANCH  85  86
ATOM     86  S   UNL A   1      53.831  26.231  24.143  1.00  0.00     0.124 S 
ATOM     87  O   UNL A   1      54.115  24.987  24.853  1.00  0.00    -0.237 OA
ATOM     88  O   UNL A   1      53.543  26.090  22.717  1.00  0.00    -0.237 OA
ATOM     89  O   UNL A   1      54.696  27.357  24.489  1.00  0.00    -0.744 OA
ENDBRANCH  85  86
ENDBRANCH  59  80
ENDBRANCH  33  34
ENDBRANCH  25  28
ENDBRANCH  23  24
ENDBRANCH  22  23
ENDBRANCH   1  22
TORSDOF 17
ENDMDL
MODEL 3
REMARK VINA RESULT:     -10.0      1.065      3.474
REMARK SMILES CC(C)(C)OC(=O)NC[C@H]1CC[C@@H](C(=O)NCCCNC(=O)c2ccc(-c3c4nc(c(-c5ccc(S(=O)(=O)[O-])cc5)c5ccc([nH]5)c(-c5ccc(S(=O)(=O)[O-])cc5)c5nc(c(-c6ccc(S(=O)(=O)[O-])cc6)c6ccc3[nH]6)C=C5)C=C4)cc2)CC1
REMARK SMILES IDX 17 1 16 2 14 3 15 4 13 6 10 7 11 8 84 9 12 10 83 11 9 12
REMARK SMILES IDX 8 13 6 14 7 15 5 17 2 18 1 19 3 20 4 21 18 22 19 23 20 24
REMARK SMILES IDX 21 25 22 27 23 28 24 29 82 30 25 31 81 32 26 33 27 34 28 35
REMARK SMILES IDX 75 36 29 37 80 38 74 39 76 40 30 41 79 42 73 43 72 44 31 46
REMARK SMILES IDX 61 47 42 48 60 49 43 50 46 51 59 52 77 53 44 54 45 55 58 57
REMARK SMILES IDX 78 58 47 59 32 60 33 61 41 62 34 63 40 64 35 65 36 66 37 67
REMARK SMILES IDX 38 68 39 69 62 70 63 71 71 72 64 73 70 74 65 75 66 76 67 77
REMARK SMILES IDX 68 78 69 79 48 80 49 81 57 82 50 83 56 84 51 85 52 86 53 87
REMARK SMILES IDX 54 88 55 89
REMARK H PARENT 16 5 8 16 20 26 76 45 46 56
REMARK Flexibility Score: inf
ROOT
ATOM      1  C   UNL A   1      35.336  21.264  24.623  1.00  0.00     0.117 C 
ENDROOT
BRANCH   1   2
ATOM      2  N   UNL A   1      34.672  20.090  25.166  1.00  0.00    -0.356 N 
ATOM      3  C   UNL A   1      33.402  19.621  25.190  1.00  0.00     0.223 C 
ATOM      4  O   UNL A   1      33.264  18.561  25.820  1.00  0.00    -0.275 OA
ATOM      5  H   UNL A   1      35.300  19.489  25.630  1.00  0.00     0.163 HD
BRANCH   3   6
ATOM      6  C   UNL A   1      32.147  20.242  24.542  1.00  0.00     0.078 C 
ATOM      7  C   UNL A   1      31.858  22.954  23.253  1.00  0.00     0.008 C 
ATOM      8  C   UNL A   1      32.431  21.757  22.465  1.00  0.00     0.006 C 
ATOM      9  C   UNL A   1      31.985  22.790  24.773  1.00  0.00     0.006 C 
ATOM     10  C   UNL A   1      32.113  20.379  23.022  1.00  0.00     0.014 C 
ATOM     11  C   UNL A   1      31.521  21.427  25.268  1.00  0.00     0.014 C 
BRANCH   7  12
ATOM     12  C   UNL A   1      32.512  24.242  22.699  1.00  0.00     0.123 C 
BRANCH  12  13
ATOM     13  N   UNL A   1      31.606  25.232  22.161  1.00  0.00    -0.321 N 
ATOM     14  C   UNL A   1      31.751  26.584  22.314  1.00  0.00     0.407 C 
ATOM     15  O   UNL A   1      30.977  27.382  21.819  1.00  0.00    -0.225 OA
ATOM     16  H   UNL A   1      30.830  24.910  21.649  1.00  0.00     0.167 HD
BRANCH  14  17
ATOM     17  O   UNL A   1      32.774  26.881  23.148  1.00  0.00    -0.444 OA
BRANCH  17  18
ATOM     18  C   UNL A   1      32.516  27.405  24.466  1.00  0.00     0.106 C 
ATOM     19  C   UNL A   1      33.618  26.756  25.329  1.00  0.00     0.056 C 
ATOM     20  C   UNL A   1      31.104  27.011  24.907  1.00  0.00     0.056 C 
ATOM     21  C   UNL A   1      32.722  28.916  24.534  1.00  0.00     0.056 C 
ENDBRANCH  17  18
ENDBRANCH  14  17
ENDBRANCH  12  13
ENDBRANCH   7  12
ENDBRANCH   3   6
ENDBRANCH   1   2
BRANCH   1  22
ATOM     22  C   UNL A   1      35.452  22.409  25.639  1.00  0.00     0.042 C 
BRANCH  22  23
ATOM     23  C   UNL A   1      36.687  23.345  25.643  1.00  0.00     0.118 C 
BRANCH  23  24
ATOM     24  N   UNL A   1      38.037  22.758  25.608  1.00  0.00    -0.352 N 
ATOM     25  C   UNL A   1      39.268  23.061  26.187  1.00  0.00     0.251 C 
ATOM     26  H   UNL A   1      38.081  21.959  25.035  1.00  0.00     0.163 HD
ATOM     27  O   UNL A   1      40.162  22.220  26.063  1.00  0.00    -0.269 OA
BRANCH  25  28
ATOM     28  C   UNL A   1      39.635  24.377  26.811  1.00  0.00     0.039 A 
ATOM     29  C   UNL A   1      39.204  24.626  28.137  1.00  0.00     0.014 A 
ATOM     30  C   UNL A   1      40.458  25.322  26.206  1.00  0.00     0.014 A 
ATOM     31  C   UNL A   1      39.663  25.742  28.871  1.00  0.00     0.010 A 
ATOM     32  C   UNL A   1      40.932  26.426  26.941  1.00  0.00     0.010 A 
ATOM     33  C   UNL A   1      40.546  26.654  28.281  1.00  0.00    -0.014 A 
BRANCH  33  34
ATOM     34  C   UNL A   1      40.819  28.001  28.882  1.00  0.00     0.031 A 
ATOM     35  C   UNL A   1      42.183  28.172  29.507  1.00  0.00     0.074 A 
ATOM     36  C   UNL A   1      39.931  29.016  28.960  1.00  0.00     0.049 A 
ATOM     37  N   UNL A   1      42.640  29.114  30.289  1.00  0.00    -0.248 NA
ATOM     38  C   UNL A   1      43.145  27.087  29.245  1.00  0.00     0.031 C 
ATOM     39  C   UNL A   1      38.589  29.036  28.381  1.00  0.00     0.029 A 
ATOM     40  N   UNL A   1      40.030  30.242  29.591  1.00  0.00    -0.354 N 
ATOM     41  C   UNL A   1      43.919  28.704  30.653  1.00  0.00     0.074 A 
ATOM     42  C   UNL A   1      44.141  27.410  30.051  1.00  0.00     0.031 C 
ATOM     43  C   UNL A   1      37.991  30.206  28.687  1.00  0.00     0.029 A 
ATOM     44  C   UNL A   1      38.887  31.013  29.518  1.00  0.00     0.049 A 
ATOM     45  H   UNL A   1      40.847  30.540  30.054  1.00  0.00     0.167 HD
ATOM     46  C   UNL A   1      44.843  29.348  31.403  1.00  0.00     0.031 A 
ATOM     47  C   UNL A   1      38.595  32.215  30.070  1.00  0.00     0.031 A 
ATOM     48  C   UNL A   1      44.645  30.645  31.981  1.00  0.00     0.049 A 
ATOM     49  C   UNL A   1      39.632  32.909  30.935  1.00  0.00     0.074 A 
ATOM     50  C   UNL A   1      45.530  31.397  32.730  1.00  0.00     0.029 A 
ATOM     51  N   UNL A   1      43.480  31.389  31.865  1.00  0.00    -0.354 N 
ATOM     52  N   UNL A   1      40.844  32.516  31.252  1.00  0.00    -0.248 NA
ATOM     53  C   UNL A   1      39.261  34.213  31.512  1.00  0.00     0.031 C 
ATOM     54  C   UNL A   1      44.882  32.575  33.113  1.00  0.00     0.029 A 
ATOM     55  C   UNL A   1      43.619  32.586  32.542  1.00  0.00     0.049 A 
ATOM     56  H   UNL A   1      42.675  31.106  31.374  1.00  0.00     0.167 HD
ATOM     57  C   UNL A   1      41.388  33.539  32.030  1.00  0.00     0.074 A 
ATOM     58  C   UNL A   1      40.382  34.572  32.126  1.00  0.00     0.031 C 
ATOM     59  C   UNL A   1      42.613  33.616  32.611  1.00  0.00     0.031 A 
BRANCH  46  60
ATOM     60  C   UNL A   1      46.145  28.630  31.647  1.00  0.00    -0.014 A 
ATOM     61  C   UNL A   1      46.317  27.793  32.765  1.00  0.00     0.010 A 
ATOM     62  C   UNL A   1      47.217  28.806  30.753  1.00  0.00     0.010 A 
ATOM     63  C   UNL A   1      47.554  27.197  33.021  1.00  0.00     0.020 A 
ATOM     64  C   UNL A   1      48.443  28.179  30.982  1.00  0.00     0.020 A 
ATOM     65  C   UNL A   1      48.610  27.396  32.127  1.00  0.00     0.054 A 
BRANCH  65  66
ATOM     66  S   UNL A   1      50.198  26.594  32.475  1.00  0.00     0.124 S 
ATOM     67  O   UNL A   1      50.224  26.600  33.936  1.00  0.00    -0.237 OA
ATOM     68  O   UNL A   1      50.035  25.283  31.855  1.00  0.00    -0.237 OA
ATOM     69  O   UNL A   1      51.176  27.468  31.832  1.00  0.00    -0.744 OA
ENDBRANCH  65  66
ENDBRANCH  46  60
BRANCH  47  70
ATOM     70  C   UNL A   1      37.262  32.870  29.846  1.00  0.00    -0.014 A 
ATOM     71  C   UNL A   1      37.043  33.692  28.723  1.00  0.00     0.010 A 
ATOM     72  C   UNL A   1      36.218  32.719  30.778  1.00  0.00     0.010 A 
ATOM     73  C   UNL A   1      35.821  34.356  28.543  1.00  0.00     0.020 A 
ATOM     74  C   UNL A   1      34.983  33.357  30.586  1.00  0.00     0.020 A 
ATOM     75  C   UNL A   1      34.795  34.179  29.473  1.00  0.00     0.054 A 
BRANCH  75  76
ATOM     76  S   UNL A   1      33.198  35.000  29.187  1.00  0.00     0.124 S 
ATOM     77  O   UNL A   1      32.588  34.143  28.175  1.00  0.00    -0.237 OA
ATOM     78  O   UNL A   1      32.580  34.954  30.510  1.00  0.00    -0.237 OA
ATOM     79  O   UNL A   1      33.576  36.337  28.730  1.00  0.00    -0.744 OA
ENDBRANCH  75  76
ENDBRANCH  47  70
BRANCH  59  80
ATOM     80  C   UNL A   1      42.973  34.878  33.355  1.00  0.00    -0.014 A 
ATOM     81  C   UNL A   1      42.816  34.984  34.747  1.00  0.00     0.010 A 
ATOM     82  C   UNL A   1      43.569  35.943  32.652  1.00  0.00     0.010 A 
ATOM     83  C   UNL A   1      43.226  36.141  35.419  1.00  0.00     0.020 A 
ATOM     84  C   UNL A   1      44.009  37.087  33.323  1.00  0.00     0.020 A 
ATOM     85  C   UNL A   1      43.823  37.184  34.702  1.00  0.00     0.054 A 
BRANCH  85  86
ATOM     86  S   UNL A   1      44.394  38.650  35.605  1.00  0.00     0.124 S 
ATOM     87  O   UNL A   1      43.784  39.735  34.842  1.00  0.00    -0.237 OA
ATOM     88  O   UNL A   1      43.845  38.435  36.943  1.00  0.00    -0.237 OA
ATOM     89  O   UNL A   1      45.850  38.568  35.517  1.00  0.00    -0.744 OA
ENDBRANCH  85  86
ENDBRANCH  59  80
ENDBRANCH  33  34
ENDBRANCH  25  28
ENDBRANCH  23  24
ENDBRANCH  22  23
ENDBRANCH   1  22
TORSDOF 17
ENDMDL
