MODEL 1
REMARK VINA RESULT:     -12.9      0.000      0.000
REMARK SMILES Cc1ccc(S(=O)(=O)n2cc(C(=O)C(=O)NCC(=O)N[C@H](Cc3c[nH]c4ccccc34)C(=O)NCCCNC(=O)c3ccc(-c4c5nc(c(-c6ccc(S(=O)(=O)[O-])cc6)c6ccc([nH]6)c(-c6ccc(S(=O)(=O)[O-])cc6)c6nc(c(-c7ccc(S(=O)(=O)[O-])cc7)c7ccc4[nH]7)C=C6)C=C5)cc3)c3ccccc32)cc1
REMARK SMILES IDX 32 1 33 2 34 3 21 5 20 6 18 7 19 8 17 10 16 11 14 12 15 13
REMARK SMILES IDX 12 15 13 16 11 17 9 18 10 19 106 20 101 21 105 22 102 23
REMARK SMILES IDX 104 24 103 25 6 26 7 27 8 28 5 29 1 30 2 31 3 32 108 33 4 34
REMARK SMILES IDX 107 35 22 36 23 37 24 38 31 39 25 40 26 41 30 42 27 44 29 45
REMARK SMILES IDX 28 46 35 47 36 48 37 49 38 50 39 51 40 53 41 54 42 55 100 56
REMARK SMILES IDX 43 57 99 58 44 59 45 60 46 61 93 62 47 63 98 64 92 65 94 66
REMARK SMILES IDX 48 67 97 68 91 69 90 70 49 72 79 73 60 74 78 75 61 76 64 77
REMARK SMILES IDX 77 78 95 79 62 80 63 81 76 83 96 84 65 85 50 86 51 87 59 88
REMARK SMILES IDX 52 89 58 90 53 91 54 92 55 93 56 94 57 95 80 96 81 97 89 98
REMARK SMILES IDX 82 99 88 100 83 101 84 102 85 103 86 104 87 105 66 106
REMARK SMILES IDX 67 107 75 108 68 109 74 110 69 111 70 112 71 113 72 114
REMARK SMILES IDX 73 115
REMARK H PARENT 34 4 20 9 16 14 25 43 38 52 94 71 64 82
REMARK Flexibility Score: inf
ROOT
ATOM      1  C   UNL A   1      37.370  32.236  31.280  1.00  0.00     0.242 C 
ATOM      2  O   UNL A   1      38.098  33.207  31.035  1.00  0.00    -0.273 OA
ATOM      3  N   UNL A   1      37.949  31.213  31.961  1.00  0.00    -0.354 N 
ATOM      4  H   UNL A   1      38.894  31.384  32.177  1.00  0.00     0.163 HD
ENDROOT
BRANCH   1   5
ATOM      5  C   UNL A   1      35.930  32.235  30.739  1.00  0.00     0.175 C 
BRANCH   5   6
ATOM      6  N   UNL A   1      35.837  33.218  29.655  1.00  0.00    -0.342 N 
ATOM      7  C   UNL A   1      35.251  33.072  28.429  1.00  0.00     0.240 C 
ATOM      8  O   UNL A   1      35.368  34.013  27.637  1.00  0.00    -0.273 OA
ATOM      9  H   UNL A   1      36.250  34.094  29.833  1.00  0.00     0.164 HD
BRANCH   7  10
ATOM     10  C   UNL A   1      34.301  31.890  28.112  1.00  0.00     0.216 C 
BRANCH  10  11
ATOM     11  N   UNL A   1      34.878  30.580  27.812  1.00  0.00    -0.340 N 
ATOM     12  C   UNL A   1      34.295  29.494  27.169  1.00  0.00     0.292 C 
ATOM     13  O   UNL A   1      34.935  28.493  26.870  1.00  0.00    -0.265 OA
ATOM     14  H   UNL A   1      35.807  30.449  28.106  1.00  0.00     0.164 HD
BRANCH  12  15
ATOM     15  C   UNL A   1      32.826  29.568  26.765  1.00  0.00     0.252 C 
ATOM     16  O   UNL A   1      32.277  30.654  26.958  1.00  0.00    -0.283 OA
BRANCH  15  17
ATOM     17  C   UNL A   1      32.063  28.382  26.337  1.00  0.00     0.054 A 
ATOM     18  N   UNL A   1      30.859  26.463  26.153  1.00  0.00    -0.240 N 
ATOM     19  C   UNL A   1      31.523  27.304  27.055  1.00  0.00     0.117 A 
ATOM     20  C   UNL A   1      30.788  27.160  24.928  1.00  0.00     0.065 A 
ATOM     21  C   UNL A   1      31.827  28.082  24.962  1.00  0.00     0.012 A 
ATOM     22  C   UNL A   1      30.143  26.826  23.719  1.00  0.00     0.028 A 
ATOM     23  C   UNL A   1      32.372  28.533  23.741  1.00  0.00     0.011 A 
ATOM     24  C   UNL A   1      30.762  27.202  22.529  1.00  0.00     0.002 A 
ATOM     25  C   UNL A   1      31.888  28.013  22.538  1.00  0.00     0.001 A 
BRANCH  18  26
ATOM     26  S   UNL A   1      31.209  24.767  25.856  1.00  0.00     0.268 S 
ATOM     27  O   UNL A   1      30.035  24.318  25.123  1.00  0.00    -0.201 OA
ATOM     28  O   UNL A   1      31.469  24.281  27.208  1.00  0.00    -0.201 OA
BRANCH  26  29
ATOM     29  C   UNL A   1      32.566  24.044  25.009  1.00  0.00     0.088 A 
ATOM     30  C   UNL A   1      36.489  23.144  23.421  1.00  0.00     0.044 C 
ATOM     31  C   UNL A   1      35.113  23.386  23.975  1.00  0.00    -0.051 A 
ATOM     32  C   UNL A   1      35.024  24.145  25.131  1.00  0.00     0.005 A 
ATOM     33  C   UNL A   1      33.921  22.939  23.358  1.00  0.00     0.005 A 
ATOM     34  C   UNL A   1      33.775  24.448  25.638  1.00  0.00     0.022 A 
ATOM     35  C   UNL A   1      32.634  23.269  23.866  1.00  0.00     0.022 A 
ENDBRANCH  26  29
ENDBRANCH  18  26
ENDBRANCH  15  17
ENDBRANCH  12  15
ENDBRANCH  10  11
ENDBRANCH   7  10
ENDBRANCH   5   6
BRANCH   5  36
ATOM     36  C   UNL A   1      34.763  32.341  31.758  1.00  0.00     0.072 C 
BRANCH  36  37
ATOM     37  C   UNL A   1      34.586  33.559  32.637  1.00  0.00    -0.020 A 
ATOM     38  C   UNL A   1      34.885  33.725  33.974  1.00  0.00     0.087 A 
ATOM     39  C   UNL A   1      34.065  34.845  32.212  1.00  0.00     0.003 A 
ATOM     40  N   UNL A   1      34.754  35.039  34.309  1.00  0.00    -0.361 N 
ATOM     41  C   UNL A   1      34.286  35.754  33.248  1.00  0.00     0.046 A 
ATOM     42  C   UNL A   1      33.446  35.339  31.043  1.00  0.00     0.010 A 
ATOM     43  H   UNL A   1      34.965  35.416  35.193  1.00  0.00     0.166 HD
ATOM     44  C   UNL A   1      34.031  37.124  33.157  1.00  0.00     0.026 A 
ATOM     45  C   UNL A   1      33.108  36.702  30.962  1.00  0.00     0.001 A 
ATOM     46  C   UNL A   1      33.425  37.583  31.992  1.00  0.00     0.002 A 
ENDBRANCH  36  37
ENDBRANCH   5  36
ENDBRANCH   1   5
BRANCH   3  47
ATOM     47  C   UNL A   1      37.484  29.918  32.444  1.00  0.00     0.117 C 
BRANCH  47  48
ATOM     48  C   UNL A   1      38.593  28.920  32.752  1.00  0.00     0.042 C 
BRANCH  48  49
ATOM     49  C   UNL A   1      39.321  28.398  31.512  1.00  0.00     0.118 C 
BRANCH  49  50
ATOM     50  N   UNL A   1      38.415  28.242  30.380  1.00  0.00    -0.352 N 
ATOM     51  C   UNL A   1      38.405  28.934  29.182  1.00  0.00     0.251 C 
ATOM     52  H   UNL A   1      37.717  27.555  30.482  1.00  0.00     0.163 HD
ATOM     53  O   UNL A   1      37.436  29.018  28.454  1.00  0.00    -0.269 OA
BRANCH  51  54
ATOM     54  C   UNL A   1      39.707  29.462  28.743  1.00  0.00     0.039 A 
ATOM     55  C   UNL A   1      40.305  28.834  27.643  1.00  0.00     0.014 A 
ATOM     56  C   UNL A   1      40.413  30.331  29.566  1.00  0.00     0.014 A 
ATOM     57  C   UNL A   1      41.679  28.927  27.477  1.00  0.00     0.010 A 
ATOM     58  C   UNL A   1      41.783  30.371  29.436  1.00  0.00     0.010 A 
ATOM     59  C   UNL A   1      42.413  29.617  28.437  1.00  0.00    -0.014 A 
BRANCH  59  60
ATOM     60  C   UNL A   1      43.861  29.562  28.524  1.00  0.00     0.031 A 
ATOM     61  C   UNL A   1      44.656  30.613  27.869  1.00  0.00     0.074 A 
ATOM     62  C   UNL A   1      44.440  28.590  29.260  1.00  0.00     0.049 A 
ATOM     63  N   UNL A   1      45.879  30.469  27.496  1.00  0.00    -0.248 NA
ATOM     64  C   UNL A   1      44.095  31.917  27.528  1.00  0.00     0.031 C 
ATOM     65  C   UNL A   1      45.831  28.493  29.689  1.00  0.00     0.029 A 
ATOM     66  N   UNL A   1      43.893  27.357  29.598  1.00  0.00    -0.354 N 
ATOM     67  C   UNL A   1      46.347  31.714  27.143  1.00  0.00     0.074 A 
ATOM     68  C   UNL A   1      45.179  32.562  27.093  1.00  0.00     0.031 C 
ATOM     69  C   UNL A   1      46.097  27.215  30.013  1.00  0.00     0.029 A 
ATOM     70  C   UNL A   1      44.932  26.420  29.649  1.00  0.00     0.049 A 
ATOM     71  H   UNL A   1      42.941  27.175  29.770  1.00  0.00     0.167 HD
ATOM     72  C   UNL A   1      47.690  31.925  27.083  1.00  0.00     0.031 A 
ATOM     73  C   UNL A   1      44.962  25.381  28.762  1.00  0.00     0.031 A 
ATOM     74  C   UNL A   1      48.426  30.685  27.322  1.00  0.00     0.049 A 
ATOM     75  C   UNL A   1      46.132  25.453  27.803  1.00  0.00     0.074 A 
ATOM     76  C   UNL A   1      49.014  30.154  28.458  1.00  0.00     0.029 A 
ATOM     77  N   UNL A   1      48.314  29.643  26.409  1.00  0.00    -0.354 N 
ATOM     78  N   UNL A   1      46.806  26.540  27.540  1.00  0.00    -0.248 NA
ATOM     79  C   UNL A   1      46.643  24.295  27.075  1.00  0.00     0.031 C 
ATOM     80  C   UNL A   1      49.172  28.758  28.253  1.00  0.00     0.029 A 
ATOM     81  C   UNL A   1      48.717  28.451  26.982  1.00  0.00     0.049 A 
ATOM     82  H   UNL A   1      47.992  29.741  25.483  1.00  0.00     0.167 HD
ATOM     83  C   UNL A   1      47.817  26.258  26.655  1.00  0.00     0.074 A 
ATOM     84  C   UNL A   1      47.674  24.835  26.400  1.00  0.00     0.031 C 
ATOM     85  C   UNL A   1      48.690  27.213  26.212  1.00  0.00     0.031 A 
BRANCH  72  86
ATOM     86  C   UNL A   1      48.313  33.301  27.132  1.00  0.00    -0.014 A 
ATOM     87  C   UNL A   1      48.145  34.171  26.036  1.00  0.00     0.010 A 
ATOM     88  C   UNL A   1      49.117  33.776  28.187  1.00  0.00     0.010 A 
ATOM     89  C   UNL A   1      48.812  35.401  25.952  1.00  0.00     0.020 A 
ATOM     90  C   UNL A   1      49.820  34.989  28.102  1.00  0.00     0.020 A 
ATOM     91  C   UNL A   1      49.668  35.793  26.977  1.00  0.00     0.054 A 
BRANCH  91  92
ATOM     92  S   UNL A   1      50.564  37.359  26.823  1.00  0.00     0.124 S 
ATOM     93  O   UNL A   1      49.510  38.289  26.423  1.00  0.00    -0.237 OA
ATOM     94  O   UNL A   1      51.096  37.549  28.170  1.00  0.00    -0.237 OA
ATOM     95  O   UNL A   1      51.566  37.086  25.794  1.00  0.00    -0.744 OA
ENDBRANCH  91  92
ENDBRANCH  72  86
BRANCH  73  96
ATOM     96  C   UNL A   1      43.610  24.830  28.436  1.00  0.00    -0.014 A 
ATOM     97  C   UNL A   1      43.185  24.883  27.090  1.00  0.00     0.010 A 
ATOM     98  C   UNL A   1      42.964  23.938  29.309  1.00  0.00     0.010 A 
ATOM     99  C   UNL A   1      42.246  23.970  26.596  1.00  0.00     0.020 A 
ATOM    100  C   UNL A   1      42.018  23.023  28.815  1.00  0.00     0.020 A 
ATOM    101  C   UNL A   1      41.708  23.011  27.453  1.00  0.00     0.054 A 
BRANCH 101 102
ATOM    102  S   UNL A   1      40.751  21.645  26.723  1.00  0.00     0.124 S 
ATOM    103  O   UNL A   1      40.801  20.635  27.773  1.00  0.00    -0.237 OA
ATOM    104  O   UNL A   1      39.439  22.257  26.500  1.00  0.00    -0.237 OA
ATOM    105  O   UNL A   1      41.487  21.328  25.503  1.00  0.00    -0.744 OA
ENDBRANCH 101 102
ENDBRANCH  73  96
BRANCH  85 106
ATOM    106  C   UNL A   1      49.679  27.070  25.073  1.00  0.00    -0.014 A 
ATOM    107  C   UNL A   1      49.364  27.242  23.717  1.00  0.00     0.010 A 
ATOM    108  C   UNL A   1      51.049  26.865  25.380  1.00  0.00     0.010 A 
ATOM    109  C   UNL A   1      50.347  27.149  22.719  1.00  0.00     0.020 A 
ATOM    110  C   UNL A   1      52.046  26.828  24.401  1.00  0.00     0.020 A 
ATOM    111  C   UNL A   1      51.681  26.942  23.068  1.00  0.00     0.054 A 
BRANCH 111 112
ATOM    112  S   UNL A   1      52.941  26.885  21.771  1.00  0.00     0.124 S 
ATOM    113  O   UNL A   1      52.310  26.020  20.778  1.00  0.00    -0.237 OA
ATOM    114  O   UNL A   1      53.072  28.289  21.386  1.00  0.00    -0.237 OA
ATOM    115  O   UNL A   1      54.106  26.320  22.447  1.00  0.00    -0.744 OA
ENDBRANCH 111 112
ENDBRANCH  85 106
ENDBRANCH  59  60
ENDBRANCH  51  54
ENDBRANCH  49  50
ENDBRANCH  48  49
ENDBRANCH  47  48
ENDBRANCH   3  47
TORSDOF 22
ENDMDL
MODEL 2
REMARK VINA RESULT:     -12.9      2.727      6.902
REMARK SMILES Cc1ccc(S(=O)(=O)n2cc(C(=O)C(=O)NCC(=O)N[C@H](Cc3c[nH]c4ccccc34)C(=O)NCCCNC(=O)c3ccc(-c4c5nc(c(-c6ccc(S(=O)(=O)[O-])cc6)c6ccc([nH]6)c(-c6ccc(S(=O)(=O)[O-])cc6)c6nc(c(-c7ccc(S(=O)(=O)[O-])cc7)c7ccc4[nH]7)C=C6)C=C5)cc3)c3ccccc32)cc1
REMARK SMILES IDX 32 1 33 2 34 3 21 5 20 6 18 7 19 8 17 10 16 11 14 12 15 13
REMARK SMILES IDX 12 15 13 16 11 17 9 18 10 19 106 20 101 21 105 22 102 23
REMARK SMILES IDX 104 24 103 25 6 26 7 27 8 28 5 29 1 30 2 31 3 32 108 33 4 34
REMARK SMILES IDX 107 35 22 36 23 37 24 38 31 39 25 40 26 41 30 42 27 44 29 45
REMARK SMILES IDX 28 46 35 47 36 48 37 49 38 50 39 51 40 53 41 54 42 55 100 56
REMARK SMILES IDX 43 57 99 58 44 59 45 60 46 61 93 62 47 63 98 64 92 65 94 66
REMARK SMILES IDX 48 67 97 68 91 69 90 70 49 72 79 73 60 74 78 75 61 76 64 77
REMARK SMILES IDX 77 78 95 79 62 80 63 81 76 83 96 84 65 85 50 86 51 87 59 88
REMARK SMILES IDX 52 89 58 90 53 91 54 92 55 93 56 94 57 95 80 96 81 97 89 98
REMARK SMILES IDX 82 99 88 100 83 101 84 102 85 103 86 104 87 105 66 106
REMARK SMILES IDX 67 107 75 108 68 109 74 110 69 111 70 112 71 113 72 114
REMARK SMILES IDX 73 115
REMARK H PARENT 34 4 20 9 16 14 25 43 38 52 94 71 64 82
REMARK Flexibility Score: inf
ROOT
ATOM      1  C   UNL A   1      37.570  32.542  31.519  1.00  0.00     0.242 C 
ATOM      2  O   UNL A   1      38.259  33.459  31.052  1.00  0.00    -0.273 OA
ATOM      3  N   UNL A   1      38.091  31.892  32.593  1.00  0.00    -0.354 N 
ATOM      4  H   UNL A   1      38.968  32.247  32.865  1.00  0.00     0.163 HD
ENDROOT
BRANCH   1   5
ATOM      5  C   UNL A   1      36.253  32.174  30.815  1.00  0.00     0.175 C 
BRANCH   5   6
ATOM      6  N   UNL A   1      36.207  32.859  29.520  1.00  0.00    -0.342 N 
ATOM      7  C   UNL A   1      35.630  32.431  28.357  1.00  0.00     0.240 C 
ATOM      8  O   UNL A   1      35.789  33.140  27.359  1.00  0.00    -0.273 OA
ATOM      9  H   UNL A   1      36.650  33.737  29.483  1.00  0.00     0.164 HD
BRANCH   7  10
ATOM     10  C   UNL A   1      34.641  31.239  28.326  1.00  0.00     0.216 C 
BRANCH  10  11
ATOM     11  N   UNL A   1      33.392  31.376  27.576  1.00  0.00    -0.340 N 
ATOM     12  C   UNL A   1      32.776  30.463  26.729  1.00  0.00     0.292 C 
ATOM     13  O   UNL A   1      31.662  30.659  26.258  1.00  0.00    -0.265 OA
ATOM     14  H   UNL A   1      32.924  32.234  27.687  1.00  0.00     0.164 HD
BRANCH  12  15
ATOM     15  C   UNL A   1      33.477  29.145  26.418  1.00  0.00     0.252 C 
ATOM     16  O   UNL A   1      34.707  29.196  26.373  1.00  0.00    -0.283 OA
BRANCH  15  17
ATOM     17  C   UNL A   1      32.740  27.931  26.024  1.00  0.00     0.054 A 
ATOM     18  N   UNL A   1      31.451  26.065  25.876  1.00  0.00    -0.240 N 
ATOM     19  C   UNL A   1      31.944  27.037  26.755  1.00  0.00     0.117 A 
ATOM     20  C   UNL A   1      31.749  26.511  24.571  1.00  0.00     0.065 A 
ATOM     21  C   UNL A   1      32.826  27.379  24.710  1.00  0.00     0.012 A 
ATOM     22  C   UNL A   1      31.397  25.975  23.316  1.00  0.00     0.028 A 
ATOM     23  C   UNL A   1      33.696  27.560  23.613  1.00  0.00     0.011 A 
ATOM     24  C   UNL A   1      32.324  26.085  22.280  1.00  0.00     0.002 A 
ATOM     25  C   UNL A   1      33.481  26.835  22.439  1.00  0.00     0.001 A 
BRANCH  18  26
ATOM     26  S   UNL A   1      31.710  24.330  25.988  1.00  0.00     0.268 S 
ATOM     27  O   UNL A   1      30.555  23.785  25.289  1.00  0.00    -0.201 OA
ATOM     28  O   UNL A   1      31.856  24.149  27.429  1.00  0.00    -0.201 OA
BRANCH  26  29
ATOM     29  C   UNL A   1      33.065  23.370  25.421  1.00  0.00     0.088 A 
ATOM     30  C   UNL A   1      36.655  20.966  25.167  1.00  0.00     0.044 C 
ATOM     31  C   UNL A   1      35.382  21.764  25.200  1.00  0.00    -0.051 A 
ATOM     32  C   UNL A   1      34.689  21.796  26.400  1.00  0.00     0.005 A 
ATOM     33  C   UNL A   1      34.892  22.519  24.109  1.00  0.00     0.005 A 
ATOM     34  C   UNL A   1      33.549  22.571  26.494  1.00  0.00     0.022 A 
ATOM     35  C   UNL A   1      33.731  23.335  24.210  1.00  0.00     0.022 A 
ENDBRANCH  26  29
ENDBRANCH  18  26
ENDBRANCH  15  17
ENDBRANCH  12  15
ENDBRANCH  10  11
ENDBRANCH   7  10
ENDBRANCH   5   6
BRANCH   5  36
ATOM     36  C   UNL A   1      34.930  32.304  31.620  1.00  0.00     0.072 C 
BRANCH  36  37
ATOM     37  C   UNL A   1      34.671  33.481  32.533  1.00  0.00    -0.020 A 
ATOM     38  C   UNL A   1      34.907  33.607  33.887  1.00  0.00     0.087 A 
ATOM     39  C   UNL A   1      34.120  34.763  32.133  1.00  0.00     0.003 A 
ATOM     40  N   UNL A   1      34.713  34.901  34.264  1.00  0.00    -0.361 N 
ATOM     41  C   UNL A   1      34.263  35.640  33.210  1.00  0.00     0.046 A 
ATOM     42  C   UNL A   1      33.534  35.278  30.957  1.00  0.00     0.010 A 
ATOM     43  H   UNL A   1      34.872  35.252  35.170  1.00  0.00     0.166 HD
ATOM     44  C   UNL A   1      33.962  37.001  33.158  1.00  0.00     0.026 A 
ATOM     45  C   UNL A   1      33.148  36.630  30.911  1.00  0.00     0.001 A 
ATOM     46  C   UNL A   1      33.388  37.483  31.986  1.00  0.00     0.002 A 
ENDBRANCH  36  37
ENDBRANCH   5  36
ENDBRANCH   1   5
BRANCH   3  47
ATOM     47  C   UNL A   1      37.641  30.788  33.432  1.00  0.00     0.117 C 
BRANCH  47  48
ATOM     48  C   UNL A   1      38.392  30.645  34.750  1.00  0.00     0.042 C 
BRANCH  48  49
ATOM     49  C   UNL A   1      39.911  30.561  34.593  1.00  0.00     0.118 C 
BRANCH  49  50
ATOM     50  N   UNL A   1      40.408  29.218  34.873  1.00  0.00    -0.352 N 
ATOM     51  C   UNL A   1      40.827  28.250  33.978  1.00  0.00     0.251 C 
ATOM     52  H   UNL A   1      40.450  28.967  35.824  1.00  0.00     0.163 HD
ATOM     53  O   UNL A   1      40.878  27.064  34.234  1.00  0.00    -0.269 OA
BRANCH  51  54
ATOM     54  C   UNL A   1      41.366  28.754  32.703  1.00  0.00     0.039 A 
ATOM     55  C   UNL A   1      40.553  28.610  31.572  1.00  0.00     0.014 A 
ATOM     56  C   UNL A   1      42.715  29.076  32.604  1.00  0.00     0.014 A 
ATOM     57  C   UNL A   1      41.141  28.598  30.316  1.00  0.00     0.010 A 
ATOM     58  C   UNL A   1      43.304  29.001  31.361  1.00  0.00     0.010 A 
ATOM     59  C   UNL A   1      42.527  28.696  30.236  1.00  0.00    -0.014 A 
BRANCH  59  60
ATOM     60  C   UNL A   1      43.276  28.431  29.021  1.00  0.00     0.031 A 
ATOM     61  C   UNL A   1      43.708  27.053  28.736  1.00  0.00     0.074 A 
ATOM     62  C   UNL A   1      43.497  29.438  28.150  1.00  0.00     0.049 A 
ATOM     63  N   UNL A   1      44.701  26.748  27.977  1.00  0.00    -0.248 NA
ATOM     64  C   UNL A   1      43.067  25.892  29.347  1.00  0.00     0.031 C 
ATOM     65  C   UNL A   1      43.988  29.352  26.780  1.00  0.00     0.029 A 
ATOM     66  N   UNL A   1      43.506  30.800  28.430  1.00  0.00    -0.354 N 
ATOM     67  C   UNL A   1      44.654  25.389  27.770  1.00  0.00     0.074 A 
ATOM     68  C   UNL A   1      43.680  24.891  28.712  1.00  0.00     0.031 C 
ATOM     69  C   UNL A   1      44.469  30.554  26.415  1.00  0.00     0.029 A 
ATOM     70  C   UNL A   1      44.449  31.409  27.594  1.00  0.00     0.049 A 
ATOM     71  H   UNL A   1      42.948  31.256  29.100  1.00  0.00     0.167 HD
ATOM     72  C   UNL A   1      45.332  24.855  26.717  1.00  0.00     0.031 A 
ATOM     73  C   UNL A   1      45.559  32.000  28.129  1.00  0.00     0.031 A 
ATOM     74  C   UNL A   1      46.111  25.878  26.024  1.00  0.00     0.049 A 
ATOM     75  C   UNL A   1      46.847  31.295  27.753  1.00  0.00     0.074 A 
ATOM     76  C   UNL A   1      45.857  26.638  24.894  1.00  0.00     0.029 A 
ATOM     77  N   UNL A   1      47.164  26.496  26.688  1.00  0.00    -0.354 N 
ATOM     78  N   UNL A   1      46.917  30.061  27.331  1.00  0.00    -0.248 NA
ATOM     79  C   UNL A   1      48.157  31.936  27.810  1.00  0.00     0.031 C 
ATOM     80  C   UNL A   1      46.708  27.774  24.933  1.00  0.00     0.029 A 
ATOM     81  C   UNL A   1      47.503  27.681  26.062  1.00  0.00     0.049 A 
ATOM     82  H   UNL A   1      47.606  26.139  27.492  1.00  0.00     0.167 HD
ATOM     83  C   UNL A   1      48.222  29.739  27.051  1.00  0.00     0.074 A 
ATOM     84  C   UNL A   1      48.958  30.952  27.363  1.00  0.00     0.031 C 
ATOM     85  C   UNL A   1      48.588  28.508  26.580  1.00  0.00     0.031 A 
BRANCH  72  86
ATOM     86  C   UNL A   1      45.024  23.492  26.142  1.00  0.00    -0.014 A 
ATOM     87  C   UNL A   1      43.684  23.056  26.087  1.00  0.00     0.010 A 
ATOM     88  C   UNL A   1      45.996  22.574  25.700  1.00  0.00     0.010 A 
ATOM     89  C   UNL A   1      43.340  21.752  25.702  1.00  0.00     0.020 A 
ATOM     90  C   UNL A   1      45.671  21.254  25.347  1.00  0.00     0.020 A 
ATOM     91  C   UNL A   1      44.341  20.848  25.357  1.00  0.00     0.054 A 
BRANCH  91  92
ATOM     92  S   UNL A   1      43.879  19.153  24.919  1.00  0.00     0.124 S 
ATOM     93  O   UNL A   1      44.702  18.357  25.826  1.00  0.00    -0.237 OA
ATOM     94  O   UNL A   1      42.445  19.139  25.191  1.00  0.00    -0.237 OA
ATOM     95  O   UNL A   1      44.243  19.048  23.507  1.00  0.00    -0.744 OA
ENDBRANCH  91  92
ENDBRANCH  72  86
BRANCH  73  96
ATOM     96  C   UNL A   1      45.303  32.695  29.427  1.00  0.00    -0.014 A 
ATOM     97  C   UNL A   1      44.480  33.843  29.408  1.00  0.00     0.010 A 
ATOM     98  C   UNL A   1      45.507  32.037  30.651  1.00  0.00     0.010 A 
ATOM     99  C   UNL A   1      43.765  34.235  30.546  1.00  0.00     0.020 A 
ATOM    100  C   UNL A   1      44.793  32.430  31.797  1.00  0.00     0.020 A 
ATOM    101  C   UNL A   1      43.887  33.492  31.720  1.00  0.00     0.054 A 
BRANCH 101 102
ATOM    102  S   UNL A   1      42.712  33.820  33.071  1.00  0.00     0.124 S 
ATOM    103  O   UNL A   1      43.069  32.798  34.048  1.00  0.00    -0.237 OA
ATOM    104  O   UNL A   1      43.038  35.196  33.451  1.00  0.00    -0.237 OA
ATOM    105  O   UNL A   1      41.409  33.660  32.434  1.00  0.00    -0.744 OA
ENDBRANCH 101 102
ENDBRANCH  73  96
BRANCH  85 106
ATOM    106  C   UNL A   1      50.000  27.971  26.464  1.00  0.00    -0.014 A 
ATOM    107  C   UNL A   1      50.751  27.464  27.534  1.00  0.00     0.010 A 
ATOM    108  C   UNL A   1      50.582  27.854  25.174  1.00  0.00     0.010 A 
ATOM    109  C   UNL A   1      52.035  26.930  27.340  1.00  0.00     0.020 A 
ATOM    110  C   UNL A   1      51.835  27.274  24.961  1.00  0.00     0.020 A 
ATOM    111  C   UNL A   1      52.568  26.840  26.055  1.00  0.00     0.054 A 
BRANCH 111 112
ATOM    112  S   UNL A   1      54.200  26.095  25.819  1.00  0.00     0.124 S 
ATOM    113  O   UNL A   1      55.051  27.275  25.685  1.00  0.00    -0.237 OA
ATOM    114  O   UNL A   1      54.384  25.326  27.048  1.00  0.00    -0.237 OA
ATOM    115  O   UNL A   1      54.042  25.293  24.609  1.00  0.00    -0.744 OA
ENDBRANCH 111 112
ENDBRANCH  85 106
ENDBRANCH  59  60
ENDBRANCH  51  54
ENDBRANCH  49  50
ENDBRANCH  48  49
ENDBRANCH  47  48
ENDBRANCH   3  47
TORSDOF 22
ENDMDL
MODEL 3
REMARK VINA RESULT:     -12.4      4.996      9.943
REMARK SMILES Cc1ccc(S(=O)(=O)n2cc(C(=O)C(=O)NCC(=O)N[C@H](Cc3c[nH]c4ccccc34)C(=O)NCCCNC(=O)c3ccc(-c4c5nc(c(-c6ccc(S(=O)(=O)[O-])cc6)c6ccc([nH]6)c(-c6ccc(S(=O)(=O)[O-])cc6)c6nc(c(-c7ccc(S(=O)(=O)[O-])cc7)c7ccc4[nH]7)C=C6)C=C5)cc3)c3ccccc32)cc1
REMARK SMILES IDX 32 1 33 2 34 3 21 5 20 6 18 7 19 8 17 10 16 11 14 12 15 13
REMARK SMILES IDX 12 15 13 16 11 17 9 18 10 19 106 20 101 21 105 22 102 23
REMARK SMILES IDX 104 24 103 25 6 26 7 27 8 28 5 29 1 30 2 31 3 32 108 33 4 34
REMARK SMILES IDX 107 35 22 36 23 37 24 38 31 39 25 40 26 41 30 42 27 44 29 45
REMARK SMILES IDX 28 46 35 47 36 48 37 49 38 50 39 51 40 53 41 54 42 55 100 56
REMARK SMILES IDX 43 57 99 58 44 59 45 60 46 61 93 62 47 63 98 64 92 65 94 66
REMARK SMILES IDX 48 67 97 68 91 69 90 70 49 72 79 73 60 74 78 75 61 76 64 77
REMARK SMILES IDX 77 78 95 79 62 80 63 81 76 83 96 84 65 85 50 86 51 87 59 88
REMARK SMILES IDX 52 89 58 90 53 91 54 92 55 93 56 94 57 95 80 96 81 97 89 98
REMARK SMILES IDX 82 99 88 100 83 101 84 102 85 103 86 104 87 105 66 106
REMARK SMILES IDX 67 107 75 108 68 109 74 110 69 111 70 112 71 113 72 114
REMARK SMILES IDX 73 115
REMARK H PARENT 34 4 20 9 16 14 25 43 38 52 94 71 64 82
REMARK Flexibility Score: inf
ROOT
ATOM      1  C   UNL A   1      37.864  30.420  28.589  1.00  0.00     0.242 C 
ATOM      2  O   UNL A   1      37.734  31.636  28.393  1.00  0.00    -0.273 OA
ATOM      3  N   UNL A   1      39.058  29.883  28.222  1.00  0.00    -0.354 N 
ATOM      4  H   UNL A   1      39.676  30.548  27.843  1.00  0.00     0.163 HD
ENDROOT
BRANCH   1   5
ATOM      5  C   UNL A   1      36.669  29.626  29.143  1.00  0.00     0.175 C 
BRANCH   5   6
ATOM      6  N   UNL A   1      35.446  30.401  28.912  1.00  0.00    -0.342 N 
ATOM      7  C   UNL A   1      34.600  30.346  27.840  1.00  0.00     0.240 C 
ATOM      8  O   UNL A   1      33.669  31.157  27.819  1.00  0.00    -0.273 OA
ATOM      9  H   UNL A   1      35.204  31.042  29.618  1.00  0.00     0.164 HD
BRANCH   7  10
ATOM     10  C   UNL A   1      34.661  29.191  26.809  1.00  0.00     0.216 C 
BRANCH  10  11
ATOM     11  N   UNL A   1      34.120  29.412  25.468  1.00  0.00    -0.340 N 
ATOM     12  C   UNL A   1      33.061  28.771  24.835  1.00  0.00     0.292 C 
ATOM     13  O   UNL A   1      32.630  29.140  23.749  1.00  0.00    -0.265 OA
ATOM     14  H   UNL A   1      34.568  30.110  24.940  1.00  0.00     0.164 HD
BRANCH  12  15
ATOM     15  C   UNL A   1      32.369  27.607  25.536  1.00  0.00     0.252 C 
ATOM     16  O   UNL A   1      31.313  27.884  26.108  1.00  0.00    -0.283 OA
BRANCH  15  17
ATOM     17  C   UNL A   1      32.996  26.280  25.673  1.00  0.00     0.054 A 
ATOM     18  N   UNL A   1      34.366  24.469  25.752  1.00  0.00    -0.240 N 
ATOM     19  C   UNL A   1      34.298  25.826  25.413  1.00  0.00     0.117 A 
ATOM     20  C   UNL A   1      33.177  24.165  26.447  1.00  0.00     0.065 A 
ATOM     21  C   UNL A   1      32.252  25.119  26.039  1.00  0.00     0.012 A 
ATOM     22  C   UNL A   1      32.771  22.981  27.097  1.00  0.00     0.028 A 
ATOM     23  C   UNL A   1      30.878  24.799  26.097  1.00  0.00     0.011 A 
ATOM     24  C   UNL A   1      31.419  22.645  27.048  1.00  0.00     0.002 A 
ATOM     25  C   UNL A   1      30.487  23.525  26.517  1.00  0.00     0.001 A 
BRANCH  18  26
ATOM     26  S   UNL A   1      34.784  23.145  24.676  1.00  0.00     0.268 S 
ATOM     27  O   UNL A   1      36.058  22.684  25.209  1.00  0.00    -0.201 OA
ATOM     28  O   UNL A   1      34.721  23.797  23.371  1.00  0.00    -0.201 OA
BRANCH  26  29
ATOM     29  C   UNL A   1      33.892  21.675  24.324  1.00  0.00     0.088 A 
ATOM     30  C   UNL A   1      32.743  17.565  23.607  1.00  0.00     0.044 C 
ATOM     31  C   UNL A   1      33.078  19.003  23.886  1.00  0.00    -0.051 A 
ATOM     32  C   UNL A   1      34.225  19.252  24.622  1.00  0.00     0.005 A 
ATOM     33  C   UNL A   1      32.331  20.099  23.395  1.00  0.00     0.005 A 
ATOM     34  C   UNL A   1      34.606  20.561  24.845  1.00  0.00     0.022 A 
ATOM     35  C   UNL A   1      32.734  21.448  23.604  1.00  0.00     0.022 A 
ENDBRANCH  26  29
ENDBRANCH  18  26
ENDBRANCH  15  17
ENDBRANCH  12  15
ENDBRANCH  10  11
ENDBRANCH   7  10
ENDBRANCH   5   6
BRANCH   5  36
ATOM     36  C   UNL A   1      36.770  29.062  30.586  1.00  0.00     0.072 C 
BRANCH  36  37
ATOM     37  C   UNL A   1      37.118  29.947  31.761  1.00  0.00    -0.020 A 
ATOM     38  C   UNL A   1      36.336  30.869  32.426  1.00  0.00     0.087 A 
ATOM     39  C   UNL A   1      38.393  29.977  32.454  1.00  0.00     0.003 A 
ATOM     40  N   UNL A   1      36.983  31.292  33.547  1.00  0.00    -0.361 N 
ATOM     41  C   UNL A   1      38.229  30.742  33.611  1.00  0.00     0.046 A 
ATOM     42  C   UNL A   1      39.669  29.414  32.231  1.00  0.00     0.010 A 
ATOM     43  H   UNL A   1      36.606  31.909  34.214  1.00  0.00     0.166 HD
ATOM     44  C   UNL A   1      39.205  30.893  34.596  1.00  0.00     0.026 A 
ATOM     45  C   UNL A   1      40.692  29.622  33.174  1.00  0.00     0.001 A 
ATOM     46  C   UNL A   1      40.451  30.325  34.352  1.00  0.00     0.002 A 
ENDBRANCH  36  37
ENDBRANCH   5  36
ENDBRANCH   1   5
BRANCH   3  47
ATOM     47  C   UNL A   1      39.627  28.541  28.267  1.00  0.00     0.117 C 
BRANCH  47  48
ATOM     48  C   UNL A   1      40.407  28.141  27.021  1.00  0.00     0.042 C 
BRANCH  48  49
ATOM     49  C   UNL A   1      41.553  29.093  26.673  1.00  0.00     0.118 C 
BRANCH  49  50
ATOM     50  N   UNL A   1      42.698  28.379  26.120  1.00  0.00    -0.352 N 
ATOM     51  C   UNL A   1      44.042  28.570  26.384  1.00  0.00     0.251 C 
ATOM     52  H   UNL A   1      42.487  27.669  25.471  1.00  0.00     0.163 HD
ATOM     53  O   UNL A   1      44.938  28.213  25.645  1.00  0.00    -0.269 OA
BRANCH  51  54
ATOM     54  C   UNL A   1      44.357  29.114  27.716  1.00  0.00     0.039 A 
ATOM     55  C   UNL A   1      43.948  28.357  28.821  1.00  0.00     0.014 A 
ATOM     56  C   UNL A   1      44.767  30.436  27.841  1.00  0.00     0.014 A 
ATOM     57  C   UNL A   1      43.763  28.990  30.041  1.00  0.00     0.010 A 
ATOM     58  C   UNL A   1      44.524  31.075  29.037  1.00  0.00     0.010 A 
ATOM     59  C   UNL A   1      43.962  30.366  30.107  1.00  0.00    -0.014 A 
BRANCH  59  60
ATOM     60  C   UNL A   1      43.550  31.177  31.238  1.00  0.00     0.031 A 
ATOM     61  C   UNL A   1      42.322  31.981  31.129  1.00  0.00     0.074 A 
ATOM     62  C   UNL A   1      44.262  31.121  32.383  1.00  0.00     0.049 A 
ATOM     63  N   UNL A   1      42.080  33.031  31.832  1.00  0.00    -0.248 NA
ATOM     64  C   UNL A   1      41.277  31.681  30.155  1.00  0.00     0.031 C 
ATOM     65  C   UNL A   1      43.896  31.638  33.696  1.00  0.00     0.029 A 
ATOM     66  N   UNL A   1      45.594  30.745  32.523  1.00  0.00    -0.354 N 
ATOM     67  C   UNL A   1      40.763  33.369  31.620  1.00  0.00     0.074 A 
ATOM     68  C   UNL A   1      40.333  32.559  30.505  1.00  0.00     0.031 C 
ATOM     69  C   UNL A   1      45.011  31.769  34.437  1.00  0.00     0.029 A 
ATOM     70  C   UNL A   1      46.148  31.493  33.568  1.00  0.00     0.049 A 
ATOM     71  H   UNL A   1      46.064  30.072  31.982  1.00  0.00     0.167 HD
ATOM     72  C   UNL A   1      40.137  34.185  32.512  1.00  0.00     0.031 A 
ATOM     73  C   UNL A   1      47.151  32.386  33.315  1.00  0.00     0.031 A 
ATOM     74  C   UNL A   1      41.069  34.658  33.533  1.00  0.00     0.049 A 
ATOM     75  C   UNL A   1      46.741  33.825  33.555  1.00  0.00     0.074 A 
ATOM     76  C   UNL A   1      41.347  34.219  34.816  1.00  0.00     0.029 A 
ATOM     77  N   UNL A   1      42.121  35.486  33.160  1.00  0.00    -0.354 N 
ATOM     78  N   UNL A   1      45.504  34.243  33.593  1.00  0.00    -0.248 NA
ATOM     79  C   UNL A   1      47.698  34.902  33.786  1.00  0.00     0.031 C 
ATOM     80  C   UNL A   1      42.626  34.718  35.179  1.00  0.00     0.029 A 
ATOM     81  C   UNL A   1      43.102  35.490  34.134  1.00  0.00     0.049 A 
ATOM     82  H   UNL A   1      42.161  35.998  32.320  1.00  0.00     0.167 HD
ATOM     83  C   UNL A   1      45.478  35.590  33.857  1.00  0.00     0.074 A 
ATOM     84  C   UNL A   1      46.880  35.953  33.975  1.00  0.00     0.031 C 
ATOM     85  C   UNL A   1      44.309  36.292  33.965  1.00  0.00     0.031 A 
BRANCH  72  86
ATOM     86  C   UNL A   1      38.633  34.279  32.630  1.00  0.00    -0.014 A 
ATOM     87  C   UNL A   1      37.841  34.121  31.475  1.00  0.00     0.010 A 
ATOM     88  C   UNL A   1      37.943  34.578  33.821  1.00  0.00     0.010 A 
ATOM     89  C   UNL A   1      36.456  34.338  31.484  1.00  0.00     0.020 A 
ATOM     90  C   UNL A   1      36.562  34.834  33.840  1.00  0.00     0.020 A 
ATOM     91  C   UNL A   1      35.826  34.718  32.666  1.00  0.00     0.054 A 
BRANCH  91  92
ATOM     92  S   UNL A   1      34.046  35.050  32.644  1.00  0.00     0.124 S 
ATOM     93  O   UNL A   1      33.479  33.754  33.009  1.00  0.00    -0.237 OA
ATOM     94  O   UNL A   1      33.912  36.102  33.648  1.00  0.00    -0.237 OA
ATOM     95  O   UNL A   1      33.787  35.469  31.268  1.00  0.00    -0.744 OA
ENDBRANCH  91  92
ENDBRANCH  72  86
BRANCH  73  96
ATOM     96  C   UNL A   1      48.115  31.926  32.268  1.00  0.00    -0.014 A 
ATOM     97  C   UNL A   1      48.983  30.861  32.595  1.00  0.00     0.010 A 
ATOM     98  C   UNL A   1      47.907  32.230  30.912  1.00  0.00     0.010 A 
ATOM     99  C   UNL A   1      49.511  30.031  31.598  1.00  0.00     0.020 A 
ATOM    100  C   UNL A   1      48.439  31.400  29.909  1.00  0.00     0.020 A 
ATOM    101  C   UNL A   1      49.191  30.277  30.263  1.00  0.00     0.054 A 
BRANCH 101 102
ATOM    102  S   UNL A   1      49.614  29.007  29.030  1.00  0.00     0.124 S 
ATOM    103  O   UNL A   1      49.856  27.835  29.862  1.00  0.00    -0.237 OA
ATOM    104  O   UNL A   1      48.407  28.953  28.201  1.00  0.00    -0.237 OA
ATOM    105  O   UNL A   1      50.785  29.561  28.359  1.00  0.00    -0.744 OA
ENDBRANCH 101 102
ENDBRANCH  73  96
BRANCH  85 106
ATOM    106  C   UNL A   1      44.166  37.800  34.017  1.00  0.00    -0.014 A 
ATOM    107  C   UNL A   1      43.636  38.587  32.983  1.00  0.00     0.010 A 
ATOM    108  C   UNL A   1      44.471  38.474  35.228  1.00  0.00     0.010 A 
ATOM    109  C   UNL A   1      43.482  39.975  33.125  1.00  0.00     0.020 A 
ATOM    110  C   UNL A   1      44.269  39.845  35.401  1.00  0.00     0.020 A 
ATOM    111  C   UNL A   1      43.800  40.595  34.333  1.00  0.00     0.054 A 
BRANCH 111 112
ATOM    112  S   UNL A   1      43.538  42.375  34.515  1.00  0.00     0.124 S 
ATOM    113  O   UNL A   1      42.310  42.577  33.751  1.00  0.00    -0.237 OA
ATOM    114  O   UNL A   1      43.409  42.536  35.962  1.00  0.00    -0.237 OA
ATOM    115  O   UNL A   1      44.743  42.963  33.936  1.00  0.00    -0.744 OA
ENDBRANCH 111 112
ENDBRANCH  85 106
ENDBRANCH  59  60
ENDBRANCH  51  54
ENDBRANCH  49  50
ENDBRANCH  48  49
ENDBRANCH  47  48
ENDBRANCH   3  47
TORSDOF 22
ENDMDL
