MODEL 1
REMARK VINA RESULT:     -11.5      0.000      0.000
REMARK SMILES CC(C)(C)[N@@H+](CCC(=O)NCCCNC(=O)c1ccc(-c2c3nc(c(-c4ccc(S(=O)(=O)[O-])cc4)c4ccc([nH]4)c(-c4ccc(S(=O)(=O)[O-])cc4)c4nc(c(-c5ccc(S(=O)(=O)[O-])cc5)c5ccc2[nH]5)C=C4)C=C3)cc1)Cc1ccccc1C1CC1
REMARK SMILES IDX 11 1 10 2 8 3 9 4 7 6 6 7 5 8 2 10 1 11 3 12 4 13 77 14
REMARK SMILES IDX 78 15 79 16 83 17 80 18 82 19 81 20 84 21 85 22 86 23 12 24
REMARK SMILES IDX 13 25 14 26 15 27 16 29 17 30 18 31 76 32 19 33 75 34 20 35
REMARK SMILES IDX 21 36 22 37 69 38 23 39 74 40 68 41 70 42 24 43 73 44 67 45
REMARK SMILES IDX 66 46 25 48 55 49 36 50 54 51 37 52 40 53 53 54 71 55 38 56
REMARK SMILES IDX 39 57 52 59 72 60 41 61 26 62 27 63 35 64 28 65 34 66 29 67
REMARK SMILES IDX 30 68 31 69 32 70 33 71 56 72 57 73 65 74 58 75 64 76 59 77
REMARK SMILES IDX 60 78 61 79 62 80 63 81 42 82 43 83 51 84 44 85 50 86 45 87
REMARK SMILES IDX 46 88 47 89 48 90 49 91
REMARK H PARENT 10 5 5 9 14 28 70 47 40 58
REMARK Flexibility Score: inf
ROOT
ATOM      1  C   UNL A   1      31.843  29.809  25.798  1.00  0.00     0.117 C 
ENDROOT
BRANCH   1   2
ATOM      2  N   UNL A   1      31.176  29.414  24.327  1.00  0.00    -0.356 N 
ATOM      3  C   UNL A   1      31.063  27.974  23.018  1.00  0.00     0.225 C 
ATOM      4  O   UNL A   1      30.326  27.872  21.970  1.00  0.00    -0.275 OA
ATOM      5  H   UNL A   1      30.652  30.179  24.001  1.00  0.00     0.163 HD
BRANCH   3   6
ATOM      6  C   UNL A   1      31.967  26.410  22.968  1.00  0.00     0.161 C 
BRANCH   6   7
ATOM      7  C   UNL A   1      31.566  24.903  23.284  1.00  0.00     0.272 C 
BRANCH   7   8
ATOM      8  N   UNL A   1      32.116  24.171  24.460  1.00  0.00    -0.327 N 
ATOM      9  H   UNL A   1      32.043  23.182  24.222  1.00  0.00     0.348 HD
BRANCH   8  10
ATOM     10  C   UNL A   1      31.374  24.056  25.738  1.00  0.00     0.089 C 
ATOM     11  C   UNL A   1      32.253  24.332  26.975  1.00  0.00     0.078 C 
ATOM     12  C   UNL A   1      30.840  22.645  25.919  1.00  0.00     0.078 C 
ATOM     13  C   UNL A   1      30.245  25.141  25.883  1.00  0.00     0.078 C 
ENDBRANCH   8  10
BRANCH   8  14
ATOM     14  C   UNL A   1      33.446  24.690  24.622  1.00  0.00     0.299 C 
BRANCH  14  15
ATOM     15  C   UNL A   1      34.459  23.585  24.791  1.00  0.00     0.010 A 
ATOM     16  C   UNL A   1      35.998  24.408  25.417  1.00  0.00     0.010 A 
ATOM     17  C   UNL A   1      34.420  21.710  24.613  1.00  0.00    -0.036 A 
ATOM     18  C   UNL A   1      37.471  23.442  25.803  1.00  0.00     0.001 A 
ATOM     19  C   UNL A   1      35.961  20.807  25.069  1.00  0.00     0.004 A 
ATOM     20  C   UNL A   1      37.459  21.641  25.623  1.00  0.00     0.000 A 
BRANCH  17  21
ATOM     21  C   UNL A   1      33.538  20.565  23.936  1.00  0.00     0.020 C 
ATOM     22  C   UNL A   1      32.291  19.731  24.065  1.00  0.00     0.009 C 
ATOM     23  C   UNL A   1      32.268  20.910  23.165  1.00  0.00     0.009 C 
ENDBRANCH  17  21
ENDBRANCH  14  15
ENDBRANCH   8  14
ENDBRANCH   7   8
ENDBRANCH   6   7
ENDBRANCH   3   6
ENDBRANCH   1   2
BRANCH   1  24
ATOM     24  C   UNL A   1      32.247  28.620  26.657  1.00  0.00     0.042 C 
BRANCH  24  25
ATOM     25  C   UNL A   1      33.462  28.941  27.482  1.00  0.00     0.118 C 
BRANCH  25  26
ATOM     26  N   UNL A   1      33.573  30.384  27.630  1.00  0.00    -0.352 N 
ATOM     27  C   UNL A   1      34.483  31.060  28.414  1.00  0.00     0.251 C 
ATOM     28  H   UNL A   1      32.935  30.932  27.120  1.00  0.00     0.163 HD
ATOM     29  O   UNL A   1      34.173  32.135  28.918  1.00  0.00    -0.269 OA
BRANCH  27  30
ATOM     30  C   UNL A   1      35.819  30.464  28.650  1.00  0.00     0.039 A 
ATOM     31  C   UNL A   1      36.146  29.907  29.888  1.00  0.00     0.014 A 
ATOM     32  C   UNL A   1      36.777  30.505  27.638  1.00  0.00     0.014 A 
ATOM     33  C   UNL A   1      37.438  29.410  30.099  1.00  0.00     0.010 A 
ATOM     34  C   UNL A   1      37.980  29.844  27.782  1.00  0.00     0.010 A 
ATOM     35  C   UNL A   1      38.362  29.376  29.042  1.00  0.00    -0.014 A 
BRANCH  35  36
ATOM     36  C   UNL A   1      39.786  29.003  29.217  1.00  0.00     0.031 A 
ATOM     37  C   UNL A   1      40.757  30.054  29.707  1.00  0.00     0.074 A 
ATOM     38  C   UNL A   1      40.220  27.784  28.851  1.00  0.00     0.049 A 
ATOM     39  N   UNL A   1      42.062  30.010  29.770  1.00  0.00    -0.248 NA
ATOM     40  C   UNL A   1      40.186  31.348  30.125  1.00  0.00     0.031 C 
ATOM     41  C   UNL A   1      39.382  26.704  28.330  1.00  0.00     0.029 A 
ATOM     42  N   UNL A   1      41.485  27.257  28.850  1.00  0.00    -0.354 N 
ATOM     43  C   UNL A   1      42.460  31.278  30.187  1.00  0.00     0.074 A 
ATOM     44  C   UNL A   1      41.271  32.090  30.277  1.00  0.00     0.031 C 
ATOM     45  C   UNL A   1      40.151  25.630  28.089  1.00  0.00     0.029 A 
ATOM     46  C   UNL A   1      41.541  25.966  28.383  1.00  0.00     0.049 A 
ATOM     47  H   UNL A   1      42.278  27.756  29.154  1.00  0.00     0.167 HD
ATOM     48  C   UNL A   1      43.699  31.719  30.501  1.00  0.00     0.031 A 
ATOM     49  C   UNL A   1      42.599  25.153  28.199  1.00  0.00     0.031 A 
ATOM     50  C   UNL A   1      44.869  30.888  30.437  1.00  0.00     0.049 A 
ATOM     51  C   UNL A   1      43.971  25.658  28.551  1.00  0.00     0.074 A 
ATOM     52  C   UNL A   1      46.167  31.200  30.794  1.00  0.00     0.029 A 
ATOM     53  N   UNL A   1      44.877  29.575  29.988  1.00  0.00    -0.354 N 
ATOM     54  N   UNL A   1      44.324  26.840  29.000  1.00  0.00    -0.248 NA
ATOM     55  C   UNL A   1      45.084  24.716  28.385  1.00  0.00     0.031 C 
ATOM     56  C   UNL A   1      46.973  30.098  30.494  1.00  0.00     0.029 A 
ATOM     57  C   UNL A   1      46.163  29.070  30.032  1.00  0.00     0.049 A 
ATOM     58  H   UNL A   1      44.084  29.077  29.684  1.00  0.00     0.167 HD
ATOM     59  C   UNL A   1      45.698  26.772  29.206  1.00  0.00     0.074 A 
ATOM     60  C   UNL A   1      46.107  25.430  28.839  1.00  0.00     0.031 C 
ATOM     61  C   UNL A   1      46.543  27.729  29.664  1.00  0.00     0.031 A 
BRANCH  48  62
ATOM     62  C   UNL A   1      43.843  33.160  30.928  1.00  0.00    -0.014 A 
ATOM     63  C   UNL A   1      43.966  34.199  29.985  1.00  0.00     0.010 A 
ATOM     64  C   UNL A   1      43.851  33.483  32.297  1.00  0.00     0.010 A 
ATOM     65  C   UNL A   1      44.159  35.519  30.402  1.00  0.00     0.020 A 
ATOM     66  C   UNL A   1      44.001  34.808  32.719  1.00  0.00     0.020 A 
ATOM     67  C   UNL A   1      44.179  35.814  31.768  1.00  0.00     0.054 A 
BRANCH  67  68
ATOM     68  S   UNL A   1      44.426  37.537  32.278  1.00  0.00     0.124 S 
ATOM     69  O   UNL A   1      44.337  38.244  31.003  1.00  0.00    -0.237 OA
ATOM     70  O   UNL A   1      43.314  37.758  33.198  1.00  0.00    -0.237 OA
ATOM     71  O   UNL A   1      45.751  37.529  32.895  1.00  0.00    -0.744 OA
ENDBRANCH  67  68
ENDBRANCH  48  62
BRANCH  49  72
ATOM     72  C   UNL A   1      42.383  23.774  27.681  1.00  0.00    -0.014 A 
ATOM     73  C   UNL A   1      42.329  23.532  26.297  1.00  0.00     0.010 A 
ATOM     74  C   UNL A   1      42.281  22.686  28.568  1.00  0.00     0.010 A 
ATOM     75  C   UNL A   1      42.169  22.232  25.811  1.00  0.00     0.020 A 
ATOM     76  C   UNL A   1      42.154  21.381  28.086  1.00  0.00     0.020 A 
ATOM     77  C   UNL A   1      42.091  21.163  26.708  1.00  0.00     0.054 A 
BRANCH  77  78
ATOM     78  S   UNL A   1      41.959  19.478  26.049  1.00  0.00     0.124 S 
ATOM     79  O   UNL A   1      42.889  19.517  24.925  1.00  0.00    -0.237 OA
ATOM     80  O   UNL A   1      42.373  18.663  27.188  1.00  0.00    -0.237 OA
ATOM     81  O   UNL A   1      40.548  19.361  25.689  1.00  0.00    -0.744 OA
ENDBRANCH  77  78
ENDBRANCH  49  72
BRANCH  61  82
ATOM     82  C   UNL A   1      47.989  27.350  29.851  1.00  0.00    -0.014 A 
ATOM     83  C   UNL A   1      48.957  27.627  28.871  1.00  0.00     0.010 A 
ATOM     84  C   UNL A   1      48.392  26.777  31.073  1.00  0.00     0.010 A 
ATOM     85  C   UNL A   1      50.299  27.313  29.100  1.00  0.00     0.020 A 
ATOM     86  C   UNL A   1      49.736  26.496  31.319  1.00  0.00     0.020 A 
ATOM     87  C   UNL A   1      50.680  26.754  30.325  1.00  0.00     0.054 A 
BRANCH  87  88
ATOM     88  S   UNL A   1      52.436  26.414  30.617  1.00  0.00     0.124 S 
ATOM     89  O   UNL A   1      52.888  27.656  31.237  1.00  0.00    -0.237 OA
ATOM     90  O   UNL A   1      52.393  25.250  31.498  1.00  0.00    -0.237 OA
ATOM     91  O   UNL A   1      52.967  26.157  29.280  1.00  0.00    -0.744 OA
ENDBRANCH  87  88
ENDBRANCH  61  82
ENDBRANCH  35  36
ENDBRANCH  27  30
ENDBRANCH  25  26
ENDBRANCH  24  25
ENDBRANCH   1  24
TORSDOF 19
ENDMDL
MODEL 2
REMARK VINA RESULT:     -11.4      2.614      9.410
REMARK SMILES CC(C)(C)[N@@H+](CCC(=O)NCCCNC(=O)c1ccc(-c2c3nc(c(-c4ccc(S(=O)(=O)[O-])cc4)c4ccc([nH]4)c(-c4ccc(S(=O)(=O)[O-])cc4)c4nc(c(-c5ccc(S(=O)(=O)[O-])cc5)c5ccc2[nH]5)C=C4)C=C3)cc1)Cc1ccccc1C1CC1
REMARK SMILES IDX 11 1 10 2 8 3 9 4 7 6 6 7 5 8 2 10 1 11 3 12 4 13 77 14
REMARK SMILES IDX 78 15 79 16 83 17 80 18 82 19 81 20 84 21 85 22 86 23 12 24
REMARK SMILES IDX 13 25 14 26 15 27 16 29 17 30 18 31 76 32 19 33 75 34 20 35
REMARK SMILES IDX 21 36 22 37 69 38 23 39 74 40 68 41 70 42 24 43 73 44 67 45
REMARK SMILES IDX 66 46 25 48 55 49 36 50 54 51 37 52 40 53 53 54 71 55 38 56
REMARK SMILES IDX 39 57 52 59 72 60 41 61 26 62 27 63 35 64 28 65 34 66 29 67
REMARK SMILES IDX 30 68 31 69 32 70 33 71 56 72 57 73 65 74 58 75 64 76 59 77
REMARK SMILES IDX 60 78 61 79 62 80 63 81 42 82 43 83 51 84 44 85 50 86 45 87
REMARK SMILES IDX 46 88 47 89 48 90 49 91
REMARK H PARENT 10 5 5 9 14 28 70 47 40 58
REMARK Flexibility Score: inf
ROOT
ATOM      1  C   UNL A   1      34.943  22.376  24.862  1.00  0.00     0.117 C 
ENDROOT
BRANCH   1   2
ATOM      2  N   UNL A   1      34.636  22.795  23.282  1.00  0.00    -0.356 N 
ATOM      3  C   UNL A   1      33.329  23.689  22.146  1.00  0.00     0.225 C 
ATOM      4  O   UNL A   1      33.405  24.015  20.905  1.00  0.00    -0.275 OA
ATOM      5  H   UNL A   1      35.380  22.479  22.721  1.00  0.00     0.163 HD
BRANCH   3   6
ATOM      6  C   UNL A   1      31.680  24.294  22.570  1.00  0.00     0.161 C 
BRANCH   6   7
ATOM      7  C   UNL A   1      30.631  23.912  23.704  1.00  0.00     0.272 C 
BRANCH   7   8
ATOM      8  N   UNL A   1      30.893  24.188  25.145  1.00  0.00    -0.327 N 
ATOM      9  H   UNL A   1      31.851  24.536  25.185  1.00  0.00     0.348 HD
BRANCH   8  10
ATOM     10  C   UNL A   1      31.103  23.103  26.134  1.00  0.00     0.089 C 
ATOM     11  C   UNL A   1      29.841  22.787  26.962  1.00  0.00     0.078 C 
ATOM     12  C   UNL A   1      32.169  23.501  27.141  1.00  0.00     0.078 C 
ATOM     13  C   UNL A   1      31.413  21.719  25.457  1.00  0.00     0.078 C 
ENDBRANCH   8  10
BRANCH   8  14
ATOM     14  C   UNL A   1      29.864  25.114  25.530  1.00  0.00     0.299 C 
BRANCH  14  15
ATOM     15  C   UNL A   1      30.159  26.510  25.043  1.00  0.00     0.010 A 
ATOM     16  C   UNL A   1      28.770  26.943  23.893  1.00  0.00     0.010 A 
ATOM     17  C   UNL A   1      31.474  27.803  25.432  1.00  0.00    -0.036 A 
ATOM     18  C   UNL A   1      28.695  28.561  23.101  1.00  0.00     0.001 A 
ATOM     19  C   UNL A   1      31.289  29.440  24.606  1.00  0.00     0.004 A 
ATOM     20  C   UNL A   1      29.958  29.811  23.450  1.00  0.00     0.000 A 
BRANCH  17  21
ATOM     21  C   UNL A   1      32.923  27.910  26.090  1.00  0.00     0.020 C 
ATOM     22  C   UNL A   1      34.103  28.814  26.336  1.00  0.00     0.009 C 
ATOM     23  C   UNL A   1      33.123  28.609  27.431  1.00  0.00     0.009 C 
ENDBRANCH  17  21
ENDBRANCH  14  15
ENDBRANCH   8  14
ENDBRANCH   7   8
ENDBRANCH   6   7
ENDBRANCH   3   6
ENDBRANCH   1   2
BRANCH   1  24
ATOM     24  C   UNL A   1      35.797  23.370  25.633  1.00  0.00     0.042 C 
BRANCH  24  25
ATOM     25  C   UNL A   1      37.217  23.355  25.142  1.00  0.00     0.118 C 
BRANCH  25  26
ATOM     26  N   UNL A   1      37.997  22.440  25.960  1.00  0.00    -0.352 N 
ATOM     27  C   UNL A   1      39.206  22.710  26.567  1.00  0.00     0.251 C 
ATOM     28  H   UNL A   1      37.626  21.540  26.095  1.00  0.00     0.163 HD
ATOM     29  O   UNL A   1      40.023  21.808  26.724  1.00  0.00    -0.269 OA
BRANCH  27  30
ATOM     30  C   UNL A   1      39.503  24.095  27.003  1.00  0.00     0.039 A 
ATOM     31  C   UNL A   1      40.136  24.995  26.143  1.00  0.00     0.014 A 
ATOM     32  C   UNL A   1      39.193  24.486  28.304  1.00  0.00     0.014 A 
ATOM     33  C   UNL A   1      40.461  26.276  26.607  1.00  0.00     0.010 A 
ATOM     34  C   UNL A   1      39.338  25.801  28.695  1.00  0.00     0.010 A 
ATOM     35  C   UNL A   1      40.061  26.684  27.890  1.00  0.00    -0.014 A 
BRANCH  35  36
ATOM     36  C   UNL A   1      40.488  27.962  28.507  1.00  0.00     0.031 A 
ATOM     37  C   UNL A   1      41.885  28.062  29.078  1.00  0.00     0.074 A 
ATOM     38  C   UNL A   1      39.615  28.977  28.645  1.00  0.00     0.049 A 
ATOM     39  N   UNL A   1      42.415  29.005  29.811  1.00  0.00    -0.248 NA
ATOM     40  C   UNL A   1      42.786  26.917  28.844  1.00  0.00     0.031 C 
ATOM     41  C   UNL A   1      38.232  28.980  28.168  1.00  0.00     0.029 A 
ATOM     42  N   UNL A   1      39.766  30.199  29.245  1.00  0.00    -0.354 N 
ATOM     43  C   UNL A   1      43.682  28.545  30.157  1.00  0.00     0.074 A 
ATOM     44  C   UNL A   1      43.809  27.208  29.631  1.00  0.00     0.031 C 
ATOM     45  C   UNL A   1      37.670  30.162  28.465  1.00  0.00     0.029 A 
ATOM     46  C   UNL A   1      38.632  30.974  29.204  1.00  0.00     0.049 A 
ATOM     47  H   UNL A   1      40.606  30.495  29.665  1.00  0.00     0.167 HD
ATOM     48  C   UNL A   1      44.668  29.188  30.823  1.00  0.00     0.031 A 
ATOM     49  C   UNL A   1      38.394  32.196  29.718  1.00  0.00     0.031 A 
ATOM     50  C   UNL A   1      44.538  30.532  31.313  1.00  0.00     0.049 A 
ATOM     51  C   UNL A   1      39.499  32.898  30.458  1.00  0.00     0.074 A 
ATOM     52  C   UNL A   1      45.487  31.315  31.942  1.00  0.00     0.029 A 
ATOM     53  N   UNL A   1      43.381  31.293  31.222  1.00  0.00    -0.354 N 
ATOM     54  N   UNL A   1      40.711  32.473  30.726  1.00  0.00    -0.248 NA
ATOM     55  C   UNL A   1      39.208  34.249  30.952  1.00  0.00     0.031 C 
ATOM     56  C   UNL A   1      44.883  32.525  32.296  1.00  0.00     0.029 A 
ATOM     57  C   UNL A   1      43.583  32.528  31.810  1.00  0.00     0.049 A 
ATOM     58  H   UNL A   1      42.541  30.998  30.802  1.00  0.00     0.167 HD
ATOM     59  C   UNL A   1      41.342  33.521  31.389  1.00  0.00     0.074 A 
ATOM     60  C   UNL A   1      40.378  34.600  31.472  1.00  0.00     0.031 C 
ATOM     61  C   UNL A   1      42.606  33.588  31.876  1.00  0.00     0.031 A 
BRANCH  48  62
ATOM     62  C   UNL A   1      45.957  28.440  31.063  1.00  0.00    -0.014 A 
ATOM     63  C   UNL A   1      47.045  28.545  30.174  1.00  0.00     0.010 A 
ATOM     64  C   UNL A   1      46.085  27.619  32.198  1.00  0.00     0.010 A 
ATOM     65  C   UNL A   1      48.207  27.797  30.382  1.00  0.00     0.020 A 
ATOM     66  C   UNL A   1      47.262  26.901  32.432  1.00  0.00     0.020 A 
ATOM     67  C   UNL A   1      48.306  26.976  31.509  1.00  0.00     0.054 A 
BRANCH  67  68
ATOM     68  S   UNL A   1      49.829  26.021  31.754  1.00  0.00     0.124 S 
ATOM     69  O   UNL A   1      49.515  25.257  32.959  1.00  0.00    -0.237 OA
ATOM     70  O   UNL A   1      49.917  25.242  30.522  1.00  0.00    -0.237 OA
ATOM     71  O   UNL A   1      50.858  27.046  31.917  1.00  0.00    -0.744 OA
ENDBRANCH  67  68
ENDBRANCH  48  62
BRANCH  49  72
ATOM     72  C   UNL A   1      37.060  32.828  29.521  1.00  0.00    -0.014 A 
ATOM     73  C   UNL A   1      36.112  32.831  30.558  1.00  0.00     0.010 A 
ATOM     74  C   UNL A   1      36.751  33.476  28.310  1.00  0.00     0.010 A 
ATOM     75  C   UNL A   1      34.877  33.462  30.387  1.00  0.00     0.020 A 
ATOM     76  C   UNL A   1      35.531  34.136  28.146  1.00  0.00     0.020 A 
ATOM     77  C   UNL A   1      34.597  34.118  29.184  1.00  0.00     0.054 A 
BRANCH  77  78
ATOM     78  S   UNL A   1      33.016  34.992  29.015  1.00  0.00     0.124 S 
ATOM     79  O   UNL A   1      32.486  34.928  30.374  1.00  0.00    -0.237 OA
ATOM     80  O   UNL A   1      33.438  36.315  28.560  1.00  0.00    -0.237 OA
ATOM     81  O   UNL A   1      32.292  34.201  28.023  1.00  0.00    -0.744 OA
ENDBRANCH  77  78
ENDBRANCH  49  72
BRANCH  61  82
ATOM     82  C   UNL A   1      43.046  34.888  32.497  1.00  0.00    -0.014 A 
ATOM     83  C   UNL A   1      43.695  35.882  31.746  1.00  0.00     0.010 A 
ATOM     84  C   UNL A   1      42.725  35.144  33.844  1.00  0.00     0.010 A 
ATOM     85  C   UNL A   1      44.040  37.099  32.339  1.00  0.00     0.020 A 
ATOM     86  C   UNL A   1      43.035  36.372  34.430  1.00  0.00     0.020 A 
ATOM     87  C   UNL A   1      43.702  37.337  33.676  1.00  0.00     0.054 A 
BRANCH  87  88
ATOM     88  S   UNL A   1      44.107  38.948  34.401  1.00  0.00     0.124 S 
ATOM     89  O   UNL A   1      44.167  38.634  35.826  1.00  0.00    -0.237 OA
ATOM     90  O   UNL A   1      45.386  39.268  33.773  1.00  0.00    -0.237 OA
ATOM     91  O   UNL A   1      42.991  39.801  33.998  1.00  0.00    -0.744 OA
ENDBRANCH  87  88
ENDBRANCH  61  82
ENDBRANCH  35  36
ENDBRANCH  27  30
ENDBRANCH  25  26
ENDBRANCH  24  25
ENDBRANCH   1  24
TORSDOF 19
ENDMDL
MODEL 3
REMARK VINA RESULT:     -11.1      2.977      9.489
REMARK SMILES CC(C)(C)[N@@H+](CCC(=O)NCCCNC(=O)c1ccc(-c2c3nc(c(-c4ccc(S(=O)(=O)[O-])cc4)c4ccc([nH]4)c(-c4ccc(S(=O)(=O)[O-])cc4)c4nc(c(-c5ccc(S(=O)(=O)[O-])cc5)c5ccc2[nH]5)C=C4)C=C3)cc1)Cc1ccccc1C1CC1
REMARK SMILES IDX 11 1 10 2 8 3 9 4 7 6 6 7 5 8 2 10 1 11 3 12 4 13 77 14
REMARK SMILES IDX 78 15 79 16 83 17 80 18 82 19 81 20 84 21 85 22 86 23 12 24
REMARK SMILES IDX 13 25 14 26 15 27 16 29 17 30 18 31 76 32 19 33 75 34 20 35
REMARK SMILES IDX 21 36 22 37 69 38 23 39 74 40 68 41 70 42 24 43 73 44 67 45
REMARK SMILES IDX 66 46 25 48 55 49 36 50 54 51 37 52 40 53 53 54 71 55 38 56
REMARK SMILES IDX 39 57 52 59 72 60 41 61 26 62 27 63 35 64 28 65 34 66 29 67
REMARK SMILES IDX 30 68 31 69 32 70 33 71 56 72 57 73 65 74 58 75 64 76 59 77
REMARK SMILES IDX 60 78 61 79 62 80 63 81 42 82 43 83 51 84 44 85 50 86 45 87
REMARK SMILES IDX 46 88 47 89 48 90 49 91
REMARK H PARENT 10 5 5 9 14 28 70 47 40 58
REMARK Flexibility Score: inf
ROOT
ATOM      1  C   UNL A   1      35.219  22.146  24.906  1.00  0.00     0.117 C 
ENDROOT
BRANCH   1   2
ATOM      2  N   UNL A   1      34.678  22.351  23.346  1.00  0.00    -0.356 N 
ATOM      3  C   UNL A   1      33.412  23.370  22.271  1.00  0.00     0.225 C 
ATOM      4  O   UNL A   1      33.286  23.437  20.994  1.00  0.00    -0.275 OA
ATOM      5  H   UNL A   1      35.175  21.741  22.756  1.00  0.00     0.163 HD
BRANCH   3   6
ATOM      6  C   UNL A   1      32.103  24.490  22.815  1.00  0.00     0.161 C 
BRANCH   6   7
ATOM      7  C   UNL A   1      30.905  24.352  23.853  1.00  0.00     0.272 C 
BRANCH   7   8
ATOM      8  N   UNL A   1      31.126  24.413  25.325  1.00  0.00    -0.327 N 
ATOM      9  H   UNL A   1      32.106  24.672  25.442  1.00  0.00     0.348 HD
BRANCH   8  10
ATOM     10  C   UNL A   1      31.208  23.194  26.166  1.00  0.00     0.089 C 
ATOM     11  C   UNL A   1      31.486  21.915  25.350  1.00  0.00     0.078 C 
ATOM     12  C   UNL A   1      29.889  22.950  26.879  1.00  0.00     0.078 C 
ATOM     13  C   UNL A   1      32.424  23.226  27.161  1.00  0.00     0.078 C 
ENDBRANCH   8  10
BRANCH   8  14
ATOM     14  C   UNL A   1      30.158  25.364  25.799  1.00  0.00     0.299 C 
BRANCH  14  15
ATOM     15  C   UNL A   1      30.612  26.784  25.572  1.00  0.00     0.010 A 
ATOM     16  C   UNL A   1      31.831  27.143  26.922  1.00  0.00     0.010 A 
ATOM     17  C   UNL A   1      30.294  28.083  24.244  1.00  0.00    -0.036 A 
ATOM     18  C   UNL A   1      32.668  28.737  27.013  1.00  0.00     0.001 A 
ATOM     19  C   UNL A   1      31.227  29.665  24.400  1.00  0.00     0.004 A 
ATOM     20  C   UNL A   1      32.363  30.004  25.757  1.00  0.00     0.000 A 
BRANCH  17  21
ATOM     21  C   UNL A   1      29.252  28.410  23.081  1.00  0.00     0.020 C 
ATOM     22  C   UNL A   1      27.805  28.679  22.760  1.00  0.00     0.009 C 
ATOM     23  C   UNL A   1      28.736  29.829  22.871  1.00  0.00     0.009 C 
ENDBRANCH  17  21
ENDBRANCH  14  15
ENDBRANCH   8  14
ENDBRANCH   7   8
ENDBRANCH   6   7
ENDBRANCH   3   6
ENDBRANCH   1   2
BRANCH   1  24
ATOM     24  C   UNL A   1      35.843  23.382  25.534  1.00  0.00     0.042 C 
BRANCH  24  25
ATOM     25  C   UNL A   1      37.230  23.613  25.003  1.00  0.00     0.118 C 
BRANCH  25  26
ATOM     26  N   UNL A   1      38.134  22.630  25.579  1.00  0.00    -0.352 N 
ATOM     27  C   UNL A   1      39.372  22.878  26.132  1.00  0.00     0.251 C 
ATOM     28  H   UNL A   1      37.831  21.694  25.574  1.00  0.00     0.163 HD
ATOM     29  O   UNL A   1      40.253  22.028  26.059  1.00  0.00    -0.269 OA
BRANCH  27  30
ATOM     30  C   UNL A   1      39.622  24.182  26.791  1.00  0.00     0.039 A 
ATOM     31  C   UNL A   1      40.334  25.190  26.136  1.00  0.00     0.014 A 
ATOM     32  C   UNL A   1      39.184  24.385  28.098  1.00  0.00     0.014 A 
ATOM     33  C   UNL A   1      40.609  26.385  26.810  1.00  0.00     0.010 A 
ATOM     34  C   UNL A   1      39.287  25.628  28.688  1.00  0.00     0.010 A 
ATOM     35  C   UNL A   1      40.084  26.610  28.093  1.00  0.00    -0.014 A 
BRANCH  35  36
ATOM     36  C   UNL A   1      40.445  27.780  28.928  1.00  0.00     0.031 A 
ATOM     37  C   UNL A   1      41.735  27.739  29.716  1.00  0.00     0.074 A 
ATOM     38  C   UNL A   1      39.592  28.812  29.058  1.00  0.00     0.049 A 
ATOM     39  N   UNL A   1      42.169  28.559  30.637  1.00  0.00    -0.248 NA
ATOM     40  C   UNL A   1      42.627  26.588  29.479  1.00  0.00     0.031 C 
ATOM     41  C   UNL A   1      38.304  28.942  28.377  1.00  0.00     0.029 A 
ATOM     42  N   UNL A   1      39.682  29.943  29.825  1.00  0.00    -0.354 N 
ATOM     43  C   UNL A   1      43.351  27.997  31.112  1.00  0.00     0.074 A 
ATOM     44  C   UNL A   1      43.520  26.730  30.445  1.00  0.00     0.031 C 
ATOM     45  C   UNL A   1      37.737  30.106  28.733  1.00  0.00     0.029 A 
ATOM     46  C   UNL A   1      38.593  30.773  29.710  1.00  0.00     0.049 A 
ATOM     47  H   UNL A   1      40.453  30.144  30.405  1.00  0.00     0.167 HD
ATOM     48  C   UNL A   1      44.237  28.504  32.000  1.00  0.00     0.031 A 
ATOM     49  C   UNL A   1      38.313  31.933  30.333  1.00  0.00     0.031 A 
ATOM     50  C   UNL A   1      44.071  29.784  32.632  1.00  0.00     0.049 A 
ATOM     51  C   UNL A   1      39.306  32.484  31.319  1.00  0.00     0.074 A 
ATOM     52  C   UNL A   1      44.930  30.436  33.495  1.00  0.00     0.029 A 
ATOM     53  N   UNL A   1      42.966  30.607  32.462  1.00  0.00    -0.354 N 
ATOM     54  N   UNL A   1      40.447  31.970  31.714  1.00  0.00    -0.248 NA
ATOM     55  C   UNL A   1      38.981  33.778  31.931  1.00  0.00     0.031 C 
ATOM     56  C   UNL A   1      44.314  31.622  33.903  1.00  0.00     0.029 A 
ATOM     57  C   UNL A   1      43.109  31.750  33.226  1.00  0.00     0.049 A 
ATOM     58  H   UNL A   1      42.196  30.407  31.883  1.00  0.00     0.167 HD
ATOM     59  C   UNL A   1      40.994  32.896  32.595  1.00  0.00     0.074 A 
ATOM     60  C   UNL A   1      40.062  34.004  32.666  1.00  0.00     0.031 C 
ATOM     61  C   UNL A   1      42.166  32.840  33.277  1.00  0.00     0.031 A 
BRANCH  48  62
ATOM     62  C   UNL A   1      45.447  27.669  32.337  1.00  0.00    -0.014 A 
ATOM     63  C   UNL A   1      45.437  26.759  33.413  1.00  0.00     0.010 A 
ATOM     64  C   UNL A   1      46.616  27.792  31.565  1.00  0.00     0.010 A 
ATOM     65  C   UNL A   1      46.588  26.040  33.746  1.00  0.00     0.020 A 
ATOM     66  C   UNL A   1      47.757  27.043  31.869  1.00  0.00     0.020 A 
ATOM     67  C   UNL A   1      47.743  26.190  32.973  1.00  0.00     0.054 A 
BRANCH  67  68
ATOM     68  S   UNL A   1      49.219  25.238  33.427  1.00  0.00     0.124 S 
ATOM     69  O   UNL A   1      48.639  24.105  34.143  1.00  0.00    -0.237 OA
ATOM     70  O   UNL A   1      49.807  24.925  32.128  1.00  0.00    -0.237 OA
ATOM     71  O   UNL A   1      49.990  26.167  34.251  1.00  0.00    -0.744 OA
ENDBRANCH  67  68
ENDBRANCH  48  62
BRANCH  49  72
ATOM     72  C   UNL A   1      37.047  32.650  30.015  1.00  0.00    -0.014 A 
ATOM     73  C   UNL A   1      35.936  32.550  30.870  1.00  0.00     0.010 A 
ATOM     74  C   UNL A   1      36.964  33.479  28.880  1.00  0.00     0.010 A 
ATOM     75  C   UNL A   1      34.763  33.258  30.593  1.00  0.00     0.020 A 
ATOM     76  C   UNL A   1      35.805  34.214  28.617  1.00  0.00     0.020 A 
ATOM     77  C   UNL A   1      34.708  34.092  29.472  1.00  0.00     0.054 A 
BRANCH  77  78
ATOM     78  S   UNL A   1      33.199  35.056  29.177  1.00  0.00     0.124 S 
ATOM     79  O   UNL A   1      33.740  36.343  28.751  1.00  0.00    -0.237 OA
ATOM     80  O   UNL A   1      32.528  34.275  28.141  1.00  0.00    -0.237 OA
ATOM     81  O   UNL A   1      32.532  35.056  30.477  1.00  0.00    -0.744 OA
ENDBRANCH  77  78
ENDBRANCH  49  72
BRANCH  61  82
ATOM     82  C   UNL A   1      42.540  34.031  34.119  1.00  0.00    -0.014 A 
ATOM     83  C   UNL A   1      42.194  34.112  35.479  1.00  0.00     0.010 A 
ATOM     84  C   UNL A   1      43.326  35.051  33.548  1.00  0.00     0.010 A 
ATOM     85  C   UNL A   1      42.605  35.205  36.245  1.00  0.00     0.020 A 
ATOM     86  C   UNL A   1      43.769  36.126  34.320  1.00  0.00     0.020 A 
ATOM     87  C   UNL A   1      43.395  36.202  35.662  1.00  0.00     0.054 A 
BRANCH  87  88
ATOM     88  S   UNL A   1      43.963  37.578  36.696  1.00  0.00     0.124 S 
ATOM     89  O   UNL A   1      45.327  37.170  37.021  1.00  0.00    -0.237 OA
ATOM     90  O   UNL A   1      43.846  38.722  35.797  1.00  0.00    -0.237 OA
ATOM     91  O   UNL A   1      43.029  37.576  37.820  1.00  0.00    -0.744 OA
ENDBRANCH  87  88
ENDBRANCH  61  82
ENDBRANCH  35  36
ENDBRANCH  27  30
ENDBRANCH  25  26
ENDBRANCH  24  25
ENDBRANCH   1  24
TORSDOF 19
ENDMDL
