MODEL 1
REMARK VINA RESULT:     -13.1      0.000      0.000
REMARK SMILES Cc1c(Cl)cccc1NC(=O)C[C@](C)(C(=O)NCCCNC(=O)c1ccc(-c2c3nc(c(-c4ccc(S(=O)(=O)[O-])cc4)c4ccc([nH]4)c(-c4ccc(S(=O)(=O)[O-])cc4)c4nc(c(-c5ccc(S(=O)(=O)[O-])cc5)c5ccc2[nH]5)C=C4)C=C3)cc1)c1ccccc1
REMARK SMILES IDX 19 1 18 2 17 3 15 4 16 5 13 7 14 8 12 9 10 10 9 11 11 13
REMARK SMILES IDX 8 14 1 15 2 16 3 17 4 18 5 19 7 20 6 21 84 22 85 23 89 24
REMARK SMILES IDX 86 25 88 26 87 27 20 28 21 29 22 30 23 32 24 33 25 34 83 35
REMARK SMILES IDX 26 36 82 37 27 38 28 39 29 40 76 41 30 42 81 43 75 44 77 45
REMARK SMILES IDX 31 46 80 47 74 48 73 49 32 51 62 52 43 53 61 54 44 55 47 56
REMARK SMILES IDX 60 57 78 58 45 59 46 60 59 62 79 63 48 64 33 65 34 66 42 67
REMARK SMILES IDX 35 68 41 69 36 70 37 71 38 72 39 73 40 74 63 75 64 76 72 77
REMARK SMILES IDX 65 78 71 79 66 80 67 81 68 82 69 83 70 84 49 85 50 86 58 87
REMARK SMILES IDX 51 88 57 89 52 90 53 91 54 92 55 93 56 94
REMARK H PARENT 17 6 9 12 21 31 77 50 47 61
REMARK Flexibility Score: inf
ROOT
ATOM      1  C   UNL A   1      38.766  19.806  25.366  1.00  0.00     0.042 C 
ENDROOT
BRANCH   1   2
ATOM      2  C   UNL A   1      37.927  21.288  25.346  1.00  0.00     0.117 C 
BRANCH   2   3
ATOM      3  N   UNL A   1      36.064  21.890  26.083  1.00  0.00    -0.355 N 
ATOM      4  C   UNL A   1      34.630  21.971  26.042  1.00  0.00     0.230 C 
ATOM      5  O   UNL A   1      34.224  22.521  27.083  1.00  0.00    -0.274 OA
ATOM      6  H   UNL A   1      36.295  22.386  26.902  1.00  0.00     0.163 HD
BRANCH   4   7
ATOM      7  C   UNL A   1      33.563  21.564  24.885  1.00  0.00     0.080 C 
ATOM      8  C   UNL A   1      32.143  21.591  25.568  1.00  0.00     0.027 C 
BRANCH   7   9
ATOM      9  C   UNL A   1      33.612  22.384  23.545  1.00  0.00     0.121 C 
BRANCH   9  10
ATOM     10  C   UNL A   1      34.753  23.354  23.301  1.00  0.00     0.225 C 
ATOM     11  N   UNL A   1      34.540  24.699  23.309  1.00  0.00    -0.326 N 
ATOM     12  H   UNL A   1      35.196  25.278  22.857  1.00  0.00     0.169 HD
ATOM     13  O   UNL A   1      35.890  22.947  23.047  1.00  0.00    -0.275 OA
BRANCH  11  14
ATOM     14  C   UNL A   1      33.447  25.298  23.924  1.00  0.00     0.045 A 
ATOM     15  C   UNL A   1      32.095  25.798  21.439  1.00  0.00     0.048 C 
ATOM     16  C   UNL A   1      32.401  26.290  22.827  1.00  0.00    -0.009 A 
ATOM     17  C   UNL A   1      31.345  27.585  23.520  1.00  0.00     0.046 A 
ATOM     18  Cl  UNL A   1      30.220  28.428  22.533  1.00  0.00    -0.084 Cl
ATOM     19  C   UNL A   1      31.375  27.931  25.283  1.00  0.00     0.021 A 
ATOM     20  C   UNL A   1      33.386  25.562  25.737  1.00  0.00     0.026 A 
ATOM     21  C   UNL A   1      32.397  26.936  26.399  1.00  0.00     0.004 A 
ENDBRANCH  11  14
ENDBRANCH   9  10
ENDBRANCH   7   9
BRANCH   7  22
ATOM     22  C   UNL A   1      33.618  20.061  24.378  1.00  0.00    -0.032 A 
ATOM     23  C   UNL A   1      32.528  19.579  23.594  1.00  0.00     0.005 A 
ATOM     24  C   UNL A   1      34.649  19.156  24.635  1.00  0.00     0.005 A 
ATOM     25  C   UNL A   1      32.408  18.246  23.211  1.00  0.00     0.000 A 
ATOM     26  C   UNL A   1      34.535  17.813  24.238  1.00  0.00     0.000 A 
ATOM     27  C   UNL A   1      33.410  17.355  23.552  1.00  0.00     0.000 A 
ENDBRANCH   7  22
ENDBRANCH   4   7
ENDBRANCH   2   3
ENDBRANCH   1   2
BRANCH   1  28
ATOM     28  C   UNL A   1      39.888  19.843  26.388  1.00  0.00     0.118 C 
BRANCH  28  29
ATOM     29  N   UNL A   1      41.113  19.166  25.977  1.00  0.00    -0.352 N 
ATOM     30  C   UNL A   1      42.380  19.694  26.075  1.00  0.00     0.251 C 
ATOM     31  H   UNL A   1      41.026  18.260  25.602  1.00  0.00     0.163 HD
ATOM     32  O   UNL A   1      43.382  19.053  25.799  1.00  0.00    -0.269 OA
BRANCH  30  33
ATOM     33  C   UNL A   1      42.425  21.123  26.408  1.00  0.00     0.039 A 
ATOM     34  C   UNL A   1      42.727  21.435  27.733  1.00  0.00     0.014 A 
ATOM     35  C   UNL A   1      42.559  22.057  25.378  1.00  0.00     0.014 A 
ATOM     36  C   UNL A   1      43.207  22.701  28.029  1.00  0.00     0.010 A 
ATOM     37  C   UNL A   1      43.158  23.275  25.663  1.00  0.00     0.010 A 
ATOM     38  C   UNL A   1      43.454  23.617  26.993  1.00  0.00    -0.014 A 
BRANCH  38  39
ATOM     39  C   UNL A   1      43.921  24.979  27.326  1.00  0.00     0.031 A 
ATOM     40  C   UNL A   1      45.367  25.311  27.097  1.00  0.00     0.074 A 
ATOM     41  C   UNL A   1      43.049  25.905  27.771  1.00  0.00     0.049 A 
ATOM     42  N   UNL A   1      45.974  26.460  27.217  1.00  0.00    -0.248 NA
ATOM     43  C   UNL A   1      46.257  24.203  26.699  1.00  0.00     0.031 C 
ATOM     44  C   UNL A   1      41.630  25.670  28.058  1.00  0.00     0.029 A 
ATOM     45  N   UNL A   1      43.220  27.240  28.032  1.00  0.00    -0.354 N 
ATOM     46  C   UNL A   1      47.307  26.206  26.920  1.00  0.00     0.074 A 
ATOM     47  C   UNL A   1      47.441  24.790  26.691  1.00  0.00     0.031 C 
ATOM     48  C   UNL A   1      41.051  26.833  28.401  1.00  0.00     0.029 A 
ATOM     49  C   UNL A   1      42.061  27.887  28.396  1.00  0.00     0.049 A 
ATOM     50  H   UNL A   1      44.091  27.694  27.964  1.00  0.00     0.167 HD
ATOM     51  C   UNL A   1      48.326  27.086  26.809  1.00  0.00     0.031 A 
ATOM     52  C   UNL A   1      41.845  29.185  28.686  1.00  0.00     0.031 A 
ATOM     53  C   UNL A   1      48.173  28.495  27.025  1.00  0.00     0.049 A 
ATOM     54  C   UNL A   1      43.002  30.142  28.577  1.00  0.00     0.074 A 
ATOM     55  C   UNL A   1      49.123  29.491  26.900  1.00  0.00     0.029 A 
ATOM     56  N   UNL A   1      46.992  29.107  27.420  1.00  0.00    -0.354 N 
ATOM     57  N   UNL A   1      44.242  29.898  28.217  1.00  0.00    -0.248 NA
ATOM     58  C   UNL A   1      42.732  31.550  28.896  1.00  0.00     0.031 C 
ATOM     59  C   UNL A   1      48.536  30.695  27.297  1.00  0.00     0.029 A 
ATOM     60  C   UNL A   1      47.198  30.464  27.582  1.00  0.00     0.049 A 
ATOM     61  H   UNL A   1      46.135  28.644  27.563  1.00  0.00     0.167 HD
ATOM     62  C   UNL A   1      44.892  31.127  28.241  1.00  0.00     0.074 A 
ATOM     63  C   UNL A   1      43.902  32.112  28.626  1.00  0.00     0.031 C 
ATOM     64  C   UNL A   1      46.189  31.418  27.971  1.00  0.00     0.031 A 
BRANCH  51  65
ATOM     65  C   UNL A   1      49.685  26.539  26.462  1.00  0.00    -0.014 A 
ATOM     66  C   UNL A   1      50.532  25.992  27.444  1.00  0.00     0.010 A 
ATOM     67  C   UNL A   1      50.112  26.556  25.123  1.00  0.00     0.010 A 
ATOM     68  C   UNL A   1      51.793  25.500  27.097  1.00  0.00     0.020 A 
ATOM     69  C   UNL A   1      51.356  26.032  24.766  1.00  0.00     0.020 A 
ATOM     70  C   UNL A   1      52.194  25.517  25.757  1.00  0.00     0.054 A 
BRANCH  70  71
ATOM     71  S   UNL A   1      53.812  24.823  25.328  1.00  0.00     0.124 S 
ATOM     72  O   UNL A   1      54.192  25.632  24.172  1.00  0.00    -0.237 OA
ATOM     73  O   UNL A   1      54.589  25.060  26.542  1.00  0.00    -0.237 OA
ATOM     74  O   UNL A   1      53.524  23.422  25.038  1.00  0.00    -0.744 OA
ENDBRANCH  70  71
ENDBRANCH  51  65
BRANCH  52  75
ATOM     75  C   UNL A   1      40.491  29.647  29.105  1.00  0.00    -0.014 A 
ATOM     76  C   UNL A   1      39.416  29.684  28.197  1.00  0.00     0.010 A 
ATOM     77  C   UNL A   1      40.270  30.062  30.432  1.00  0.00     0.010 A 
ATOM     78  C   UNL A   1      38.159  30.147  28.601  1.00  0.00     0.020 A 
ATOM     79  C   UNL A   1      39.008  30.492  30.849  1.00  0.00     0.020 A 
ATOM     80  C   UNL A   1      37.963  30.545  29.927  1.00  0.00     0.054 A 
BRANCH  80  81
ATOM     81  S   UNL A   1      36.314  31.103  30.442  1.00  0.00     0.124 S 
ATOM     82  O   UNL A   1      35.907  30.046  31.360  1.00  0.00    -0.237 OA
ATOM     83  O   UNL A   1      36.600  32.399  31.051  1.00  0.00    -0.237 OA
ATOM     84  O   UNL A   1      35.567  31.165  29.186  1.00  0.00    -0.744 OA
ENDBRANCH  80  81
ENDBRANCH  52  75
BRANCH  64  85
ATOM     85  C   UNL A   1      46.603  32.863  28.047  1.00  0.00    -0.014 A 
ATOM     86  C   UNL A   1      47.125  33.415  29.229  1.00  0.00     0.010 A 
ATOM     87  C   UNL A   1      46.526  33.661  26.889  1.00  0.00     0.010 A 
ATOM     88  C   UNL A   1      47.521  34.753  29.264  1.00  0.00     0.020 A 
ATOM     89  C   UNL A   1      46.960  34.986  26.911  1.00  0.00     0.020 A 
ATOM     90  C   UNL A   1      47.438  35.528  28.104  1.00  0.00     0.054 A 
BRANCH  90  91
ATOM     91  S   UNL A   1      47.997  37.251  28.169  1.00  0.00     0.124 S 
ATOM     92  O   UNL A   1      48.138  37.469  29.606  1.00  0.00    -0.237 OA
ATOM     93  O   UNL A   1      49.246  37.209  27.413  1.00  0.00    -0.237 OA
ATOM     94  O   UNL A   1      46.911  37.993  27.530  1.00  0.00    -0.744 OA
ENDBRANCH  90  91
ENDBRANCH  64  85
ENDBRANCH  38  39
ENDBRANCH  30  33
ENDBRANCH  28  29
ENDBRANCH   1  28
TORSDOF 17
ENDMDL
MODEL 2
REMARK VINA RESULT:     -12.6      6.285     12.104
REMARK SMILES Cc1c(Cl)cccc1NC(=O)C[C@](C)(C(=O)NCCCNC(=O)c1ccc(-c2c3nc(c(-c4ccc(S(=O)(=O)[O-])cc4)c4ccc([nH]4)c(-c4ccc(S(=O)(=O)[O-])cc4)c4nc(c(-c5ccc(S(=O)(=O)[O-])cc5)c5ccc2[nH]5)C=C4)C=C3)cc1)c1ccccc1
REMARK SMILES IDX 19 1 18 2 17 3 15 4 16 5 13 7 14 8 12 9 10 10 9 11 11 13
REMARK SMILES IDX 8 14 1 15 2 16 3 17 4 18 5 19 7 20 6 21 84 22 85 23 89 24
REMARK SMILES IDX 86 25 88 26 87 27 20 28 21 29 22 30 23 32 24 33 25 34 83 35
REMARK SMILES IDX 26 36 82 37 27 38 28 39 29 40 76 41 30 42 81 43 75 44 77 45
REMARK SMILES IDX 31 46 80 47 74 48 73 49 32 51 62 52 43 53 61 54 44 55 47 56
REMARK SMILES IDX 60 57 78 58 45 59 46 60 59 62 79 63 48 64 33 65 34 66 42 67
REMARK SMILES IDX 35 68 41 69 36 70 37 71 38 72 39 73 40 74 63 75 64 76 72 77
REMARK SMILES IDX 65 78 71 79 66 80 67 81 68 82 69 83 70 84 49 85 50 86 58 87
REMARK SMILES IDX 51 88 57 89 52 90 53 91 54 92 55 93 56 94
REMARK H PARENT 17 6 9 12 21 31 77 50 47 61
REMARK Flexibility Score: inf
ROOT
ATOM      1  C   UNL A   1      32.014  32.077  27.059  1.00  0.00     0.042 C 
ENDROOT
BRANCH   1   2
ATOM      2  C   UNL A   1      32.615  30.495  27.247  1.00  0.00     0.117 C 
BRANCH   2   3
ATOM      3  N   UNL A   1      31.857  28.606  26.763  1.00  0.00    -0.355 N 
ATOM      4  C   UNL A   1      31.408  27.598  25.843  1.00  0.00     0.230 C 
ATOM      5  O   UNL A   1      31.169  26.550  26.473  1.00  0.00    -0.274 OA
ATOM      6  H   UNL A   1      31.751  28.174  27.642  1.00  0.00     0.163 HD
BRANCH   4   7
ATOM      7  C   UNL A   1      31.107  27.656  24.246  1.00  0.00     0.080 C 
ATOM      8  C   UNL A   1      32.323  28.421  23.597  1.00  0.00     0.027 C 
BRANCH   7   9
ATOM      9  C   UNL A   1      30.787  26.295  23.527  1.00  0.00     0.121 C 
BRANCH   9  10
ATOM     10  C   UNL A   1      31.503  25.944  22.237  1.00  0.00     0.225 C 
ATOM     11  N   UNL A   1      32.483  24.999  22.216  1.00  0.00    -0.326 N 
ATOM     12  H   UNL A   1      33.126  25.009  21.470  1.00  0.00     0.169 HD
ATOM     13  O   UNL A   1      31.245  26.536  21.185  1.00  0.00    -0.275 OA
BRANCH  11  14
ATOM     14  C   UNL A   1      32.624  24.020  23.193  1.00  0.00     0.045 A 
ATOM     15  C   UNL A   1      34.284  25.668  24.861  1.00  0.00     0.048 C 
ATOM     16  C   UNL A   1      33.994  24.283  24.348  1.00  0.00    -0.009 A 
ATOM     17  C   UNL A   1      34.688  22.880  25.255  1.00  0.00     0.046 A 
ATOM     18  Cl  UNL A   1      35.870  23.119  26.478  1.00  0.00    -0.084 Cl
ATOM     19  C   UNL A   1      34.065  21.219  24.969  1.00  0.00     0.021 A 
ATOM     20  C   UNL A   1      31.900  22.347  22.992  1.00  0.00     0.026 A 
ATOM     21  C   UNL A   1      32.682  20.938  23.834  1.00  0.00     0.004 A 
ENDBRANCH  11  14
ENDBRANCH   9  10
ENDBRANCH   7   9
BRANCH   7  22
ATOM     22  C   UNL A   1      29.901  28.583  23.794  1.00  0.00    -0.032 A 
ATOM     23  C   UNL A   1      28.691  27.952  23.379  1.00  0.00     0.005 A 
ATOM     24  C   UNL A   1      29.918  29.979  23.764  1.00  0.00     0.005 A 
ATOM     25  C   UNL A   1      27.621  28.658  22.838  1.00  0.00     0.000 A 
ATOM     26  C   UNL A   1      28.833  30.694  23.230  1.00  0.00     0.000 A 
ATOM     27  C   UNL A   1      27.702  30.036  22.746  1.00  0.00     0.000 A 
ENDBRANCH   7  22
ENDBRANCH   4   7
ENDBRANCH   2   3
ENDBRANCH   1   2
BRANCH   1  28
ATOM     28  C   UNL A   1      33.114  33.096  27.296  1.00  0.00     0.118 C 
BRANCH  28  29
ATOM     29  N   UNL A   1      32.750  34.196  28.182  1.00  0.00    -0.352 N 
ATOM     30  C   UNL A   1      33.524  34.669  29.215  1.00  0.00     0.251 C 
ATOM     31  H   UNL A   1      31.881  34.634  28.028  1.00  0.00     0.163 HD
ATOM     32  O   UNL A   1      33.214  35.650  29.874  1.00  0.00    -0.269 OA
BRANCH  30  33
ATOM     33  C   UNL A   1      34.681  33.830  29.550  1.00  0.00     0.039 A 
ATOM     34  C   UNL A   1      35.927  34.319  29.161  1.00  0.00     0.014 A 
ATOM     35  C   UNL A   1      34.545  32.845  30.532  1.00  0.00     0.014 A 
ATOM     36  C   UNL A   1      37.062  33.836  29.794  1.00  0.00     0.010 A 
ATOM     37  C   UNL A   1      35.671  32.463  31.245  1.00  0.00     0.010 A 
ATOM     38  C   UNL A   1      36.939  32.929  30.859  1.00  0.00    -0.014 A 
BRANCH  38  39
ATOM     39  C   UNL A   1      38.158  32.387  31.493  1.00  0.00     0.031 A 
ATOM     40  C   UNL A   1      38.555  32.918  32.841  1.00  0.00     0.074 A 
ATOM     41  C   UNL A   1      38.856  31.403  30.892  1.00  0.00     0.049 A 
ATOM     42  N   UNL A   1      39.518  32.521  33.628  1.00  0.00    -0.248 NA
ATOM     43  C   UNL A   1      37.782  34.058  33.369  1.00  0.00     0.031 C 
ATOM     44  C   UNL A   1      38.569  30.844  29.567  1.00  0.00     0.029 A 
ATOM     45  N   UNL A   1      39.931  30.676  31.330  1.00  0.00    -0.354 N 
ATOM     46  C   UNL A   1      39.467  33.366  34.729  1.00  0.00     0.074 A 
ATOM     47  C   UNL A   1      38.438  34.344  34.480  1.00  0.00     0.031 C 
ATOM     48  C   UNL A   1      39.413  29.826  29.326  1.00  0.00     0.029 A 
ATOM     49  C   UNL A   1      40.323  29.685  30.458  1.00  0.00     0.049 A 
ATOM     50  H   UNL A   1      40.382  30.846  32.189  1.00  0.00     0.167 HD
ATOM     51  C   UNL A   1      40.191  33.309  35.868  1.00  0.00     0.031 A 
ATOM     52  C   UNL A   1      41.302  28.766  30.570  1.00  0.00     0.031 A 
ATOM     53  C   UNL A   1      41.202  32.320  36.105  1.00  0.00     0.049 A 
ATOM     54  C   UNL A   1      42.110  28.737  31.840  1.00  0.00     0.074 A 
ATOM     55  C   UNL A   1      41.972  32.135  37.238  1.00  0.00     0.029 A 
ATOM     56  N   UNL A   1      41.588  31.353  35.188  1.00  0.00    -0.354 N 
ATOM     57  N   UNL A   1      41.997  29.495  32.907  1.00  0.00    -0.248 NA
ATOM     58  C   UNL A   1      43.166  27.721  31.932  1.00  0.00     0.031 C 
ATOM     59  C   UNL A   1      42.879  31.106  36.975  1.00  0.00     0.029 A 
ATOM     60  C   UNL A   1      42.614  30.591  35.714  1.00  0.00     0.049 A 
ATOM     61  H   UNL A   1      41.189  31.228  34.296  1.00  0.00     0.167 HD
ATOM     62  C   UNL A   1      42.949  29.030  33.806  1.00  0.00     0.074 A 
ATOM     63  C   UNL A   1      43.610  27.910  33.167  1.00  0.00     0.031 C 
ATOM     64  C   UNL A   1      43.253  29.484  35.047  1.00  0.00     0.031 A 
BRANCH  51  65
ATOM     65  C   UNL A   1      39.925  34.355  36.917  1.00  0.00    -0.014 A 
ATOM     66  C   UNL A   1      39.016  34.130  37.968  1.00  0.00     0.010 A 
ATOM     67  C   UNL A   1      40.612  35.580  36.858  1.00  0.00     0.010 A 
ATOM     68  C   UNL A   1      38.779  35.122  38.923  1.00  0.00     0.020 A 
ATOM     69  C   UNL A   1      40.405  36.560  37.830  1.00  0.00     0.020 A 
ATOM     70  C   UNL A   1      39.481  36.329  38.851  1.00  0.00     0.054 A 
BRANCH  70  71
ATOM     71  S   UNL A   1      39.194  37.577  40.133  1.00  0.00     0.124 S 
ATOM     72  O   UNL A   1      38.144  38.395  39.530  1.00  0.00    -0.237 OA
ATOM     73  O   UNL A   1      38.779  36.766  41.276  1.00  0.00    -0.237 OA
ATOM     74  O   UNL A   1      40.489  38.234  40.277  1.00  0.00    -0.744 OA
ENDBRANCH  70  71
ENDBRANCH  51  65
BRANCH  52  75
ATOM     75  C   UNL A   1      41.568  27.810  29.457  1.00  0.00    -0.014 A 
ATOM     76  C   UNL A   1      42.569  28.061  28.501  1.00  0.00     0.010 A 
ATOM     77  C   UNL A   1      40.808  26.631  29.347  1.00  0.00     0.010 A 
ATOM     78  C   UNL A   1      42.787  27.166  27.447  1.00  0.00     0.020 A 
ATOM     79  C   UNL A   1      41.044  25.718  28.317  1.00  0.00     0.020 A 
ATOM     80  C   UNL A   1      42.024  25.997  27.365  1.00  0.00     0.054 A 
BRANCH  80  81
ATOM     81  S   UNL A   1      42.349  24.829  26.015  1.00  0.00     0.124 S 
ATOM     82  O   UNL A   1      42.283  25.694  24.841  1.00  0.00    -0.237 OA
ATOM     83  O   UNL A   1      43.676  24.321  26.355  1.00  0.00    -0.237 OA
ATOM     84  O   UNL A   1      41.267  23.854  26.137  1.00  0.00    -0.744 OA
ENDBRANCH  80  81
ENDBRANCH  52  75
BRANCH  64  85
ATOM     85  C   UNL A   1      44.323  28.749  35.809  1.00  0.00    -0.014 A 
ATOM     86  C   UNL A   1      45.669  29.150  35.756  1.00  0.00     0.010 A 
ATOM     87  C   UNL A   1      43.957  27.676  36.644  1.00  0.00     0.010 A 
ATOM     88  C   UNL A   1      46.636  28.463  36.491  1.00  0.00     0.020 A 
ATOM     89  C   UNL A   1      44.915  27.014  37.411  1.00  0.00     0.020 A 
ATOM     90  C   UNL A   1      46.252  27.401  37.315  1.00  0.00     0.054 A 
BRANCH  90  91
ATOM     91  S   UNL A   1      47.525  26.552  38.288  1.00  0.00     0.124 S 
ATOM     92  O   UNL A   1      47.308  27.108  39.620  1.00  0.00    -0.237 OA
ATOM     93  O   UNL A   1      47.163  25.146  38.126  1.00  0.00    -0.237 OA
ATOM     94  O   UNL A   1      48.775  26.948  37.643  1.00  0.00    -0.744 OA
ENDBRANCH  90  91
ENDBRANCH  64  85
ENDBRANCH  38  39
ENDBRANCH  30  33
ENDBRANCH  28  29
ENDBRANCH   1  28
TORSDOF 17
ENDMDL
MODEL 3
REMARK VINA RESULT:     -12.5      6.059      8.174
REMARK SMILES Cc1c(Cl)cccc1NC(=O)C[C@](C)(C(=O)NCCCNC(=O)c1ccc(-c2c3nc(c(-c4ccc(S(=O)(=O)[O-])cc4)c4ccc([nH]4)c(-c4ccc(S(=O)(=O)[O-])cc4)c4nc(c(-c5ccc(S(=O)(=O)[O-])cc5)c5ccc2[nH]5)C=C4)C=C3)cc1)c1ccccc1
REMARK SMILES IDX 19 1 18 2 17 3 15 4 16 5 13 7 14 8 12 9 10 10 9 11 11 13
REMARK SMILES IDX 8 14 1 15 2 16 3 17 4 18 5 19 7 20 6 21 84 22 85 23 89 24
REMARK SMILES IDX 86 25 88 26 87 27 20 28 21 29 22 30 23 32 24 33 25 34 83 35
REMARK SMILES IDX 26 36 82 37 27 38 28 39 29 40 76 41 30 42 81 43 75 44 77 45
REMARK SMILES IDX 31 46 80 47 74 48 73 49 32 51 62 52 43 53 61 54 44 55 47 56
REMARK SMILES IDX 60 57 78 58 45 59 46 60 59 62 79 63 48 64 33 65 34 66 42 67
REMARK SMILES IDX 35 68 41 69 36 70 37 71 38 72 39 73 40 74 63 75 64 76 72 77
REMARK SMILES IDX 65 78 71 79 66 80 67 81 68 82 69 83 70 84 49 85 50 86 58 87
REMARK SMILES IDX 51 88 57 89 52 90 53 91 54 92 55 93 56 94
REMARK H PARENT 17 6 9 12 21 31 77 50 47 61
REMARK Flexibility Score: inf
ROOT
ATOM      1  C   UNL A   1      39.475  22.180  26.535  1.00  0.00     0.042 C 
ENDROOT
BRANCH   1   2
ATOM      2  C   UNL A   1      37.970  21.921  25.782  1.00  0.00     0.117 C 
BRANCH   2   3
ATOM      3  N   UNL A   1      35.990  22.127  26.426  1.00  0.00    -0.355 N 
ATOM      4  C   UNL A   1      34.567  22.003  26.268  1.00  0.00     0.230 C 
ATOM      5  O   UNL A   1      34.010  22.324  27.334  1.00  0.00    -0.274 OA
ATOM      6  H   UNL A   1      36.084  22.521  27.323  1.00  0.00     0.163 HD
BRANCH   4   7
ATOM      7  C   UNL A   1      33.657  21.626  24.974  1.00  0.00     0.080 C 
ATOM      8  C   UNL A   1      32.158  21.832  25.415  1.00  0.00     0.027 C 
BRANCH   7   9
ATOM      9  C   UNL A   1      34.001  22.350  23.621  1.00  0.00     0.121 C 
BRANCH   9  10
ATOM     10  C   UNL A   1      35.097  23.398  23.590  1.00  0.00     0.225 C 
ATOM     11  N   UNL A   1      34.797  24.725  23.653  1.00  0.00    -0.326 N 
ATOM     12  H   UNL A   1      35.465  25.370  23.327  1.00  0.00     0.169 HD
ATOM     13  O   UNL A   1      36.282  23.076  23.462  1.00  0.00    -0.275 OA
BRANCH  11  14
ATOM     14  C   UNL A   1      33.597  25.216  24.155  1.00  0.00     0.045 A 
ATOM     15  C   UNL A   1      32.430  25.539  21.550  1.00  0.00     0.048 C 
ATOM     16  C   UNL A   1      32.559  26.079  22.949  1.00  0.00    -0.009 A 
ATOM     17  C   UNL A   1      31.318  27.267  23.517  1.00  0.00     0.046 A 
ATOM     18  Cl  UNL A   1      30.206  27.975  22.415  1.00  0.00    -0.084 Cl
ATOM     19  C   UNL A   1      31.154  27.638  25.267  1.00  0.00     0.021 A 
ATOM     20  C   UNL A   1      33.347  25.497  25.950  1.00  0.00     0.026 A 
ATOM     21  C   UNL A   1      32.168  26.770  26.491  1.00  0.00     0.004 A 
ENDBRANCH  11  14
ENDBRANCH   9  10
ENDBRANCH   7   9
BRANCH   7  22
ATOM     22  C   UNL A   1      33.634  20.095  24.556  1.00  0.00    -0.032 A 
ATOM     23  C   UNL A   1      34.806  19.318  24.797  1.00  0.00     0.005 A 
ATOM     24  C   UNL A   1      32.557  19.432  23.964  1.00  0.00     0.005 A 
ATOM     25  C   UNL A   1      34.944  18.007  24.350  1.00  0.00     0.000 A 
ATOM     26  C   UNL A   1      32.691  18.105  23.526  1.00  0.00     0.000 A 
ATOM     27  C   UNL A   1      33.886  17.405  23.694  1.00  0.00     0.000 A 
ENDBRANCH   7  22
ENDBRANCH   4   7
ENDBRANCH   2   3
ENDBRANCH   1   2
BRANCH   1  28
ATOM     28  C   UNL A   1      39.653  23.648  26.877  1.00  0.00     0.118 C 
BRANCH  28  29
ATOM     29  N   UNL A   1      40.321  24.440  25.850  1.00  0.00    -0.352 N 
ATOM     30  C   UNL A   1      41.071  25.569  26.084  1.00  0.00     0.251 C 
ATOM     31  H   UNL A   1      40.227  24.142  24.916  1.00  0.00     0.163 HD
ATOM     32  O   UNL A   1      41.683  26.147  25.199  1.00  0.00    -0.269 OA
BRANCH  30  33
ATOM     33  C   UNL A   1      40.973  26.100  27.449  1.00  0.00     0.039 A 
ATOM     34  C   UNL A   1      41.970  26.995  27.833  1.00  0.00     0.014 A 
ATOM     35  C   UNL A   1      39.753  26.015  28.126  1.00  0.00     0.014 A 
ATOM     36  C   UNL A   1      41.728  27.850  28.897  1.00  0.00     0.010 A 
ATOM     37  C   UNL A   1      39.473  26.957  29.103  1.00  0.00     0.010 A 
ATOM     38  C   UNL A   1      40.469  27.857  29.518  1.00  0.00    -0.014 A 
BRANCH  38  39
ATOM     39  C   UNL A   1      40.239  28.740  30.680  1.00  0.00     0.031 A 
ATOM     40  C   UNL A   1      41.119  28.573  31.885  1.00  0.00     0.074 A 
ATOM     41  C   UNL A   1      39.297  29.702  30.625  1.00  0.00     0.049 A 
ATOM     42  N   UNL A   1      41.170  29.296  32.971  1.00  0.00    -0.248 NA
ATOM     43  C   UNL A   1      42.054  27.432  31.882  1.00  0.00     0.031 C 
ATOM     44  C   UNL A   1      38.369  29.923  29.511  1.00  0.00     0.029 A 
ATOM     45  N   UNL A   1      38.984  30.696  31.515  1.00  0.00    -0.354 N 
ATOM     46  C   UNL A   1      42.129  28.691  33.773  1.00  0.00     0.074 A 
ATOM     47  C   UNL A   1      42.580  27.503  33.093  1.00  0.00     0.031 C 
ATOM     48  C   UNL A   1      37.630  31.016  29.763  1.00  0.00     0.029 A 
ATOM     49  C   UNL A   1      38.003  31.552  31.069  1.00  0.00     0.049 A 
ATOM     50  H   UNL A   1      39.421  30.789  32.393  1.00  0.00     0.167 HD
ATOM     51  C   UNL A   1      42.620  29.111  34.959  1.00  0.00     0.031 A 
ATOM     52  C   UNL A   1      37.475  32.647  31.649  1.00  0.00     0.031 A 
ATOM     53  C   UNL A   1      42.172  30.304  35.615  1.00  0.00     0.049 A 
ATOM     54  C   UNL A   1      38.024  33.083  32.982  1.00  0.00     0.074 A 
ATOM     55  C   UNL A   1      42.625  30.855  36.799  1.00  0.00     0.029 A 
ATOM     56  N   UNL A   1      41.159  31.128  35.145  1.00  0.00    -0.354 N 
ATOM     57  N   UNL A   1      38.988  32.543  33.692  1.00  0.00    -0.248 NA
ATOM     58  C   UNL A   1      37.429  34.282  33.585  1.00  0.00     0.031 C 
ATOM     59  C   UNL A   1      41.830  31.968  37.085  1.00  0.00     0.029 A 
ATOM     60  C   UNL A   1      40.944  32.163  36.035  1.00  0.00     0.049 A 
ATOM     61  H   UNL A   1      40.666  30.995  34.303  1.00  0.00     0.167 HD
ATOM     62  C   UNL A   1      39.132  33.351  34.813  1.00  0.00     0.074 A 
ATOM     63  C   UNL A   1      38.175  34.429  34.672  1.00  0.00     0.031 C 
ATOM     64  C   UNL A   1      39.978  33.219  35.866  1.00  0.00     0.031 A 
BRANCH  51  65
ATOM     65  C   UNL A   1      43.674  28.261  35.618  1.00  0.00    -0.014 A 
ATOM     66  C   UNL A   1      43.335  27.238  36.524  1.00  0.00     0.010 A 
ATOM     67  C   UNL A   1      45.027  28.479  35.308  1.00  0.00     0.010 A 
ATOM     68  C   UNL A   1      44.332  26.471  37.130  1.00  0.00     0.020 A 
ATOM     69  C   UNL A   1      46.025  27.690  35.883  1.00  0.00     0.020 A 
ATOM     70  C   UNL A   1      45.672  26.698  36.799  1.00  0.00     0.054 A 
BRANCH  70  71
ATOM     71  S   UNL A   1      46.941  25.651  37.559  1.00  0.00     0.124 S 
ATOM     72  O   UNL A   1      46.303  24.337  37.537  1.00  0.00    -0.237 OA
ATOM     73  O   UNL A   1      48.073  25.815  36.649  1.00  0.00    -0.237 OA
ATOM     74  O   UNL A   1      47.123  26.232  38.886  1.00  0.00    -0.744 OA
ENDBRANCH  70  71
ENDBRANCH  51  65
BRANCH  52  75
ATOM     75  C   UNL A   1      36.374  33.398  30.979  1.00  0.00    -0.014 A 
ATOM     76  C   UNL A   1      36.569  34.030  29.738  1.00  0.00     0.010 A 
ATOM     77  C   UNL A   1      35.110  33.486  31.593  1.00  0.00     0.010 A 
ATOM     78  C   UNL A   1      35.532  34.753  29.137  1.00  0.00     0.020 A 
ATOM     79  C   UNL A   1      34.062  34.177  30.981  1.00  0.00     0.020 A 
ATOM     80  C   UNL A   1      34.283  34.818  29.763  1.00  0.00     0.054 A 
BRANCH  80  81
ATOM     81  S   UNL A   1      32.939  35.726  28.948  1.00  0.00     0.124 S 
ATOM     82  O   UNL A   1      32.379  34.711  28.062  1.00  0.00    -0.237 OA
ATOM     83  O   UNL A   1      32.098  36.118  30.076  1.00  0.00    -0.237 OA
ATOM     84  O   UNL A   1      33.627  36.830  28.281  1.00  0.00    -0.744 OA
ENDBRANCH  80  81
ENDBRANCH  52  75
BRANCH  64  85
ATOM     85  C   UNL A   1      39.929  34.283  36.929  1.00  0.00    -0.014 A 
ATOM     86  C   UNL A   1      40.722  35.441  36.843  1.00  0.00     0.010 A 
ATOM     87  C   UNL A   1      39.023  34.146  37.997  1.00  0.00     0.010 A 
ATOM     88  C   UNL A   1      40.641  36.422  37.833  1.00  0.00     0.020 A 
ATOM     89  C   UNL A   1      38.910  35.145  38.964  1.00  0.00     0.020 A 
ATOM     90  C   UNL A   1      39.733  36.268  38.885  1.00  0.00     0.054 A 
BRANCH  90  91
ATOM     91  S   UNL A   1      39.621  37.577  40.133  1.00  0.00     0.124 S 
ATOM     92  O   UNL A   1      38.518  38.387  39.625  1.00  0.00    -0.237 OA
ATOM     93  O   UNL A   1      39.341  36.828  41.355  1.00  0.00    -0.237 OA
ATOM     94  O   UNL A   1      40.936  38.215  40.086  1.00  0.00    -0.744 OA
ENDBRANCH  90  91
ENDBRANCH  64  85
ENDBRANCH  38  39
ENDBRANCH  30  33
ENDBRANCH  28  29
ENDBRANCH   1  28
TORSDOF 17
ENDMDL
