MODEL 1
REMARK VINA RESULT:      -9.2      0.000      0.000
REMARK SMILES COc1ccc(F)cc1[C@H](C)NC(=O)[C@H]1CC=CC[C@@H]1C(=O)NCCCNC(=O)c1ccc(-c2c3nc(c(-c4ccc(S(=O)(=O)[O-])cc4)c4ccc([nH]4)c(-c4ccc(S(=O)(=O)[O-])cc4)c4nc(c(-c5ccc(S(=O)(=O)[O-])cc5)c5ccc2[nH]5)C=C4)C=C3)cc1
REMARK SMILES IDX 24 1 23 2 21 3 22 4 20 6 15 7 16 8 17 9 19 10 18 11 13 12
REMARK SMILES IDX 12 13 14 15 10 16 11 17 9 18 3 19 4 20 5 21 8 22 6 23 7 24
REMARK SMILES IDX 2 25 1 26 25 27 26 28 27 29 28 30 29 32 30 33 31 34 89 35
REMARK SMILES IDX 32 36 88 37 33 38 34 39 35 40 82 41 36 42 87 43 81 44 83 45
REMARK SMILES IDX 37 46 86 47 80 48 79 49 38 51 68 52 49 53 67 54 50 55 53 56
REMARK SMILES IDX 66 57 84 58 51 59 52 60 65 62 85 63 54 64 39 65 40 66 48 67
REMARK SMILES IDX 41 68 47 69 42 70 43 71 44 72 45 73 46 74 69 75 70 76 78 77
REMARK SMILES IDX 71 78 77 79 72 80 73 81 74 82 75 83 76 84 55 85 56 86 64 87
REMARK SMILES IDX 57 88 63 89 58 90 59 91 60 92 61 93 62 94
REMARK H PARENT 23 5 12 14 27 31 83 50 53 61
REMARK Flexibility Score: inf
ROOT
ATOM      1  C   UNL A   1      36.316  33.253  30.776  1.00  0.00     0.117 C 
ENDROOT
BRANCH   1   2
ATOM      2  N   UNL A   1      36.296  34.376  31.699  1.00  0.00    -0.356 N 
ATOM      3  C   UNL A   1      36.719  34.450  32.988  1.00  0.00     0.224 C 
ATOM      4  O   UNL A   1      36.238  35.321  33.712  1.00  0.00    -0.275 OA
ATOM      5  H   UNL A   1      35.918  35.209  31.335  1.00  0.00     0.163 HD
BRANCH   3   6
ATOM      6  C   UNL A   1      37.877  33.576  33.445  1.00  0.00     0.095 C 
ATOM      7  C   UNL A   1      38.008  33.635  34.977  1.00  0.00     0.095 C 
ATOM      8  C   UNL A   1      38.935  34.723  35.520  1.00  0.00     0.041 C 
ATOM      9  C   UNL A   1      40.098  35.065  34.645  1.00  0.00    -0.030 C 
ATOM     10  C   UNL A   1      39.085  34.044  32.601  1.00  0.00     0.041 C 
ATOM     11  C   UNL A   1      40.167  34.756  33.347  1.00  0.00    -0.030 C 
BRANCH   7  12
ATOM     12  C   UNL A   1      38.198  32.299  35.716  1.00  0.00     0.224 C 
ATOM     13  N   UNL A   1      39.288  31.499  35.633  1.00  0.00    -0.349 N 
ATOM     14  H   UNL A   1      39.197  30.653  36.127  1.00  0.00     0.164 HD
ATOM     15  O   UNL A   1      37.314  31.914  36.491  1.00  0.00    -0.275 OA
BRANCH  13  16
ATOM     16  C   UNL A   1      40.566  31.645  34.954  1.00  0.00     0.113 C 
ATOM     17  C   UNL A   1      41.605  32.215  35.919  1.00  0.00     0.036 C 
BRANCH  16  18
ATOM     18  C   UNL A   1      40.907  30.396  34.147  1.00  0.00     0.019 A 
ATOM     19  C   UNL A   1      40.006  29.641  33.377  1.00  0.00     0.124 A 
ATOM     20  C   UNL A   1      40.406  28.438  32.766  1.00  0.00     0.050 A 
ATOM     21  C   UNL A   1      41.700  27.950  32.936  1.00  0.00     0.043 A 
ATOM     22  C   UNL A   1      42.226  29.898  34.254  1.00  0.00     0.049 A 
ATOM     23  C   UNL A   1      42.603  28.692  33.673  1.00  0.00     0.123 A 
ATOM     24  F   UNL A   1      43.853  28.244  33.842  1.00  0.00    -0.207 F 
BRANCH  19  25
ATOM     25  O   UNL A   1      38.748  30.124  33.143  1.00  0.00    -0.496 OA
ATOM     26  C   UNL A   1      37.755  29.099  33.137  1.00  0.00     0.278 C 
ENDBRANCH  19  25
ENDBRANCH  16  18
ENDBRANCH  13  16
ENDBRANCH   7  12
ENDBRANCH   3   6
ENDBRANCH   1   2
BRANCH   1  27
ATOM     27  C   UNL A   1      34.960  33.089  30.099  1.00  0.00     0.042 C 
BRANCH  27  28
ATOM     28  C   UNL A   1      35.031  32.921  28.585  1.00  0.00     0.118 C 
BRANCH  28  29
ATOM     29  N   UNL A   1      34.125  31.897  28.082  1.00  0.00    -0.352 N 
ATOM     30  C   UNL A   1      34.402  30.590  27.766  1.00  0.00     0.251 C 
ATOM     31  H   UNL A   1      33.191  32.179  27.953  1.00  0.00     0.163 HD
ATOM     32  O   UNL A   1      33.551  29.896  27.215  1.00  0.00    -0.269 OA
BRANCH  30  33
ATOM     33  C   UNL A   1      35.741  30.040  28.062  1.00  0.00     0.039 A 
ATOM     34  C   UNL A   1      36.718  30.066  27.066  1.00  0.00     0.014 A 
ATOM     35  C   UNL A   1      36.035  29.532  29.331  1.00  0.00     0.014 A 
ATOM     36  C   UNL A   1      38.016  29.647  27.364  1.00  0.00     0.010 A 
ATOM     37  C   UNL A   1      37.345  29.184  29.646  1.00  0.00     0.010 A 
ATOM     38  C   UNL A   1      38.349  29.240  28.667  1.00  0.00    -0.014 A 
BRANCH  38  39
ATOM     39  C   UNL A   1      39.743  28.880  29.031  1.00  0.00     0.031 A 
ATOM     40  C   UNL A   1      40.638  29.897  29.686  1.00  0.00     0.074 A 
ATOM     41  C   UNL A   1      40.224  27.664  28.706  1.00  0.00     0.049 A 
ATOM     42  N   UNL A   1      41.901  29.794  30.011  1.00  0.00    -0.248 NA
ATOM     43  C   UNL A   1      40.043  31.208  29.992  1.00  0.00     0.031 C 
ATOM     44  C   UNL A   1      39.468  26.604  28.033  1.00  0.00     0.029 A 
ATOM     45  N   UNL A   1      41.468  27.115  28.891  1.00  0.00    -0.354 N 
ATOM     46  C   UNL A   1      42.255  31.028  30.542  1.00  0.00     0.074 A 
ATOM     47  C   UNL A   1      41.089  31.878  30.452  1.00  0.00     0.031 C 
ATOM     48  C   UNL A   1      40.256  25.528  27.884  1.00  0.00     0.029 A 
ATOM     49  C   UNL A   1      41.582  25.832  28.411  1.00  0.00     0.049 A 
ATOM     50  H   UNL A   1      42.210  27.595  29.326  1.00  0.00     0.167 HD
ATOM     51  C   UNL A   1      43.440  31.414  31.073  1.00  0.00     0.031 A 
ATOM     52  C   UNL A   1      42.638  24.995  28.388  1.00  0.00     0.031 A 
ATOM     53  C   UNL A   1      44.595  30.563  31.171  1.00  0.00     0.049 A 
ATOM     54  C   UNL A   1      43.947  25.450  28.974  1.00  0.00     0.074 A 
ATOM     55  C   UNL A   1      45.824  30.842  31.742  1.00  0.00     0.029 A 
ATOM     56  N   UNL A   1      44.666  29.266  30.682  1.00  0.00    -0.354 N 
ATOM     57  N   UNL A   1      44.244  26.599  29.531  1.00  0.00    -0.248 NA
ATOM     58  C   UNL A   1      45.059  24.490  28.939  1.00  0.00     0.031 C 
ATOM     59  C   UNL A   1      46.655  29.732  31.556  1.00  0.00     0.029 A 
ATOM     60  C   UNL A   1      45.925  28.740  30.920  1.00  0.00     0.049 A 
ATOM     61  H   UNL A   1      43.931  28.790  30.234  1.00  0.00     0.167 HD
ATOM     62  C   UNL A   1      45.570  26.492  29.935  1.00  0.00     0.074 A 
ATOM     63  C   UNL A   1      46.012  25.161  29.571  1.00  0.00     0.031 C 
ATOM     64  C   UNL A   1      46.350  27.413  30.552  1.00  0.00     0.031 A 
BRANCH  51  65
ATOM     65  C   UNL A   1      43.544  32.826  31.587  1.00  0.00    -0.014 A 
ATOM     66  C   UNL A   1      43.615  33.093  32.966  1.00  0.00     0.010 A 
ATOM     67  C   UNL A   1      43.605  33.899  30.680  1.00  0.00     0.010 A 
ATOM     68  C   UNL A   1      43.700  34.408  33.431  1.00  0.00     0.020 A 
ATOM     69  C   UNL A   1      43.719  35.215  31.138  1.00  0.00     0.020 A 
ATOM     70  C   UNL A   1      43.747  35.461  32.513  1.00  0.00     0.054 A 
BRANCH  70  71
ATOM     71  S   UNL A   1      43.876  37.157  33.142  1.00  0.00     0.124 S 
ATOM     72  O   UNL A   1      42.678  37.262  33.971  1.00  0.00    -0.237 OA
ATOM     73  O   UNL A   1      45.142  37.135  33.870  1.00  0.00    -0.237 OA
ATOM     74  O   UNL A   1      43.870  37.979  31.933  1.00  0.00    -0.744 OA
ENDBRANCH  70  71
ENDBRANCH  51  65
BRANCH  52  75
ATOM     75  C   UNL A   1      42.496  23.634  27.802  1.00  0.00    -0.014 A 
ATOM     76  C   UNL A   1      42.964  23.366  26.504  1.00  0.00     0.010 A 
ATOM     77  C   UNL A   1      41.906  22.594  28.544  1.00  0.00     0.010 A 
ATOM     78  C   UNL A   1      42.830  22.088  25.952  1.00  0.00     0.020 A 
ATOM     79  C   UNL A   1      41.795  21.309  28.005  1.00  0.00     0.020 A 
ATOM     80  C   UNL A   1      42.247  21.067  26.707  1.00  0.00     0.054 A 
BRANCH  80  81
ATOM     81  S   UNL A   1      42.133  19.404  25.989  1.00  0.00     0.124 S 
ATOM     82  O   UNL A   1      42.659  18.572  27.065  1.00  0.00    -0.237 OA
ATOM     83  O   UNL A   1      40.702  19.272  25.727  1.00  0.00    -0.237 OA
ATOM     84  O   UNL A   1      42.971  19.490  24.795  1.00  0.00    -0.744 OA
ENDBRANCH  80  81
ENDBRANCH  52  75
BRANCH  64  85
ATOM     85  C   UNL A   1      47.755  27.006  30.908  1.00  0.00    -0.014 A 
ATOM     86  C   UNL A   1      48.810  27.145  29.989  1.00  0.00     0.010 A 
ATOM     87  C   UNL A   1      48.031  26.533  32.204  1.00  0.00     0.010 A 
ATOM     88  C   UNL A   1      50.112  26.794  30.351  1.00  0.00     0.020 A 
ATOM     89  C   UNL A   1      49.337  26.206  32.579  1.00  0.00     0.020 A 
ATOM     90  C   UNL A   1      50.368  26.327  31.645  1.00  0.00     0.054 A 
BRANCH  90  91
ATOM     91  S   UNL A   1      52.075  25.927  32.108  1.00  0.00     0.124 S 
ATOM     92  O   UNL A   1      52.416  27.032  33.000  1.00  0.00    -0.237 OA
ATOM     93  O   UNL A   1      51.937  24.622  32.750  1.00  0.00    -0.237 OA
ATOM     94  O   UNL A   1      52.787  25.915  30.832  1.00  0.00    -0.744 OA
ENDBRANCH  90  91
ENDBRANCH  64  85
ENDBRANCH  38  39
ENDBRANCH  30  33
ENDBRANCH  28  29
ENDBRANCH  27  28
ENDBRANCH   1  27
TORSDOF 17
ENDMDL
MODEL 2
REMARK VINA RESULT:      -8.9      5.352     11.656
REMARK SMILES COc1ccc(F)cc1[C@H](C)NC(=O)[C@H]1CC=CC[C@@H]1C(=O)NCCCNC(=O)c1ccc(-c2c3nc(c(-c4ccc(S(=O)(=O)[O-])cc4)c4ccc([nH]4)c(-c4ccc(S(=O)(=O)[O-])cc4)c4nc(c(-c5ccc(S(=O)(=O)[O-])cc5)c5ccc2[nH]5)C=C4)C=C3)cc1
REMARK SMILES IDX 24 1 23 2 21 3 22 4 20 6 15 7 16 8 17 9 19 10 18 11 13 12
REMARK SMILES IDX 12 13 14 15 10 16 11 17 9 18 3 19 4 20 5 21 8 22 6 23 7 24
REMARK SMILES IDX 2 25 1 26 25 27 26 28 27 29 28 30 29 32 30 33 31 34 89 35
REMARK SMILES IDX 32 36 88 37 33 38 34 39 35 40 82 41 36 42 87 43 81 44 83 45
REMARK SMILES IDX 37 46 86 47 80 48 79 49 38 51 68 52 49 53 67 54 50 55 53 56
REMARK SMILES IDX 66 57 84 58 51 59 52 60 65 62 85 63 54 64 39 65 40 66 48 67
REMARK SMILES IDX 41 68 47 69 42 70 43 71 44 72 45 73 46 74 69 75 70 76 78 77
REMARK SMILES IDX 71 78 77 79 72 80 73 81 74 82 75 83 76 84 55 85 56 86 64 87
REMARK SMILES IDX 57 88 63 89 58 90 59 91 60 92 61 93 62 94
REMARK H PARENT 23 5 12 14 27 31 83 50 53 61
REMARK Flexibility Score: inf
ROOT
ATOM      1  C   UNL A   1      35.120  23.244  23.636  1.00  0.00     0.117 C 
ENDROOT
BRANCH   1   2
ATOM      2  N   UNL A   1      34.327  24.393  23.228  1.00  0.00    -0.356 N 
ATOM      3  C   UNL A   1      33.169  24.878  23.747  1.00  0.00     0.224 C 
ATOM      4  O   UNL A   1      32.449  25.568  23.024  1.00  0.00    -0.275 OA
ATOM      5  H   UNL A   1      34.684  24.894  22.460  1.00  0.00     0.163 HD
BRANCH   3   6
ATOM      6  C   UNL A   1      32.880  24.698  25.229  1.00  0.00     0.095 C 
ATOM      7  C   UNL A   1      31.390  24.383  25.441  1.00  0.00     0.095 C 
ATOM      8  C   UNL A   1      30.482  25.594  25.661  1.00  0.00     0.041 C 
ATOM      9  C   UNL A   1      31.120  26.750  26.362  1.00  0.00    -0.030 C 
ATOM     10  C   UNL A   1      33.450  25.969  25.901  1.00  0.00     0.041 C 
ATOM     11  C   UNL A   1      32.442  26.913  26.475  1.00  0.00    -0.030 C 
BRANCH   7  12
ATOM     12  C   UNL A   1      31.047  23.228  26.398  1.00  0.00     0.224 C 
ATOM     13  N   UNL A   1      31.709  22.050  26.483  1.00  0.00    -0.349 N 
ATOM     14  H   UNL A   1      31.299  21.410  27.108  1.00  0.00     0.164 HD
ATOM     15  O   UNL A   1      30.114  23.373  27.198  1.00  0.00    -0.275 OA
BRANCH  13  16
ATOM     16  C   UNL A   1      32.905  21.545  25.829  1.00  0.00     0.113 C 
ATOM     17  C   UNL A   1      33.923  21.101  26.878  1.00  0.00     0.036 C 
BRANCH  16  18
ATOM     18  C   UNL A   1      32.551  20.595  24.688  1.00  0.00     0.019 A 
ATOM     19  C   UNL A   1      32.529  19.192  24.760  1.00  0.00     0.124 A 
ATOM     20  C   UNL A   1      32.300  18.411  23.613  1.00  0.00     0.050 A 
ATOM     21  C   UNL A   1      32.121  19.010  22.368  1.00  0.00     0.043 A 
ATOM     22  C   UNL A   1      32.313  21.171  23.419  1.00  0.00     0.049 A 
ATOM     23  C   UNL A   1      32.120  20.390  22.285  1.00  0.00     0.123 A 
ATOM     24  F   UNL A   1      31.943  20.985  21.099  1.00  0.00    -0.207 F 
BRANCH  19  25
ATOM     25  O   UNL A   1      32.643  18.577  25.977  1.00  0.00    -0.496 OA
ATOM     26  C   UNL A   1      32.786  17.162  25.870  1.00  0.00     0.278 C 
ENDBRANCH  19  25
ENDBRANCH  16  18
ENDBRANCH  13  16
ENDBRANCH   7  12
ENDBRANCH   3   6
ENDBRANCH   1   2
BRANCH   1  27
ATOM     27  C   UNL A   1      36.469  23.691  24.188  1.00  0.00     0.042 C 
BRANCH  27  28
ATOM     28  C   UNL A   1      36.654  23.427  25.678  1.00  0.00     0.118 C 
BRANCH  28  29
ATOM     29  N   UNL A   1      37.658  22.409  25.956  1.00  0.00    -0.352 N 
ATOM     30  C   UNL A   1      38.942  22.576  26.414  1.00  0.00     0.251 C 
ATOM     31  H   UNL A   1      37.380  21.479  25.795  1.00  0.00     0.163 HD
ATOM     32  O   UNL A   1      39.710  21.618  26.459  1.00  0.00    -0.269 OA
BRANCH  30  33
ATOM     33  C   UNL A   1      39.398  23.921  26.820  1.00  0.00     0.039 A 
ATOM     34  C   UNL A   1      39.307  24.290  28.163  1.00  0.00     0.014 A 
ATOM     35  C   UNL A   1      39.945  24.800  25.879  1.00  0.00     0.014 A 
ATOM     36  C   UNL A   1      39.831  25.516  28.577  1.00  0.00     0.010 A 
ATOM     37  C   UNL A   1      40.530  25.988  26.306  1.00  0.00     0.010 A 
ATOM     38  C   UNL A   1      40.481  26.357  27.659  1.00  0.00    -0.014 A 
BRANCH  38  39
ATOM     39  C   UNL A   1      41.128  27.621  28.094  1.00  0.00     0.031 A 
ATOM     40  C   UNL A   1      42.625  27.760  28.037  1.00  0.00     0.074 A 
ATOM     41  C   UNL A   1      40.374  28.613  28.607  1.00  0.00     0.049 A 
ATOM     42  N   UNL A   1      43.375  28.755  28.438  1.00  0.00    -0.248 NA
ATOM     43  C   UNL A   1      43.378  26.625  27.481  1.00  0.00     0.031 C 
ATOM     44  C   UNL A   1      38.916  28.583  28.753  1.00  0.00     0.029 A 
ATOM     45  N   UNL A   1      40.731  29.839  29.109  1.00  0.00    -0.354 N 
ATOM     46  C   UNL A   1      44.685  28.359  28.200  1.00  0.00     0.074 A 
ATOM     47  C   UNL A   1      44.631  27.016  27.664  1.00  0.00     0.031 C 
ATOM     48  C   UNL A   1      38.503  29.745  29.284  1.00  0.00     0.029 A 
ATOM     49  C   UNL A   1      39.665  30.585  29.555  1.00  0.00     0.049 A 
ATOM     50  H   UNL A   1      41.663  30.156  29.147  1.00  0.00     0.167 HD
ATOM     51  C   UNL A   1      45.831  29.055  28.393  1.00  0.00     0.031 A 
ATOM     52  C   UNL A   1      39.626  31.804  30.128  1.00  0.00     0.031 A 
ATOM     53  C   UNL A   1      45.880  30.394  28.916  1.00  0.00     0.049 A 
ATOM     54  C   UNL A   1      40.912  32.554  30.342  1.00  0.00     0.074 A 
ATOM     55  C   UNL A   1      46.986  31.207  29.098  1.00  0.00     0.029 A 
ATOM     56  N   UNL A   1      44.778  31.118  29.346  1.00  0.00    -0.354 N 
ATOM     57  N   UNL A   1      42.137  32.189  30.050  1.00  0.00    -0.248 NA
ATOM     58  C   UNL A   1      40.808  33.887  30.953  1.00  0.00     0.031 C 
ATOM     59  C   UNL A   1      46.558  32.403  29.683  1.00  0.00     0.029 A 
ATOM     60  C   UNL A   1      45.179  32.358  29.813  1.00  0.00     0.049 A 
ATOM     61  H   UNL A   1      43.847  30.797  29.323  1.00  0.00     0.167 HD
ATOM     62  C   UNL A   1      42.948  33.256  30.418  1.00  0.00     0.074 A 
ATOM     63  C   UNL A   1      42.073  34.286  30.941  1.00  0.00     0.031 C 
ATOM     64  C   UNL A   1      44.296  33.373  30.330  1.00  0.00     0.031 A 
BRANCH  51  65
ATOM     65  C   UNL A   1      47.126  28.376  28.037  1.00  0.00    -0.014 A 
ATOM     66  C   UNL A   1      47.835  27.620  28.989  1.00  0.00     0.010 A 
ATOM     67  C   UNL A   1      47.628  28.465  26.726  1.00  0.00     0.010 A 
ATOM     68  C   UNL A   1      49.042  27.003  28.649  1.00  0.00     0.020 A 
ATOM     69  C   UNL A   1      48.820  27.827  26.373  1.00  0.00     0.020 A 
ATOM     70  C   UNL A   1      49.529  27.115  27.343  1.00  0.00     0.054 A 
BRANCH  70  71
ATOM     71  S   UNL A   1      51.088  26.289  26.924  1.00  0.00     0.124 S 
ATOM     72  O   UNL A   1      50.820  24.913  27.335  1.00  0.00    -0.237 OA
ATOM     73  O   UNL A   1      51.189  26.505  25.483  1.00  0.00    -0.237 OA
ATOM     74  O   UNL A   1      52.083  26.996  27.728  1.00  0.00    -0.744 OA
ENDBRANCH  70  71
ENDBRANCH  51  65
BRANCH  52  75
ATOM     75  C   UNL A   1      38.319  32.397  30.524  1.00  0.00    -0.014 A 
ATOM     76  C   UNL A   1      37.793  32.165  31.807  1.00  0.00     0.010 A 
ATOM     77  C   UNL A   1      37.603  33.211  29.628  1.00  0.00     0.010 A 
ATOM     78  C   UNL A   1      36.566  32.721  32.181  1.00  0.00     0.020 A 
ATOM     79  C   UNL A   1      36.389  33.791  30.008  1.00  0.00     0.020 A 
ATOM     80  C   UNL A   1      35.872  33.532  31.278  1.00  0.00     0.054 A 
BRANCH  80  81
ATOM     81  S   UNL A   1      34.307  34.286  31.805  1.00  0.00     0.124 S 
ATOM     82  O   UNL A   1      33.610  34.456  30.535  1.00  0.00    -0.237 OA
ATOM     83  O   UNL A   1      33.755  33.274  32.701  1.00  0.00    -0.237 OA
ATOM     84  O   UNL A   1      34.728  35.523  32.460  1.00  0.00    -0.744 OA
ENDBRANCH  80  81
ENDBRANCH  52  75
BRANCH  64  85
ATOM     85  C   UNL A   1      44.911  34.673  30.777  1.00  0.00    -0.014 A 
ATOM     86  C   UNL A   1      44.928  35.799  29.936  1.00  0.00     0.010 A 
ATOM     87  C   UNL A   1      45.425  34.782  32.082  1.00  0.00     0.010 A 
ATOM     88  C   UNL A   1      45.471  37.005  30.384  1.00  0.00     0.020 A 
ATOM     89  C   UNL A   1      45.946  35.993  32.543  1.00  0.00     0.020 A 
ATOM     90  C   UNL A   1      45.976  37.095  31.685  1.00  0.00     0.054 A 
BRANCH  90  91
ATOM     91  S   UNL A   1      46.630  38.686  32.261  1.00  0.00     0.124 S 
ATOM     92  O   UNL A   1      48.059  38.540  32.000  1.00  0.00    -0.237 OA
ATOM     93  O   UNL A   1      45.931  39.647  31.412  1.00  0.00    -0.237 OA
ATOM     94  O   UNL A   1      46.256  38.724  33.673  1.00  0.00    -0.744 OA
ENDBRANCH  90  91
ENDBRANCH  64  85
ENDBRANCH  38  39
ENDBRANCH  30  33
ENDBRANCH  28  29
ENDBRANCH  27  28
ENDBRANCH   1  27
TORSDOF 17
ENDMDL
MODEL 3
REMARK VINA RESULT:      -8.5      5.054     12.275
REMARK SMILES COc1ccc(F)cc1[C@H](C)NC(=O)[C@H]1CC=CC[C@@H]1C(=O)NCCCNC(=O)c1ccc(-c2c3nc(c(-c4ccc(S(=O)(=O)[O-])cc4)c4ccc([nH]4)c(-c4ccc(S(=O)(=O)[O-])cc4)c4nc(c(-c5ccc(S(=O)(=O)[O-])cc5)c5ccc2[nH]5)C=C4)C=C3)cc1
REMARK SMILES IDX 24 1 23 2 21 3 22 4 20 6 15 7 16 8 17 9 19 10 18 11 13 12
REMARK SMILES IDX 12 13 14 15 10 16 11 17 9 18 3 19 4 20 5 21 8 22 6 23 7 24
REMARK SMILES IDX 2 25 1 26 25 27 26 28 27 29 28 30 29 32 30 33 31 34 89 35
REMARK SMILES IDX 32 36 88 37 33 38 34 39 35 40 82 41 36 42 87 43 81 44 83 45
REMARK SMILES IDX 37 46 86 47 80 48 79 49 38 51 68 52 49 53 67 54 50 55 53 56
REMARK SMILES IDX 66 57 84 58 51 59 52 60 65 62 85 63 54 64 39 65 40 66 48 67
REMARK SMILES IDX 41 68 47 69 42 70 43 71 44 72 45 73 46 74 69 75 70 76 78 77
REMARK SMILES IDX 71 78 77 79 72 80 73 81 74 82 75 83 76 84 55 85 56 86 64 87
REMARK SMILES IDX 57 88 63 89 58 90 59 91 60 92 61 93 62 94
REMARK H PARENT 23 5 12 14 27 31 83 50 53 61
REMARK Flexibility Score: inf
ROOT
ATOM      1  C   UNL A   1      36.388  23.675  26.457  1.00  0.00     0.117 C 
ENDROOT
BRANCH   1   2
ATOM      2  N   UNL A   1      35.720  22.399  26.659  1.00  0.00    -0.356 N 
ATOM      3  C   UNL A   1      34.394  22.117  26.750  1.00  0.00     0.224 C 
ATOM      4  O   UNL A   1      34.055  21.088  27.335  1.00  0.00    -0.275 OA
ATOM      5  H   UNL A   1      36.320  21.624  26.743  1.00  0.00     0.163 HD
BRANCH   3   6
ATOM      6  C   UNL A   1      33.393  22.978  25.997  1.00  0.00     0.095 C 
ATOM      7  C   UNL A   1      31.975  22.408  26.167  1.00  0.00     0.095 C 
ATOM      8  C   UNL A   1      31.536  21.398  25.105  1.00  0.00     0.041 C 
ATOM      9  C   UNL A   1      32.106  21.618  23.741  1.00  0.00    -0.030 C 
ATOM     10  C   UNL A   1      33.960  23.081  24.561  1.00  0.00     0.041 C 
ATOM     11  C   UNL A   1      33.181  22.374  23.499  1.00  0.00    -0.030 C 
BRANCH   7  12
ATOM     12  C   UNL A   1      30.853  23.406  26.506  1.00  0.00     0.224 C 
ATOM     13  N   UNL A   1      30.634  24.588  25.883  1.00  0.00    -0.349 N 
ATOM     14  H   UNL A   1      29.910  25.119  26.285  1.00  0.00     0.164 HD
ATOM     15  O   UNL A   1      30.044  23.115  27.395  1.00  0.00    -0.275 OA
BRANCH  13  16
ATOM     16  C   UNL A   1      31.260  25.226  24.736  1.00  0.00     0.113 C 
ATOM     17  C   UNL A   1      30.362  25.085  23.508  1.00  0.00     0.036 C 
BRANCH  16  18
ATOM     18  C   UNL A   1      31.808  26.603  25.102  1.00  0.00     0.019 A 
ATOM     19  C   UNL A   1      32.799  27.309  24.401  1.00  0.00     0.124 A 
ATOM     20  C   UNL A   1      33.312  28.522  24.895  1.00  0.00     0.050 A 
ATOM     21  C   UNL A   1      32.871  29.038  26.112  1.00  0.00     0.043 A 
ATOM     22  C   UNL A   1      31.345  27.182  26.306  1.00  0.00     0.049 A 
ATOM     23  C   UNL A   1      31.882  28.365  26.804  1.00  0.00     0.123 A 
ATOM     24  F   UNL A   1      31.439  28.848  27.971  1.00  0.00    -0.207 F 
BRANCH  19  25
ATOM     25  O   UNL A   1      33.209  26.858  23.176  1.00  0.00    -0.496 OA
ATOM     26  C   UNL A   1      33.631  27.912  22.312  1.00  0.00     0.278 C 
ENDBRANCH  19  25
ENDBRANCH  16  18
ENDBRANCH  13  16
ENDBRANCH   7  12
ENDBRANCH   3   6
ENDBRANCH   1   2
BRANCH   1  27
ATOM     27  C   UNL A   1      37.735  23.475  25.773  1.00  0.00     0.042 C 
BRANCH  27  28
ATOM     28  C   UNL A   1      38.760  24.563  26.075  1.00  0.00     0.118 C 
BRANCH  28  29
ATOM     29  N   UNL A   1      40.123  24.056  26.152  1.00  0.00    -0.352 N 
ATOM     30  C   UNL A   1      41.183  24.557  26.866  1.00  0.00     0.251 C 
ATOM     31  H   UNL A   1      40.309  23.247  25.622  1.00  0.00     0.163 HD
ATOM     32  O   UNL A   1      42.309  24.091  26.708  1.00  0.00    -0.269 OA
BRANCH  30  33
ATOM     33  C   UNL A   1      40.963  25.681  27.800  1.00  0.00     0.039 A 
ATOM     34  C   UNL A   1      39.878  25.628  28.677  1.00  0.00     0.014 A 
ATOM     35  C   UNL A   1      41.846  26.765  27.828  1.00  0.00     0.014 A 
ATOM     36  C   UNL A   1      39.718  26.631  29.635  1.00  0.00     0.010 A 
ATOM     37  C   UNL A   1      41.726  27.723  28.829  1.00  0.00     0.010 A 
ATOM     38  C   UNL A   1      40.663  27.666  29.744  1.00  0.00    -0.014 A 
BRANCH  38  39
ATOM     39  C   UNL A   1      40.565  28.690  30.814  1.00  0.00     0.031 A 
ATOM     40  C   UNL A   1      41.436  28.588  32.037  1.00  0.00     0.074 A 
ATOM     41  C   UNL A   1      39.643  29.668  30.719  1.00  0.00     0.049 A 
ATOM     42  N   UNL A   1      41.445  29.342  33.106  1.00  0.00    -0.248 NA
ATOM     43  C   UNL A   1      42.405  27.481  32.074  1.00  0.00     0.031 C 
ATOM     44  C   UNL A   1      38.712  29.850  29.602  1.00  0.00     0.029 A 
ATOM     45  N   UNL A   1      39.331  30.690  31.579  1.00  0.00    -0.354 N 
ATOM     46  C   UNL A   1      42.404  28.792  33.948  1.00  0.00     0.074 A 
ATOM     47  C   UNL A   1      42.922  27.614  33.286  1.00  0.00     0.031 C 
ATOM     48  C   UNL A   1      37.951  30.932  29.836  1.00  0.00     0.029 A 
ATOM     49  C   UNL A   1      38.310  31.496  31.133  1.00  0.00     0.049 A 
ATOM     50  H   UNL A   1      39.794  30.834  32.436  1.00  0.00     0.167 HD
ATOM     51  C   UNL A   1      42.828  29.236  35.155  1.00  0.00     0.031 A 
ATOM     52  C   UNL A   1      37.719  32.562  31.707  1.00  0.00     0.031 A 
ATOM     53  C   UNL A   1      42.319  30.413  35.805  1.00  0.00     0.049 A 
ATOM     54  C   UNL A   1      38.201  33.030  33.053  1.00  0.00     0.074 A 
ATOM     55  C   UNL A   1      42.722  30.977  37.003  1.00  0.00     0.029 A 
ATOM     56  N   UNL A   1      41.292  31.206  35.315  1.00  0.00    -0.354 N 
ATOM     57  N   UNL A   1      39.154  32.534  33.804  1.00  0.00    -0.248 NA
ATOM     58  C   UNL A   1      37.534  34.210  33.623  1.00  0.00     0.031 C 
ATOM     59  C   UNL A   1      41.906  32.084  37.261  1.00  0.00     0.029 A 
ATOM     60  C   UNL A   1      41.034  32.242  36.197  1.00  0.00     0.049 A 
ATOM     61  H   UNL A   1      40.817  31.056  34.466  1.00  0.00     0.167 HD
ATOM     62  C   UNL A   1      39.219  33.355  34.925  1.00  0.00     0.074 A 
ATOM     63  C   UNL A   1      38.218  34.388  34.745  1.00  0.00     0.031 C 
ATOM     64  C   UNL A   1      40.034  33.263  36.003  1.00  0.00     0.031 A 
BRANCH  51  65
ATOM     65  C   UNL A   1      43.898  28.437  35.852  1.00  0.00    -0.014 A 
ATOM     66  C   UNL A   1      43.567  27.436  36.784  1.00  0.00     0.010 A 
ATOM     67  C   UNL A   1      45.253  28.667  35.549  1.00  0.00     0.010 A 
ATOM     68  C   UNL A   1      44.569  26.711  37.432  1.00  0.00     0.020 A 
ATOM     69  C   UNL A   1      46.259  27.924  36.174  1.00  0.00     0.020 A 
ATOM     70  C   UNL A   1      45.910  26.963  37.125  1.00  0.00     0.054 A 
BRANCH  70  71
ATOM     71  S   UNL A   1      47.191  25.994  37.968  1.00  0.00     0.124 S 
ATOM     72  O   UNL A   1      47.226  26.623  39.286  1.00  0.00    -0.237 OA
ATOM     73  O   UNL A   1      46.645  24.639  37.934  1.00  0.00    -0.237 OA
ATOM     74  O   UNL A   1      48.382  26.203  37.147  1.00  0.00    -0.744 OA
ENDBRANCH  70  71
ENDBRANCH  51  65
BRANCH  52  75
ATOM     75  C   UNL A   1      36.616  33.271  31.001  1.00  0.00    -0.014 A 
ATOM     76  C   UNL A   1      36.846  33.882  29.756  1.00  0.00     0.010 A 
ATOM     77  C   UNL A   1      35.327  33.323  31.562  1.00  0.00     0.010 A 
ATOM     78  C   UNL A   1      35.811  34.548  29.093  1.00  0.00     0.020 A 
ATOM     79  C   UNL A   1      34.283  33.964  30.888  1.00  0.00     0.020 A 
ATOM     80  C   UNL A   1      34.535  34.583  29.663  1.00  0.00     0.054 A 
BRANCH  80  81
ATOM     81  S   UNL A   1      33.195  35.407  28.757  1.00  0.00     0.124 S 
ATOM     82  O   UNL A   1      33.933  36.299  27.869  1.00  0.00    -0.237 OA
ATOM     83  O   UNL A   1      32.515  34.288  28.111  1.00  0.00    -0.237 OA
ATOM     84  O   UNL A   1      32.427  36.067  29.811  1.00  0.00    -0.744 OA
ENDBRANCH  80  81
ENDBRANCH  52  75
BRANCH  64  85
ATOM     85  C   UNL A   1      39.906  34.325  37.063  1.00  0.00    -0.014 A 
ATOM     86  C   UNL A   1      40.585  35.550  36.954  1.00  0.00     0.010 A 
ATOM     87  C   UNL A   1      39.044  34.112  38.155  1.00  0.00     0.010 A 
ATOM     88  C   UNL A   1      40.424  36.535  37.931  1.00  0.00     0.020 A 
ATOM     89  C   UNL A   1      38.860  35.105  39.120  1.00  0.00     0.020 A 
ATOM     90  C   UNL A   1      39.561  36.307  39.008  1.00  0.00     0.054 A 
BRANCH  90  91
ATOM     91  S   UNL A   1      39.329  37.621  40.236  1.00  0.00     0.124 S 
ATOM     92  O   UNL A   1      40.645  38.252  40.259  1.00  0.00    -0.237 OA
ATOM     93  O   UNL A   1      38.259  38.423  39.651  1.00  0.00    -0.237 OA
ATOM     94  O   UNL A   1      38.964  36.898  41.453  1.00  0.00    -0.744 OA
ENDBRANCH  90  91
ENDBRANCH  64  85
ENDBRANCH  38  39
ENDBRANCH  30  33
ENDBRANCH  28  29
ENDBRANCH  27  28
ENDBRANCH   1  27
TORSDOF 17
ENDMDL
