MODEL 1
REMARK VINA RESULT:     -13.0      0.000      0.000
REMARK SMILES NS(=O)(=O)c1ccc(-n2nc(NC(=O)NCCCC(=O)NCCCNC(=O)c3ccc(-c4c5nc(c(-c6ccc(S(=O)(=O)[O-])cc6)c6ccc([nH]6)c(-c6ccc(S(=O)(=O)[O-])cc6)c6nc(c(-c7ccc(S(=O)(=O)[O-])cc7)c7ccc4[nH]7)C=C6)C=C5)cc3)cc2-c2ccccc2)cc1
REMARK SMILES IDX 19 1 20 2 21 3 18 5 17 6 16 7 15 8 12 9 13 10 14 12 11 14
REMARK SMILES IDX 9 15 10 16 89 17 88 18 8 19 5 20 6 21 97 22 7 23 96 24 2 25
REMARK SMILES IDX 3 26 4 27 1 28 90 31 91 32 95 33 92 34 94 35 93 36 22 37
REMARK SMILES IDX 23 38 24 39 25 40 26 41 27 43 28 44 29 45 87 46 30 47 86 48
REMARK SMILES IDX 31 49 32 50 33 51 80 52 34 53 85 54 79 55 81 56 35 57 84 58
REMARK SMILES IDX 78 59 77 60 36 62 66 63 47 64 65 65 48 66 51 67 64 68 82 69
REMARK SMILES IDX 49 70 50 71 63 73 83 74 52 75 37 76 38 77 46 78 39 79 45 80
REMARK SMILES IDX 40 81 41 82 42 83 43 84 44 85 67 86 68 87 76 88 69 89 75 90
REMARK SMILES IDX 70 91 71 92 72 93 73 94 74 95 53 96 54 97 62 98 55 99 61 100
REMARK SMILES IDX 56 101 57 102 58 103 59 104 60 105
REMARK H PARENT 21 4 12 11 15 13 1 29 1 30 25 42 81 61 51 72
REMARK Flexibility Score: inf
ROOT
ATOM      1  C   UNL A   1      35.572  22.203  25.076  1.00  0.00     0.220 C 
ATOM      2  O   UNL A   1      34.468  21.775  25.416  1.00  0.00    -0.275 OA
ATOM      3  N   UNL A   1      36.609  22.082  25.951  1.00  0.00    -0.356 N 
ATOM      4  H   UNL A   1      36.393  21.577  26.769  1.00  0.00     0.163 HD
ENDROOT
BRANCH   1   5
ATOM      5  C   UNL A   1      35.767  22.831  23.708  1.00  0.00     0.102 C 
BRANCH   5   6
ATOM      6  C   UNL A   1      34.991  24.135  23.514  1.00  0.00     0.031 C 
BRANCH   6   7
ATOM      7  C   UNL A   1      33.846  24.038  22.516  1.00  0.00     0.118 C 
BRANCH   7   8
ATOM      8  N   UNL A   1      33.277  22.707  22.374  1.00  0.00    -0.338 N 
ATOM      9  N   UNL A   1      31.726  22.518  24.184  1.00  0.00    -0.291 N 
ATOM     10  C   UNL A   1      32.354  22.035  23.092  1.00  0.00     0.320 C 
ATOM     11  H   UNL A   1      31.327  21.825  24.758  1.00  0.00     0.173 HD
ATOM     12  O   UNL A   1      32.149  20.856  22.775  1.00  0.00    -0.248 OA
ATOM     13  H   UNL A   1      33.632  22.201  21.607  1.00  0.00     0.165 HD
BRANCH   9  14
ATOM     14  C   UNL A   1      31.542  23.799  24.641  1.00  0.00     0.157 A 
ATOM     15  N   UNL A   1      30.861  25.803  24.684  1.00  0.00    -0.231 N 
ATOM     16  N   UNL A   1      30.481  24.551  24.374  1.00  0.00    -0.149 NA
ATOM     17  C   UNL A   1      31.938  25.786  25.562  1.00  0.00     0.076 A 
ATOM     18  C   UNL A   1      32.403  24.481  25.528  1.00  0.00     0.078 A 
BRANCH  15  19
ATOM     19  C   UNL A   1      30.243  26.896  24.023  1.00  0.00     0.065 A 
ATOM     20  C   UNL A   1      29.022  29.023  22.710  1.00  0.00     0.082 A 
ATOM     21  C   UNL A   1      30.416  28.952  22.754  1.00  0.00     0.024 A 
ATOM     22  C   UNL A   1      28.233  28.024  23.286  1.00  0.00     0.024 A 
ATOM     23  C   UNL A   1      31.027  27.890  23.420  1.00  0.00     0.030 A 
ATOM     24  C   UNL A   1      28.845  26.944  23.923  1.00  0.00     0.030 A 
BRANCH  20  25
ATOM     25  S   UNL A   1      28.250  30.414  21.934  1.00  0.00     0.238 S 
ATOM     26  O   UNL A   1      27.233  30.931  22.831  1.00  0.00    -0.207 OA
ATOM     27  O   UNL A   1      28.003  30.079  20.561  1.00  0.00    -0.207 OA
BRANCH  25  28
ATOM     28  N   UNL A   1      29.475  31.571  21.934  1.00  0.00    -0.225 NA
ATOM     29  H   UNL A   1      30.364  31.124  21.710  1.00  0.00     0.137 HD
ATOM     30  H   UNL A   1      29.534  32.003  22.856  1.00  0.00     0.137 HD
ENDBRANCH  25  28
ENDBRANCH  20  25
ENDBRANCH  15  19
BRANCH  17  31
ATOM     31  C   UNL A   1      32.397  26.962  26.291  1.00  0.00     0.000 A 
ATOM     32  C   UNL A   1      31.486  27.698  27.063  1.00  0.00     0.010 A 
ATOM     33  C   UNL A   1      33.706  27.430  26.141  1.00  0.00     0.010 A 
ATOM     34  C   UNL A   1      31.859  28.914  27.630  1.00  0.00     0.001 A 
ATOM     35  C   UNL A   1      34.078  28.649  26.711  1.00  0.00     0.001 A 
ATOM     36  C   UNL A   1      33.153  29.394  27.444  1.00  0.00     0.000 A 
ENDBRANCH  17  31
ENDBRANCH   9  14
ENDBRANCH   7   8
ENDBRANCH   6   7
ENDBRANCH   5   6
ENDBRANCH   1   5
BRANCH   3  37
ATOM     37  C   UNL A   1      37.981  22.571  25.887  1.00  0.00     0.117 C 
BRANCH  37  38
ATOM     38  C   UNL A   1      39.000  21.437  25.765  1.00  0.00     0.042 C 
BRANCH  38  39
ATOM     39  C   UNL A   1      40.164  21.522  26.732  1.00  0.00     0.118 C 
BRANCH  39  40
ATOM     40  N   UNL A   1      41.435  21.750  26.057  1.00  0.00    -0.352 N 
ATOM     41  C   UNL A   1      42.086  22.950  25.857  1.00  0.00     0.251 C 
ATOM     42  H   UNL A   1      41.886  20.950  25.701  1.00  0.00     0.163 HD
ATOM     43  O   UNL A   1      42.909  23.056  24.954  1.00  0.00    -0.269 OA
BRANCH  41  44
ATOM     44  C   UNL A   1      41.751  24.109  26.709  1.00  0.00     0.039 A 
ATOM     45  C   UNL A   1      42.384  24.281  27.940  1.00  0.00     0.014 A 
ATOM     46  C   UNL A   1      40.819  25.047  26.267  1.00  0.00     0.014 A 
ATOM     47  C   UNL A   1      42.143  25.444  28.667  1.00  0.00     0.010 A 
ATOM     48  C   UNL A   1      40.692  26.259  26.914  1.00  0.00     0.010 A 
ATOM     49  C   UNL A   1      41.326  26.460  28.132  1.00  0.00    -0.014 A 
BRANCH  49  50
ATOM     50  C   UNL A   1      41.242  27.756  28.810  1.00  0.00     0.031 A 
ATOM     51  C   UNL A   1      42.268  28.744  28.386  1.00  0.00     0.074 A 
ATOM     52  C   UNL A   1      40.275  28.152  29.666  1.00  0.00     0.049 A 
ATOM     53  N   UNL A   1      43.357  29.039  29.013  1.00  0.00    -0.248 NA
ATOM     54  C   UNL A   1      42.156  29.357  27.055  1.00  0.00     0.031 C 
ATOM     55  C   UNL A   1      39.028  27.471  30.024  1.00  0.00     0.029 A 
ATOM     56  N   UNL A   1      40.182  29.328  30.351  1.00  0.00    -0.354 N 
ATOM     57  C   UNL A   1      43.949  30.061  28.284  1.00  0.00     0.074 A 
ATOM     58  C   UNL A   1      43.283  30.073  27.004  1.00  0.00     0.031 C 
ATOM     59  C   UNL A   1      38.209  28.331  30.670  1.00  0.00     0.029 A 
ATOM     60  C   UNL A   1      38.943  29.551  30.941  1.00  0.00     0.049 A 
ATOM     61  H   UNL A   1      40.929  29.965  30.423  1.00  0.00     0.167 HD
ATOM     62  C   UNL A   1      44.744  30.987  28.892  1.00  0.00     0.031 A 
ATOM     63  C   UNL A   1      38.548  30.654  31.621  1.00  0.00     0.031 A 
ATOM     64  C   UNL A   1      45.111  30.580  30.229  1.00  0.00     0.049 A 
ATOM     65  C   UNL A   1      39.770  31.311  32.134  1.00  0.00     0.074 A 
ATOM     66  C   UNL A   1      45.731  29.479  30.786  1.00  0.00     0.029 A 
ATOM     67  N   UNL A   1      44.457  31.210  31.264  1.00  0.00    -0.354 N 
ATOM     68  N   UNL A   1      40.534  30.786  33.051  1.00  0.00    -0.248 NA
ATOM     69  C   UNL A   1      40.374  32.384  31.362  1.00  0.00     0.031 C 
ATOM     70  C   UNL A   1      45.045  29.248  32.016  1.00  0.00     0.029 A 
ATOM     71  C   UNL A   1      44.094  30.257  32.179  1.00  0.00     0.049 A 
ATOM     72  H   UNL A   1      44.283  32.176  31.335  1.00  0.00     0.167 HD
ATOM     73  C   UNL A   1      41.822  31.135  32.679  1.00  0.00     0.074 A 
ATOM     74  C   UNL A   1      41.650  32.223  31.721  1.00  0.00     0.031 C 
ATOM     75  C   UNL A   1      42.882  30.324  32.974  1.00  0.00     0.031 A 
BRANCH  62  76
ATOM     76  C   UNL A   1      44.812  32.436  28.464  1.00  0.00    -0.014 A 
ATOM     77  C   UNL A   1      46.039  33.121  28.583  1.00  0.00     0.010 A 
ATOM     78  C   UNL A   1      43.663  33.221  28.236  1.00  0.00     0.010 A 
ATOM     79  C   UNL A   1      46.095  34.522  28.567  1.00  0.00     0.020 A 
ATOM     80  C   UNL A   1      43.715  34.614  28.171  1.00  0.00     0.020 A 
ATOM     81  C   UNL A   1      44.926  35.258  28.377  1.00  0.00     0.054 A 
BRANCH  81  82
ATOM     82  S   UNL A   1      44.986  37.064  28.469  1.00  0.00     0.124 S 
ATOM     83  O   UNL A   1      46.037  37.275  29.457  1.00  0.00    -0.237 OA
ATOM     84  O   UNL A   1      45.318  37.431  27.096  1.00  0.00    -0.237 OA
ATOM     85  O   UNL A   1      43.636  37.426  28.896  1.00  0.00    -0.744 OA
ENDBRANCH  81  82
ENDBRANCH  62  76
BRANCH  63  86
ATOM     86  C   UNL A   1      37.212  31.294  31.673  1.00  0.00    -0.014 A 
ATOM     87  C   UNL A   1      36.655  31.680  32.907  1.00  0.00     0.010 A 
ATOM     88  C   UNL A   1      36.630  31.809  30.498  1.00  0.00     0.010 A 
ATOM     89  C   UNL A   1      35.618  32.624  32.967  1.00  0.00     0.020 A 
ATOM     90  C   UNL A   1      35.586  32.743  30.550  1.00  0.00     0.020 A 
ATOM     91  C   UNL A   1      35.110  33.173  31.787  1.00  0.00     0.054 A 
BRANCH  91  92
ATOM     92  S   UNL A   1      33.937  34.558  31.884  1.00  0.00     0.124 S 
ATOM     93  O   UNL A   1      32.969  34.080  32.866  1.00  0.00    -0.237 OA
ATOM     94  O   UNL A   1      34.786  35.664  32.322  1.00  0.00    -0.237 OA
ATOM     95  O   UNL A   1      33.430  34.679  30.518  1.00  0.00    -0.744 OA
ENDBRANCH  91  92
ENDBRANCH  63  86
BRANCH  75  96
ATOM     96  C   UNL A   1      42.711  29.276  34.053  1.00  0.00    -0.014 A 
ATOM     97  C   UNL A   1      42.837  29.522  35.433  1.00  0.00     0.010 A 
ATOM     98  C   UNL A   1      42.316  27.990  33.640  1.00  0.00     0.010 A 
ATOM     99  C   UNL A   1      42.625  28.496  36.368  1.00  0.00     0.020 A 
ATOM    100  C   UNL A   1      42.081  26.970  34.565  1.00  0.00     0.020 A 
ATOM    101  C   UNL A   1      42.255  27.223  35.926  1.00  0.00     0.054 A 
BRANCH 101 102
ATOM    102  S   UNL A   1      41.978  25.899  37.135  1.00  0.00     0.124 S 
ATOM    103  O   UNL A   1      40.587  26.113  37.528  1.00  0.00    -0.237 OA
ATOM    104  O   UNL A   1      42.233  24.689  36.358  1.00  0.00    -0.237 OA
ATOM    105  O   UNL A   1      42.962  26.171  38.182  1.00  0.00    -0.744 OA
ENDBRANCH 101 102
ENDBRANCH  75  96
ENDBRANCH  49  50
ENDBRANCH  41  44
ENDBRANCH  39  40
ENDBRANCH  38  39
ENDBRANCH  37  38
ENDBRANCH   3  37
TORSDOF 21
ENDMDL
MODEL 2
REMARK VINA RESULT:     -12.2      1.842      2.789
REMARK SMILES NS(=O)(=O)c1ccc(-n2nc(NC(=O)NCCCC(=O)NCCCNC(=O)c3ccc(-c4c5nc(c(-c6ccc(S(=O)(=O)[O-])cc6)c6ccc([nH]6)c(-c6ccc(S(=O)(=O)[O-])cc6)c6nc(c(-c7ccc(S(=O)(=O)[O-])cc7)c7ccc4[nH]7)C=C6)C=C5)cc3)cc2-c2ccccc2)cc1
REMARK SMILES IDX 19 1 20 2 21 3 18 5 17 6 16 7 15 8 12 9 13 10 14 12 11 14
REMARK SMILES IDX 9 15 10 16 89 17 88 18 8 19 5 20 6 21 97 22 7 23 96 24 2 25
REMARK SMILES IDX 3 26 4 27 1 28 90 31 91 32 95 33 92 34 94 35 93 36 22 37
REMARK SMILES IDX 23 38 24 39 25 40 26 41 27 43 28 44 29 45 87 46 30 47 86 48
REMARK SMILES IDX 31 49 32 50 33 51 80 52 34 53 85 54 79 55 81 56 35 57 84 58
REMARK SMILES IDX 78 59 77 60 36 62 66 63 47 64 65 65 48 66 51 67 64 68 82 69
REMARK SMILES IDX 49 70 50 71 63 73 83 74 52 75 37 76 38 77 46 78 39 79 45 80
REMARK SMILES IDX 40 81 41 82 42 83 43 84 44 85 67 86 68 87 76 88 69 89 75 90
REMARK SMILES IDX 70 91 71 92 72 93 73 94 74 95 53 96 54 97 62 98 55 99 61 100
REMARK SMILES IDX 56 101 57 102 58 103 59 104 60 105
REMARK H PARENT 21 4 12 11 15 13 1 29 1 30 25 42 81 61 51 72
REMARK Flexibility Score: inf
ROOT
ATOM      1  C   UNL A   1      36.033  23.172  24.992  1.00  0.00     0.220 C 
ATOM      2  O   UNL A   1      35.496  23.363  23.900  1.00  0.00    -0.275 OA
ATOM      3  N   UNL A   1      37.393  23.199  25.055  1.00  0.00    -0.356 N 
ATOM      4  H   UNL A   1      37.834  23.455  24.212  1.00  0.00     0.163 HD
ENDROOT
BRANCH   1   5
ATOM      5  C   UNL A   1      35.193  22.932  26.232  1.00  0.00     0.102 C 
BRANCH   5   6
ATOM      6  C   UNL A   1      34.045  23.929  26.400  1.00  0.00     0.031 C 
BRANCH   6   7
ATOM      7  C   UNL A   1      32.683  23.391  25.982  1.00  0.00     0.118 C 
BRANCH   7   8
ATOM      8  N   UNL A   1      32.733  22.210  25.134  1.00  0.00    -0.338 N 
ATOM      9  N   UNL A   1      31.579  22.850  23.140  1.00  0.00    -0.291 N 
ATOM     10  C   UNL A   1      32.258  21.962  23.896  1.00  0.00     0.320 C 
ATOM     11  H   UNL A   1      31.049  22.441  22.419  1.00  0.00     0.173 HD
ATOM     12  O   UNL A   1      32.374  20.805  23.475  1.00  0.00    -0.248 OA
ATOM     13  H   UNL A   1      33.204  21.446  25.541  1.00  0.00     0.165 HD
BRANCH   9  14
ATOM     14  C   UNL A   1      31.493  24.219  23.193  1.00  0.00     0.157 A 
ATOM     15  N   UNL A   1      31.917  26.203  23.793  1.00  0.00    -0.231 N 
ATOM     16  N   UNL A   1      32.500  25.027  23.499  1.00  0.00    -0.149 NA
ATOM     17  C   UNL A   1      30.649  26.278  23.231  1.00  0.00     0.076 A 
ATOM     18  C   UNL A   1      30.354  24.979  22.850  1.00  0.00     0.078 A 
BRANCH  15  19
ATOM     19  C   UNL A   1      32.574  27.097  24.680  1.00  0.00     0.065 A 
ATOM     20  C   UNL A   1      33.838  28.864  26.417  1.00  0.00     0.082 A 
ATOM     21  C   UNL A   1      34.299  28.741  25.106  1.00  0.00     0.024 A 
ATOM     22  C   UNL A   1      32.729  28.136  26.859  1.00  0.00     0.024 A 
ATOM     23  C   UNL A   1      33.671  27.850  24.238  1.00  0.00     0.030 A 
ATOM     24  C   UNL A   1      32.079  27.268  25.981  1.00  0.00     0.030 A 
BRANCH  20  25
ATOM     25  S   UNL A   1      34.688  29.936  27.539  1.00  0.00     0.238 S 
ATOM     26  O   UNL A   1      34.915  29.214  28.777  1.00  0.00    -0.207 OA
ATOM     27  O   UNL A   1      34.070  31.229  27.475  1.00  0.00    -0.207 OA
BRANCH  25  28
ATOM     28  N   UNL A   1      36.208  30.092  26.829  1.00  0.00    -0.225 NA
ATOM     29  H   UNL A   1      36.902  29.614  27.403  1.00  0.00     0.137 HD
ATOM     30  H   UNL A   1      36.449  31.081  26.756  1.00  0.00     0.137 HD
ENDBRANCH  25  28
ENDBRANCH  20  25
ENDBRANCH  15  19
BRANCH  17  31
ATOM     31  C   UNL A   1      29.885  27.515  23.137  1.00  0.00     0.000 A 
ATOM     32  C   UNL A   1      28.528  27.521  23.494  1.00  0.00     0.010 A 
ATOM     33  C   UNL A   1      30.456  28.668  22.589  1.00  0.00     0.010 A 
ATOM     34  C   UNL A   1      27.738  28.643  23.253  1.00  0.00     0.001 A 
ATOM     35  C   UNL A   1      29.662  29.792  22.350  1.00  0.00     0.001 A 
ATOM     36  C   UNL A   1      28.304  29.774  22.672  1.00  0.00     0.000 A 
ENDBRANCH  17  31
ENDBRANCH   9  14
ENDBRANCH   7   8
ENDBRANCH   6   7
ENDBRANCH   5   6
ENDBRANCH   1   5
BRANCH   3  37
ATOM     37  C   UNL A   1      38.309  22.913  26.153  1.00  0.00     0.117 C 
BRANCH  37  38
ATOM     38  C   UNL A   1      39.141  21.653  25.906  1.00  0.00     0.042 C 
BRANCH  38  39
ATOM     39  C   UNL A   1      40.338  21.491  26.822  1.00  0.00     0.118 C 
BRANCH  39  40
ATOM     40  N   UNL A   1      41.602  21.725  26.137  1.00  0.00    -0.352 N 
ATOM     41  C   UNL A   1      42.214  22.934  25.877  1.00  0.00     0.251 C 
ATOM     42  H   UNL A   1      42.078  20.923  25.822  1.00  0.00     0.163 HD
ATOM     43  O   UNL A   1      43.035  23.020  24.969  1.00  0.00    -0.269 OA
BRANCH  41  44
ATOM     44  C   UNL A   1      41.841  24.124  26.669  1.00  0.00     0.039 A 
ATOM     45  C   UNL A   1      42.368  24.310  27.946  1.00  0.00     0.014 A 
ATOM     46  C   UNL A   1      40.979  25.075  26.124  1.00  0.00     0.014 A 
ATOM     47  C   UNL A   1      42.099  25.498  28.621  1.00  0.00     0.010 A 
ATOM     48  C   UNL A   1      40.832  26.307  26.728  1.00  0.00     0.010 A 
ATOM     49  C   UNL A   1      41.363  26.522  27.993  1.00  0.00    -0.014 A 
BRANCH  49  50
ATOM     50  C   UNL A   1      41.258  27.837  28.630  1.00  0.00     0.031 A 
ATOM     51  C   UNL A   1      42.301  28.810  28.214  1.00  0.00     0.074 A 
ATOM     52  C   UNL A   1      40.263  28.259  29.439  1.00  0.00     0.049 A 
ATOM     53  N   UNL A   1      43.368  29.122  28.870  1.00  0.00    -0.248 NA
ATOM     54  C   UNL A   1      42.237  29.386  26.863  1.00  0.00     0.031 C 
ATOM     55  C   UNL A   1      39.003  27.590  29.773  1.00  0.00     0.029 A 
ATOM     56  N   UNL A   1      40.148  29.455  30.087  1.00  0.00    -0.354 N 
ATOM     57  C   UNL A   1      43.988  30.122  28.134  1.00  0.00     0.074 A 
ATOM     58  C   UNL A   1      43.368  30.098  26.831  1.00  0.00     0.031 C 
ATOM     59  C   UNL A   1      38.163  28.470  30.364  1.00  0.00     0.029 A 
ATOM     60  C   UNL A   1      38.891  29.697  30.626  1.00  0.00     0.049 A 
ATOM     61  H   UNL A   1      40.894  30.092  30.167  1.00  0.00     0.167 HD
ATOM     62  C   UNL A   1      44.763  31.063  28.743  1.00  0.00     0.031 A 
ATOM     63  C   UNL A   1      38.474  30.819  31.260  1.00  0.00     0.031 A 
ATOM     64  C   UNL A   1      45.083  30.694  30.103  1.00  0.00     0.049 A 
ATOM     65  C   UNL A   1      39.680  31.488  31.796  1.00  0.00     0.074 A 
ATOM     66  C   UNL A   1      45.679  29.609  30.712  1.00  0.00     0.029 A 
ATOM     67  N   UNL A   1      44.394  31.354  31.096  1.00  0.00    -0.354 N 
ATOM     68  N   UNL A   1      40.409  30.989  32.754  1.00  0.00    -0.248 NA
ATOM     69  C   UNL A   1      40.313  32.537  31.016  1.00  0.00     0.031 C 
ATOM     70  C   UNL A   1      44.950  29.414  31.924  1.00  0.00     0.029 A 
ATOM     71  C   UNL A   1      43.996  30.429  32.024  1.00  0.00     0.049 A 
ATOM     72  H   UNL A   1      44.220  32.322  31.133  1.00  0.00     0.167 HD
ATOM     73  C   UNL A   1      41.711  31.324  32.419  1.00  0.00     0.074 A 
ATOM     74  C   UNL A   1      41.576  32.385  31.424  1.00  0.00     0.031 C 
ATOM     75  C   UNL A   1      42.758  30.520  32.773  1.00  0.00     0.031 A 
BRANCH  62  76
ATOM     76  C   UNL A   1      44.850  32.499  28.276  1.00  0.00    -0.014 A 
ATOM     77  C   UNL A   1      46.118  33.036  27.964  1.00  0.00     0.010 A 
ATOM     78  C   UNL A   1      43.788  33.415  28.418  1.00  0.00     0.010 A 
ATOM     79  C   UNL A   1      46.324  34.421  27.893  1.00  0.00     0.020 A 
ATOM     80  C   UNL A   1      43.974  34.794  28.301  1.00  0.00     0.020 A 
ATOM     81  C   UNL A   1      45.250  35.289  28.078  1.00  0.00     0.054 A 
BRANCH  81  82
ATOM     82  S   UNL A   1      45.541  37.075  28.095  1.00  0.00     0.124 S 
ATOM     83  O   UNL A   1      46.066  37.302  26.753  1.00  0.00    -0.237 OA
ATOM     84  O   UNL A   1      44.206  37.602  28.355  1.00  0.00    -0.237 OA
ATOM     85  O   UNL A   1      46.499  37.251  29.185  1.00  0.00    -0.744 OA
ENDBRANCH  81  82
ENDBRANCH  62  76
BRANCH  63  86
ATOM     86  C   UNL A   1      37.140  31.463  31.247  1.00  0.00    -0.014 A 
ATOM     87  C   UNL A   1      36.365  31.521  32.421  1.00  0.00     0.010 A 
ATOM     88  C   UNL A   1      36.766  32.291  30.170  1.00  0.00     0.010 A 
ATOM     89  C   UNL A   1      35.317  32.446  32.549  1.00  0.00     0.020 A 
ATOM     90  C   UNL A   1      35.713  33.208  30.287  1.00  0.00     0.020 A 
ATOM     91  C   UNL A   1      35.017  33.306  31.489  1.00  0.00     0.054 A 
BRANCH  91  92
ATOM     92  S   UNL A   1      33.821  34.650  31.748  1.00  0.00     0.124 S 
ATOM     93  O   UNL A   1      33.169  34.743  30.445  1.00  0.00    -0.237 OA
ATOM     94  O   UNL A   1      32.990  34.133  32.833  1.00  0.00    -0.237 OA
ATOM     95  O   UNL A   1      34.657  35.794  32.108  1.00  0.00    -0.744 OA
ENDBRANCH  91  92
ENDBRANCH  63  86
BRANCH  75  96
ATOM     96  C   UNL A   1      42.546  29.504  33.875  1.00  0.00    -0.014 A 
ATOM     97  C   UNL A   1      42.649  29.784  35.251  1.00  0.00     0.010 A 
ATOM     98  C   UNL A   1      42.135  28.215  33.488  1.00  0.00     0.010 A 
ATOM     99  C   UNL A   1      42.401  28.786  36.208  1.00  0.00     0.020 A 
ATOM    100  C   UNL A   1      41.863  27.225  34.434  1.00  0.00     0.020 A 
ATOM    101  C   UNL A   1      42.015  27.509  35.791  1.00  0.00     0.054 A 
BRANCH 101 102
ATOM    102  S   UNL A   1      41.689  26.222  37.028  1.00  0.00     0.124 S 
ATOM    103  O   UNL A   1      40.459  26.693  37.660  1.00  0.00    -0.237 OA
ATOM    104  O   UNL A   1      41.557  25.015  36.216  1.00  0.00    -0.237 OA
ATOM    105  O   UNL A   1      42.874  26.255  37.885  1.00  0.00    -0.744 OA
ENDBRANCH 101 102
ENDBRANCH  75  96
ENDBRANCH  49  50
ENDBRANCH  41  44
ENDBRANCH  39  40
ENDBRANCH  38  39
ENDBRANCH  37  38
ENDBRANCH   3  37
TORSDOF 21
ENDMDL
MODEL 3
REMARK VINA RESULT:     -12.2      3.212      7.036
REMARK SMILES NS(=O)(=O)c1ccc(-n2nc(NC(=O)NCCCC(=O)NCCCNC(=O)c3ccc(-c4c5nc(c(-c6ccc(S(=O)(=O)[O-])cc6)c6ccc([nH]6)c(-c6ccc(S(=O)(=O)[O-])cc6)c6nc(c(-c7ccc(S(=O)(=O)[O-])cc7)c7ccc4[nH]7)C=C6)C=C5)cc3)cc2-c2ccccc2)cc1
REMARK SMILES IDX 19 1 20 2 21 3 18 5 17 6 16 7 15 8 12 9 13 10 14 12 11 14
REMARK SMILES IDX 9 15 10 16 89 17 88 18 8 19 5 20 6 21 97 22 7 23 96 24 2 25
REMARK SMILES IDX 3 26 4 27 1 28 90 31 91 32 95 33 92 34 94 35 93 36 22 37
REMARK SMILES IDX 23 38 24 39 25 40 26 41 27 43 28 44 29 45 87 46 30 47 86 48
REMARK SMILES IDX 31 49 32 50 33 51 80 52 34 53 85 54 79 55 81 56 35 57 84 58
REMARK SMILES IDX 78 59 77 60 36 62 66 63 47 64 65 65 48 66 51 67 64 68 82 69
REMARK SMILES IDX 49 70 50 71 63 73 83 74 52 75 37 76 38 77 46 78 39 79 45 80
REMARK SMILES IDX 40 81 41 82 42 83 43 84 44 85 67 86 68 87 76 88 69 89 75 90
REMARK SMILES IDX 70 91 71 92 72 93 73 94 74 95 53 96 54 97 62 98 55 99 61 100
REMARK SMILES IDX 56 101 57 102 58 103 59 104 60 105
REMARK H PARENT 21 4 12 11 15 13 1 29 1 30 25 42 81 61 51 72
REMARK Flexibility Score: inf
ROOT
ATOM      1  C   UNL A   1      34.658  22.340  26.377  1.00  0.00     0.220 C 
ATOM      2  O   UNL A   1      34.705  23.542  26.643  1.00  0.00    -0.275 OA
ATOM      3  N   UNL A   1      35.743  21.766  25.788  1.00  0.00    -0.356 N 
ATOM      4  H   UNL A   1      36.521  22.365  25.698  1.00  0.00     0.163 HD
ENDROOT
BRANCH   1   5
ATOM      5  C   UNL A   1      33.425  21.524  26.717  1.00  0.00     0.102 C 
BRANCH   5   6
ATOM      6  C   UNL A   1      32.142  22.353  26.797  1.00  0.00     0.031 C 
BRANCH   6   7
ATOM      7  C   UNL A   1      31.219  22.195  25.595  1.00  0.00     0.118 C 
BRANCH   7   8
ATOM      8  N   UNL A   1      31.825  21.534  24.450  1.00  0.00    -0.338 N 
ATOM      9  N   UNL A   1      31.906  23.218  22.754  1.00  0.00    -0.291 N 
ATOM     10  C   UNL A   1      32.130  21.968  23.209  1.00  0.00     0.320 C 
ATOM     11  H   UNL A   1      31.894  23.293  21.773  1.00  0.00     0.173 HD
ATOM     12  O   UNL A   1      32.554  21.124  22.411  1.00  0.00    -0.248 OA
ATOM     13  H   UNL A   1      32.058  20.590  24.611  1.00  0.00     0.165 HD
BRANCH   9  14
ATOM     14  C   UNL A   1      31.690  24.405  23.409  1.00  0.00     0.157 A 
ATOM     15  N   UNL A   1      30.933  26.345  23.784  1.00  0.00    -0.231 N 
ATOM     16  N   UNL A   1      30.590  25.139  23.298  1.00  0.00    -0.149 NA
ATOM     17  C   UNL A   1      32.044  26.244  24.611  1.00  0.00     0.076 A 
ATOM     18  C   UNL A   1      32.559  24.982  24.361  1.00  0.00     0.078 A 
BRANCH  15  19
ATOM     19  C   UNL A   1      30.245  27.498  23.321  1.00  0.00     0.065 A 
ATOM     20  C   UNL A   1      28.885  29.741  22.396  1.00  0.00     0.082 A 
ATOM     21  C   UNL A   1      30.255  29.623  22.159  1.00  0.00     0.024 A 
ATOM     22  C   UNL A   1      28.181  28.733  23.062  1.00  0.00     0.024 A 
ATOM     23  C   UNL A   1      30.938  28.502  22.630  1.00  0.00     0.030 A 
ATOM     24  C   UNL A   1      28.858  27.596  23.504  1.00  0.00     0.030 A 
BRANCH  20  25
ATOM     25  S   UNL A   1      28.037  31.202  21.868  1.00  0.00     0.238 S 
ATOM     26  O   UNL A   1      27.107  31.593  22.912  1.00  0.00    -0.207 OA
ATOM     27  O   UNL A   1      27.663  31.029  20.494  1.00  0.00    -0.207 OA
BRANCH  25  28
ATOM     28  N   UNL A   1      29.251  32.370  21.893  1.00  0.00    -0.225 NA
ATOM     29  H   UNL A   1      29.929  32.171  21.157  1.00  0.00     0.137 HD
ATOM     30  H   UNL A   1      29.719  32.354  22.800  1.00  0.00     0.137 HD
ENDBRANCH  25  28
ENDBRANCH  20  25
ENDBRANCH  15  19
BRANCH  17  31
ATOM     31  C   UNL A   1      32.486  27.315  25.496  1.00  0.00     0.000 A 
ATOM     32  C   UNL A   1      33.841  27.677  25.524  1.00  0.00     0.010 A 
ATOM     33  C   UNL A   1      31.598  27.908  26.399  1.00  0.00     0.010 A 
ATOM     34  C   UNL A   1      34.314  28.575  26.478  1.00  0.00     0.001 A 
ATOM     35  C   UNL A   1      32.074  28.809  27.353  1.00  0.00     0.001 A 
ATOM     36  C   UNL A   1      33.431  29.132  27.399  1.00  0.00     0.000 A 
ENDBRANCH  17  31
ENDBRANCH   9  14
ENDBRANCH   7   8
ENDBRANCH   6   7
ENDBRANCH   5   6
ENDBRANCH   1   5
BRANCH   3  37
ATOM     37  C   UNL A   1      35.954  20.420  25.267  1.00  0.00     0.117 C 
BRANCH  37  38
ATOM     38  C   UNL A   1      37.309  20.268  24.574  1.00  0.00     0.042 C 
BRANCH  38  39
ATOM     39  C   UNL A   1      38.506  20.621  25.434  1.00  0.00     0.118 C 
BRANCH  39  40
ATOM     40  N   UNL A   1      39.425  19.503  25.597  1.00  0.00    -0.352 N 
ATOM     41  C   UNL A   1      40.767  19.549  25.919  1.00  0.00     0.251 C 
ATOM     42  H   UNL A   1      39.044  18.606  25.464  1.00  0.00     0.163 HD
ATOM     43  O   UNL A   1      41.495  18.604  25.634  1.00  0.00    -0.269 OA
BRANCH  41  44
ATOM     44  C   UNL A   1      41.319  20.756  26.566  1.00  0.00     0.039 A 
ATOM     45  C   UNL A   1      41.649  21.874  25.799  1.00  0.00     0.014 A 
ATOM     46  C   UNL A   1      41.486  20.785  27.950  1.00  0.00     0.014 A 
ATOM     47  C   UNL A   1      42.051  23.041  26.446  1.00  0.00     0.010 A 
ATOM     48  C   UNL A   1      41.742  21.977  28.595  1.00  0.00     0.010 A 
ATOM     49  C   UNL A   1      42.056  23.108  27.853  1.00  0.00    -0.014 A 
BRANCH  49  50
ATOM     50  C   UNL A   1      42.285  24.394  28.517  1.00  0.00     0.031 A 
ATOM     51  C   UNL A   1      41.269  25.436  28.214  1.00  0.00     0.074 A 
ATOM     52  C   UNL A   1      43.234  24.663  29.438  1.00  0.00     0.049 A 
ATOM     53  N   UNL A   1      41.391  26.406  27.371  1.00  0.00    -0.248 NA
ATOM     54  C   UNL A   1      39.922  25.303  28.787  1.00  0.00     0.031 C 
ATOM     55  C   UNL A   1      44.165  23.742  30.096  1.00  0.00     0.029 A 
ATOM     56  N   UNL A   1      43.510  25.853  30.048  1.00  0.00    -0.354 N 
ATOM     57  C   UNL A   1      40.231  27.159  27.489  1.00  0.00     0.074 A 
ATOM     58  C   UNL A   1      39.294  26.333  28.211  1.00  0.00     0.031 C 
ATOM     59  C   UNL A   1      44.735  24.352  31.160  1.00  0.00     0.029 A 
ATOM     60  C   UNL A   1      44.362  25.753  31.141  1.00  0.00     0.049 A 
ATOM     61  H   UNL A   1      43.137  26.710  29.739  1.00  0.00     0.167 HD
ATOM     62  C   UNL A   1      40.233  28.496  27.226  1.00  0.00     0.031 A 
ATOM     63  C   UNL A   1      44.752  26.753  31.968  1.00  0.00     0.031 A 
ATOM     64  C   UNL A   1      41.439  28.905  26.544  1.00  0.00     0.049 A 
ATOM     65  C   UNL A   1      44.617  28.019  31.214  1.00  0.00     0.074 A 
ATOM     66  C   UNL A   1      42.085  28.534  25.381  1.00  0.00     0.029 A 
ATOM     67  N   UNL A   1      42.377  29.571  27.301  1.00  0.00    -0.354 N 
ATOM     68  N   UNL A   1      45.358  28.323  30.186  1.00  0.00    -0.248 NA
ATOM     69  C   UNL A   1      43.398  28.798  31.353  1.00  0.00     0.031 C 
ATOM     70  C   UNL A   1      43.477  28.586  25.694  1.00  0.00     0.029 A 
ATOM     71  C   UNL A   1      43.610  29.051  27.004  1.00  0.00     0.049 A 
ATOM     72  H   UNL A   1      42.194  30.294  27.942  1.00  0.00     0.167 HD
ATOM     73  C   UNL A   1      44.506  28.992  29.322  1.00  0.00     0.074 A 
ATOM     74  C   UNL A   1      43.363  29.371  30.147  1.00  0.00     0.031 C 
ATOM     75  C   UNL A   1      44.686  28.927  27.968  1.00  0.00     0.031 A 
BRANCH  62  76
ATOM     76  C   UNL A   1      39.375  29.493  27.973  1.00  0.00    -0.014 A 
ATOM     77  C   UNL A   1      39.757  29.874  29.276  1.00  0.00     0.010 A 
ATOM     78  C   UNL A   1      38.069  29.834  27.567  1.00  0.00     0.010 A 
ATOM     79  C   UNL A   1      38.847  30.480  30.154  1.00  0.00     0.020 A 
ATOM     80  C   UNL A   1      37.170  30.480  28.417  1.00  0.00     0.020 A 
ATOM     81  C   UNL A   1      37.553  30.763  29.719  1.00  0.00     0.054 A 
BRANCH  81  82
ATOM     82  S   UNL A   1      36.350  31.441  30.888  1.00  0.00     0.124 S 
ATOM     83  O   UNL A   1      36.059  30.280  31.721  1.00  0.00    -0.237 OA
ATOM     84  O   UNL A   1      37.111  32.510  31.527  1.00  0.00    -0.237 OA
ATOM     85  O   UNL A   1      35.258  31.890  30.028  1.00  0.00    -0.744 OA
ENDBRANCH  81  82
ENDBRANCH  62  76
BRANCH  63  86
ATOM     86  C   UNL A   1      45.024  26.713  33.424  1.00  0.00    -0.014 A 
ATOM     87  C   UNL A   1      45.874  27.666  34.016  1.00  0.00     0.010 A 
ATOM     88  C   UNL A   1      44.207  25.940  34.273  1.00  0.00     0.010 A 
ATOM     89  C   UNL A   1      45.835  27.907  35.399  1.00  0.00     0.020 A 
ATOM     90  C   UNL A   1      44.172  26.168  35.655  1.00  0.00     0.020 A 
ATOM     91  C   UNL A   1      44.961  27.176  36.206  1.00  0.00     0.054 A 
BRANCH  91  92
ATOM     92  S   UNL A   1      44.749  27.654  37.947  1.00  0.00     0.124 S 
ATOM     93  O   UNL A   1      46.113  27.572  38.462  1.00  0.00    -0.237 OA
ATOM     94  O   UNL A   1      44.195  29.002  37.842  1.00  0.00    -0.237 OA
ATOM     95  O   UNL A   1      43.824  26.651  38.472  1.00  0.00    -0.744 OA
ENDBRANCH  91  92
ENDBRANCH  63  86
BRANCH  75  96
ATOM     96  C   UNL A   1      46.034  28.485  27.439  1.00  0.00    -0.014 A 
ATOM     97  C   UNL A   1      46.383  27.151  27.155  1.00  0.00     0.010 A 
ATOM     98  C   UNL A   1      46.965  29.495  27.134  1.00  0.00     0.010 A 
ATOM     99  C   UNL A   1      47.647  26.835  26.631  1.00  0.00     0.020 A 
ATOM    100  C   UNL A   1      48.215  29.191  26.591  1.00  0.00     0.020 A 
ATOM    101  C   UNL A   1      48.558  27.859  26.359  1.00  0.00     0.054 A 
BRANCH 101 102
ATOM    102  S   UNL A   1      50.189  27.450  25.678  1.00  0.00     0.124 S 
ATOM    103  O   UNL A   1      51.085  27.763  26.789  1.00  0.00    -0.237 OA
ATOM    104  O   UNL A   1      50.061  26.031  25.355  1.00  0.00    -0.237 OA
ATOM    105  O   UNL A   1      50.315  28.332  24.518  1.00  0.00    -0.744 OA
ENDBRANCH 101 102
ENDBRANCH  75  96
ENDBRANCH  49  50
ENDBRANCH  41  44
ENDBRANCH  39  40
ENDBRANCH  38  39
ENDBRANCH  37  38
ENDBRANCH   3  37
TORSDOF 21
ENDMDL
