MODEL 1
REMARK VINA RESULT:     -12.4      0.000      0.000
REMARK SMILES CC[C@@](C)(Nc1cc([N+](=O)[O-])ccc1C)C(=O)NCCCNC(=O)c1ccc(-c2c3nc(c(-c4ccc(S(=O)(=O)[O-])cc4)c4ccc([nH]4)c(-c4ccc(S(=O)(=O)[O-])cc4)c4nc(c(-c5ccc(S(=O)(=O)[O-])cc5)c5ccc2[nH]5)C=C4)C=C3)cc1
REMARK SMILES IDX 20 1 19 2 18 3 16 4 17 5 3 7 4 8 2 9 1 10 5 11 6 13 7 14
REMARK SMILES IDX 14 15 8 16 13 17 15 18 12 19 9 20 10 21 11 22 21 23 22 24
REMARK SMILES IDX 23 25 24 27 25 28 26 29 84 30 27 31 83 32 28 33 29 34 30 35
REMARK SMILES IDX 77 36 31 37 82 38 76 39 78 40 32 41 81 42 75 43 74 44 33 46
REMARK SMILES IDX 63 47 44 48 62 49 45 50 48 51 61 52 79 53 46 54 47 55 60 57
REMARK SMILES IDX 80 58 49 59 34 60 35 61 43 62 36 63 42 64 37 65 38 66 39 67
REMARK SMILES IDX 40 68 41 69 64 70 65 71 73 72 66 73 72 74 67 75 68 76 69 77
REMARK SMILES IDX 70 78 71 79 50 80 51 81 59 82 52 83 58 84 53 85 54 86 55 87
REMARK SMILES IDX 56 88 57 89
REMARK H PARENT 18 6 5 12 22 26 78 45 48 56
REMARK Flexibility Score: inf
ROOT
ATOM      1  C   UNL A   1      37.798  21.122  25.028  1.00  0.00     0.042 C 
ENDROOT
BRANCH   1   2
ATOM      2  C   UNL A   1      36.301  20.744  25.029  1.00  0.00     0.117 C 
BRANCH   2   3
ATOM      3  N   UNL A   1      35.365  21.643  24.348  1.00  0.00    -0.354 N 
ATOM      4  C   UNL A   1      34.154  22.226  24.601  1.00  0.00     0.245 C 
ATOM      5  O   UNL A   1      33.873  23.150  23.819  1.00  0.00    -0.272 OA
ATOM      6  H   UNL A   1      35.703  21.900  23.460  1.00  0.00     0.163 HD
BRANCH   4   7
ATOM      7  C   UNL A   1      33.116  21.824  25.714  1.00  0.00     0.113 C 
ATOM      8  C   UNL A   1      33.718  21.581  27.101  1.00  0.00     0.045 C 
BRANCH   7   9
ATOM      9  C   UNL A   1      32.081  23.004  25.834  1.00  0.00     0.035 C 
ATOM     10  C   UNL A   1      31.160  22.962  27.054  1.00  0.00     0.007 C 
ENDBRANCH   7   9
BRANCH   7  11
ATOM     11  N   UNL A   1      32.281  20.598  25.413  1.00  0.00    -0.371 N 
ATOM     12  H   UNL A   1      31.384  20.588  25.818  1.00  0.00     0.161 HD
BRANCH  11  13
ATOM     13  C   UNL A   1      32.601  19.486  24.649  1.00  0.00     0.045 A 
ATOM     14  C   UNL A   1      33.292  18.416  25.244  1.00  0.00     0.111 A 
ATOM     15  C   UNL A   1      32.338  19.360  23.280  1.00  0.00    -0.027 A 
ATOM     16  C   UNL A   1      33.615  17.258  24.506  1.00  0.00     0.271 A 
ATOM     17  C   UNL A   1      32.505  18.140  22.596  1.00  0.00     0.012 A 
ATOM     18  C   UNL A   1      32.051  20.538  22.411  1.00  0.00     0.046 C 
ATOM     19  C   UNL A   1      33.148  17.080  23.205  1.00  0.00     0.086 A 
BRANCH  16  20
ATOM     20  N   UNL A   1      34.543  16.270  25.062  1.00  0.00     0.062 N 
ATOM     21  O   UNL A   1      34.099  15.142  25.326  1.00  0.00    -0.258 OA
ATOM     22  O   UNL A   1      35.708  16.630  25.290  1.00  0.00    -0.258 OA
ENDBRANCH  16  20
ENDBRANCH  11  13
ENDBRANCH   7  11
ENDBRANCH   4   7
ENDBRANCH   2   3
ENDBRANCH   1   2
BRANCH   1  23
ATOM     23  C   UNL A   1      38.136  22.420  25.753  1.00  0.00     0.118 C 
BRANCH  23  24
ATOM     24  N   UNL A   1      39.096  22.302  26.848  1.00  0.00    -0.352 N 
ATOM     25  C   UNL A   1      40.223  23.123  26.841  1.00  0.00     0.251 C 
ATOM     26  H   UNL A   1      38.951  21.655  27.576  1.00  0.00     0.163 HD
ATOM     27  O   UNL A   1      41.330  22.786  26.458  1.00  0.00    -0.269 OA
BRANCH  25  28
ATOM     28  C   UNL A   1      39.898  24.556  27.045  1.00  0.00     0.039 A 
ATOM     29  C   UNL A   1      40.445  25.556  26.239  1.00  0.00     0.014 A 
ATOM     30  C   UNL A   1      39.275  24.862  28.255  1.00  0.00     0.014 A 
ATOM     31  C   UNL A   1      40.493  26.867  26.720  1.00  0.00     0.010 A 
ATOM     32  C   UNL A   1      39.398  26.139  28.763  1.00  0.00     0.010 A 
ATOM     33  C   UNL A   1      40.045  27.135  28.015  1.00  0.00    -0.014 A 
BRANCH  33  34
ATOM     34  C   UNL A   1      40.264  28.390  28.727  1.00  0.00     0.031 A 
ATOM     35  C   UNL A   1      39.238  29.461  28.698  1.00  0.00     0.074 A 
ATOM     36  C   UNL A   1      41.337  28.528  29.538  1.00  0.00     0.049 A 
ATOM     37  N   UNL A   1      39.455  30.687  29.041  1.00  0.00    -0.248 NA
ATOM     38  C   UNL A   1      37.886  29.240  28.194  1.00  0.00     0.031 C 
ATOM     39  C   UNL A   1      41.495  29.498  30.618  1.00  0.00     0.029 A 
ATOM     40  N   UNL A   1      42.607  27.964  29.406  1.00  0.00    -0.354 N 
ATOM     41  C   UNL A   1      38.236  31.326  29.101  1.00  0.00     0.074 A 
ATOM     42  C   UNL A   1      37.317  30.424  28.448  1.00  0.00     0.031 C 
ATOM     43  C   UNL A   1      42.803  29.683  30.843  1.00  0.00     0.029 A 
ATOM     44  C   UNL A   1      43.520  28.954  29.811  1.00  0.00     0.049 A 
ATOM     45  H   UNL A   1      42.821  27.055  29.093  1.00  0.00     0.167 HD
ATOM     46  C   UNL A   1      38.115  32.480  29.819  1.00  0.00     0.031 A 
ATOM     47  C   UNL A   1      44.511  29.471  29.028  1.00  0.00     0.031 A 
ATOM     48  C   UNL A   1      39.411  32.955  30.300  1.00  0.00     0.049 A 
ATOM     49  C   UNL A   1      44.474  30.980  28.930  1.00  0.00     0.074 A 
ATOM     50  C   UNL A   1      40.039  32.909  31.534  1.00  0.00     0.029 A 
ATOM     51  N   UNL A   1      40.364  33.376  29.383  1.00  0.00    -0.354 N 
ATOM     52  N   UNL A   1      43.433  31.698  29.248  1.00  0.00    -0.248 NA
ATOM     53  C   UNL A   1      45.572  31.796  28.423  1.00  0.00     0.031 C 
ATOM     54  C   UNL A   1      41.402  33.253  31.342  1.00  0.00     0.029 A 
ATOM     55  C   UNL A   1      41.589  33.535  30.000  1.00  0.00     0.049 A 
ATOM     56  H   UNL A   1      40.191  33.540  28.428  1.00  0.00     0.167 HD
ATOM     57  C   UNL A   1      43.688  33.021  29.001  1.00  0.00     0.074 A 
ATOM     58  C   UNL A   1      45.047  33.033  28.494  1.00  0.00     0.031 C 
ATOM     59  C   UNL A   1      42.743  33.981  29.230  1.00  0.00     0.031 A 
BRANCH  46  60
ATOM     60  C   UNL A   1      36.807  33.071  30.313  1.00  0.00    -0.014 A 
ATOM     61  C   UNL A   1      35.901  33.623  29.378  1.00  0.00     0.010 A 
ATOM     62  C   UNL A   1      36.433  33.191  31.663  1.00  0.00     0.010 A 
ATOM     63  C   UNL A   1      34.745  34.319  29.771  1.00  0.00     0.020 A 
ATOM     64  C   UNL A   1      35.288  33.889  32.074  1.00  0.00     0.020 A 
ATOM     65  C   UNL A   1      34.457  34.467  31.124  1.00  0.00     0.054 A 
BRANCH  65  66
ATOM     66  S   UNL A   1      33.007  35.424  31.631  1.00  0.00     0.124 S 
ATOM     67  O   UNL A   1      33.599  36.696  32.037  1.00  0.00    -0.237 OA
ATOM     68  O   UNL A   1      32.209  35.461  30.410  1.00  0.00    -0.237 OA
ATOM     69  O   UNL A   1      32.435  34.636  32.721  1.00  0.00    -0.744 OA
ENDBRANCH  65  66
ENDBRANCH  46  60
BRANCH  47  70
ATOM     70  C   UNL A   1      44.970  28.560  27.944  1.00  0.00    -0.014 A 
ATOM     71  C   UNL A   1      45.890  27.551  28.297  1.00  0.00     0.010 A 
ATOM     72  C   UNL A   1      44.177  28.393  26.795  1.00  0.00     0.010 A 
ATOM     73  C   UNL A   1      45.868  26.317  27.641  1.00  0.00     0.020 A 
ATOM     74  C   UNL A   1      44.160  27.158  26.133  1.00  0.00     0.020 A 
ATOM     75  C   UNL A   1      44.946  26.106  26.618  1.00  0.00     0.054 A 
BRANCH  75  76
ATOM     76  S   UNL A   1      44.647  24.397  26.072  1.00  0.00     0.124 S 
ATOM     77  O   UNL A   1      45.958  23.982  25.588  1.00  0.00    -0.237 OA
ATOM     78  O   UNL A   1      44.197  23.749  27.308  1.00  0.00    -0.237 OA
ATOM     79  O   UNL A   1      43.613  24.541  25.054  1.00  0.00    -0.744 OA
ENDBRANCH  75  76
ENDBRANCH  47  70
BRANCH  59  80
ATOM     80  C   UNL A   1      42.801  35.438  28.825  1.00  0.00    -0.014 A 
ATOM     81  C   UNL A   1      43.422  36.452  29.569  1.00  0.00     0.010 A 
ATOM     82  C   UNL A   1      42.305  35.805  27.547  1.00  0.00     0.010 A 
ATOM     83  C   UNL A   1      43.504  37.769  29.085  1.00  0.00     0.020 A 
ATOM     84  C   UNL A   1      42.417  37.101  27.037  1.00  0.00     0.020 A 
ATOM     85  C   UNL A   1      43.000  38.085  27.824  1.00  0.00     0.054 A 
BRANCH  85  86
ATOM     86  S   UNL A   1      43.180  39.768  27.180  1.00  0.00     0.124 S 
ATOM     87  O   UNL A   1      43.234  40.557  28.407  1.00  0.00    -0.237 OA
ATOM     88  O   UNL A   1      44.430  39.699  26.426  1.00  0.00    -0.237 OA
ATOM     89  O   UNL A   1      41.982  39.954  26.366  1.00  0.00    -0.744 OA
ENDBRANCH  85  86
ENDBRANCH  59  80
ENDBRANCH  33  34
ENDBRANCH  25  28
ENDBRANCH  23  24
ENDBRANCH   1  23
TORSDOF 17
ENDMDL
MODEL 2
REMARK VINA RESULT:     -12.4      4.545     11.055
REMARK SMILES CC[C@@](C)(Nc1cc([N+](=O)[O-])ccc1C)C(=O)NCCCNC(=O)c1ccc(-c2c3nc(c(-c4ccc(S(=O)(=O)[O-])cc4)c4ccc([nH]4)c(-c4ccc(S(=O)(=O)[O-])cc4)c4nc(c(-c5ccc(S(=O)(=O)[O-])cc5)c5ccc2[nH]5)C=C4)C=C3)cc1
REMARK SMILES IDX 20 1 19 2 18 3 16 4 17 5 3 7 4 8 2 9 1 10 5 11 6 13 7 14
REMARK SMILES IDX 14 15 8 16 13 17 15 18 12 19 9 20 10 21 11 22 21 23 22 24
REMARK SMILES IDX 23 25 24 27 25 28 26 29 84 30 27 31 83 32 28 33 29 34 30 35
REMARK SMILES IDX 77 36 31 37 82 38 76 39 78 40 32 41 81 42 75 43 74 44 33 46
REMARK SMILES IDX 63 47 44 48 62 49 45 50 48 51 61 52 79 53 46 54 47 55 60 57
REMARK SMILES IDX 80 58 49 59 34 60 35 61 43 62 36 63 42 64 37 65 38 66 39 67
REMARK SMILES IDX 40 68 41 69 64 70 65 71 73 72 66 73 72 74 67 75 68 76 69 77
REMARK SMILES IDX 70 78 71 79 50 80 51 81 59 82 52 83 58 84 53 85 54 86 55 87
REMARK SMILES IDX 56 88 57 89
REMARK H PARENT 18 6 5 12 22 26 78 45 48 56
REMARK Flexibility Score: inf
ROOT
ATOM      1  C   UNL A   1      34.354  28.834  26.249  1.00  0.00     0.042 C 
ENDROOT
BRANCH   1   2
ATOM      2  C   UNL A   1      33.411  28.995  25.036  1.00  0.00     0.117 C 
BRANCH   2   3
ATOM      3  N   UNL A   1      33.829  28.407  23.760  1.00  0.00    -0.354 N 
ATOM      4  C   UNL A   1      33.599  27.262  23.048  1.00  0.00     0.245 C 
ATOM      5  O   UNL A   1      33.969  27.329  21.864  1.00  0.00    -0.272 OA
ATOM      6  H   UNL A   1      34.448  29.003  23.280  1.00  0.00     0.163 HD
BRANCH   4   7
ATOM      7  C   UNL A   1      32.975  25.918  23.581  1.00  0.00     0.113 C 
ATOM      8  C   UNL A   1      33.089  25.707  25.093  1.00  0.00     0.045 C 
BRANCH   7   9
ATOM      9  C   UNL A   1      31.446  25.934  23.206  1.00  0.00     0.035 C 
ATOM     10  C   UNL A   1      30.492  26.371  24.318  1.00  0.00     0.007 C 
ENDBRANCH   7   9
BRANCH   7  11
ATOM     11  N   UNL A   1      33.520  24.654  22.952  1.00  0.00    -0.371 N 
ATOM     12  H   UNL A   1      33.489  24.623  21.968  1.00  0.00     0.161 HD
BRANCH  11  13
ATOM     13  C   UNL A   1      34.056  23.531  23.565  1.00  0.00     0.045 A 
ATOM     14  C   UNL A   1      35.345  23.598  24.122  1.00  0.00     0.111 A 
ATOM     15  C   UNL A   1      33.426  22.283  23.626  1.00  0.00    -0.027 A 
ATOM     16  C   UNL A   1      35.915  22.485  24.774  1.00  0.00     0.271 A 
ATOM     17  C   UNL A   1      33.923  21.233  24.425  1.00  0.00     0.012 A 
ATOM     18  C   UNL A   1      32.308  21.908  22.713  1.00  0.00     0.046 C 
ATOM     19  C   UNL A   1      35.174  21.327  25.003  1.00  0.00     0.086 A 
BRANCH  16  20
ATOM     20  N   UNL A   1      37.338  22.491  25.125  1.00  0.00     0.062 N 
ATOM     21  O   UNL A   1      37.999  21.471  24.878  1.00  0.00    -0.258 OA
ATOM     22  O   UNL A   1      37.790  23.494  25.698  1.00  0.00    -0.258 OA
ENDBRANCH  16  20
ENDBRANCH  11  13
ENDBRANCH   7  11
ENDBRANCH   4   7
ENDBRANCH   2   3
ENDBRANCH   1   2
BRANCH   1  23
ATOM     23  C   UNL A   1      34.279  29.959  27.276  1.00  0.00     0.118 C 
BRANCH  23  24
ATOM     24  N   UNL A   1      35.353  30.948  27.211  1.00  0.00    -0.352 N 
ATOM     25  C   UNL A   1      36.251  31.031  28.274  1.00  0.00     0.251 C 
ATOM     26  H   UNL A   1      35.441  31.543  26.432  1.00  0.00     0.163 HD
ATOM     27  O   UNL A   1      36.190  31.848  29.176  1.00  0.00    -0.269 OA
BRANCH  25  28
ATOM     28  C   UNL A   1      37.119  29.834  28.395  1.00  0.00     0.039 A 
ATOM     29  C   UNL A   1      37.143  29.058  29.555  1.00  0.00     0.014 A 
ATOM     30  C   UNL A   1      38.115  29.716  27.424  1.00  0.00     0.014 A 
ATOM     31  C   UNL A   1      38.256  28.252  29.811  1.00  0.00     0.010 A 
ATOM     32  C   UNL A   1      39.248  28.986  27.719  1.00  0.00     0.010 A 
ATOM     33  C   UNL A   1      39.340  28.286  28.931  1.00  0.00    -0.014 A 
BRANCH  33  34
ATOM     34  C   UNL A   1      40.648  27.697  29.201  1.00  0.00     0.031 A 
ATOM     35  C   UNL A   1      40.965  26.325  28.739  1.00  0.00     0.074 A 
ATOM     36  C   UNL A   1      41.629  28.453  29.745  1.00  0.00     0.049 A 
ATOM     37  N   UNL A   1      41.961  25.623  29.170  1.00  0.00    -0.248 NA
ATOM     38  C   UNL A   1      40.121  25.598  27.797  1.00  0.00     0.031 C 
ATOM     39  C   UNL A   1      43.063  28.186  29.696  1.00  0.00     0.029 A 
ATOM     40  N   UNL A   1      41.515  29.507  30.653  1.00  0.00    -0.354 N 
ATOM     41  C   UNL A   1      42.069  24.513  28.362  1.00  0.00     0.074 A 
ATOM     42  C   UNL A   1      40.835  24.482  27.613  1.00  0.00     0.031 C 
ATOM     43  C   UNL A   1      43.654  28.816  30.722  1.00  0.00     0.029 A 
ATOM     44  C   UNL A   1      42.595  29.375  31.544  1.00  0.00     0.049 A 
ATOM     45  H   UNL A   1      40.819  30.203  30.666  1.00  0.00     0.167 HD
ATOM     46  C   UNL A   1      43.247  23.825  28.318  1.00  0.00     0.031 A 
ATOM     47  C   UNL A   1      42.480  29.215  32.894  1.00  0.00     0.031 A 
ATOM     48  C   UNL A   1      44.199  24.318  29.312  1.00  0.00     0.049 A 
ATOM     49  C   UNL A   1      43.214  28.002  33.419  1.00  0.00     0.074 A 
ATOM     50  C   UNL A   1      45.315  25.134  29.231  1.00  0.00     0.029 A 
ATOM     51  N   UNL A   1      43.915  24.162  30.661  1.00  0.00    -0.354 N 
ATOM     52  N   UNL A   1      43.616  27.018  32.663  1.00  0.00    -0.248 NA
ATOM     53  C   UNL A   1      43.510  27.769  34.829  1.00  0.00     0.031 C 
ATOM     54  C   UNL A   1      45.669  25.519  30.550  1.00  0.00     0.029 A 
ATOM     55  C   UNL A   1      44.787  24.912  31.427  1.00  0.00     0.049 A 
ATOM     56  H   UNL A   1      43.194  23.597  31.022  1.00  0.00     0.167 HD
ATOM     57  C   UNL A   1      44.198  26.047  33.434  1.00  0.00     0.074 A 
ATOM     58  C   UNL A   1      44.116  26.568  34.785  1.00  0.00     0.031 C 
ATOM     59  C   UNL A   1      44.682  24.896  32.879  1.00  0.00     0.031 A 
BRANCH  46  60
ATOM     60  C   UNL A   1      43.658  22.862  27.218  1.00  0.00    -0.014 A 
ATOM     61  C   UNL A   1      42.848  21.735  26.947  1.00  0.00     0.010 A 
ATOM     62  C   UNL A   1      44.845  22.949  26.470  1.00  0.00     0.010 A 
ATOM     63  C   UNL A   1      43.239  20.725  26.052  1.00  0.00     0.020 A 
ATOM     64  C   UNL A   1      45.255  21.947  25.578  1.00  0.00     0.020 A 
ATOM     65  C   UNL A   1      44.457  20.828  25.388  1.00  0.00     0.054 A 
BRANCH  65  66
ATOM     66  S   UNL A   1      44.992  19.493  24.289  1.00  0.00     0.124 S 
ATOM     67  O   UNL A   1      46.446  19.548  24.416  1.00  0.00    -0.237 OA
ATOM     68  O   UNL A   1      44.352  18.321  24.878  1.00  0.00    -0.237 OA
ATOM     69  O   UNL A   1      44.473  19.890  22.981  1.00  0.00    -0.744 OA
ENDBRANCH  65  66
ENDBRANCH  46  60
BRANCH  47  70
ATOM     70  C   UNL A   1      41.220  29.761  33.468  1.00  0.00    -0.014 A 
ATOM     71  C   UNL A   1      41.173  31.148  33.717  1.00  0.00     0.010 A 
ATOM     72  C   UNL A   1      40.016  29.054  33.298  1.00  0.00     0.010 A 
ATOM     73  C   UNL A   1      39.969  31.846  33.590  1.00  0.00     0.020 A 
ATOM     74  C   UNL A   1      38.808  29.753  33.178  1.00  0.00     0.020 A 
ATOM     75  C   UNL A   1      38.812  31.152  33.241  1.00  0.00     0.054 A 
BRANCH  75  76
ATOM     76  S   UNL A   1      37.374  32.110  32.675  1.00  0.00     0.124 S 
ATOM     77  O   UNL A   1      37.914  32.861  31.548  1.00  0.00    -0.237 OA
ATOM     78  O   UNL A   1      36.414  31.057  32.330  1.00  0.00    -0.237 OA
ATOM     79  O   UNL A   1      37.010  32.900  33.846  1.00  0.00    -0.744 OA
ENDBRANCH  75  76
ENDBRANCH  47  70
BRANCH  59  80
ATOM     80  C   UNL A   1      45.163  23.660  33.609  1.00  0.00    -0.014 A 
ATOM     81  C   UNL A   1      46.506  23.361  33.878  1.00  0.00     0.010 A 
ATOM     82  C   UNL A   1      44.196  22.791  34.177  1.00  0.00     0.010 A 
ATOM     83  C   UNL A   1      46.868  22.232  34.632  1.00  0.00     0.020 A 
ATOM     84  C   UNL A   1      44.541  21.688  34.965  1.00  0.00     0.020 A 
ATOM     85  C   UNL A   1      45.884  21.403  35.170  1.00  0.00     0.054 A 
BRANCH  85  86
ATOM     86  S   UNL A   1      46.359  19.995  36.204  1.00  0.00     0.124 S 
ATOM     87  O   UNL A   1      45.705  20.316  37.470  1.00  0.00    -0.237 OA
ATOM     88  O   UNL A   1      45.799  18.854  35.483  1.00  0.00    -0.237 OA
ATOM     89  O   UNL A   1      47.819  20.056  36.218  1.00  0.00    -0.744 OA
ENDBRANCH  85  86
ENDBRANCH  59  80
ENDBRANCH  33  34
ENDBRANCH  25  28
ENDBRANCH  23  24
ENDBRANCH   1  23
TORSDOF 17
ENDMDL
MODEL 3
REMARK VINA RESULT:     -12.0      5.097     11.621
REMARK SMILES CC[C@@](C)(Nc1cc([N+](=O)[O-])ccc1C)C(=O)NCCCNC(=O)c1ccc(-c2c3nc(c(-c4ccc(S(=O)(=O)[O-])cc4)c4ccc([nH]4)c(-c4ccc(S(=O)(=O)[O-])cc4)c4nc(c(-c5ccc(S(=O)(=O)[O-])cc5)c5ccc2[nH]5)C=C4)C=C3)cc1
REMARK SMILES IDX 20 1 19 2 18 3 16 4 17 5 3 7 4 8 2 9 1 10 5 11 6 13 7 14
REMARK SMILES IDX 14 15 8 16 13 17 15 18 12 19 9 20 10 21 11 22 21 23 22 24
REMARK SMILES IDX 23 25 24 27 25 28 26 29 84 30 27 31 83 32 28 33 29 34 30 35
REMARK SMILES IDX 77 36 31 37 82 38 76 39 78 40 32 41 81 42 75 43 74 44 33 46
REMARK SMILES IDX 63 47 44 48 62 49 45 50 48 51 61 52 79 53 46 54 47 55 60 57
REMARK SMILES IDX 80 58 49 59 34 60 35 61 43 62 36 63 42 64 37 65 38 66 39 67
REMARK SMILES IDX 40 68 41 69 64 70 65 71 73 72 66 73 72 74 67 75 68 76 69 77
REMARK SMILES IDX 70 78 71 79 50 80 51 81 59 82 52 83 58 84 53 85 54 86 55 87
REMARK SMILES IDX 56 88 57 89
REMARK H PARENT 18 6 5 12 22 26 78 45 48 56
REMARK Flexibility Score: inf
ROOT
ATOM      1  C   UNL A   1      33.061  30.378  26.304  1.00  0.00     0.042 C 
ENDROOT
BRANCH   1   2
ATOM      2  C   UNL A   1      32.574  29.221  25.404  1.00  0.00     0.117 C 
BRANCH   2   3
ATOM      3  N   UNL A   1      33.302  28.968  24.157  1.00  0.00    -0.354 N 
ATOM      4  C   UNL A   1      33.523  27.919  23.308  1.00  0.00     0.245 C 
ATOM      5  O   UNL A   1      33.993  28.259  22.209  1.00  0.00    -0.272 OA
ATOM      6  H   UNL A   1      33.759  29.781  23.843  1.00  0.00     0.163 HD
BRANCH   4   7
ATOM      7  C   UNL A   1      33.285  26.390  23.600  1.00  0.00     0.113 C 
ATOM      8  C   UNL A   1      34.226  25.437  22.857  1.00  0.00     0.045 C 
BRANCH   7   9
ATOM      9  C   UNL A   1      33.495  26.173  25.145  1.00  0.00     0.035 C 
ATOM     10  C   UNL A   1      33.455  24.722  25.626  1.00  0.00     0.007 C 
ENDBRANCH   7   9
BRANCH   7  11
ATOM     11  N   UNL A   1      31.888  25.883  23.317  1.00  0.00    -0.371 N 
ATOM     12  H   UNL A   1      31.828  24.941  23.039  1.00  0.00     0.161 HD
BRANCH  11  13
ATOM     13  C   UNL A   1      30.679  26.558  23.395  1.00  0.00     0.045 A 
ATOM     14  C   UNL A   1      30.473  27.699  22.600  1.00  0.00     0.111 A 
ATOM     15  C   UNL A   1      29.636  26.222  24.267  1.00  0.00    -0.027 A 
ATOM     16  C   UNL A   1      29.249  28.398  22.634  1.00  0.00     0.271 A 
ATOM     17  C   UNL A   1      28.361  26.814  24.170  1.00  0.00     0.012 A 
ATOM     18  C   UNL A   1      29.846  25.368  25.470  1.00  0.00     0.046 C 
ATOM     19  C   UNL A   1      28.160  27.910  23.353  1.00  0.00     0.086 A 
BRANCH  16  20
ATOM     20  N   UNL A   1      29.139  29.714  21.997  1.00  0.00     0.062 N 
ATOM     21  O   UNL A   1      29.973  30.579  22.307  1.00  0.00    -0.258 OA
ATOM     22  O   UNL A   1      28.187  29.908  21.225  1.00  0.00    -0.258 OA
ENDBRANCH  16  20
ENDBRANCH  11  13
ENDBRANCH   7  11
ENDBRANCH   4   7
ENDBRANCH   2   3
ENDBRANCH   1   2
BRANCH   1  23
ATOM     23  C   UNL A   1      34.266  30.050  27.179  1.00  0.00     0.118 C 
BRANCH  23  24
ATOM     24  N   UNL A   1      35.332  31.049  27.189  1.00  0.00    -0.352 N 
ATOM     25  C   UNL A   1      36.192  31.098  28.285  1.00  0.00     0.251 C 
ATOM     26  H   UNL A   1      35.440  31.675  26.436  1.00  0.00     0.163 HD
ATOM     27  O   UNL A   1      36.093  31.880  29.215  1.00  0.00    -0.269 OA
BRANCH  25  28
ATOM     28  C   UNL A   1      37.068  29.906  28.389  1.00  0.00     0.039 A 
ATOM     29  C   UNL A   1      37.090  29.109  29.534  1.00  0.00     0.014 A 
ATOM     30  C   UNL A   1      38.070  29.811  27.422  1.00  0.00     0.014 A 
ATOM     31  C   UNL A   1      38.206  28.305  29.783  1.00  0.00     0.010 A 
ATOM     32  C   UNL A   1      39.206  29.084  27.710  1.00  0.00     0.010 A 
ATOM     33  C   UNL A   1      39.295  28.363  28.910  1.00  0.00    -0.014 A 
BRANCH  33  34
ATOM     34  C   UNL A   1      40.606  27.778  29.178  1.00  0.00     0.031 A 
ATOM     35  C   UNL A   1      40.916  26.395  28.740  1.00  0.00     0.074 A 
ATOM     36  C   UNL A   1      41.593  28.543  29.695  1.00  0.00     0.049 A 
ATOM     37  N   UNL A   1      41.916  25.701  29.174  1.00  0.00    -0.248 NA
ATOM     38  C   UNL A   1      40.060  25.651  27.822  1.00  0.00     0.031 C 
ATOM     39  C   UNL A   1      43.027  28.273  29.635  1.00  0.00     0.029 A 
ATOM     40  N   UNL A   1      41.491  29.616  30.582  1.00  0.00    -0.354 N 
ATOM     41  C   UNL A   1      42.014  24.575  28.388  1.00  0.00     0.074 A 
ATOM     42  C   UNL A   1      40.771  24.530  27.654  1.00  0.00     0.031 C 
ATOM     43  C   UNL A   1      43.630  28.923  30.641  1.00  0.00     0.029 A 
ATOM     44  C   UNL A   1      42.581  29.501  31.463  1.00  0.00     0.049 A 
ATOM     45  H   UNL A   1      40.796  30.313  30.589  1.00  0.00     0.167 HD
ATOM     46  C   UNL A   1      43.190  23.884  28.344  1.00  0.00     0.031 A 
ATOM     47  C   UNL A   1      42.481  29.369  32.818  1.00  0.00     0.031 A 
ATOM     48  C   UNL A   1      44.154  24.396  29.317  1.00  0.00     0.049 A 
ATOM     49  C   UNL A   1      43.220  28.165  33.359  1.00  0.00     0.074 A 
ATOM     50  C   UNL A   1      45.270  25.209  29.207  1.00  0.00     0.029 A 
ATOM     51  N   UNL A   1      43.885  24.269  30.673  1.00  0.00    -0.354 N 
ATOM     52  N   UNL A   1      43.612  27.166  32.619  1.00  0.00    -0.248 NA
ATOM     53  C   UNL A   1      43.531  27.961  34.771  1.00  0.00     0.031 C 
ATOM     54  C   UNL A   1      45.639  25.620  30.514  1.00  0.00     0.029 A 
ATOM     55  C   UNL A   1      44.766  25.032  31.413  1.00  0.00     0.049 A 
ATOM     56  H   UNL A   1      43.168  23.712  31.053  1.00  0.00     0.167 HD
ATOM     57  C   UNL A   1      44.201  26.209  33.403  1.00  0.00     0.074 A 
ATOM     58  C   UNL A   1      44.135  26.758  34.744  1.00  0.00     0.031 C 
ATOM     59  C   UNL A   1      44.678  25.047  32.867  1.00  0.00     0.031 A 
BRANCH  46  60
ATOM     60  C   UNL A   1      43.587  22.898  27.260  1.00  0.00    -0.014 A 
ATOM     61  C   UNL A   1      42.763  21.777  27.009  1.00  0.00     0.010 A 
ATOM     62  C   UNL A   1      44.774  22.959  26.509  1.00  0.00     0.010 A 
ATOM     63  C   UNL A   1      43.140  20.748  26.130  1.00  0.00     0.020 A 
ATOM     64  C   UNL A   1      45.170  21.937  25.633  1.00  0.00     0.020 A 
ATOM     65  C   UNL A   1      44.359  20.825  25.462  1.00  0.00     0.054 A 
BRANCH  65  66
ATOM     66  S   UNL A   1      44.876  19.465  24.385  1.00  0.00     0.124 S 
ATOM     67  O   UNL A   1      46.317  19.414  24.618  1.00  0.00    -0.237 OA
ATOM     68  O   UNL A   1      44.112  18.338  24.909  1.00  0.00    -0.237 OA
ATOM     69  O   UNL A   1      44.483  19.913  23.049  1.00  0.00    -0.744 OA
ENDBRANCH  65  66
ENDBRANCH  46  60
BRANCH  47  70
ATOM     70  C   UNL A   1      41.229  29.928  33.395  1.00  0.00    -0.014 A 
ATOM     71  C   UNL A   1      41.228  31.297  33.731  1.00  0.00     0.010 A 
ATOM     72  C   UNL A   1      40.003  29.282  33.150  1.00  0.00     0.010 A 
ATOM     73  C   UNL A   1      40.057  32.050  33.619  1.00  0.00     0.020 A 
ATOM     74  C   UNL A   1      38.827  30.036  33.045  1.00  0.00     0.020 A 
ATOM     75  C   UNL A   1      38.883  31.426  33.198  1.00  0.00     0.054 A 
BRANCH  75  76
ATOM     76  S   UNL A   1      37.499  32.476  32.660  1.00  0.00     0.124 S 
ATOM     77  O   UNL A   1      36.405  31.521  32.534  1.00  0.00    -0.237 OA
ATOM     78  O   UNL A   1      37.381  33.428  33.770  1.00  0.00    -0.237 OA
ATOM     79  O   UNL A   1      37.979  33.058  31.412  1.00  0.00    -0.744 OA
ENDBRANCH  75  76
ENDBRANCH  47  70
BRANCH  59  80
ATOM     80  C   UNL A   1      45.166  23.825  33.616  1.00  0.00    -0.014 A 
ATOM     81  C   UNL A   1      46.386  23.741  34.303  1.00  0.00     0.010 A 
ATOM     82  C   UNL A   1      44.288  22.718  33.749  1.00  0.00     0.010 A 
ATOM     83  C   UNL A   1      46.731  22.598  35.043  1.00  0.00     0.020 A 
ATOM     84  C   UNL A   1      44.602  21.593  34.517  1.00  0.00     0.020 A 
ATOM     85  C   UNL A   1      45.839  21.531  35.145  1.00  0.00     0.054 A 
BRANCH  85  86
ATOM     86  S   UNL A   1      46.264  20.097  36.164  1.00  0.00     0.124 S 
ATOM     87  O   UNL A   1      45.879  20.550  37.498  1.00  0.00    -0.237 OA
ATOM     88  O   UNL A   1      45.431  19.036  35.600  1.00  0.00    -0.237 OA
ATOM     89  O   UNL A   1      47.698  19.932  35.945  1.00  0.00    -0.744 OA
ENDBRANCH  85  86
ENDBRANCH  59  80
ENDBRANCH  33  34
ENDBRANCH  25  28
ENDBRANCH  23  24
ENDBRANCH   1  23
TORSDOF 17
ENDMDL
