MODEL 1
REMARK VINA RESULT:     -11.4      0.000      0.000
REMARK SMILES Cc1cc(C(=O)N[C@H]2C=C[C@@H](C(=O)NCCCNC(=O)c3ccc(-c4c5nc(c(-c6ccc(S(=O)(=O)[O-])cc6)c6ccc([nH]6)c(-c6ccc(S(=O)(=O)[O-])cc6)c6nc(c(-c7ccc(S(=O)(=O)[O-])cc7)c7ccc4[nH]7)C=C6)C=C5)cc3)C2)no1
REMARK SMILES IDX 16 1 15 2 14 3 12 4 13 5 11 7 8 8 9 9 81 10 10 11 7 12 5 13
REMARK SMILES IDX 6 14 4 16 1 17 2 18 3 19 83 20 82 21 17 22 18 23 19 24 20 26
REMARK SMILES IDX 21 27 22 28 80 29 23 30 79 31 24 32 25 33 26 34 73 35 27 36
REMARK SMILES IDX 78 37 72 38 74 39 28 40 77 41 71 42 70 43 29 45 59 46 40 47
REMARK SMILES IDX 58 48 41 49 44 50 57 51 75 52 42 53 43 54 56 56 76 57 45 58
REMARK SMILES IDX 30 59 31 60 39 61 32 62 38 63 33 64 34 65 35 66 36 67 37 68
REMARK SMILES IDX 60 69 61 70 69 71 62 72 68 73 63 74 64 75 65 76 66 77 67 78
REMARK SMILES IDX 46 79 47 80 55 81 48 82 54 83 49 84 50 85 51 86 52 87 53 88
REMARK H PARENT 14 6 7 15 18 25 74 44 44 55
REMARK Flexibility Score: inf
ROOT
ATOM      1  C   UNL A   1      32.841  27.173  26.394  1.00  0.00     0.042 C 
ENDROOT
BRANCH   1   2
ATOM      2  C   UNL A   1      32.899  26.134  25.281  1.00  0.00     0.117 C 
BRANCH   2   3
ATOM      3  N   UNL A   1      33.287  26.708  24.002  1.00  0.00    -0.356 N 
ATOM      4  C   UNL A   1      33.552  26.136  22.795  1.00  0.00     0.227 C 
ATOM      5  O   UNL A   1      33.814  26.895  21.857  1.00  0.00    -0.274 OA
ATOM      6  H   UNL A   1      33.375  27.688  24.011  1.00  0.00     0.163 HD
BRANCH   4   7
ATOM      7  C   UNL A   1      33.528  24.624  22.564  1.00  0.00     0.103 C 
ATOM      8  C   UNL A   1      33.587  22.574  23.924  1.00  0.00     0.106 C 
ATOM      9  C   UNL A   1      32.199  22.936  23.498  1.00  0.00    -0.006 C 
ATOM     10  C   UNL A   1      34.410  23.810  23.515  1.00  0.00     0.047 C 
ATOM     11  C   UNL A   1      32.168  24.029  22.731  1.00  0.00    -0.016 C 
BRANCH   8  12
ATOM     12  N   UNL A   1      33.666  22.320  25.347  1.00  0.00    -0.344 N 
ATOM     13  C   UNL A   1      33.645  21.139  26.056  1.00  0.00     0.273 C 
ATOM     14  O   UNL A   1      33.800  21.202  27.274  1.00  0.00    -0.267 OA
ATOM     15  H   UNL A   1      33.751  23.128  25.903  1.00  0.00     0.164 HD
BRANCH  13  16
ATOM     16  C   UNL A   1      33.382  19.881  25.358  1.00  0.00     0.171 A 
ATOM     17  C   UNL A   1      33.703  16.974  23.135  1.00  0.00     0.091 C 
ATOM     18  C   UNL A   1      33.471  18.083  24.074  1.00  0.00     0.134 A 
ATOM     19  C   UNL A   1      34.279  19.011  24.681  1.00  0.00     0.082 A 
ATOM     20  O   UNL A   1      32.183  18.308  24.439  1.00  0.00    -0.361 OA
ATOM     21  N   UNL A   1      32.123  19.420  25.252  1.00  0.00    -0.074 NA
ENDBRANCH  13  16
ENDBRANCH   8  12
ENDBRANCH   4   7
ENDBRANCH   2   3
ENDBRANCH   1   2
BRANCH   1  22
ATOM     22  C   UNL A   1      34.058  28.089  26.456  1.00  0.00     0.118 C 
BRANCH  22  23
ATOM     23  N   UNL A   1      33.725  29.436  26.893  1.00  0.00    -0.352 N 
ATOM     24  C   UNL A   1      34.454  30.303  27.673  1.00  0.00     0.251 C 
ATOM     25  H   UNL A   1      32.854  29.777  26.586  1.00  0.00     0.163 HD
ATOM     26  O   UNL A   1      33.939  31.346  28.064  1.00  0.00    -0.269 OA
BRANCH  24  27
ATOM     27  C   UNL A   1      35.844  29.970  28.056  1.00  0.00     0.039 A 
ATOM     28  C   UNL A   1      36.087  29.472  29.340  1.00  0.00     0.014 A 
ATOM     29  C   UNL A   1      36.904  30.168  27.168  1.00  0.00     0.014 A 
ATOM     30  C   UNL A   1      37.386  29.117  29.713  1.00  0.00     0.010 A 
ATOM     31  C   UNL A   1      38.190  29.764  27.522  1.00  0.00     0.010 A 
ATOM     32  C   UNL A   1      38.443  29.237  28.798  1.00  0.00    -0.014 A 
BRANCH  32  33
ATOM     33  C   UNL A   1      39.827  28.838  29.156  1.00  0.00     0.031 A 
ATOM     34  C   UNL A   1      40.739  29.823  29.834  1.00  0.00     0.074 A 
ATOM     35  C   UNL A   1      40.288  27.623  28.805  1.00  0.00     0.049 A 
ATOM     36  N   UNL A   1      42.013  29.712  30.109  1.00  0.00    -0.248 NA
ATOM     37  C   UNL A   1      40.145  31.111  30.229  1.00  0.00     0.031 C 
ATOM     38  C   UNL A   1      39.517  26.585  28.116  1.00  0.00     0.029 A 
ATOM     39  N   UNL A   1      41.528  27.060  28.972  1.00  0.00    -0.354 N 
ATOM     40  C   UNL A   1      42.384  30.928  30.668  1.00  0.00     0.074 A 
ATOM     41  C   UNL A   1      41.203  31.766  30.685  1.00  0.00     0.031 C 
ATOM     42  C   UNL A   1      40.297  25.507  27.933  1.00  0.00     0.029 A 
ATOM     43  C   UNL A   1      41.629  25.788  28.462  1.00  0.00     0.049 A 
ATOM     44  H   UNL A   1      42.276  27.524  29.413  1.00  0.00     0.167 HD
ATOM     45  C   UNL A   1      43.598  31.314  31.130  1.00  0.00     0.031 A 
ATOM     46  C   UNL A   1      42.677  24.944  28.419  1.00  0.00     0.031 A 
ATOM     47  C   UNL A   1      44.764  30.475  31.153  1.00  0.00     0.049 A 
ATOM     48  C   UNL A   1      43.996  25.371  28.994  1.00  0.00     0.074 A 
ATOM     49  C   UNL A   1      46.027  30.765  31.640  1.00  0.00     0.029 A 
ATOM     50  N   UNL A   1      44.804  29.172  30.682  1.00  0.00    -0.354 N 
ATOM     51  N   UNL A   1      44.324  26.521  29.533  1.00  0.00    -0.248 NA
ATOM     52  C   UNL A   1      45.086  24.384  28.959  1.00  0.00     0.031 C 
ATOM     53  C   UNL A   1      46.835  29.637  31.452  1.00  0.00     0.029 A 
ATOM     54  C   UNL A   1      46.069  28.641  30.868  1.00  0.00     0.049 A 
ATOM     55  H   UNL A   1      44.045  28.695  30.274  1.00  0.00     0.167 HD
ATOM     56  C   UNL A   1      45.653  26.391  29.914  1.00  0.00     0.074 A 
ATOM     57  C   UNL A   1      46.068  25.051  29.553  1.00  0.00     0.031 C 
ATOM     58  C   UNL A   1      46.459  27.304  30.510  1.00  0.00     0.031 A 
BRANCH  45  59
ATOM     59  C   UNL A   1      43.715  32.725  31.635  1.00  0.00    -0.014 A 
ATOM     60  C   UNL A   1      43.304  33.064  32.935  1.00  0.00     0.010 A 
ATOM     61  C   UNL A   1      44.238  33.723  30.793  1.00  0.00     0.010 A 
ATOM     62  C   UNL A   1      43.367  34.390  33.371  1.00  0.00     0.020 A 
ATOM     63  C   UNL A   1      44.320  35.047  31.233  1.00  0.00     0.020 A 
ATOM     64  C   UNL A   1      43.861  35.375  32.511  1.00  0.00     0.054 A 
BRANCH  64  65
ATOM     65  S   UNL A   1      43.929  37.096  33.083  1.00  0.00     0.124 S 
ATOM     66  O   UNL A   1      43.799  37.832  31.828  1.00  0.00    -0.237 OA
ATOM     67  O   UNL A   1      42.784  37.188  33.985  1.00  0.00    -0.237 OA
ATOM     68  O   UNL A   1      45.235  37.188  33.732  1.00  0.00    -0.744 OA
ENDBRANCH  64  65
ENDBRANCH  45  59
BRANCH  46  69
ATOM     69  C   UNL A   1      42.509  23.594  27.823  1.00  0.00    -0.014 A 
ATOM     70  C   UNL A   1      42.808  23.382  26.466  1.00  0.00     0.010 A 
ATOM     71  C   UNL A   1      42.077  22.515  28.613  1.00  0.00     0.010 A 
ATOM     72  C   UNL A   1      42.671  22.110  25.904  1.00  0.00     0.020 A 
ATOM     73  C   UNL A   1      41.953  21.239  28.057  1.00  0.00     0.020 A 
ATOM     74  C   UNL A   1      42.241  21.047  26.702  1.00  0.00     0.054 A 
BRANCH  74  75
ATOM     75  S   UNL A   1      42.129  19.386  25.980  1.00  0.00     0.124 S 
ATOM     76  O   UNL A   1      40.697  19.264  25.725  1.00  0.00    -0.237 OA
ATOM     77  O   UNL A   1      42.975  19.490  24.793  1.00  0.00    -0.237 OA
ATOM     78  O   UNL A   1      42.657  18.524  27.036  1.00  0.00    -0.744 OA
ENDBRANCH  74  75
ENDBRANCH  46  69
BRANCH  58  79
ATOM     79  C   UNL A   1      47.861  26.874  30.833  1.00  0.00    -0.014 A 
ATOM     80  C   UNL A   1      48.895  27.033  29.895  1.00  0.00     0.010 A 
ATOM     81  C   UNL A   1      48.153  26.354  32.105  1.00  0.00     0.010 A 
ATOM     82  C   UNL A   1      50.202  26.662  30.219  1.00  0.00     0.020 A 
ATOM     83  C   UNL A   1      49.461  25.992  32.437  1.00  0.00     0.020 A 
ATOM     84  C   UNL A   1      50.476  26.139  31.488  1.00  0.00     0.054 A 
BRANCH  84  85
ATOM     85  S   UNL A   1      52.185  25.708  31.917  1.00  0.00     0.124 S 
ATOM     86  O   UNL A   1      52.913  26.134  30.724  1.00  0.00    -0.237 OA
ATOM     87  O   UNL A   1      52.432  26.500  33.120  1.00  0.00    -0.237 OA
ATOM     88  O   UNL A   1      52.129  24.264  32.132  1.00  0.00    -0.744 OA
ENDBRANCH  84  85
ENDBRANCH  58  79
ENDBRANCH  32  33
ENDBRANCH  24  27
ENDBRANCH  22  23
ENDBRANCH   1  22
TORSDOF 15
ENDMDL
MODEL 2
REMARK VINA RESULT:     -11.2      4.004      7.131
REMARK SMILES Cc1cc(C(=O)N[C@H]2C=C[C@@H](C(=O)NCCCNC(=O)c3ccc(-c4c5nc(c(-c6ccc(S(=O)(=O)[O-])cc6)c6ccc([nH]6)c(-c6ccc(S(=O)(=O)[O-])cc6)c6nc(c(-c7ccc(S(=O)(=O)[O-])cc7)c7ccc4[nH]7)C=C6)C=C5)cc3)C2)no1
REMARK SMILES IDX 16 1 15 2 14 3 12 4 13 5 11 7 8 8 9 9 81 10 10 11 7 12 5 13
REMARK SMILES IDX 6 14 4 16 1 17 2 18 3 19 83 20 82 21 17 22 18 23 19 24 20 26
REMARK SMILES IDX 21 27 22 28 80 29 23 30 79 31 24 32 25 33 26 34 73 35 27 36
REMARK SMILES IDX 78 37 72 38 74 39 28 40 77 41 71 42 70 43 29 45 59 46 40 47
REMARK SMILES IDX 58 48 41 49 44 50 57 51 75 52 42 53 43 54 56 56 76 57 45 58
REMARK SMILES IDX 30 59 31 60 39 61 32 62 38 63 33 64 34 65 35 66 36 67 37 68
REMARK SMILES IDX 60 69 61 70 69 71 62 72 68 73 63 74 64 75 65 76 66 77 67 78
REMARK SMILES IDX 46 79 47 80 55 81 48 82 54 83 49 84 50 85 51 86 52 87 53 88
REMARK H PARENT 14 6 7 15 18 25 74 44 44 55
REMARK Flexibility Score: inf
ROOT
ATOM      1  C   UNL A   1      34.726  32.908  30.145  1.00  0.00     0.042 C 
ENDROOT
BRANCH   1   2
ATOM      2  C   UNL A   1      35.761  33.768  30.862  1.00  0.00     0.117 C 
BRANCH   2   3
ATOM      3  N   UNL A   1      35.153  34.825  31.655  1.00  0.00    -0.356 N 
ATOM      4  C   UNL A   1      35.419  35.283  32.909  1.00  0.00     0.227 C 
ATOM      5  O   UNL A   1      34.757  36.246  33.310  1.00  0.00    -0.274 OA
ATOM      6  H   UNL A   1      34.416  35.294  31.203  1.00  0.00     0.163 HD
BRANCH   4   7
ATOM      7  C   UNL A   1      36.488  34.668  33.814  1.00  0.00     0.103 C 
ATOM      8  C   UNL A   1      37.467  32.448  34.226  1.00  0.00     0.106 C 
ATOM      9  C   UNL A   1      38.321  33.291  33.331  1.00  0.00    -0.006 C 
ATOM     10  C   UNL A   1      36.165  33.264  34.335  1.00  0.00     0.047 C 
ATOM     11  C   UNL A   1      37.808  34.509  33.134  1.00  0.00    -0.016 C 
BRANCH   8  12
ATOM     12  N   UNL A   1      37.233  31.133  33.666  1.00  0.00    -0.344 N 
ATOM     13  C   UNL A   1      37.946  29.960  33.789  1.00  0.00     0.273 C 
ATOM     14  O   UNL A   1      37.482  28.953  33.257  1.00  0.00    -0.267 OA
ATOM     15  H   UNL A   1      36.428  31.065  33.104  1.00  0.00     0.164 HD
BRANCH  13  16
ATOM     16  C   UNL A   1      39.234  29.965  34.481  1.00  0.00     0.171 A 
ATOM     17  C   UNL A   1      42.802  29.539  35.242  1.00  0.00     0.091 C 
ATOM     18  C   UNL A   1      41.362  29.769  35.049  1.00  0.00     0.134 A 
ATOM     19  C   UNL A   1      40.551  29.904  33.950  1.00  0.00     0.082 A 
ATOM     20  O   UNL A   1      40.605  29.848  36.173  1.00  0.00    -0.361 OA
ATOM     21  N   UNL A   1      39.278  29.985  35.824  1.00  0.00    -0.074 NA
ENDBRANCH  13  16
ENDBRANCH   8  12
ENDBRANCH   4   7
ENDBRANCH   2   3
ENDBRANCH   1   2
BRANCH   1  22
ATOM     22  C   UNL A   1      34.868  32.896  28.628  1.00  0.00     0.118 C 
BRANCH  22  23
ATOM     23  N   UNL A   1      34.103  31.830  28.000  1.00  0.00    -0.352 N 
ATOM     24  C   UNL A   1      34.503  30.561  27.654  1.00  0.00     0.251 C 
ATOM     25  H   UNL A   1      33.165  32.048  27.794  1.00  0.00     0.163 HD
ATOM     26  O   UNL A   1      33.754  29.849  26.991  1.00  0.00    -0.269 OA
BRANCH  24  27
ATOM     27  C   UNL A   1      35.835  30.063  28.061  1.00  0.00     0.039 A 
ATOM     28  C   UNL A   1      36.892  30.146  27.149  1.00  0.00     0.014 A 
ATOM     29  C   UNL A   1      36.040  29.496  29.322  1.00  0.00     0.014 A 
ATOM     30  C   UNL A   1      38.168  29.716  27.523  1.00  0.00     0.010 A 
ATOM     31  C   UNL A   1      37.323  29.116  29.712  1.00  0.00     0.010 A 
ATOM     32  C   UNL A   1      38.398  29.221  28.816  1.00  0.00    -0.014 A 
BRANCH  32  33
ATOM     33  C   UNL A   1      39.748  28.785  29.250  1.00  0.00     0.031 A 
ATOM     34  C   UNL A   1      40.632  29.733  30.013  1.00  0.00     0.074 A 
ATOM     35  C   UNL A   1      40.209  27.571  28.896  1.00  0.00     0.049 A 
ATOM     36  N   UNL A   1      41.883  29.590  30.366  1.00  0.00    -0.248 NA
ATOM     37  C   UNL A   1      40.037  31.022  30.404  1.00  0.00     0.031 C 
ATOM     38  C   UNL A   1      39.466  26.567  28.131  1.00  0.00     0.029 A 
ATOM     39  N   UNL A   1      41.425  26.980  29.127  1.00  0.00    -0.354 N 
ATOM     40  C   UNL A   1      42.240  30.783  30.981  1.00  0.00     0.074 A 
ATOM     41  C   UNL A   1      41.075  31.644  30.945  1.00  0.00     0.031 C 
ATOM     42  C   UNL A   1      40.237  25.479  27.969  1.00  0.00     0.029 A 
ATOM     43  C   UNL A   1      41.536  25.719  28.590  1.00  0.00     0.049 A 
ATOM     44  H   UNL A   1      42.152  27.417  29.628  1.00  0.00     0.167 HD
ATOM     45  C   UNL A   1      43.427  31.133  31.531  1.00  0.00     0.031 A 
ATOM     46  C   UNL A   1      42.569  24.856  28.591  1.00  0.00     0.031 A 
ATOM     47  C   UNL A   1      44.574  30.270  31.606  1.00  0.00     0.049 A 
ATOM     48  C   UNL A   1      43.856  25.241  29.261  1.00  0.00     0.074 A 
ATOM     49  C   UNL A   1      45.808  30.522  32.181  1.00  0.00     0.029 A 
ATOM     50  N   UNL A   1      44.621  28.980  31.102  1.00  0.00    -0.354 N 
ATOM     51  N   UNL A   1      44.168  26.370  29.852  1.00  0.00    -0.248 NA
ATOM     52  C   UNL A   1      44.927  24.235  29.269  1.00  0.00     0.031 C 
ATOM     53  C   UNL A   1      46.606  29.384  32.014  1.00  0.00     0.029 A 
ATOM     54  C   UNL A   1      45.861  28.419  31.355  1.00  0.00     0.049 A 
ATOM     55  H   UNL A   1      43.882  28.529  30.634  1.00  0.00     0.167 HD
ATOM     56  C   UNL A   1      45.468  26.204  30.314  1.00  0.00     0.074 A 
ATOM     57  C   UNL A   1      45.881  24.866  29.943  1.00  0.00     0.031 C 
ATOM     58  C   UNL A   1      46.250  27.085  30.985  1.00  0.00     0.031 A 
BRANCH  45  59
ATOM     59  C   UNL A   1      43.537  32.527  32.081  1.00  0.00    -0.014 A 
ATOM     60  C   UNL A   1      43.932  33.598  31.262  1.00  0.00     0.010 A 
ATOM     61  C   UNL A   1      43.245  32.765  33.436  1.00  0.00     0.010 A 
ATOM     62  C   UNL A   1      44.084  34.879  31.800  1.00  0.00     0.020 A 
ATOM     63  C   UNL A   1      43.379  34.048  33.973  1.00  0.00     0.020 A 
ATOM     64  C   UNL A   1      43.820  35.092  33.156  1.00  0.00     0.054 A 
BRANCH  64  65
ATOM     65  S   UNL A   1      44.030  36.756  33.848  1.00  0.00     0.124 S 
ATOM     66  O   UNL A   1      44.757  36.475  35.084  1.00  0.00    -0.237 OA
ATOM     67  O   UNL A   1      44.796  37.448  32.814  1.00  0.00    -0.237 OA
ATOM     68  O   UNL A   1      42.659  37.229  34.022  1.00  0.00    -0.744 OA
ENDBRANCH  64  65
ENDBRANCH  45  59
BRANCH  46  69
ATOM     69  C   UNL A   1      42.416  23.526  27.948  1.00  0.00    -0.014 A 
ATOM     70  C   UNL A   1      42.858  23.327  26.629  1.00  0.00     0.010 A 
ATOM     71  C   UNL A   1      41.855  22.451  28.659  1.00  0.00     0.010 A 
ATOM     72  C   UNL A   1      42.735  22.073  26.025  1.00  0.00     0.020 A 
ATOM     73  C   UNL A   1      41.743  21.193  28.062  1.00  0.00     0.020 A 
ATOM     74  C   UNL A   1      42.175  21.014  26.745  1.00  0.00     0.054 A 
BRANCH  74  75
ATOM     75  S   UNL A   1      42.079  19.374  25.975  1.00  0.00     0.124 S 
ATOM     76  O   UNL A   1      42.611  18.514  27.028  1.00  0.00    -0.237 OA
ATOM     77  O   UNL A   1      40.652  19.227  25.700  1.00  0.00    -0.237 OA
ATOM     78  O   UNL A   1      42.922  19.510  24.788  1.00  0.00    -0.744 OA
ENDBRANCH  74  75
ENDBRANCH  46  69
BRANCH  58  79
ATOM     79  C   UNL A   1      47.619  26.618  31.386  1.00  0.00    -0.014 A 
ATOM     80  C   UNL A   1      47.860  26.125  32.680  1.00  0.00     0.010 A 
ATOM     81  C   UNL A   1      48.661  26.626  30.442  1.00  0.00     0.010 A 
ATOM     82  C   UNL A   1      49.130  25.661  33.030  1.00  0.00     0.020 A 
ATOM     83  C   UNL A   1      49.929  26.153  30.787  1.00  0.00     0.020 A 
ATOM     84  C   UNL A   1      50.159  25.682  32.082  1.00  0.00     0.054 A 
BRANCH  84  85
ATOM     85  S   UNL A   1      51.790  25.029  32.532  1.00  0.00     0.124 S 
ATOM     86  O   UNL A   1      52.670  25.757  31.622  1.00  0.00    -0.237 OA
ATOM     87  O   UNL A   1      51.911  25.389  33.944  1.00  0.00    -0.237 OA
ATOM     88  O   UNL A   1      51.668  23.597  32.272  1.00  0.00    -0.744 OA
ENDBRANCH  84  85
ENDBRANCH  58  79
ENDBRANCH  32  33
ENDBRANCH  24  27
ENDBRANCH  22  23
ENDBRANCH   1  22
TORSDOF 15
ENDMDL
MODEL 3
REMARK VINA RESULT:     -11.2      3.961     11.295
REMARK SMILES Cc1cc(C(=O)N[C@H]2C=C[C@@H](C(=O)NCCCNC(=O)c3ccc(-c4c5nc(c(-c6ccc(S(=O)(=O)[O-])cc6)c6ccc([nH]6)c(-c6ccc(S(=O)(=O)[O-])cc6)c6nc(c(-c7ccc(S(=O)(=O)[O-])cc7)c7ccc4[nH]7)C=C6)C=C5)cc3)C2)no1
REMARK SMILES IDX 16 1 15 2 14 3 12 4 13 5 11 7 8 8 9 9 81 10 10 11 7 12 5 13
REMARK SMILES IDX 6 14 4 16 1 17 2 18 3 19 83 20 82 21 17 22 18 23 19 24 20 26
REMARK SMILES IDX 21 27 22 28 80 29 23 30 79 31 24 32 25 33 26 34 73 35 27 36
REMARK SMILES IDX 78 37 72 38 74 39 28 40 77 41 71 42 70 43 29 45 59 46 40 47
REMARK SMILES IDX 58 48 41 49 44 50 57 51 75 52 42 53 43 54 56 56 76 57 45 58
REMARK SMILES IDX 30 59 31 60 39 61 32 62 38 63 33 64 34 65 35 66 36 67 37 68
REMARK SMILES IDX 60 69 61 70 69 71 62 72 68 73 63 74 64 75 65 76 66 77 67 78
REMARK SMILES IDX 46 79 47 80 55 81 48 82 54 83 49 84 50 85 51 86 52 87 53 88
REMARK H PARENT 14 6 7 15 18 25 74 44 44 55
REMARK Flexibility Score: inf
ROOT
ATOM      1  C   UNL A   1      41.083  21.599  27.657  1.00  0.00     0.042 C 
ENDROOT
BRANCH   1   2
ATOM      2  C   UNL A   1      42.430  22.024  28.229  1.00  0.00     0.117 C 
BRANCH   2   3
ATOM      3  N   UNL A   1      43.531  21.758  27.316  1.00  0.00    -0.356 N 
ATOM      4  C   UNL A   1      44.418  22.588  26.701  1.00  0.00     0.227 C 
ATOM      5  O   UNL A   1      45.293  22.063  26.006  1.00  0.00    -0.274 OA
ATOM      6  H   UNL A   1      43.658  20.806  27.104  1.00  0.00     0.163 HD
BRANCH   4   7
ATOM      7  C   UNL A   1      44.375  24.111  26.845  1.00  0.00     0.103 C 
ATOM      8  C   UNL A   1      45.709  26.046  26.112  1.00  0.00     0.106 C 
ATOM      9  C   UNL A   1      44.507  25.821  25.249  1.00  0.00    -0.006 C 
ATOM     10  C   UNL A   1      45.743  24.784  26.996  1.00  0.00     0.047 C 
ATOM     11  C   UNL A   1      43.763  24.792  25.665  1.00  0.00    -0.016 C 
BRANCH   8  12
ATOM     12  N   UNL A   1      46.918  26.187  25.329  1.00  0.00    -0.344 N 
ATOM     13  C   UNL A   1      47.710  27.287  25.081  1.00  0.00     0.273 C 
ATOM     14  O   UNL A   1      48.736  27.116  24.427  1.00  0.00    -0.267 OA
ATOM     15  H   UNL A   1      47.228  25.356  24.901  1.00  0.00     0.164 HD
BRANCH  13  16
ATOM     16  C   UNL A   1      47.279  28.607  25.542  1.00  0.00     0.171 A 
ATOM     17  C   UNL A   1      46.441  31.465  27.692  1.00  0.00     0.091 C 
ATOM     18  C   UNL A   1      46.756  30.396  26.731  1.00  0.00     0.134 A 
ATOM     19  C   UNL A   1      47.540  29.271  26.771  1.00  0.00     0.082 A 
ATOM     20  O   UNL A   1      46.141  30.467  25.523  1.00  0.00    -0.361 OA
ATOM     21  N   UNL A   1      46.476  29.361  24.771  1.00  0.00    -0.074 NA
ENDBRANCH  13  16
ENDBRANCH   8  12
ENDBRANCH   4   7
ENDBRANCH   2   3
ENDBRANCH   1   2
BRANCH   1  22
ATOM     22  C   UNL A   1      40.921  21.880  26.167  1.00  0.00     0.118 C 
BRANCH  22  23
ATOM     23  N   UNL A   1      39.534  22.094  25.783  1.00  0.00    -0.352 N 
ATOM     24  C   UNL A   1      38.701  23.146  26.081  1.00  0.00     0.251 C 
ATOM     25  H   UNL A   1      39.134  21.383  25.231  1.00  0.00     0.163 HD
ATOM     26  O   UNL A   1      37.510  23.077  25.795  1.00  0.00    -0.269 OA
BRANCH  24  27
ATOM     27  C   UNL A   1      39.234  24.347  26.762  1.00  0.00     0.039 A 
ATOM     28  C   UNL A   1      40.037  25.233  26.036  1.00  0.00     0.014 A 
ATOM     29  C   UNL A   1      38.965  24.591  28.112  1.00  0.00     0.014 A 
ATOM     30  C   UNL A   1      40.521  26.392  26.647  1.00  0.00     0.010 A 
ATOM     31  C   UNL A   1      39.405  25.772  28.705  1.00  0.00     0.010 A 
ATOM     32  C   UNL A   1      40.189  26.683  27.979  1.00  0.00    -0.014 A 
BRANCH  32  33
ATOM     33  C   UNL A   1      40.663  27.922  28.644  1.00  0.00     0.031 A 
ATOM     34  C   UNL A   1      42.067  27.995  29.178  1.00  0.00     0.074 A 
ATOM     35  C   UNL A   1      39.814  28.948  28.836  1.00  0.00     0.049 A 
ATOM     36  N   UNL A   1      42.626  28.931  29.900  1.00  0.00    -0.248 NA
ATOM     37  C   UNL A   1      42.947  26.852  28.884  1.00  0.00     0.031 C 
ATOM     38  C   UNL A   1      38.418  28.994  28.395  1.00  0.00     0.029 A 
ATOM     39  N   UNL A   1      40.002  30.152  29.466  1.00  0.00    -0.354 N 
ATOM     40  C   UNL A   1      43.906  28.474  30.183  1.00  0.00     0.074 A 
ATOM     41  C   UNL A   1      44.038  27.172  29.564  1.00  0.00     0.031 C 
ATOM     42  C   UNL A   1      37.881  30.171  28.755  1.00  0.00     0.029 A 
ATOM     43  C   UNL A   1      38.883  30.950  29.478  1.00  0.00     0.049 A 
ATOM     44  H   UNL A   1      40.858  30.420  29.873  1.00  0.00     0.167 HD
ATOM     45  C   UNL A   1      44.887  29.082  30.893  1.00  0.00     0.031 A 
ATOM     46  C   UNL A   1      38.683  32.168  30.015  1.00  0.00     0.031 A 
ATOM     47  C   UNL A   1      44.776  30.390  31.476  1.00  0.00     0.049 A 
ATOM     48  C   UNL A   1      39.805  32.850  30.743  1.00  0.00     0.074 A 
ATOM     49  C   UNL A   1      45.731  31.106  32.178  1.00  0.00     0.029 A 
ATOM     50  N   UNL A   1      43.644  31.187  31.411  1.00  0.00    -0.354 N 
ATOM     51  N   UNL A   1      41.014  32.406  30.988  1.00  0.00    -0.248 NA
ATOM     52  C   UNL A   1      39.535  34.198  31.264  1.00  0.00     0.031 C 
ATOM     53  C   UNL A   1      45.170  32.335  32.547  1.00  0.00     0.029 A 
ATOM     54  C   UNL A   1      43.875  32.390  32.057  1.00  0.00     0.049 A 
ATOM     55  H   UNL A   1      42.800  30.935  30.971  1.00  0.00     0.167 HD
ATOM     56  C   UNL A   1      41.655  33.427  31.679  1.00  0.00     0.074 A 
ATOM     57  C   UNL A   1      40.705  34.513  31.807  1.00  0.00     0.031 C 
ATOM     58  C   UNL A   1      42.920  33.460  32.166  1.00  0.00     0.031 A 
BRANCH  45  59
ATOM     59  C   UNL A   1      46.163  28.313  31.084  1.00  0.00    -0.014 A 
ATOM     60  C   UNL A   1      46.333  27.454  32.183  1.00  0.00     0.010 A 
ATOM     61  C   UNL A   1      47.208  28.458  30.153  1.00  0.00     0.010 A 
ATOM     62  C   UNL A   1      47.546  26.789  32.377  1.00  0.00     0.020 A 
ATOM     63  C   UNL A   1      48.416  27.780  30.335  1.00  0.00     0.020 A 
ATOM     64  C   UNL A   1      48.585  26.968  31.459  1.00  0.00     0.054 A 
BRANCH  64  65
ATOM     65  S   UNL A   1      50.161  26.109  31.726  1.00  0.00     0.124 S 
ATOM     66  O   UNL A   1      51.122  27.086  31.224  1.00  0.00    -0.237 OA
ATOM     67  O   UNL A   1      50.179  25.897  33.172  1.00  0.00    -0.237 OA
ATOM     68  O   UNL A   1      50.026  24.894  30.927  1.00  0.00    -0.744 OA
ENDBRANCH  64  65
ENDBRANCH  45  59
BRANCH  46  69
ATOM     69  C   UNL A   1      37.363  32.830  29.862  1.00  0.00    -0.014 A 
ATOM     70  C   UNL A   1      36.451  32.837  30.932  1.00  0.00     0.010 A 
ATOM     71  C   UNL A   1      37.024  33.477  28.661  1.00  0.00     0.010 A 
ATOM     72  C   UNL A   1      35.215  33.476  30.802  1.00  0.00     0.020 A 
ATOM     73  C   UNL A   1      35.795  34.128  28.533  1.00  0.00     0.020 A 
ATOM     74  C   UNL A   1      34.893  34.115  29.601  1.00  0.00     0.054 A 
BRANCH  74  75
ATOM     75  S   UNL A   1      33.314  34.997  29.464  1.00  0.00     0.124 S 
ATOM     76  O   UNL A   1      32.633  34.236  28.420  1.00  0.00    -0.237 OA
ATOM     77  O   UNL A   1      32.752  34.870  30.807  1.00  0.00    -0.237 OA
ATOM     78  O   UNL A   1      33.717  36.352  29.094  1.00  0.00    -0.744 OA
ENDBRANCH  74  75
ENDBRANCH  46  69
BRANCH  58  79
ATOM     79  C   UNL A   1      43.356  34.719  32.856  1.00  0.00    -0.014 A 
ATOM     80  C   UNL A   1      43.819  35.821  32.115  1.00  0.00     0.010 A 
ATOM     81  C   UNL A   1      43.253  34.819  34.254  1.00  0.00     0.010 A 
ATOM     82  C   UNL A   1      44.189  37.000  32.766  1.00  0.00     0.020 A 
ATOM     83  C   UNL A   1      43.612  36.001  34.906  1.00  0.00     0.020 A 
ATOM     84  C   UNL A   1      44.088  37.081  34.159  1.00  0.00     0.054 A 
BRANCH  84  85
ATOM     85  S   UNL A   1      44.522  38.635  34.988  1.00  0.00     0.124 S 
ATOM     86  O   UNL A   1      45.982  38.589  34.974  1.00  0.00    -0.237 OA
ATOM     87  O   UNL A   1      43.917  39.648  34.126  1.00  0.00    -0.237 OA
ATOM     88  O   UNL A   1      43.905  38.502  36.306  1.00  0.00    -0.744 OA
ENDBRANCH  84  85
ENDBRANCH  58  79
ENDBRANCH  32  33
ENDBRANCH  24  27
ENDBRANCH  22  23
ENDBRANCH   1  22
TORSDOF 15
ENDMDL
