MODEL 1
REMARK VINA RESULT:     -10.8      0.000      0.000
REMARK SMILES O=C(NCCCNC(=O)c1cc(Br)ccc1NC(=O)c1ccc(Br)s1)c1ccc(-c2c3nc(c(-c4ccc(S(=O)(=O)[O-])cc4)c4ccc([nH]4)c(-c4ccc(S(=O)(=O)[O-])cc4)c4nc(c(-c5ccc(S(=O)(=O)[O-])cc5)c5ccc2[nH]5)C=C4)C=C3)cc1
REMARK SMILES IDX 4 1 3 2 1 3 2 4 26 6 27 7 85 8 28 9 84 10 29 11 30 12 31 13
REMARK SMILES IDX 78 14 32 15 83 16 77 17 79 18 33 19 82 20 76 21 75 22 34 24
REMARK SMILES IDX 64 25 45 26 63 27 46 28 49 29 62 30 80 31 47 32 48 33 61 35
REMARK SMILES IDX 81 36 50 37 35 38 36 39 44 40 37 41 43 42 38 43 39 44 40 45
REMARK SMILES IDX 41 46 42 47 65 48 66 49 74 50 67 51 73 52 68 53 69 54 70 55
REMARK SMILES IDX 71 56 72 57 51 58 52 59 60 60 53 61 59 62 54 63 55 64 56 65
REMARK SMILES IDX 57 66 58 67 5 68 6 69 7 70 8 71 9 73 10 74 11 75 16 76 12 77
REMARK SMILES IDX 15 78 13 79 14 80 17 81 18 82 19 84 20 85 21 86 25 87 22 88
REMARK SMILES IDX 23 89 24 90
REMARK H PARENT 3 5 79 23 49 34 7 72 17 83
REMARK Flexibility Score: inf
ROOT
ATOM      1  C   UNL A   1      36.592  23.981  25.498  1.00  0.00     0.118 C 
ENDROOT
BRANCH   1   2
ATOM      2  N   UNL A   1      37.621  22.960  25.665  1.00  0.00    -0.352 N 
ATOM      3  O   UNL A   1      39.659  22.095  26.034  1.00  0.00    -0.269 OA
ATOM      4  C   UNL A   1      38.895  23.046  26.176  1.00  0.00     0.251 C 
ATOM      5  H   UNL A   1      37.361  22.061  25.362  1.00  0.00     0.163 HD
BRANCH   4   6
ATOM      6  C   UNL A   1      39.352  24.268  26.876  1.00  0.00     0.039 A 
ATOM      7  C   UNL A   1      39.032  24.489  28.215  1.00  0.00     0.014 A 
ATOM      8  C   UNL A   1      40.160  25.188  26.196  1.00  0.00     0.014 A 
ATOM      9  C   UNL A   1      39.372  25.692  28.820  1.00  0.00     0.010 A 
ATOM     10  C   UNL A   1      40.593  26.352  26.843  1.00  0.00     0.010 A 
ATOM     11  C   UNL A   1      40.176  26.629  28.152  1.00  0.00    -0.014 A 
BRANCH  11  12
ATOM     12  C   UNL A   1      40.624  27.837  28.892  1.00  0.00     0.031 A 
ATOM     13  C   UNL A   1      39.711  29.014  29.101  1.00  0.00     0.074 A 
ATOM     14  C   UNL A   1      41.857  27.831  29.437  1.00  0.00     0.049 A 
ATOM     15  N   UNL A   1      39.927  30.103  29.796  1.00  0.00    -0.248 NA
ATOM     16  C   UNL A   1      38.393  28.974  28.450  1.00  0.00     0.031 C 
ATOM     17  C   UNL A   1      42.840  26.752  29.286  1.00  0.00     0.029 A 
ATOM     18  N   UNL A   1      42.483  28.731  30.260  1.00  0.00    -0.354 N 
ATOM     19  C   UNL A   1      38.784  30.881  29.657  1.00  0.00     0.074 A 
ATOM     20  C   UNL A   1      37.883  30.151  28.789  1.00  0.00     0.031 C 
ATOM     21  C   UNL A   1      43.911  27.021  30.046  1.00  0.00     0.029 A 
ATOM     22  C   UNL A   1      43.722  28.315  30.688  1.00  0.00     0.049 A 
ATOM     23  H   UNL A   1      42.083  29.594  30.519  1.00  0.00     0.167 HD
ATOM     24  C   UNL A   1      38.509  32.090  30.205  1.00  0.00     0.031 A 
ATOM     25  C   UNL A   1      44.614  28.908  31.501  1.00  0.00     0.031 A 
ATOM     26  C   UNL A   1      39.408  32.812  31.069  1.00  0.00     0.049 A 
ATOM     27  C   UNL A   1      44.282  30.246  32.092  1.00  0.00     0.074 A 
ATOM     28  C   UNL A   1      39.213  34.038  31.683  1.00  0.00     0.029 A 
ATOM     29  N   UNL A   1      40.668  32.373  31.448  1.00  0.00    -0.354 N 
ATOM     30  N   UNL A   1      43.186  30.954  31.956  1.00  0.00    -0.248 NA
ATOM     31  C   UNL A   1      45.306  30.865  32.943  1.00  0.00     0.031 C 
ATOM     32  C   UNL A   1      40.371  34.358  32.401  1.00  0.00     0.029 A 
ATOM     33  C   UNL A   1      41.267  33.311  32.273  1.00  0.00     0.049 A 
ATOM     34  H   UNL A   1      41.075  31.521  31.172  1.00  0.00     0.167 HD
ATOM     35  C   UNL A   1      43.391  32.106  32.704  1.00  0.00     0.074 A 
ATOM     36  C   UNL A   1      44.698  31.981  33.319  1.00  0.00     0.031 C 
ATOM     37  C   UNL A   1      42.574  33.177  32.860  1.00  0.00     0.031 A 
BRANCH  24  38
ATOM     38  C   UNL A   1      37.183  32.724  29.878  1.00  0.00    -0.014 A 
ATOM     39  C   UNL A   1      36.064  32.529  30.705  1.00  0.00     0.010 A 
ATOM     40  C   UNL A   1      37.074  33.587  28.771  1.00  0.00     0.010 A 
ATOM     41  C   UNL A   1      34.853  33.167  30.421  1.00  0.00     0.020 A 
ATOM     42  C   UNL A   1      35.871  34.243  28.494  1.00  0.00     0.020 A 
ATOM     43  C   UNL A   1      34.763  34.018  29.316  1.00  0.00     0.054 A 
BRANCH  43  44
ATOM     44  S   UNL A   1      33.192  34.867  28.993  1.00  0.00     0.124 S 
ATOM     45  O   UNL A   1      32.590  34.007  27.976  1.00  0.00    -0.237 OA
ATOM     46  O   UNL A   1      32.539  34.843  30.299  1.00  0.00    -0.237 OA
ATOM     47  O   UNL A   1      33.600  36.190  28.528  1.00  0.00    -0.744 OA
ENDBRANCH  43  44
ENDBRANCH  24  38
BRANCH  25  48
ATOM     48  C   UNL A   1      45.917  28.247  31.780  1.00  0.00    -0.014 A 
ATOM     49  C   UNL A   1      47.024  28.450  30.938  1.00  0.00     0.010 A 
ATOM     50  C   UNL A   1      46.055  27.415  32.907  1.00  0.00     0.010 A 
ATOM     51  C   UNL A   1      48.240  27.816  31.207  1.00  0.00     0.020 A 
ATOM     52  C   UNL A   1      47.277  26.805  33.194  1.00  0.00     0.020 A 
ATOM     53  C   UNL A   1      48.358  26.996  32.332  1.00  0.00     0.054 A 
BRANCH  53  54
ATOM     54  S   UNL A   1      49.954  26.215  32.694  1.00  0.00     0.124 S 
ATOM     55  O   UNL A   1      49.866  24.977  31.928  1.00  0.00    -0.237 OA
ATOM     56  O   UNL A   1      50.913  27.201  32.199  1.00  0.00    -0.237 OA
ATOM     57  O   UNL A   1      49.932  26.059  34.148  1.00  0.00    -0.744 OA
ENDBRANCH  53  54
ENDBRANCH  25  48
BRANCH  37  58
ATOM     58  C   UNL A   1      43.081  34.290  33.734  1.00  0.00    -0.014 A 
ATOM     59  C   UNL A   1      42.817  34.300  35.114  1.00  0.00     0.010 A 
ATOM     60  C   UNL A   1      43.837  35.333  33.169  1.00  0.00     0.010 A 
ATOM     61  C   UNL A   1      43.261  35.358  35.910  1.00  0.00     0.020 A 
ATOM     62  C   UNL A   1      44.303  36.380  33.966  1.00  0.00     0.020 A 
ATOM     63  C   UNL A   1      43.996  36.396  35.328  1.00  0.00     0.054 A 
BRANCH  63  64
ATOM     64  S   UNL A   1      44.575  37.755  36.380  1.00  0.00     0.124 S 
ATOM     65  O   UNL A   1      44.248  38.926  35.570  1.00  0.00    -0.237 OA
ATOM     66  O   UNL A   1      43.778  37.588  37.593  1.00  0.00    -0.237 OA
ATOM     67  O   UNL A   1      46.003  37.484  36.538  1.00  0.00    -0.744 OA
ENDBRANCH  63  64
ENDBRANCH  37  58
ENDBRANCH  11  12
ENDBRANCH   4   6
ENDBRANCH   1   2
BRANCH   1  68
ATOM     68  C   UNL A   1      35.284  23.610  26.182  1.00  0.00     0.042 C 
BRANCH  68  69
ATOM     69  C   UNL A   1      34.162  24.608  25.939  1.00  0.00     0.118 C 
BRANCH  69  70
ATOM     70  N   UNL A   1      34.258  25.257  24.634  1.00  0.00    -0.352 N 
ATOM     71  C   UNL A   1      33.727  26.452  24.207  1.00  0.00     0.253 C 
ATOM     72  H   UNL A   1      34.781  24.766  23.961  1.00  0.00     0.163 HD
ATOM     73  O   UNL A   1      33.737  26.747  23.016  1.00  0.00    -0.269 OA
BRANCH  71  74
ATOM     74  C   UNL A   1      33.088  27.359  25.183  1.00  0.00     0.064 A 
ATOM     75  C   UNL A   1      33.856  28.407  25.712  1.00  0.00     0.031 A 
ATOM     76  C   UNL A   1      31.752  27.162  25.589  1.00  0.00     0.054 A 
ATOM     77  C   UNL A   1      33.364  29.150  26.776  1.00  0.00     0.018 A 
ATOM     78  C   UNL A   1      31.321  27.866  26.717  1.00  0.00     0.028 A 
ATOM     79  Br  UNL A   1      34.425  30.508  27.544  1.00  0.00    -0.051 Br
ATOM     80  C   UNL A   1      32.117  28.854  27.309  1.00  0.00     0.018 A 
BRANCH  76  81
ATOM     81  N   UNL A   1      30.927  26.270  24.864  1.00  0.00    -0.321 N 
ATOM     82  C   UNL A   1      29.991  26.450  23.861  1.00  0.00     0.265 C 
ATOM     83  H   UNL A   1      31.041  25.328  25.127  1.00  0.00     0.170 HD
ATOM     84  O   UNL A   1      29.316  25.476  23.529  1.00  0.00    -0.268 OA
BRANCH  82  85
ATOM     85  C   UNL A   1      29.885  27.728  23.186  1.00  0.00     0.093 A 
ATOM     86  C   UNL A   1      30.848  28.436  22.485  1.00  0.00     0.027 A 
ATOM     87  S   UNL A   1      28.378  28.546  23.180  1.00  0.00    -0.123 S 
ATOM     88  C   UNL A   1      30.372  29.713  22.058  1.00  0.00     0.028 A 
ATOM     89  C   UNL A   1      29.054  29.887  22.398  1.00  0.00     0.071 A 
ATOM     90  Br  UNL A   1      28.093  31.454  22.039  1.00  0.00    -0.039 Br
ENDBRANCH  82  85
ENDBRANCH  76  81
ENDBRANCH  71  74
ENDBRANCH  69  70
ENDBRANCH  68  69
ENDBRANCH   1  68
TORSDOF 15
ENDMDL
MODEL 2
REMARK VINA RESULT:     -10.8      3.600      9.406
REMARK SMILES O=C(NCCCNC(=O)c1cc(Br)ccc1NC(=O)c1ccc(Br)s1)c1ccc(-c2c3nc(c(-c4ccc(S(=O)(=O)[O-])cc4)c4ccc([nH]4)c(-c4ccc(S(=O)(=O)[O-])cc4)c4nc(c(-c5ccc(S(=O)(=O)[O-])cc5)c5ccc2[nH]5)C=C4)C=C3)cc1
REMARK SMILES IDX 4 1 3 2 1 3 2 4 26 6 27 7 85 8 28 9 84 10 29 11 30 12 31 13
REMARK SMILES IDX 78 14 32 15 83 16 77 17 79 18 33 19 82 20 76 21 75 22 34 24
REMARK SMILES IDX 64 25 45 26 63 27 46 28 49 29 62 30 80 31 47 32 48 33 61 35
REMARK SMILES IDX 81 36 50 37 35 38 36 39 44 40 37 41 43 42 38 43 39 44 40 45
REMARK SMILES IDX 41 46 42 47 65 48 66 49 74 50 67 51 73 52 68 53 69 54 70 55
REMARK SMILES IDX 71 56 72 57 51 58 52 59 60 60 53 61 59 62 54 63 55 64 56 65
REMARK SMILES IDX 57 66 58 67 5 68 6 69 7 70 8 71 9 73 10 74 11 75 16 76 12 77
REMARK SMILES IDX 15 78 13 79 14 80 17 81 18 82 19 84 20 85 21 86 25 87 22 88
REMARK SMILES IDX 23 89 24 90
REMARK H PARENT 3 5 79 23 49 34 7 72 17 83
REMARK Flexibility Score: inf
ROOT
ATOM      1  C   UNL A   1      33.793  28.161  27.046  1.00  0.00     0.118 C 
ENDROOT
BRANCH   1   2
ATOM      2  N   UNL A   1      33.623  29.575  27.363  1.00  0.00    -0.352 N 
ATOM      3  O   UNL A   1      34.018  31.553  28.347  1.00  0.00    -0.269 OA
ATOM      4  C   UNL A   1      34.454  30.454  28.016  1.00  0.00     0.251 C 
ATOM      5  H   UNL A   1      32.772  29.964  27.059  1.00  0.00     0.163 HD
BRANCH   4   6
ATOM      6  C   UNL A   1      35.853  30.085  28.332  1.00  0.00     0.039 A 
ATOM      7  C   UNL A   1      36.865  30.233  27.384  1.00  0.00     0.014 A 
ATOM      8  C   UNL A   1      36.170  29.629  29.617  1.00  0.00     0.014 A 
ATOM      9  C   UNL A   1      38.146  29.775  27.661  1.00  0.00     0.010 A 
ATOM     10  C   UNL A   1      37.486  29.267  29.929  1.00  0.00     0.010 A 
ATOM     11  C   UNL A   1      38.481  29.309  28.942  1.00  0.00    -0.014 A 
BRANCH  11  12
ATOM     12  C   UNL A   1      39.897  28.958  29.224  1.00  0.00     0.031 A 
ATOM     13  C   UNL A   1      40.473  27.628  28.821  1.00  0.00     0.074 A 
ATOM     14  C   UNL A   1      40.684  29.893  29.794  1.00  0.00     0.049 A 
ATOM     15  N   UNL A   1      41.710  27.209  28.922  1.00  0.00    -0.248 NA
ATOM     16  C   UNL A   1      39.554  26.640  28.237  1.00  0.00     0.031 C 
ATOM     17  C   UNL A   1      40.232  31.214  30.245  1.00  0.00     0.029 A 
ATOM     18  N   UNL A   1      42.030  29.900  30.054  1.00  0.00    -0.354 N 
ATOM     19  C   UNL A   1      41.716  25.910  28.428  1.00  0.00     0.074 A 
ATOM     20  C   UNL A   1      40.353  25.598  28.050  1.00  0.00     0.031 C 
ATOM     21  C   UNL A   1      41.291  31.925  30.660  1.00  0.00     0.029 A 
ATOM     22  C   UNL A   1      42.484  31.095  30.564  1.00  0.00     0.049 A 
ATOM     23  H   UNL A   1      42.615  29.124  29.893  1.00  0.00     0.167 HD
ATOM     24  C   UNL A   1      42.762  25.058  28.298  1.00  0.00     0.031 A 
ATOM     25  C   UNL A   1      43.721  31.482  30.923  1.00  0.00     0.031 A 
ATOM     26  C   UNL A   1      44.117  25.373  28.674  1.00  0.00     0.049 A 
ATOM     27  C   UNL A   1      44.859  30.516  30.768  1.00  0.00     0.074 A 
ATOM     28  C   UNL A   1      45.247  24.578  28.569  1.00  0.00     0.029 A 
ATOM     29  N   UNL A   1      44.529  26.579  29.221  1.00  0.00    -0.354 N 
ATOM     30  N   UNL A   1      44.840  29.297  30.284  1.00  0.00    -0.248 NA
ATOM     31  C   UNL A   1      46.181  30.976  31.208  1.00  0.00     0.031 C 
ATOM     32  C   UNL A   1      46.334  25.290  29.087  1.00  0.00     0.029 A 
ATOM     33  C   UNL A   1      45.890  26.544  29.473  1.00  0.00     0.049 A 
ATOM     34  H   UNL A   1      43.940  27.346  29.402  1.00  0.00     0.167 HD
ATOM     35  C   UNL A   1      46.150  28.843  30.365  1.00  0.00     0.074 A 
ATOM     36  C   UNL A   1      46.939  29.931  30.909  1.00  0.00     0.031 C 
ATOM     37  C   UNL A   1      46.654  27.630  30.030  1.00  0.00     0.031 A 
BRANCH  24  38
ATOM     38  C   UNL A   1      42.486  23.688  27.737  1.00  0.00    -0.014 A 
ATOM     39  C   UNL A   1      42.691  23.410  26.374  1.00  0.00     0.010 A 
ATOM     40  C   UNL A   1      42.090  22.646  28.596  1.00  0.00     0.010 A 
ATOM     41  C   UNL A   1      42.483  22.120  25.875  1.00  0.00     0.020 A 
ATOM     42  C   UNL A   1      41.900  21.351  28.106  1.00  0.00     0.020 A 
ATOM     43  C   UNL A   1      42.087  21.099  26.744  1.00  0.00     0.054 A 
BRANCH  43  44
ATOM     44  S   UNL A   1      41.865  19.425  26.079  1.00  0.00     0.124 S 
ATOM     45  O   UNL A   1      40.442  19.421  25.746  1.00  0.00    -0.237 OA
ATOM     46  O   UNL A   1      42.776  19.409  24.938  1.00  0.00    -0.237 OA
ATOM     47  O   UNL A   1      42.247  18.556  27.189  1.00  0.00    -0.744 OA
ENDBRANCH  43  44
ENDBRANCH  24  38
BRANCH  25  48
ATOM     48  C   UNL A   1      43.938  32.840  31.488  1.00  0.00    -0.014 A 
ATOM     49  C   UNL A   1      43.878  33.063  32.874  1.00  0.00     0.010 A 
ATOM     50  C   UNL A   1      44.221  33.920  30.630  1.00  0.00     0.010 A 
ATOM     51  C   UNL A   1      44.076  34.347  33.391  1.00  0.00     0.020 A 
ATOM     52  C   UNL A   1      44.449  35.196  31.146  1.00  0.00     0.020 A 
ATOM     53  C   UNL A   1      44.358  35.405  32.523  1.00  0.00     0.054 A 
BRANCH  53  54
ATOM     54  S   UNL A   1      44.657  37.057  33.211  1.00  0.00     0.124 S 
ATOM     55  O   UNL A   1      44.966  36.753  34.604  1.00  0.00    -0.237 OA
ATOM     56  O   UNL A   1      45.775  37.542  32.404  1.00  0.00    -0.237 OA
ATOM     57  O   UNL A   1      43.390  37.752  32.984  1.00  0.00    -0.744 OA
ENDBRANCH  53  54
ENDBRANCH  25  48
BRANCH  37  58
ATOM     58  C   UNL A   1      48.128  27.429  30.243  1.00  0.00    -0.014 A 
ATOM     59  C   UNL A   1      49.042  27.639  29.196  1.00  0.00     0.010 A 
ATOM     60  C   UNL A   1      48.604  27.034  31.506  1.00  0.00     0.010 A 
ATOM     61  C   UNL A   1      50.406  27.414  29.396  1.00  0.00     0.020 A 
ATOM     62  C   UNL A   1      49.969  26.832  31.715  1.00  0.00     0.020 A 
ATOM     63  C   UNL A   1      50.860  27.004  30.653  1.00  0.00     0.054 A 
BRANCH  63  64
ATOM     64  S   UNL A   1      52.636  26.729  30.896  1.00  0.00     0.124 S 
ATOM     65  O   UNL A   1      52.651  25.448  31.598  1.00  0.00    -0.237 OA
ATOM     66  O   UNL A   1      53.150  26.702  29.529  1.00  0.00    -0.237 OA
ATOM     67  O   UNL A   1      53.057  27.881  31.691  1.00  0.00    -0.744 OA
ENDBRANCH  63  64
ENDBRANCH  37  58
ENDBRANCH  11  12
ENDBRANCH   4   6
ENDBRANCH   1   2
BRANCH   1  68
ATOM     68  C   UNL A   1      34.266  27.935  25.618  1.00  0.00     0.042 C 
BRANCH  68  69
ATOM     69  C   UNL A   1      33.655  26.707  24.958  1.00  0.00     0.118 C 
BRANCH  69  70
ATOM     70  N   UNL A   1      33.074  25.779  25.924  1.00  0.00    -0.352 N 
ATOM     71  C   UNL A   1      33.313  24.437  26.105  1.00  0.00     0.253 C 
ATOM     72  H   UNL A   1      32.413  26.174  26.538  1.00  0.00     0.163 HD
ATOM     73  O   UNL A   1      32.585  23.767  26.833  1.00  0.00    -0.269 OA
BRANCH  71  74
ATOM     74  C   UNL A   1      34.418  23.785  25.372  1.00  0.00     0.064 A 
ATOM     75  C   UNL A   1      35.664  23.682  26.011  1.00  0.00     0.031 A 
ATOM     76  C   UNL A   1      34.233  23.302  24.061  1.00  0.00     0.054 A 
ATOM     77  C   UNL A   1      36.774  23.267  25.287  1.00  0.00     0.018 A 
ATOM     78  C   UNL A   1      35.383  22.975  23.336  1.00  0.00     0.028 A 
ATOM     79  Br  UNL A   1      38.466  23.203  26.119  1.00  0.00    -0.051 Br
ATOM     80  C   UNL A   1      36.646  22.956  23.941  1.00  0.00     0.018 A 
BRANCH  76  81
ATOM     81  N   UNL A   1      32.923  23.185  23.539  1.00  0.00    -0.321 N 
ATOM     82  C   UNL A   1      32.082  22.107  23.327  1.00  0.00     0.265 C 
ATOM     83  H   UNL A   1      32.529  24.047  23.271  1.00  0.00     0.170 HD
ATOM     84  O   UNL A   1      31.038  22.312  22.707  1.00  0.00    -0.268 OA
BRANCH  82  85
ATOM     85  C   UNL A   1      32.402  20.813  23.893  1.00  0.00     0.093 A 
ATOM     86  C   UNL A   1      32.673  20.470  25.208  1.00  0.00     0.027 A 
ATOM     87  S   UNL A   1      32.450  19.441  22.866  1.00  0.00    -0.123 S 
ATOM     88  C   UNL A   1      33.048  19.098  25.340  1.00  0.00     0.028 A 
ATOM     89  C   UNL A   1      32.982  18.451  24.132  1.00  0.00     0.071 A 
ATOM     90  Br  UNL A   1      33.439  16.649  23.899  1.00  0.00    -0.039 Br
ENDBRANCH  82  85
ENDBRANCH  76  81
ENDBRANCH  71  74
ENDBRANCH  69  70
ENDBRANCH  68  69
ENDBRANCH   1  68
TORSDOF 15
ENDMDL
MODEL 3
REMARK VINA RESULT:     -10.7      0.636      8.277
REMARK SMILES O=C(NCCCNC(=O)c1cc(Br)ccc1NC(=O)c1ccc(Br)s1)c1ccc(-c2c3nc(c(-c4ccc(S(=O)(=O)[O-])cc4)c4ccc([nH]4)c(-c4ccc(S(=O)(=O)[O-])cc4)c4nc(c(-c5ccc(S(=O)(=O)[O-])cc5)c5ccc2[nH]5)C=C4)C=C3)cc1
REMARK SMILES IDX 4 1 3 2 1 3 2 4 26 6 27 7 85 8 28 9 84 10 29 11 30 12 31 13
REMARK SMILES IDX 78 14 32 15 83 16 77 17 79 18 33 19 82 20 76 21 75 22 34 24
REMARK SMILES IDX 64 25 45 26 63 27 46 28 49 29 62 30 80 31 47 32 48 33 61 35
REMARK SMILES IDX 81 36 50 37 35 38 36 39 44 40 37 41 43 42 38 43 39 44 40 45
REMARK SMILES IDX 41 46 42 47 65 48 66 49 74 50 67 51 73 52 68 53 69 54 70 55
REMARK SMILES IDX 71 56 72 57 51 58 52 59 60 60 53 61 59 62 54 63 55 64 56 65
REMARK SMILES IDX 57 66 58 67 5 68 6 69 7 70 8 71 9 73 10 74 11 75 16 76 12 77
REMARK SMILES IDX 15 78 13 79 14 80 17 81 18 82 19 84 20 85 21 86 25 87 22 88
REMARK SMILES IDX 23 89 24 90
REMARK H PARENT 3 5 79 23 49 34 7 72 17 83
REMARK Flexibility Score: inf
ROOT
ATOM      1  C   UNL A   1      36.560  24.039  25.369  1.00  0.00     0.118 C 
ENDROOT
BRANCH   1   2
ATOM      2  N   UNL A   1      37.552  22.986  25.555  1.00  0.00    -0.352 N 
ATOM      3  O   UNL A   1      39.550  22.056  25.982  1.00  0.00    -0.269 OA
ATOM      4  C   UNL A   1      38.808  23.026  26.113  1.00  0.00     0.251 C 
ATOM      5  H   UNL A   1      37.278  22.101  25.226  1.00  0.00     0.163 HD
BRANCH   4   6
ATOM      6  C   UNL A   1      39.275  24.222  26.852  1.00  0.00     0.039 A 
ATOM      7  C   UNL A   1      38.977  24.391  28.203  1.00  0.00     0.014 A 
ATOM      8  C   UNL A   1      40.067  25.170  26.194  1.00  0.00     0.014 A 
ATOM      9  C   UNL A   1      39.324  25.571  28.848  1.00  0.00     0.010 A 
ATOM     10  C   UNL A   1      40.508  26.311  26.876  1.00  0.00     0.010 A 
ATOM     11  C   UNL A   1      40.114  26.535  28.202  1.00  0.00    -0.014 A 
BRANCH  11  12
ATOM     12  C   UNL A   1      40.570  27.716  28.980  1.00  0.00     0.031 A 
ATOM     13  C   UNL A   1      41.968  27.803  29.530  1.00  0.00     0.074 A 
ATOM     14  C   UNL A   1      39.719  28.751  29.127  1.00  0.00     0.049 A 
ATOM     15  N   UNL A   1      42.539  28.802  30.156  1.00  0.00    -0.248 NA
ATOM     16  C   UNL A   1      42.835  26.626  29.368  1.00  0.00     0.031 C 
ATOM     17  C   UNL A   1      38.330  28.774  28.652  1.00  0.00     0.029 A 
ATOM     18  N   UNL A   1      39.898  29.995  29.675  1.00  0.00    -0.354 N 
ATOM     19  C   UNL A   1      43.823  28.373  30.471  1.00  0.00     0.074 A 
ATOM     20  C   UNL A   1      43.941  27.012  29.991  1.00  0.00     0.031 C 
ATOM     21  C   UNL A   1      37.811  29.991  28.866  1.00  0.00     0.029 A 
ATOM     22  C   UNL A   1      38.801  30.814  29.547  1.00  0.00     0.049 A 
ATOM     23  H   UNL A   1      40.732  30.274  30.119  1.00  0.00     0.167 HD
ATOM     24  C   UNL A   1      44.813  29.053  31.099  1.00  0.00     0.031 A 
ATOM     25  C   UNL A   1      38.606  32.087  29.940  1.00  0.00     0.031 A 
ATOM     26  C   UNL A   1      44.692  30.408  31.574  1.00  0.00     0.049 A 
ATOM     27  C   UNL A   1      39.720  32.813  30.633  1.00  0.00     0.074 A 
ATOM     28  C   UNL A   1      45.645  31.185  32.212  1.00  0.00     0.029 A 
ATOM     29  N   UNL A   1      43.553  31.191  31.459  1.00  0.00    -0.354 N 
ATOM     30  N   UNL A   1      40.931  32.388  30.906  1.00  0.00    -0.248 NA
ATOM     31  C   UNL A   1      39.442  34.185  31.072  1.00  0.00     0.031 C 
ATOM     32  C   UNL A   1      45.069  32.424  32.516  1.00  0.00     0.029 A 
ATOM     33  C   UNL A   1      43.773  32.435  32.027  1.00  0.00     0.049 A 
ATOM     34  H   UNL A   1      42.712  30.904  31.035  1.00  0.00     0.167 HD
ATOM     35  C   UNL A   1      41.559  33.445  31.553  1.00  0.00     0.074 A 
ATOM     36  C   UNL A   1      40.607  34.537  31.596  1.00  0.00     0.031 C 
ATOM     37  C   UNL A   1      42.809  33.502  32.075  1.00  0.00     0.031 A 
BRANCH  24  38
ATOM     38  C   UNL A   1      46.120  28.340  31.327  1.00  0.00    -0.014 A 
ATOM     39  C   UNL A   1      47.158  28.415  30.383  1.00  0.00     0.010 A 
ATOM     40  C   UNL A   1      46.339  27.649  32.533  1.00  0.00     0.010 A 
ATOM     41  C   UNL A   1      48.386  27.793  30.631  1.00  0.00     0.020 A 
ATOM     42  C   UNL A   1      47.571  27.042  32.794  1.00  0.00     0.020 A 
ATOM     43  C   UNL A   1      48.584  27.109  31.834  1.00  0.00     0.054 A 
BRANCH  43  44
ATOM     44  S   UNL A   1      50.201  26.347  32.148  1.00  0.00     0.124 S 
ATOM     45  O   UNL A   1      49.824  25.120  32.846  1.00  0.00    -0.237 OA
ATOM     46  O   UNL A   1      50.737  26.163  30.803  1.00  0.00    -0.237 OA
ATOM     47  O   UNL A   1      50.900  27.337  32.964  1.00  0.00    -0.744 OA
ENDBRANCH  43  44
ENDBRANCH  24  38
BRANCH  25  48
ATOM     48  C   UNL A   1      37.291  32.740  29.706  1.00  0.00    -0.014 A 
ATOM     49  C   UNL A   1      36.273  32.680  30.673  1.00  0.00     0.010 A 
ATOM     50  C   UNL A   1      37.059  33.442  28.508  1.00  0.00     0.010 A 
ATOM     51  C   UNL A   1      35.039  33.293  30.437  1.00  0.00     0.020 A 
ATOM     52  C   UNL A   1      35.838  34.080  28.282  1.00  0.00     0.020 A 
ATOM     53  C   UNL A   1      34.829  33.987  29.242  1.00  0.00     0.054 A 
BRANCH  53  54
ATOM     54  S   UNL A   1      33.239  34.815  28.968  1.00  0.00     0.124 S 
ATOM     55  O   UNL A   1      33.660  36.125  28.485  1.00  0.00    -0.237 OA
ATOM     56  O   UNL A   1      32.594  33.952  27.980  1.00  0.00    -0.237 OA
ATOM     57  O   UNL A   1      32.618  34.801  30.291  1.00  0.00    -0.744 OA
ENDBRANCH  53  54
ENDBRANCH  25  48
BRANCH  37  58
ATOM     58  C   UNL A   1      43.208  34.794  32.732  1.00  0.00    -0.014 A 
ATOM     59  C   UNL A   1      42.964  35.013  34.099  1.00  0.00     0.010 A 
ATOM     60  C   UNL A   1      43.840  35.797  31.975  1.00  0.00     0.010 A 
ATOM     61  C   UNL A   1      43.305  36.231  34.690  1.00  0.00     0.020 A 
ATOM     62  C   UNL A   1      44.204  37.007  32.568  1.00  0.00     0.020 A 
ATOM     63  C   UNL A   1      43.916  37.224  33.917  1.00  0.00     0.054 A 
BRANCH  63  64
ATOM     64  S   UNL A   1      44.363  38.795  34.706  1.00  0.00     0.124 S 
ATOM     65  O   UNL A   1      45.740  38.979  34.255  1.00  0.00    -0.237 OA
ATOM     66  O   UNL A   1      43.389  39.728  34.145  1.00  0.00    -0.237 OA
ATOM     67  O   UNL A   1      44.204  38.521  36.133  1.00  0.00    -0.744 OA
ENDBRANCH  63  64
ENDBRANCH  37  58
ENDBRANCH  11  12
ENDBRANCH   4   6
ENDBRANCH   1   2
BRANCH   1  68
ATOM     68  C   UNL A   1      35.184  23.643  25.886  1.00  0.00     0.042 C 
BRANCH  68  69
ATOM     69  C   UNL A   1      34.149  24.754  25.783  1.00  0.00     0.118 C 
BRANCH  69  70
ATOM     70  N   UNL A   1      34.159  25.414  24.480  1.00  0.00    -0.352 N 
ATOM     71  C   UNL A   1      33.570  26.594  24.090  1.00  0.00     0.253 C 
ATOM     72  H   UNL A   1      34.662  24.944  23.777  1.00  0.00     0.163 HD
ATOM     73  O   UNL A   1      33.510  26.898  22.902  1.00  0.00    -0.269 OA
BRANCH  71  74
ATOM     74  C   UNL A   1      32.954  27.475  25.105  1.00  0.00     0.064 A 
ATOM     75  C   UNL A   1      33.730  28.518  25.633  1.00  0.00     0.031 A 
ATOM     76  C   UNL A   1      31.633  27.259  25.546  1.00  0.00     0.054 A 
ATOM     77  C   UNL A   1      33.265  29.234  26.727  1.00  0.00     0.018 A 
ATOM     78  C   UNL A   1      31.231  27.935  26.702  1.00  0.00     0.028 A 
ATOM     79  Br  UNL A   1      34.339  30.584  27.491  1.00  0.00    -0.051 Br
ATOM     80  C   UNL A   1      32.037  28.917  27.291  1.00  0.00     0.018 A 
BRANCH  76  81
ATOM     81  N   UNL A   1      30.793  26.375  24.827  1.00  0.00    -0.321 N 
ATOM     82  C   UNL A   1      29.850  26.566  23.833  1.00  0.00     0.265 C 
ATOM     83  H   UNL A   1      30.900  25.432  25.089  1.00  0.00     0.170 HD
ATOM     84  O   UNL A   1      29.163  25.598  23.506  1.00  0.00    -0.268 OA
BRANCH  82  85
ATOM     85  C   UNL A   1      29.749  27.845  23.161  1.00  0.00     0.093 A 
ATOM     86  C   UNL A   1      30.691  28.513  22.395  1.00  0.00     0.027 A 
ATOM     87  S   UNL A   1      28.279  28.723  23.250  1.00  0.00    -0.123 S 
ATOM     88  C   UNL A   1      30.239  29.807  21.994  1.00  0.00     0.028 A 
ATOM     89  C   UNL A   1      28.955  30.034  22.420  1.00  0.00     0.071 A 
ATOM     90  Br  UNL A   1      28.034  31.638  22.118  1.00  0.00    -0.039 Br
ENDBRANCH  82  85
ENDBRANCH  76  81
ENDBRANCH  71  74
ENDBRANCH  69  70
ENDBRANCH  68  69
ENDBRANCH   1  68
TORSDOF 15
ENDMDL
