MODEL 1
REMARK VINA RESULT:     -11.5      0.000      0.000
REMARK SMILES C[C@@H](NC(=O)N1CC[N@@H+]2CCCC[C@H]2C1)C(=O)NCCCNC(=O)c1ccc(-c2c3nc(c(-c4ccc(S(=O)(=O)[O-])cc4)c4ccc([nH]4)c(-c4ccc(S(=O)(=O)[O-])cc4)c4nc(c(-c5ccc(S(=O)(=O)[O-])cc5)c5ccc2[nH]5)C=C4)C=C3)cc1
REMARK SMILES IDX 20 1 19 2 18 3 16 4 17 5 2 7 1 8 3 9 4 10 5 12 6 13 7 14
REMARK SMILES IDX 15 15 8 16 14 17 9 18 13 19 10 20 12 22 11 23 21 24 22 25
REMARK SMILES IDX 23 26 24 28 25 29 26 30 84 31 27 32 83 33 28 34 29 35 30 36
REMARK SMILES IDX 77 37 31 38 82 39 76 40 78 41 32 42 81 43 75 44 74 45 33 47
REMARK SMILES IDX 63 48 44 49 62 50 45 51 48 52 61 53 79 54 46 55 47 56 60 58
REMARK SMILES IDX 80 59 49 60 34 61 35 62 43 63 36 64 42 65 37 66 38 67 39 68
REMARK SMILES IDX 40 69 41 70 64 71 65 72 73 73 66 74 72 75 67 76 68 77 69 78
REMARK SMILES IDX 70 79 71 80 50 81 51 82 59 83 52 84 58 85 53 86 54 87 55 88
REMARK SMILES IDX 56 89 57 90
REMARK H PARENT 18 6 3 11 9 21 22 27 78 46 48 57
REMARK Flexibility Score: inf
ROOT
ATOM      1  C   UNL A   1      32.502  28.570  26.021  1.00  0.00     0.042 C 
ENDROOT
BRANCH   1   2
ATOM      2  C   UNL A   1      33.029  29.253  24.765  1.00  0.00     0.117 C 
BRANCH   2   3
ATOM      3  N   UNL A   1      31.963  29.648  23.865  1.00  0.00    -0.354 N 
ATOM      4  C   UNL A   1      31.135  28.864  23.119  1.00  0.00     0.242 C 
ATOM      5  O   UNL A   1      30.354  29.432  22.348  1.00  0.00    -0.273 OA
ATOM      6  H   UNL A   1      31.817  30.617  23.780  1.00  0.00     0.163 HD
BRANCH   4   7
ATOM      7  C   UNL A   1      31.268  27.330  23.079  1.00  0.00     0.170 C 
ATOM      8  C   UNL A   1      29.848  26.767  23.227  1.00  0.00     0.041 C 
BRANCH   7   9
ATOM      9  N   UNL A   1      31.913  26.746  21.907  1.00  0.00    -0.326 N 
ATOM     10  C   UNL A   1      32.669  25.642  21.719  1.00  0.00     0.318 C 
ATOM     11  H   UNL A   1      31.766  27.262  21.082  1.00  0.00     0.166 HD
ATOM     12  O   UNL A   1      33.093  25.463  20.577  1.00  0.00    -0.249 OA
BRANCH  10  13
ATOM     13  N   UNL A   1      33.096  24.904  22.778  1.00  0.00    -0.313 N 
ATOM     14  C   UNL A   1      34.142  25.261  23.735  1.00  0.00     0.183 C 
ATOM     15  C   UNL A   1      32.244  23.815  23.255  1.00  0.00     0.186 C 
ATOM     16  C   UNL A   1      34.961  24.034  24.201  1.00  0.00     0.284 C 
ATOM     17  C   UNL A   1      33.116  22.572  23.525  1.00  0.00     0.203 C 
ATOM     18  N   UNL A   1      34.168  22.829  24.541  1.00  0.00    -0.330 N 
ATOM     19  C   UNL A   1      32.255  21.382  23.964  1.00  0.00     0.067 C 
ATOM     20  C   UNL A   1      35.063  21.660  24.645  1.00  0.00     0.262 C 
ATOM     21  H   UNL A   1      33.707  22.990  25.437  1.00  0.00     0.348 HD
ATOM     22  C   UNL A   1      33.120  20.133  24.086  1.00  0.00     0.012 C 
ATOM     23  C   UNL A   1      34.308  20.378  25.007  1.00  0.00     0.062 C 
ENDBRANCH  10  13
ENDBRANCH   7   9
ENDBRANCH   4   7
ENDBRANCH   2   3
ENDBRANCH   1   2
BRANCH   1  24
ATOM     24  C   UNL A   1      33.403  28.746  27.239  1.00  0.00     0.118 C 
BRANCH  24  25
ATOM     25  N   UNL A   1      33.460  30.116  27.727  1.00  0.00    -0.352 N 
ATOM     26  C   UNL A   1      34.517  30.786  28.298  1.00  0.00     0.251 C 
ATOM     27  H   UNL A   1      32.628  30.635  27.635  1.00  0.00     0.163 HD
ATOM     28  O   UNL A   1      34.359  31.934  28.705  1.00  0.00    -0.269 OA
BRANCH  26  29
ATOM     29  C   UNL A   1      35.822  30.107  28.477  1.00  0.00     0.039 A 
ATOM     30  C   UNL A   1      36.712  30.107  27.401  1.00  0.00     0.014 A 
ATOM     31  C   UNL A   1      36.194  29.524  29.693  1.00  0.00     0.014 A 
ATOM     32  C   UNL A   1      38.008  29.622  27.576  1.00  0.00     0.010 A 
ATOM     33  C   UNL A   1      37.506  29.101  29.887  1.00  0.00     0.010 A 
ATOM     34  C   UNL A   1      38.430  29.171  28.837  1.00  0.00    -0.014 A 
BRANCH  34  35
ATOM     35  C   UNL A   1      39.860  28.877  29.084  1.00  0.00     0.031 A 
ATOM     36  C   UNL A   1      40.765  29.901  29.703  1.00  0.00     0.074 A 
ATOM     37  C   UNL A   1      40.343  27.682  28.691  1.00  0.00     0.049 A 
ATOM     38  N   UNL A   1      42.021  29.780  30.049  1.00  0.00    -0.248 NA
ATOM     39  C   UNL A   1      40.199  31.237  29.944  1.00  0.00     0.031 C 
ATOM     40  C   UNL A   1      39.570  26.643  28.002  1.00  0.00     0.029 A 
ATOM     41  N   UNL A   1      41.593  27.132  28.818  1.00  0.00    -0.354 N 
ATOM     42  C   UNL A   1      42.394  31.019  30.553  1.00  0.00     0.074 A 
ATOM     43  C   UNL A   1      41.249  31.893  30.417  1.00  0.00     0.031 C 
ATOM     44  C   UNL A   1      40.349  25.568  27.806  1.00  0.00     0.029 A 
ATOM     45  C   UNL A   1      41.680  25.848  28.334  1.00  0.00     0.049 A 
ATOM     46  H   UNL A   1      42.355  27.611  29.216  1.00  0.00     0.167 HD
ATOM     47  C   UNL A   1      43.578  31.384  31.101  1.00  0.00     0.031 A 
ATOM     48  C   UNL A   1      42.711  24.983  28.332  1.00  0.00     0.031 A 
ATOM     49  C   UNL A   1      44.712  30.507  31.220  1.00  0.00     0.049 A 
ATOM     50  C   UNL A   1      44.004  25.402  28.973  1.00  0.00     0.074 A 
ATOM     51  C   UNL A   1      45.941  30.757  31.805  1.00  0.00     0.029 A 
ATOM     52  N   UNL A   1      44.758  29.206  30.738  1.00  0.00    -0.354 N 
ATOM     53  N   UNL A   1      44.309  26.548  29.535  1.00  0.00    -0.248 NA
ATOM     54  C   UNL A   1      45.081  24.406  29.000  1.00  0.00     0.031 C 
ATOM     55  C   UNL A   1      46.745  29.623  31.637  1.00  0.00     0.029 A 
ATOM     56  C   UNL A   1      45.998  28.647  30.995  1.00  0.00     0.049 A 
ATOM     57  H   UNL A   1      44.016  28.747  30.281  1.00  0.00     0.167 HD
ATOM     58  C   UNL A   1      45.609  26.403  30.004  1.00  0.00     0.074 A 
ATOM     59  C   UNL A   1      46.022  25.052  29.676  1.00  0.00     0.031 C 
ATOM     60  C   UNL A   1      46.391  27.304  30.649  1.00  0.00     0.031 A 
BRANCH  47  61
ATOM     61  C   UNL A   1      43.699  32.796  31.613  1.00  0.00    -0.014 A 
ATOM     62  C   UNL A   1      43.438  33.101  32.961  1.00  0.00     0.010 A 
ATOM     63  C   UNL A   1      44.108  33.827  30.747  1.00  0.00     0.010 A 
ATOM     64  C   UNL A   1      43.539  34.416  33.425  1.00  0.00     0.020 A 
ATOM     65  C   UNL A   1      44.236  35.140  31.213  1.00  0.00     0.020 A 
ATOM     66  C   UNL A   1      43.933  35.428  32.545  1.00  0.00     0.054 A 
BRANCH  66  67
ATOM     67  S   UNL A   1      44.071  37.123  33.177  1.00  0.00     0.124 S 
ATOM     68  O   UNL A   1      42.809  37.279  33.896  1.00  0.00    -0.237 OA
ATOM     69  O   UNL A   1      45.267  37.059  34.014  1.00  0.00    -0.237 OA
ATOM     70  O   UNL A   1      44.203  37.934  31.969  1.00  0.00    -0.744 OA
ENDBRANCH  66  67
ENDBRANCH  47  61
BRANCH  48  71
ATOM     71  C   UNL A   1      42.541  23.625  27.750  1.00  0.00    -0.014 A 
ATOM     72  C   UNL A   1      42.922  23.363  26.422  1.00  0.00     0.010 A 
ATOM     73  C   UNL A   1      42.024  22.576  28.533  1.00  0.00     0.010 A 
ATOM     74  C   UNL A   1      42.772  22.083  25.881  1.00  0.00     0.020 A 
ATOM     75  C   UNL A   1      41.896  21.288  28.002  1.00  0.00     0.020 A 
ATOM     76  C   UNL A   1      42.261  21.053  26.675  1.00  0.00     0.054 A 
BRANCH  76  77
ATOM     77  S   UNL A   1      42.127  19.386  25.970  1.00  0.00     0.124 S 
ATOM     78  O   UNL A   1      40.689  19.268  25.743  1.00  0.00    -0.237 OA
ATOM     79  O   UNL A   1      42.953  19.482  24.770  1.00  0.00    -0.237 OA
ATOM     80  O   UNL A   1      42.668  18.528  27.023  1.00  0.00    -0.744 OA
ENDBRANCH  76  77
ENDBRANCH  48  71
BRANCH  60  81
ATOM     81  C   UNL A   1      47.763  26.845  31.057  1.00  0.00    -0.014 A 
ATOM     82  C   UNL A   1      48.867  26.999  30.199  1.00  0.00     0.010 A 
ATOM     83  C   UNL A   1      47.955  26.275  32.328  1.00  0.00     0.010 A 
ATOM     84  C   UNL A   1      50.131  26.549  30.588  1.00  0.00     0.020 A 
ATOM     85  C   UNL A   1      49.222  25.848  32.732  1.00  0.00     0.020 A 
ATOM     86  C   UNL A   1      50.299  25.972  31.851  1.00  0.00     0.054 A 
BRANCH  86  87
ATOM     87  S   UNL A   1      51.952  25.414  32.344  1.00  0.00     0.124 S 
ATOM     88  O   UNL A   1      52.735  25.690  31.144  1.00  0.00    -0.237 OA
ATOM     89  O   UNL A   1      52.247  26.263  33.497  1.00  0.00    -0.237 OA
ATOM     90  O   UNL A   1      51.761  23.998  32.654  1.00  0.00    -0.744 OA
ENDBRANCH  86  87
ENDBRANCH  60  81
ENDBRANCH  34  35
ENDBRANCH  26  29
ENDBRANCH  24  25
ENDBRANCH   1  24
TORSDOF 15
ENDMDL
MODEL 2
REMARK VINA RESULT:     -11.4      1.056      8.369
REMARK SMILES C[C@@H](NC(=O)N1CC[N@@H+]2CCCC[C@H]2C1)C(=O)NCCCNC(=O)c1ccc(-c2c3nc(c(-c4ccc(S(=O)(=O)[O-])cc4)c4ccc([nH]4)c(-c4ccc(S(=O)(=O)[O-])cc4)c4nc(c(-c5ccc(S(=O)(=O)[O-])cc5)c5ccc2[nH]5)C=C4)C=C3)cc1
REMARK SMILES IDX 20 1 19 2 18 3 16 4 17 5 2 7 1 8 3 9 4 10 5 12 6 13 7 14
REMARK SMILES IDX 15 15 8 16 14 17 9 18 13 19 10 20 12 22 11 23 21 24 22 25
REMARK SMILES IDX 23 26 24 28 25 29 26 30 84 31 27 32 83 33 28 34 29 35 30 36
REMARK SMILES IDX 77 37 31 38 82 39 76 40 78 41 32 42 81 43 75 44 74 45 33 47
REMARK SMILES IDX 63 48 44 49 62 50 45 51 48 52 61 53 79 54 46 55 47 56 60 58
REMARK SMILES IDX 80 59 49 60 34 61 35 62 43 63 36 64 42 65 37 66 38 67 39 68
REMARK SMILES IDX 40 69 41 70 64 71 65 72 73 73 66 74 72 75 67 76 68 77 69 78
REMARK SMILES IDX 70 79 71 80 50 81 51 82 59 83 52 84 58 85 53 86 54 87 55 88
REMARK SMILES IDX 56 89 57 90
REMARK H PARENT 18 6 3 11 9 21 22 27 78 46 48 57
REMARK Flexibility Score: inf
ROOT
ATOM      1  C   UNL A   1      32.075  28.105  27.269  1.00  0.00     0.042 C 
ENDROOT
BRANCH   1   2
ATOM      2  C   UNL A   1      31.520  27.959  25.858  1.00  0.00     0.117 C 
BRANCH   2   3
ATOM      3  N   UNL A   1      32.340  28.636  24.871  1.00  0.00    -0.354 N 
ATOM      4  C   UNL A   1      32.349  28.488  23.516  1.00  0.00     0.242 C 
ATOM      5  O   UNL A   1      33.207  29.111  22.881  1.00  0.00    -0.273 OA
ATOM      6  H   UNL A   1      32.978  29.294  25.229  1.00  0.00     0.163 HD
BRANCH   4   7
ATOM      7  C   UNL A   1      31.465  27.455  22.795  1.00  0.00     0.170 C 
ATOM      8  C   UNL A   1      30.195  28.200  22.360  1.00  0.00     0.041 C 
BRANCH   7   9
ATOM      9  N   UNL A   1      32.046  26.759  21.651  1.00  0.00    -0.326 N 
ATOM     10  C   UNL A   1      32.704  25.588  21.516  1.00  0.00     0.318 C 
ATOM     11  H   UNL A   1      31.935  27.244  20.801  1.00  0.00     0.166 HD
ATOM     12  O   UNL A   1      33.101  25.315  20.382  1.00  0.00    -0.249 OA
BRANCH  10  13
ATOM     13  N   UNL A   1      33.078  24.870  22.609  1.00  0.00    -0.313 N 
ATOM     14  C   UNL A   1      34.087  25.239  23.601  1.00  0.00     0.183 C 
ATOM     15  C   UNL A   1      32.194  23.802  23.074  1.00  0.00     0.186 C 
ATOM     16  C   UNL A   1      34.871  24.015  24.130  1.00  0.00     0.284 C 
ATOM     17  C   UNL A   1      33.039  22.556  23.411  1.00  0.00     0.203 C 
ATOM     18  N   UNL A   1      34.050  22.827  24.464  1.00  0.00    -0.330 N 
ATOM     19  C   UNL A   1      32.147  21.387  23.840  1.00  0.00     0.067 C 
ATOM     20  C   UNL A   1      34.927  21.651  24.633  1.00  0.00     0.262 C 
ATOM     21  H   UNL A   1      33.554  23.014  25.335  1.00  0.00     0.348 HD
ATOM     22  C   UNL A   1      32.991  20.132  24.028  1.00  0.00     0.012 C 
ATOM     23  C   UNL A   1      34.143  20.387  24.992  1.00  0.00     0.062 C 
ENDBRANCH  10  13
ENDBRANCH   7   9
ENDBRANCH   4   7
ENDBRANCH   2   3
ENDBRANCH   1   2
BRANCH   1  24
ATOM     24  C   UNL A   1      33.475  28.707  27.318  1.00  0.00     0.118 C 
BRANCH  24  25
ATOM     25  N   UNL A   1      33.503  30.073  27.821  1.00  0.00    -0.352 N 
ATOM     26  C   UNL A   1      34.554  30.767  28.376  1.00  0.00     0.251 C 
ATOM     27  H   UNL A   1      32.654  30.568  27.754  1.00  0.00     0.163 HD
ATOM     28  O   UNL A   1      34.372  31.906  28.799  1.00  0.00    -0.269 OA
BRANCH  26  29
ATOM     29  C   UNL A   1      35.882  30.125  28.517  1.00  0.00     0.039 A 
ATOM     30  C   UNL A   1      36.735  30.138  27.410  1.00  0.00     0.014 A 
ATOM     31  C   UNL A   1      36.310  29.564  29.724  1.00  0.00     0.014 A 
ATOM     32  C   UNL A   1      38.048  29.689  27.546  1.00  0.00     0.010 A 
ATOM     33  C   UNL A   1      37.638  29.178  29.877  1.00  0.00     0.010 A 
ATOM     34  C   UNL A   1      38.524  29.262  28.796  1.00  0.00    -0.014 A 
BRANCH  34  35
ATOM     35  C   UNL A   1      39.970  29.008  28.997  1.00  0.00     0.031 A 
ATOM     36  C   UNL A   1      40.577  27.681  28.650  1.00  0.00     0.074 A 
ATOM     37  C   UNL A   1      40.719  29.983  29.549  1.00  0.00     0.049 A 
ATOM     38  N   UNL A   1      41.833  27.320  28.699  1.00  0.00    -0.248 NA
ATOM     39  C   UNL A   1      39.659  26.618  28.214  1.00  0.00     0.031 C 
ATOM     40  C   UNL A   1      40.212  31.283  30.002  1.00  0.00     0.029 A 
ATOM     41  N   UNL A   1      42.062  30.041  29.816  1.00  0.00    -0.354 N 
ATOM     42  C   UNL A   1      41.859  25.990  28.296  1.00  0.00     0.074 A 
ATOM     43  C   UNL A   1      40.487  25.594  28.059  1.00  0.00     0.031 C 
ATOM     44  C   UNL A   1      41.237  32.024  30.451  1.00  0.00     0.029 A 
ATOM     45  C   UNL A   1      42.466  31.247  30.339  1.00  0.00     0.049 A 
ATOM     46  H   UNL A   1      42.678  29.291  29.652  1.00  0.00     0.167 HD
ATOM     47  C   UNL A   1      42.933  25.184  28.118  1.00  0.00     0.031 A 
ATOM     48  C   UNL A   1      43.694  31.686  30.673  1.00  0.00     0.031 A 
ATOM     49  C   UNL A   1      44.290  25.589  28.368  1.00  0.00     0.049 A 
ATOM     50  C   UNL A   1      44.872  30.783  30.438  1.00  0.00     0.074 A 
ATOM     51  C   UNL A   1      45.456  24.870  28.171  1.00  0.00     0.029 A 
ATOM     52  N   UNL A   1      44.665  26.825  28.876  1.00  0.00    -0.354 N 
ATOM     53  N   UNL A   1      44.887  29.561  29.962  1.00  0.00    -0.248 NA
ATOM     54  C   UNL A   1      46.196  31.327  30.761  1.00  0.00     0.031 C 
ATOM     55  C   UNL A   1      46.533  25.655  28.603  1.00  0.00     0.029 A 
ATOM     56  C   UNL A   1      46.041  26.883  29.018  1.00  0.00     0.049 A 
ATOM     57  H   UNL A   1      44.043  27.554  29.103  1.00  0.00     0.167 HD
ATOM     58  C   UNL A   1      46.226  29.195  29.907  1.00  0.00     0.074 A 
ATOM     59  C   UNL A   1      46.989  30.334  30.380  1.00  0.00     0.031 C 
ATOM     60  C   UNL A   1      46.777  28.024  29.502  1.00  0.00     0.031 A 
BRANCH  47  61
ATOM     61  C   UNL A   1      42.674  23.783  27.628  1.00  0.00    -0.014 A 
ATOM     62  C   UNL A   1      42.598  22.705  28.529  1.00  0.00     0.010 A 
ATOM     63  C   UNL A   1      42.472  23.541  26.256  1.00  0.00     0.010 A 
ATOM     64  C   UNL A   1      42.371  21.406  28.066  1.00  0.00     0.020 A 
ATOM     65  C   UNL A   1      42.218  22.247  25.791  1.00  0.00     0.020 A 
ATOM     66  C   UNL A   1      42.187  21.185  26.697  1.00  0.00     0.054 A 
BRANCH  66  67
ATOM     67  S   UNL A   1      41.879  19.491  26.124  1.00  0.00     0.124 S 
ATOM     68  O   UNL A   1      42.771  19.398  24.971  1.00  0.00    -0.237 OA
ATOM     69  O   UNL A   1      42.261  18.685  27.281  1.00  0.00    -0.237 OA
ATOM     70  O   UNL A   1      40.452  19.487  25.809  1.00  0.00    -0.744 OA
ENDBRANCH  66  67
ENDBRANCH  47  61
BRANCH  48  71
ATOM     71  C   UNL A   1      43.869  33.061  31.214  1.00  0.00    -0.014 A 
ATOM     72  C   UNL A   1      44.040  34.154  30.346  1.00  0.00     0.010 A 
ATOM     73  C   UNL A   1      43.834  33.288  32.602  1.00  0.00     0.010 A 
ATOM     74  C   UNL A   1      44.192  35.447  30.856  1.00  0.00     0.020 A 
ATOM     75  C   UNL A   1      43.961  34.584  33.114  1.00  0.00     0.020 A 
ATOM     76  C   UNL A   1      44.150  35.654  32.238  1.00  0.00     0.054 A 
BRANCH  76  77
ATOM     77  S   UNL A   1      44.294  37.347  32.876  1.00  0.00     0.124 S 
ATOM     78  O   UNL A   1      43.160  37.422  33.792  1.00  0.00    -0.237 OA
ATOM     79  O   UNL A   1      45.614  37.340  33.500  1.00  0.00    -0.237 OA
ATOM     80  O   UNL A   1      44.185  38.172  31.675  1.00  0.00    -0.744 OA
ENDBRANCH  76  77
ENDBRANCH  48  71
BRANCH  60  81
ATOM     81  C   UNL A   1      48.278  27.930  29.536  1.00  0.00    -0.014 A 
ATOM     82  C   UNL A   1      49.057  28.321  28.432  1.00  0.00     0.010 A 
ATOM     83  C   UNL A   1      48.917  27.469  30.701  1.00  0.00     0.010 A 
ATOM     84  C   UNL A   1      50.448  28.209  28.477  1.00  0.00     0.020 A 
ATOM     85  C   UNL A   1      50.310  27.382  30.760  1.00  0.00     0.020 A 
ATOM     86  C   UNL A   1      51.066  27.735  29.639  1.00  0.00     0.054 A 
BRANCH  86  87
ATOM     87  S   UNL A   1      52.875  27.618  29.683  1.00  0.00     0.124 S 
ATOM     88  O   UNL A   1      53.244  28.876  30.325  1.00  0.00    -0.237 OA
ATOM     89  O   UNL A   1      53.100  26.415  30.480  1.00  0.00    -0.237 OA
ATOM     90  O   UNL A   1      53.247  27.504  28.274  1.00  0.00    -0.744 OA
ENDBRANCH  86  87
ENDBRANCH  60  81
ENDBRANCH  34  35
ENDBRANCH  26  29
ENDBRANCH  24  25
ENDBRANCH   1  24
TORSDOF 15
ENDMDL
MODEL 3
REMARK VINA RESULT:     -11.4      1.352      2.841
REMARK SMILES C[C@@H](NC(=O)N1CC[N@@H+]2CCCC[C@H]2C1)C(=O)NCCCNC(=O)c1ccc(-c2c3nc(c(-c4ccc(S(=O)(=O)[O-])cc4)c4ccc([nH]4)c(-c4ccc(S(=O)(=O)[O-])cc4)c4nc(c(-c5ccc(S(=O)(=O)[O-])cc5)c5ccc2[nH]5)C=C4)C=C3)cc1
REMARK SMILES IDX 20 1 19 2 18 3 16 4 17 5 2 7 1 8 3 9 4 10 5 12 6 13 7 14
REMARK SMILES IDX 15 15 8 16 14 17 9 18 13 19 10 20 12 22 11 23 21 24 22 25
REMARK SMILES IDX 23 26 24 28 25 29 26 30 84 31 27 32 83 33 28 34 29 35 30 36
REMARK SMILES IDX 77 37 31 38 82 39 76 40 78 41 32 42 81 43 75 44 74 45 33 47
REMARK SMILES IDX 63 48 44 49 62 50 45 51 48 52 61 53 79 54 46 55 47 56 60 58
REMARK SMILES IDX 80 59 49 60 34 61 35 62 43 63 36 64 42 65 37 66 38 67 39 68
REMARK SMILES IDX 40 69 41 70 64 71 65 72 73 73 66 74 72 75 67 76 68 77 69 78
REMARK SMILES IDX 70 79 71 80 50 81 51 82 59 83 52 84 58 85 53 86 54 87 55 88
REMARK SMILES IDX 56 89 57 90
REMARK H PARENT 18 6 3 11 9 21 22 27 78 46 48 57
REMARK Flexibility Score: inf
ROOT
ATOM      1  C   UNL A   1      32.161  28.067  27.371  1.00  0.00     0.042 C 
ENDROOT
BRANCH   1   2
ATOM      2  C   UNL A   1      31.856  27.002  26.325  1.00  0.00     0.117 C 
BRANCH   2   3
ATOM      3  N   UNL A   1      31.266  25.811  26.908  1.00  0.00    -0.354 N 
ATOM      4  C   UNL A   1      31.622  24.507  26.739  1.00  0.00     0.242 C 
ATOM      5  O   UNL A   1      30.909  23.648  27.270  1.00  0.00    -0.273 OA
ATOM      6  H   UNL A   1      30.502  25.967  27.508  1.00  0.00     0.163 HD
BRANCH   4   7
ATOM      7  C   UNL A   1      32.750  24.078  25.783  1.00  0.00     0.170 C 
ATOM      8  C   UNL A   1      33.913  23.608  26.667  1.00  0.00     0.041 C 
BRANCH   7   9
ATOM      9  N   UNL A   1      32.434  23.051  24.794  1.00  0.00    -0.326 N 
ATOM     10  C   UNL A   1      32.196  23.088  23.465  1.00  0.00     0.318 C 
ATOM     11  H   UNL A   1      32.386  22.145  25.174  1.00  0.00     0.166 HD
ATOM     12  O   UNL A   1      31.917  22.012  22.934  1.00  0.00    -0.249 OA
BRANCH  10  13
ATOM     13  N   UNL A   1      32.070  24.275  22.814  1.00  0.00    -0.313 N 
ATOM     14  C   UNL A   1      32.960  24.814  21.787  1.00  0.00     0.183 C 
ATOM     15  C   UNL A   1      30.774  24.953  22.850  1.00  0.00     0.186 C 
ATOM     16  C   UNL A   1      33.103  26.351  21.876  1.00  0.00     0.284 C 
ATOM     17  C   UNL A   1      30.997  26.455  23.123  1.00  0.00     0.203 C 
ATOM     18  N   UNL A   1      31.840  27.099  22.084  1.00  0.00    -0.330 N 
ATOM     19  C   UNL A   1      29.660  27.196  23.235  1.00  0.00     0.067 C 
ATOM     20  C   UNL A   1      32.147  28.489  22.477  1.00  0.00     0.262 C 
ATOM     21  H   UNL A   1      31.318  27.097  21.208  1.00  0.00     0.348 HD
ATOM     22  C   UNL A   1      29.904  28.644  23.646  1.00  0.00     0.012 C 
ATOM     23  C   UNL A   1      30.883  29.324  22.698  1.00  0.00     0.062 C 
ENDBRANCH  10  13
ENDBRANCH   7   9
ENDBRANCH   4   7
ENDBRANCH   2   3
ENDBRANCH   1   2
BRANCH   1  24
ATOM     24  C   UNL A   1      33.504  28.760  27.168  1.00  0.00     0.118 C 
BRANCH  24  25
ATOM     25  N   UNL A   1      33.552  30.106  27.718  1.00  0.00    -0.352 N 
ATOM     26  C   UNL A   1      34.603  30.753  28.326  1.00  0.00     0.251 C 
ATOM     27  H   UNL A   1      32.719  30.626  27.643  1.00  0.00     0.163 HD
ATOM     28  O   UNL A   1      34.438  31.881  28.783  1.00  0.00    -0.269 OA
BRANCH  26  29
ATOM     29  C   UNL A   1      35.909  30.071  28.484  1.00  0.00     0.039 A 
ATOM     30  C   UNL A   1      36.812  30.135  27.420  1.00  0.00     0.014 A 
ATOM     31  C   UNL A   1      36.269  29.423  29.669  1.00  0.00     0.014 A 
ATOM     32  C   UNL A   1      38.109  29.647  27.584  1.00  0.00     0.010 A 
ATOM     33  C   UNL A   1      37.581  28.995  29.856  1.00  0.00     0.010 A 
ATOM     34  C   UNL A   1      38.517  29.128  28.824  1.00  0.00    -0.014 A 
BRANCH  34  35
ATOM     35  C   UNL A   1      39.946  28.827  29.072  1.00  0.00     0.031 A 
ATOM     36  C   UNL A   1      40.855  29.847  29.691  1.00  0.00     0.074 A 
ATOM     37  C   UNL A   1      40.423  27.629  28.679  1.00  0.00     0.049 A 
ATOM     38  N   UNL A   1      42.110  29.719  30.038  1.00  0.00    -0.248 NA
ATOM     39  C   UNL A   1      40.295  31.185  29.932  1.00  0.00     0.031 C 
ATOM     40  C   UNL A   1      39.645  26.595  27.990  1.00  0.00     0.029 A 
ATOM     41  N   UNL A   1      41.670  27.073  28.808  1.00  0.00    -0.354 N 
ATOM     42  C   UNL A   1      42.489  30.957  30.543  1.00  0.00     0.074 A 
ATOM     43  C   UNL A   1      41.348  31.837  30.406  1.00  0.00     0.031 C 
ATOM     44  C   UNL A   1      40.419  25.516  27.795  1.00  0.00     0.029 A 
ATOM     45  C   UNL A   1      41.751  25.789  28.324  1.00  0.00     0.049 A 
ATOM     46  H   UNL A   1      42.434  27.549  29.207  1.00  0.00     0.167 HD
ATOM     47  C   UNL A   1      43.675  31.317  31.092  1.00  0.00     0.031 A 
ATOM     48  C   UNL A   1      42.778  24.919  28.323  1.00  0.00     0.031 A 
ATOM     49  C   UNL A   1      44.804  30.433  31.211  1.00  0.00     0.049 A 
ATOM     50  C   UNL A   1      44.073  25.332  28.965  1.00  0.00     0.074 A 
ATOM     51  C   UNL A   1      46.034  30.678  31.797  1.00  0.00     0.029 A 
ATOM     52  N   UNL A   1      44.844  29.132  30.730  1.00  0.00    -0.354 N 
ATOM     53  N   UNL A   1      44.383  26.476  29.527  1.00  0.00    -0.248 NA
ATOM     54  C   UNL A   1      45.145  24.330  28.993  1.00  0.00     0.031 C 
ATOM     55  C   UNL A   1      46.832  29.539  31.630  1.00  0.00     0.029 A 
ATOM     56  C   UNL A   1      46.081  28.567  30.988  1.00  0.00     0.049 A 
ATOM     57  H   UNL A   1      44.099  28.677  30.272  1.00  0.00     0.167 HD
ATOM     58  C   UNL A   1      45.681  26.325  29.997  1.00  0.00     0.074 A 
ATOM     59  C   UNL A   1      46.088  24.972  29.670  1.00  0.00     0.031 C 
ATOM     60  C   UNL A   1      46.467  27.222  30.643  1.00  0.00     0.031 A 
BRANCH  47  61
ATOM     61  C   UNL A   1      43.802  32.728  31.603  1.00  0.00    -0.014 A 
ATOM     62  C   UNL A   1      44.323  33.748  30.786  1.00  0.00     0.010 A 
ATOM     63  C   UNL A   1      43.369  33.049  32.903  1.00  0.00     0.010 A 
ATOM     64  C   UNL A   1      44.450  35.052  31.272  1.00  0.00     0.020 A 
ATOM     65  C   UNL A   1      43.470  34.359  33.384  1.00  0.00     0.020 A 
ATOM     66  C   UNL A   1      44.027  35.348  32.571  1.00  0.00     0.054 A 
BRANCH  66  67
ATOM     67  S   UNL A   1      44.190  37.052  33.172  1.00  0.00     0.124 S 
ATOM     68  O   UNL A   1      45.573  37.073  33.643  1.00  0.00    -0.237 OA
ATOM     69  O   UNL A   1      43.923  37.843  31.973  1.00  0.00    -0.237 OA
ATOM     70  O   UNL A   1      43.174  37.149  34.217  1.00  0.00    -0.744 OA
ENDBRANCH  66  67
ENDBRANCH  47  61
BRANCH  48  71
ATOM     71  C   UNL A   1      42.601  23.561  27.741  1.00  0.00    -0.014 A 
ATOM     72  C   UNL A   1      42.995  23.294  26.418  1.00  0.00     0.010 A 
ATOM     73  C   UNL A   1      42.066  22.519  28.519  1.00  0.00     0.010 A 
ATOM     74  C   UNL A   1      42.839  22.015  25.877  1.00  0.00     0.020 A 
ATOM     75  C   UNL A   1      41.932  21.232  27.990  1.00  0.00     0.020 A 
ATOM     76  C   UNL A   1      42.309  20.991  26.667  1.00  0.00     0.054 A 
BRANCH  76  77
ATOM     77  S   UNL A   1      42.167  19.324  25.963  1.00  0.00     0.124 S 
ATOM     78  O   UNL A   1      43.008  19.425  24.774  1.00  0.00    -0.237 OA
ATOM     79  O   UNL A   1      42.686  18.481  27.037  1.00  0.00    -0.237 OA
ATOM     80  O   UNL A   1      40.735  19.184  25.708  1.00  0.00    -0.744 OA
ENDBRANCH  76  77
ENDBRANCH  48  71
BRANCH  60  81
ATOM     81  C   UNL A   1      47.837  26.756  31.052  1.00  0.00    -0.014 A 
ATOM     82  C   UNL A   1      48.064  26.185  32.317  1.00  0.00     0.010 A 
ATOM     83  C   UNL A   1      48.907  26.867  30.145  1.00  0.00     0.010 A 
ATOM     84  C   UNL A   1      49.347  25.775  32.685  1.00  0.00     0.020 A 
ATOM     85  C   UNL A   1      50.186  26.433  30.500  1.00  0.00     0.020 A 
ATOM     86  C   UNL A   1      50.402  25.906  31.775  1.00  0.00     0.054 A 
BRANCH  86  87
ATOM     87  S   UNL A   1      52.055  25.348  32.266  1.00  0.00     0.124 S 
ATOM     88  O   UNL A   1      52.881  25.851  31.173  1.00  0.00    -0.237 OA
ATOM     89  O   UNL A   1      52.248  26.008  33.556  1.00  0.00    -0.237 OA
ATOM     90  O   UNL A   1      51.923  23.894  32.332  1.00  0.00    -0.744 OA
ENDBRANCH  86  87
ENDBRANCH  60  81
ENDBRANCH  34  35
ENDBRANCH  26  29
ENDBRANCH  24  25
ENDBRANCH   1  24
TORSDOF 15
ENDMDL
