MODEL 1
REMARK VINA RESULT:     -14.5      0.000      0.000
REMARK SMILES Cc1ccc(C(=O)NC2CC2)cc1NC(=O)[C@@H]1[C@@H](C(=O)NCCCNC(=O)c2ccc(-c3c4nc(c(-c5ccc(S(=O)(=O)[O-])cc5)c5ccc([nH]5)c(-c5ccc(S(=O)(=O)[O-])cc5)c5nc(c(-c6ccc(S(=O)(=O)[O-])cc6)c6ccc3[nH]6)C=C5)C=C4)cc2)[C@H]2C=C[C@@H]1C2
REMARK SMILES IDX 22 1 21 2 19 3 20 4 18 6 17 7 91 8 88 9 90 10 92 11 89 12
REMARK SMILES IDX 15 13 14 14 16 16 13 17 1 18 2 19 3 20 4 21 12 22 5 23 6 24
REMARK SMILES IDX 7 25 8 26 9 28 10 29 11 30 23 31 24 32 25 33 26 34 27 36
REMARK SMILES IDX 28 37 29 38 87 39 30 40 86 41 31 42 32 43 33 44 80 45 34 46
REMARK SMILES IDX 85 47 79 48 81 49 35 50 84 51 78 52 77 53 36 55 66 56 47 57
REMARK SMILES IDX 65 58 48 59 51 60 64 61 82 62 49 63 50 64 63 66 83 67 52 68
REMARK SMILES IDX 37 69 38 70 46 71 39 72 45 73 40 74 41 75 42 76 43 77 44 78
REMARK SMILES IDX 67 79 68 80 76 81 69 82 75 83 70 84 71 85 72 86 73 87 74 88
REMARK SMILES IDX 53 89 54 90 62 91 55 92 61 93 56 94 57 95 58 96 59 97 60 98
REMARK H PARENT 21 5 14 15 8 27 25 35 81 54 51 65
REMARK Flexibility Score: inf
ROOT
ATOM      1  C   UNL A   1      35.903  22.256  25.774  1.00  0.00     0.117 C 
ENDROOT
BRANCH   1   2
ATOM      2  N   UNL A   1      35.282  23.555  25.994  1.00  0.00    -0.356 N 
ATOM      3  C   UNL A   1      34.253  24.202  25.403  1.00  0.00     0.224 C 
ATOM      4  O   UNL A   1      34.017  25.346  25.816  1.00  0.00    -0.275 OA
ATOM      5  H   UNL A   1      35.698  24.068  26.723  1.00  0.00     0.163 HD
BRANCH   3   6
ATOM      6  C   UNL A   1      33.438  23.670  24.225  1.00  0.00     0.098 C 
ATOM      7  C   UNL A   1      32.518  24.840  23.690  1.00  0.00     0.099 C 
ATOM      8  C   UNL A   1      31.155  24.139  23.461  1.00  0.00     0.025 C 
ATOM      9  C   UNL A   1      32.409  22.534  24.397  1.00  0.00     0.025 C 
ATOM     10  C   UNL A   1      30.561  23.855  24.817  1.00  0.00    -0.027 C 
ATOM     11  C   UNL A   1      31.590  22.714  23.110  1.00  0.00     0.017 C 
ATOM     12  C   UNL A   1      31.320  22.910  25.386  1.00  0.00    -0.027 C 
BRANCH   7  13
ATOM     13  C   UNL A   1      32.985  25.547  22.431  1.00  0.00     0.228 C 
ATOM     14  N   UNL A   1      32.537  26.810  22.117  1.00  0.00    -0.326 N 
ATOM     15  H   UNL A   1      32.869  27.142  21.251  1.00  0.00     0.169 HD
ATOM     16  O   UNL A   1      33.685  24.973  21.591  1.00  0.00    -0.274 OA
BRANCH  14  17
ATOM     17  C   UNL A   1      31.694  27.727  22.788  1.00  0.00     0.044 A 
ATOM     18  C   UNL A   1      33.623  28.399  24.366  1.00  0.00     0.046 C 
ATOM     19  C   UNL A   1      32.230  28.535  23.809  1.00  0.00    -0.027 A 
ATOM     20  C   UNL A   1      31.419  29.528  24.385  1.00  0.00     0.006 A 
ATOM     21  C   UNL A   1      30.104  29.719  23.959  1.00  0.00     0.014 A 
ATOM     22  C   UNL A   1      30.326  27.850  22.484  1.00  0.00     0.040 A 
ATOM     23  C   UNL A   1      29.527  28.873  23.005  1.00  0.00     0.041 A 
BRANCH  23  24
ATOM     24  C   UNL A   1      28.093  29.144  22.646  1.00  0.00     0.251 C 
ATOM     25  O   UNL A   1      27.222  28.414  23.126  1.00  0.00    -0.269 OA
ATOM     26  N   UNL A   1      27.666  30.180  21.843  1.00  0.00    -0.349 N 
ATOM     27  H   UNL A   1      26.689  30.225  21.728  1.00  0.00     0.164 HD
BRANCH  26  28
ATOM     28  C   UNL A   1      28.380  31.192  21.152  1.00  0.00     0.082 C 
ATOM     29  C   UNL A   1      27.676  32.461  20.758  1.00  0.00     0.027 C 
ATOM     30  C   UNL A   1      28.751  32.497  21.800  1.00  0.00     0.027 C 
ENDBRANCH  26  28
ENDBRANCH  23  24
ENDBRANCH  14  17
ENDBRANCH   7  13
ENDBRANCH   3   6
ENDBRANCH   1   2
BRANCH   1  31
ATOM     31  C   UNL A   1      37.364  22.388  25.375  1.00  0.00     0.042 C 
BRANCH  31  32
ATOM     32  C   UNL A   1      38.039  23.538  26.107  1.00  0.00     0.118 C 
BRANCH  32  33
ATOM     33  N   UNL A   1      39.232  23.132  26.841  1.00  0.00    -0.352 N 
ATOM     34  C   UNL A   1      40.147  23.950  27.480  1.00  0.00     0.251 C 
ATOM     35  H   UNL A   1      39.408  22.164  26.885  1.00  0.00     0.163 HD
ATOM     36  O   UNL A   1      41.237  23.558  27.859  1.00  0.00    -0.269 OA
BRANCH  34  37
ATOM     37  C   UNL A   1      39.679  25.310  27.814  1.00  0.00     0.039 A 
ATOM     38  C   UNL A   1      40.175  26.359  27.033  1.00  0.00     0.014 A 
ATOM     39  C   UNL A   1      39.054  25.543  29.036  1.00  0.00     0.014 A 
ATOM     40  C   UNL A   1      40.196  27.645  27.561  1.00  0.00     0.010 A 
ATOM     41  C   UNL A   1      39.174  26.797  29.598  1.00  0.00     0.010 A 
ATOM     42  C   UNL A   1      39.779  27.837  28.878  1.00  0.00    -0.014 A 
BRANCH  42  43
ATOM     43  C   UNL A   1      39.988  29.080  29.610  1.00  0.00     0.031 A 
ATOM     44  C   UNL A   1      38.952  30.137  29.554  1.00  0.00     0.074 A 
ATOM     45  C   UNL A   1      41.090  29.248  30.376  1.00  0.00     0.049 A 
ATOM     46  N   UNL A   1      39.181  31.395  29.731  1.00  0.00    -0.248 NA
ATOM     47  C   UNL A   1      37.555  29.845  29.238  1.00  0.00     0.031 C 
ATOM     48  C   UNL A   1      41.321  30.311  31.351  1.00  0.00     0.029 A 
ATOM     49  N   UNL A   1      42.328  28.610  30.276  1.00  0.00    -0.354 N 
ATOM     50  C   UNL A   1      37.958  32.020  29.847  1.00  0.00     0.074 A 
ATOM     51  C   UNL A   1      36.981  31.030  29.462  1.00  0.00     0.031 C 
ATOM     52  C   UNL A   1      42.645  30.456  31.518  1.00  0.00     0.029 A 
ATOM     53  C   UNL A   1      43.298  29.587  30.553  1.00  0.00     0.049 A 
ATOM     54  H   UNL A   1      42.490  27.665  30.053  1.00  0.00     0.167 HD
ATOM     55  C   UNL A   1      37.872  33.262  30.397  1.00  0.00     0.031 A 
ATOM     56  C   UNL A   1      44.261  29.977  29.668  1.00  0.00     0.031 A 
ATOM     57  C   UNL A   1      39.186  33.800  30.730  1.00  0.00     0.049 A 
ATOM     58  C   UNL A   1      44.190  31.456  29.339  1.00  0.00     0.074 A 
ATOM     59  C   UNL A   1      39.914  33.840  31.908  1.00  0.00     0.029 A 
ATOM     60  N   UNL A   1      40.072  34.107  29.706  1.00  0.00    -0.354 N 
ATOM     61  N   UNL A   1      43.170  32.217  29.624  1.00  0.00    -0.248 NA
ATOM     62  C   UNL A   1      45.238  32.184  28.626  1.00  0.00     0.031 C 
ATOM     63  C   UNL A   1      41.273  34.071  31.571  1.00  0.00     0.029 A 
ATOM     64  C   UNL A   1      41.359  34.207  30.197  1.00  0.00     0.049 A 
ATOM     65  H   UNL A   1      39.818  34.235  28.763  1.00  0.00     0.167 HD
ATOM     66  C   UNL A   1      43.388  33.484  29.153  1.00  0.00     0.074 A 
ATOM     67  C   UNL A   1      44.705  33.417  28.545  1.00  0.00     0.031 C 
ATOM     68  C   UNL A   1      42.467  34.481  29.294  1.00  0.00     0.031 A 
BRANCH  55  69
ATOM     69  C   UNL A   1      36.568  33.821  30.908  1.00  0.00    -0.014 A 
ATOM     70  C   UNL A   1      35.477  33.960  30.026  1.00  0.00     0.010 A 
ATOM     71  C   UNL A   1      36.376  34.285  32.224  1.00  0.00     0.010 A 
ATOM     72  C   UNL A   1      34.298  34.619  30.403  1.00  0.00     0.020 A 
ATOM     73  C   UNL A   1      35.218  34.984  32.602  1.00  0.00     0.020 A 
ATOM     74  C   UNL A   1      34.187  35.156  31.683  1.00  0.00     0.054 A 
BRANCH  74  75
ATOM     75  S   UNL A   1      32.697  36.092  32.116  1.00  0.00     0.124 S 
ATOM     76  O   UNL A   1      31.767  35.040  32.522  1.00  0.00    -0.237 OA
ATOM     77  O   UNL A   1      33.174  36.959  33.189  1.00  0.00    -0.237 OA
ATOM     78  O   UNL A   1      32.345  36.777  30.874  1.00  0.00    -0.744 OA
ENDBRANCH  74  75
ENDBRANCH  55  69
BRANCH  56  79
ATOM     79  C   UNL A   1      44.701  28.909  28.726  1.00  0.00    -0.014 A 
ATOM     80  C   UNL A   1      44.029  28.820  27.488  1.00  0.00     0.010 A 
ATOM     81  C   UNL A   1      45.971  28.323  28.853  1.00  0.00     0.010 A 
ATOM     82  C   UNL A   1      44.681  28.316  26.358  1.00  0.00     0.020 A 
ATOM     83  C   UNL A   1      46.626  27.814  27.720  1.00  0.00     0.020 A 
ATOM     84  C   UNL A   1      45.999  27.878  26.472  1.00  0.00     0.054 A 
BRANCH  84  85
ATOM     85  S   UNL A   1      46.933  27.579  24.939  1.00  0.00     0.124 S 
ATOM     86  O   UNL A   1      48.307  27.496  25.421  1.00  0.00    -0.237 OA
ATOM     87  O   UNL A   1      46.356  26.318  24.468  1.00  0.00    -0.237 OA
ATOM     88  O   UNL A   1      46.620  28.746  24.122  1.00  0.00    -0.744 OA
ENDBRANCH  84  85
ENDBRANCH  56  79
BRANCH  68  89
ATOM     89  C   UNL A   1      42.541  35.846  28.657  1.00  0.00    -0.014 A 
ATOM     90  C   UNL A   1      41.853  36.204  27.488  1.00  0.00     0.010 A 
ATOM     91  C   UNL A   1      43.228  36.878  29.343  1.00  0.00     0.010 A 
ATOM     92  C   UNL A   1      41.896  37.517  26.994  1.00  0.00     0.020 A 
ATOM     93  C   UNL A   1      43.242  38.197  28.883  1.00  0.00     0.020 A 
ATOM     94  C   UNL A   1      42.593  38.504  27.693  1.00  0.00     0.054 A 
BRANCH  94  95
ATOM     95  S   UNL A   1      42.589  40.210  27.088  1.00  0.00     0.124 S 
ATOM     96  O   UNL A   1      42.523  40.970  28.333  1.00  0.00    -0.237 OA
ATOM     97  O   UNL A   1      43.854  40.306  26.363  1.00  0.00    -0.237 OA
ATOM     98  O   UNL A   1      41.394  40.273  26.250  1.00  0.00    -0.744 OA
ENDBRANCH  94  95
ENDBRANCH  68  89
ENDBRANCH  42  43
ENDBRANCH  34  37
ENDBRANCH  32  33
ENDBRANCH  31  32
ENDBRANCH   1  31
TORSDOF 17
ENDMDL
MODEL 2
REMARK VINA RESULT:     -14.2      4.952     11.624
REMARK SMILES Cc1ccc(C(=O)NC2CC2)cc1NC(=O)[C@@H]1[C@@H](C(=O)NCCCNC(=O)c2ccc(-c3c4nc(c(-c5ccc(S(=O)(=O)[O-])cc5)c5ccc([nH]5)c(-c5ccc(S(=O)(=O)[O-])cc5)c5nc(c(-c6ccc(S(=O)(=O)[O-])cc6)c6ccc3[nH]6)C=C5)C=C4)cc2)[C@H]2C=C[C@@H]1C2
REMARK SMILES IDX 22 1 21 2 19 3 20 4 18 6 17 7 91 8 88 9 90 10 92 11 89 12
REMARK SMILES IDX 15 13 14 14 16 16 13 17 1 18 2 19 3 20 4 21 12 22 5 23 6 24
REMARK SMILES IDX 7 25 8 26 9 28 10 29 11 30 23 31 24 32 25 33 26 34 27 36
REMARK SMILES IDX 28 37 29 38 87 39 30 40 86 41 31 42 32 43 33 44 80 45 34 46
REMARK SMILES IDX 85 47 79 48 81 49 35 50 84 51 78 52 77 53 36 55 66 56 47 57
REMARK SMILES IDX 65 58 48 59 51 60 64 61 82 62 49 63 50 64 63 66 83 67 52 68
REMARK SMILES IDX 37 69 38 70 46 71 39 72 45 73 40 74 41 75 42 76 43 77 44 78
REMARK SMILES IDX 67 79 68 80 76 81 69 82 75 83 70 84 71 85 72 86 73 87 74 88
REMARK SMILES IDX 53 89 54 90 62 91 55 92 61 93 56 94 57 95 58 96 59 97 60 98
REMARK H PARENT 21 5 14 15 8 27 25 35 81 54 51 65
REMARK Flexibility Score: inf
ROOT
ATOM      1  C   UNL A   1      32.636  29.060  25.840  1.00  0.00     0.117 C 
ENDROOT
BRANCH   1   2
ATOM      2  N   UNL A   1      33.451  27.854  25.812  1.00  0.00    -0.356 N 
ATOM      3  C   UNL A   1      33.174  26.553  25.569  1.00  0.00     0.224 C 
ATOM      4  O   UNL A   1      34.121  25.763  25.682  1.00  0.00    -0.275 OA
ATOM      5  H   UNL A   1      34.401  28.020  26.012  1.00  0.00     0.163 HD
BRANCH   3   6
ATOM      6  C   UNL A   1      31.787  25.991  25.264  1.00  0.00     0.098 C 
ATOM      7  C   UNL A   1      31.905  24.418  25.147  1.00  0.00     0.099 C 
ATOM      8  C   UNL A   1      31.049  24.093  23.898  1.00  0.00     0.025 C 
ATOM      9  C   UNL A   1      31.042  26.333  23.957  1.00  0.00     0.025 C 
ATOM     10  C   UNL A   1      31.817  24.564  22.690  1.00  0.00    -0.027 C 
ATOM     11  C   UNL A   1      29.998  25.206  23.938  1.00  0.00     0.017 C 
ATOM     12  C   UNL A   1      31.830  25.903  22.734  1.00  0.00    -0.027 C 
BRANCH   7  13
ATOM     13  C   UNL A   1      31.443  23.613  26.349  1.00  0.00     0.228 C 
ATOM     14  N   UNL A   1      31.831  22.303  26.519  1.00  0.00    -0.326 N 
ATOM     15  H   UNL A   1      31.426  21.871  27.306  1.00  0.00     0.169 HD
ATOM     16  O   UNL A   1      30.615  24.063  27.146  1.00  0.00    -0.274 OA
BRANCH  14  17
ATOM     17  C   UNL A   1      32.695  21.453  25.789  1.00  0.00     0.044 A 
ATOM     18  C   UNL A   1      34.761  22.622  26.803  1.00  0.00     0.046 C 
ATOM     19  C   UNL A   1      34.086  21.555  25.981  1.00  0.00    -0.027 A 
ATOM     20  C   UNL A   1      34.929  20.626  25.347  1.00  0.00     0.006 A 
ATOM     21  C   UNL A   1      34.406  19.614  24.541  1.00  0.00     0.014 A 
ATOM     22  C   UNL A   1      32.214  20.513  24.860  1.00  0.00     0.040 A 
ATOM     23  C   UNL A   1      33.035  19.545  24.272  1.00  0.00     0.041 A 
BRANCH  23  24
ATOM     24  C   UNL A   1      32.583  18.438  23.362  1.00  0.00     0.251 C 
ATOM     25  O   UNL A   1      32.030  18.742  22.301  1.00  0.00    -0.269 OA
ATOM     26  N   UNL A   1      32.775  17.094  23.603  1.00  0.00    -0.349 N 
ATOM     27  H   UNL A   1      32.436  16.504  22.891  1.00  0.00     0.164 HD
BRANCH  26  28
ATOM     28  C   UNL A   1      33.372  16.409  24.691  1.00  0.00     0.082 C 
ATOM     29  C   UNL A   1      32.676  16.382  26.025  1.00  0.00     0.027 C 
ATOM     30  C   UNL A   1      32.816  15.120  25.231  1.00  0.00     0.027 C 
ENDBRANCH  26  28
ENDBRANCH  23  24
ENDBRANCH  14  17
ENDBRANCH   7  13
ENDBRANCH   3   6
ENDBRANCH   1   2
BRANCH   1  31
ATOM     31  C   UNL A   1      33.035  29.987  26.977  1.00  0.00     0.042 C 
BRANCH  31  32
ATOM     32  C   UNL A   1      34.467  29.732  27.424  1.00  0.00     0.118 C 
BRANCH  32  33
ATOM     33  N   UNL A   1      35.162  30.943  27.847  1.00  0.00    -0.352 N 
ATOM     34  C   UNL A   1      36.391  31.032  28.475  1.00  0.00     0.251 C 
ATOM     35  H   UNL A   1      34.703  31.795  27.666  1.00  0.00     0.163 HD
ATOM     36  O   UNL A   1      36.791  32.051  29.011  1.00  0.00    -0.269 OA
BRANCH  34  37
ATOM     37  C   UNL A   1      37.275  29.856  28.343  1.00  0.00     0.039 A 
ATOM     38  C   UNL A   1      37.421  29.046  29.475  1.00  0.00     0.014 A 
ATOM     39  C   UNL A   1      38.152  29.770  27.266  1.00  0.00     0.014 A 
ATOM     40  C   UNL A   1      38.560  28.258  29.600  1.00  0.00     0.010 A 
ATOM     41  C   UNL A   1      39.329  29.072  27.441  1.00  0.00     0.010 A 
ATOM     42  C   UNL A   1      39.551  28.349  28.622  1.00  0.00    -0.014 A 
BRANCH  42  43
ATOM     43  C   UNL A   1      40.878  27.767  28.772  1.00  0.00     0.031 A 
ATOM     44  C   UNL A   1      41.091  26.346  28.412  1.00  0.00     0.074 A 
ATOM     45  C   UNL A   1      41.918  28.527  29.183  1.00  0.00     0.049 A 
ATOM     46  N   UNL A   1      42.019  25.598  28.909  1.00  0.00    -0.248 NA
ATOM     47  C   UNL A   1      40.220  25.638  27.477  1.00  0.00     0.031 C 
ATOM     48  C   UNL A   1      43.333  28.166  29.144  1.00  0.00     0.029 A 
ATOM     49  N   UNL A   1      41.895  29.709  29.928  1.00  0.00    -0.354 N 
ATOM     50  C   UNL A   1      42.052  24.440  28.163  1.00  0.00     0.074 A 
ATOM     51  C   UNL A   1      40.871  24.481  27.334  1.00  0.00     0.031 C 
ATOM     52  C   UNL A   1      43.985  28.895  30.063  1.00  0.00     0.029 A 
ATOM     53  C   UNL A   1      42.985  29.641  30.810  1.00  0.00     0.049 A 
ATOM     54  H   UNL A   1      41.242  30.443  29.851  1.00  0.00     0.167 HD
ATOM     55  C   UNL A   1      43.144  23.628  28.204  1.00  0.00     0.031 A 
ATOM     56  C   UNL A   1      42.866  29.656  32.170  1.00  0.00     0.031 A 
ATOM     57  C   UNL A   1      44.141  24.109  29.153  1.00  0.00     0.049 A 
ATOM     58  C   UNL A   1      43.440  28.413  32.821  1.00  0.00     0.074 A 
ATOM     59  C   UNL A   1      45.291  24.867  29.005  1.00  0.00     0.029 A 
ATOM     60  N   UNL A   1      43.846  24.098  30.510  1.00  0.00    -0.354 N 
ATOM     61  N   UNL A   1      43.746  27.324  32.170  1.00  0.00    -0.248 NA
ATOM     62  C   UNL A   1      43.672  28.278  34.258  1.00  0.00     0.031 C 
ATOM     63  C   UNL A   1      45.627  25.400  30.276  1.00  0.00     0.029 A 
ATOM     64  C   UNL A   1      44.703  24.937  31.195  1.00  0.00     0.049 A 
ATOM     65  H   UNL A   1      43.127  23.568  30.923  1.00  0.00     0.167 HD
ATOM     66  C   UNL A   1      44.188  26.368  33.044  1.00  0.00     0.074 A 
ATOM     67  C   UNL A   1      44.135  27.017  34.341  1.00  0.00     0.031 C 
ATOM     68  C   UNL A   1      44.554  25.119  32.632  1.00  0.00     0.031 A 
BRANCH  55  69
ATOM     69  C   UNL A   1      43.409  22.590  27.142  1.00  0.00    -0.014 A 
ATOM     70  C   UNL A   1      42.809  21.318  27.248  1.00  0.00     0.010 A 
ATOM     71  C   UNL A   1      44.285  22.784  26.057  1.00  0.00     0.010 A 
ATOM     72  C   UNL A   1      43.144  20.267  26.384  1.00  0.00     0.020 A 
ATOM     73  C   UNL A   1      44.661  21.729  25.210  1.00  0.00     0.020 A 
ATOM     74  C   UNL A   1      44.094  20.470  25.385  1.00  0.00     0.054 A 
BRANCH  74  75
ATOM     75  S   UNL A   1      44.587  19.071  24.344  1.00  0.00     0.124 S 
ATOM     76  O   UNL A   1      43.559  18.075  24.641  1.00  0.00    -0.237 OA
ATOM     77  O   UNL A   1      44.537  19.646  23.004  1.00  0.00    -0.237 OA
ATOM     78  O   UNL A   1      45.925  18.735  24.828  1.00  0.00    -0.744 OA
ENDBRANCH  74  75
ENDBRANCH  55  69
BRANCH  56  79
ATOM     79  C   UNL A   1      41.699  30.430  32.677  1.00  0.00    -0.014 A 
ATOM     80  C   UNL A   1      40.449  29.774  32.705  1.00  0.00     0.010 A 
ATOM     81  C   UNL A   1      41.889  31.563  33.487  1.00  0.00     0.010 A 
ATOM     82  C   UNL A   1      39.478  30.132  33.644  1.00  0.00     0.020 A 
ATOM     83  C   UNL A   1      40.913  31.925  34.429  1.00  0.00     0.020 A 
ATOM     84  C   UNL A   1      39.746  31.163  34.543  1.00  0.00     0.054 A 
BRANCH  84  85
ATOM     85  S   UNL A   1      38.636  31.360  35.972  1.00  0.00     0.124 S 
ATOM     86  O   UNL A   1      38.604  30.012  36.531  1.00  0.00    -0.237 OA
ATOM     87  O   UNL A   1      39.345  32.356  36.777  1.00  0.00    -0.237 OA
ATOM     88  O   UNL A   1      37.392  31.823  35.369  1.00  0.00    -0.744 OA
ENDBRANCH  84  85
ENDBRANCH  56  79
BRANCH  68  89
ATOM     89  C   UNL A   1      44.879  23.953  33.532  1.00  0.00    -0.014 A 
ATOM     90  C   UNL A   1      43.989  22.907  33.813  1.00  0.00     0.010 A 
ATOM     91  C   UNL A   1      46.204  23.822  34.017  1.00  0.00     0.010 A 
ATOM     92  C   UNL A   1      44.384  21.808  34.590  1.00  0.00     0.020 A 
ATOM     93  C   UNL A   1      46.619  22.711  34.755  1.00  0.00     0.020 A 
ATOM     94  C   UNL A   1      45.695  21.718  35.058  1.00  0.00     0.054 A 
BRANCH  94  95
ATOM     95  S   UNL A   1      46.217  20.264  36.003  1.00  0.00     0.124 S 
ATOM     96  O   UNL A   1      47.665  20.283  35.806  1.00  0.00    -0.237 OA
ATOM     97  O   UNL A   1      45.767  20.573  37.359  1.00  0.00    -0.237 OA
ATOM     98  O   UNL A   1      45.510  19.163  35.356  1.00  0.00    -0.744 OA
ENDBRANCH  94  95
ENDBRANCH  68  89
ENDBRANCH  42  43
ENDBRANCH  34  37
ENDBRANCH  32  33
ENDBRANCH  31  32
ENDBRANCH   1  31
TORSDOF 17
ENDMDL
MODEL 3
REMARK VINA RESULT:     -14.2      1.761      2.299
REMARK SMILES Cc1ccc(C(=O)NC2CC2)cc1NC(=O)[C@@H]1[C@@H](C(=O)NCCCNC(=O)c2ccc(-c3c4nc(c(-c5ccc(S(=O)(=O)[O-])cc5)c5ccc([nH]5)c(-c5ccc(S(=O)(=O)[O-])cc5)c5nc(c(-c6ccc(S(=O)(=O)[O-])cc6)c6ccc3[nH]6)C=C5)C=C4)cc2)[C@H]2C=C[C@@H]1C2
REMARK SMILES IDX 22 1 21 2 19 3 20 4 18 6 17 7 91 8 88 9 90 10 92 11 89 12
REMARK SMILES IDX 15 13 14 14 16 16 13 17 1 18 2 19 3 20 4 21 12 22 5 23 6 24
REMARK SMILES IDX 7 25 8 26 9 28 10 29 11 30 23 31 24 32 25 33 26 34 27 36
REMARK SMILES IDX 28 37 29 38 87 39 30 40 86 41 31 42 32 43 33 44 80 45 34 46
REMARK SMILES IDX 85 47 79 48 81 49 35 50 84 51 78 52 77 53 36 55 66 56 47 57
REMARK SMILES IDX 65 58 48 59 51 60 64 61 82 62 49 63 50 64 63 66 83 67 52 68
REMARK SMILES IDX 37 69 38 70 46 71 39 72 45 73 40 74 41 75 42 76 43 77 44 78
REMARK SMILES IDX 67 79 68 80 76 81 69 82 75 83 70 84 71 85 72 86 73 87 74 88
REMARK SMILES IDX 53 89 54 90 62 91 55 92 61 93 56 94 57 95 58 96 59 97 60 98
REMARK H PARENT 21 5 14 15 8 27 25 35 81 54 51 65
REMARK Flexibility Score: inf
ROOT
ATOM      1  C   UNL A   1      37.085  21.328  25.422  1.00  0.00     0.117 C 
ENDROOT
BRANCH   1   2
ATOM      2  N   UNL A   1      35.981  21.619  26.326  1.00  0.00    -0.356 N 
ATOM      3  C   UNL A   1      34.667  21.872  26.133  1.00  0.00     0.224 C 
ATOM      4  O   UNL A   1      34.008  22.136  27.148  1.00  0.00    -0.275 OA
ATOM      5  H   UNL A   1      36.248  21.637  27.274  1.00  0.00     0.163 HD
BRANCH   3   6
ATOM      6  C   UNL A   1      33.975  21.943  24.774  1.00  0.00     0.098 C 
ATOM      7  C   UNL A   1      33.475  23.427  24.550  1.00  0.00     0.099 C 
ATOM      8  C   UNL A   1      32.048  23.234  23.978  1.00  0.00     0.025 C 
ATOM      9  C   UNL A   1      32.689  21.145  24.474  1.00  0.00     0.025 C 
ATOM     10  C   UNL A   1      31.168  22.764  25.108  1.00  0.00    -0.027 C 
ATOM     11  C   UNL A   1      32.184  21.901  23.237  1.00  0.00     0.017 C 
ATOM     12  C   UNL A   1      31.563  21.523  25.419  1.00  0.00    -0.027 C 
BRANCH   7  13
ATOM     13  C   UNL A   1      34.317  24.294  23.632  1.00  0.00     0.228 C 
ATOM     14  N   UNL A   1      33.997  25.615  23.411  1.00  0.00    -0.326 N 
ATOM     15  H   UNL A   1      34.584  26.059  22.758  1.00  0.00     0.169 HD
ATOM     16  O   UNL A   1      35.241  23.820  22.965  1.00  0.00    -0.274 OA
BRANCH  14  17
ATOM     17  C   UNL A   1      32.991  26.462  23.934  1.00  0.00     0.044 A 
ATOM     18  C   UNL A   1      31.730  26.415  21.683  1.00  0.00     0.046 C 
ATOM     19  C   UNL A   1      31.876  26.782  23.137  1.00  0.00    -0.027 A 
ATOM     20  C   UNL A   1      30.824  27.520  23.706  1.00  0.00     0.006 A 
ATOM     21  C   UNL A   1      30.873  27.933  25.037  1.00  0.00     0.014 A 
ATOM     22  C   UNL A   1      33.072  27.015  25.226  1.00  0.00     0.040 A 
ATOM     23  C   UNL A   1      32.006  27.697  25.822  1.00  0.00     0.041 A 
BRANCH  23  24
ATOM     24  C   UNL A   1      31.969  28.217  27.232  1.00  0.00     0.251 C 
ATOM     25  O   UNL A   1      31.452  27.511  28.102  1.00  0.00    -0.269 OA
ATOM     26  N   UNL A   1      32.507  29.419  27.641  1.00  0.00    -0.349 N 
ATOM     27  H   UNL A   1      32.414  29.594  28.605  1.00  0.00     0.164 HD
BRANCH  26  28
ATOM     28  C   UNL A   1      33.170  30.446  26.923  1.00  0.00     0.082 C 
ATOM     29  C   UNL A   1      32.580  31.829  26.889  1.00  0.00     0.027 C 
ATOM     30  C   UNL A   1      33.868  31.586  27.613  1.00  0.00     0.027 C 
ENDBRANCH  26  28
ENDBRANCH  23  24
ENDBRANCH  14  17
ENDBRANCH   7  13
ENDBRANCH   3   6
ENDBRANCH   1   2
BRANCH   1  31
ATOM     31  C   UNL A   1      37.751  22.598  24.914  1.00  0.00     0.042 C 
BRANCH  31  32
ATOM     32  C   UNL A   1      38.149  23.513  26.062  1.00  0.00     0.118 C 
BRANCH  32  33
ATOM     33  N   UNL A   1      39.472  23.217  26.601  1.00  0.00    -0.352 N 
ATOM     34  C   UNL A   1      40.414  24.118  27.064  1.00  0.00     0.251 C 
ATOM     35  H   UNL A   1      39.724  22.266  26.639  1.00  0.00     0.163 HD
ATOM     36  O   UNL A   1      41.577  23.816  27.270  1.00  0.00    -0.269 OA
BRANCH  34  37
ATOM     37  C   UNL A   1      39.906  25.453  27.438  1.00  0.00     0.039 A 
ATOM     38  C   UNL A   1      40.378  26.540  26.693  1.00  0.00     0.014 A 
ATOM     39  C   UNL A   1      39.268  25.631  28.662  1.00  0.00     0.014 A 
ATOM     40  C   UNL A   1      40.359  27.809  27.262  1.00  0.00     0.010 A 
ATOM     41  C   UNL A   1      39.349  26.869  29.265  1.00  0.00     0.010 A 
ATOM     42  C   UNL A   1      39.930  27.948  28.582  1.00  0.00    -0.014 A 
BRANCH  42  43
ATOM     43  C   UNL A   1      40.099  29.172  29.354  1.00  0.00     0.031 A 
ATOM     44  C   UNL A   1      39.047  30.214  29.300  1.00  0.00     0.074 A 
ATOM     45  C   UNL A   1      41.177  29.335  30.154  1.00  0.00     0.049 A 
ATOM     46  N   UNL A   1      39.251  31.470  29.519  1.00  0.00    -0.248 NA
ATOM     47  C   UNL A   1      37.665  29.910  28.940  1.00  0.00     0.031 C 
ATOM     48  C   UNL A   1      41.366  30.372  31.164  1.00  0.00     0.029 A 
ATOM     49  N   UNL A   1      42.428  28.719  30.068  1.00  0.00    -0.354 N 
ATOM     50  C   UNL A   1      38.016  32.072  29.620  1.00  0.00     0.074 A 
ATOM     51  C   UNL A   1      37.066  31.079  29.182  1.00  0.00     0.031 C 
ATOM     52  C   UNL A   1      42.682  30.533  31.371  1.00  0.00     0.029 A 
ATOM     53  C   UNL A   1      43.375  29.702  30.398  1.00  0.00     0.049 A 
ATOM     54  H   UNL A   1      42.611  27.783  29.823  1.00  0.00     0.167 HD
ATOM     55  C   UNL A   1      37.896  33.296  30.203  1.00  0.00     0.031 A 
ATOM     56  C   UNL A   1      44.354  30.132  29.550  1.00  0.00     0.031 A 
ATOM     57  C   UNL A   1      39.191  33.844  30.586  1.00  0.00     0.049 A 
ATOM     58  C   UNL A   1      44.268  31.619  29.263  1.00  0.00     0.074 A 
ATOM     59  C   UNL A   1      39.888  33.862  31.784  1.00  0.00     0.029 A 
ATOM     60  N   UNL A   1      40.099  34.194  29.595  1.00  0.00    -0.354 N 
ATOM     61  N   UNL A   1      43.228  32.356  29.542  1.00  0.00    -0.248 NA
ATOM     62  C   UNL A   1      45.322  32.384  28.598  1.00  0.00     0.031 C 
ATOM     63  C   UNL A   1      41.251  34.124  31.489  1.00  0.00     0.029 A 
ATOM     64  C   UNL A   1      41.371  34.300  30.123  1.00  0.00     0.049 A 
ATOM     65  H   UNL A   1      39.867  34.345  28.650  1.00  0.00     0.167 HD
ATOM     66  C   UNL A   1      43.438  33.639  29.113  1.00  0.00     0.074 A 
ATOM     67  C   UNL A   1      44.771  33.610  28.538  1.00  0.00     0.031 C 
ATOM     68  C   UNL A   1      42.498  34.617  29.257  1.00  0.00     0.031 A 
BRANCH  55  69
ATOM     69  C   UNL A   1      36.570  33.820  30.695  1.00  0.00    -0.014 A 
ATOM     70  C   UNL A   1      35.564  34.152  29.765  1.00  0.00     0.010 A 
ATOM     71  C   UNL A   1      36.279  34.067  32.051  1.00  0.00     0.010 A 
ATOM     72  C   UNL A   1      34.378  34.792  30.152  1.00  0.00     0.020 A 
ATOM     73  C   UNL A   1      35.114  34.743  32.448  1.00  0.00     0.020 A 
ATOM     74  C   UNL A   1      34.173  35.112  31.491  1.00  0.00     0.054 A 
BRANCH  74  75
ATOM     75  S   UNL A   1      32.680  36.029  31.956  1.00  0.00     0.124 S 
ATOM     76  O   UNL A   1      33.185  36.980  32.944  1.00  0.00    -0.237 OA
ATOM     77  O   UNL A   1      32.260  36.608  30.684  1.00  0.00    -0.237 OA
ATOM     78  O   UNL A   1      31.794  34.999  32.493  1.00  0.00    -0.744 OA
ENDBRANCH  74  75
ENDBRANCH  55  69
BRANCH  56  79
ATOM     79  C   UNL A   1      44.835  29.099  28.591  1.00  0.00    -0.014 A 
ATOM     80  C   UNL A   1      44.164  29.002  27.353  1.00  0.00     0.010 A 
ATOM     81  C   UNL A   1      46.129  28.564  28.706  1.00  0.00     0.010 A 
ATOM     82  C   UNL A   1      44.834  28.543  26.214  1.00  0.00     0.020 A 
ATOM     83  C   UNL A   1      46.801  28.101  27.563  1.00  0.00     0.020 A 
ATOM     84  C   UNL A   1      46.169  28.159  26.317  1.00  0.00     0.054 A 
BRANCH  84  85
ATOM     85  S   UNL A   1      47.111  27.924  24.778  1.00  0.00     0.124 S 
ATOM     86  O   UNL A   1      48.491  28.035  25.236  1.00  0.00    -0.237 OA
ATOM     87  O   UNL A   1      46.694  26.583  24.364  1.00  0.00    -0.237 OA
ATOM     88  O   UNL A   1      46.638  29.010  23.927  1.00  0.00    -0.744 OA
ENDBRANCH  84  85
ENDBRANCH  56  79
BRANCH  68  89
ATOM     89  C   UNL A   1      42.566  36.001  28.661  1.00  0.00    -0.014 A 
ATOM     90  C   UNL A   1      41.975  36.359  27.441  1.00  0.00     0.010 A 
ATOM     91  C   UNL A   1      43.136  37.043  29.433  1.00  0.00     0.010 A 
ATOM     92  C   UNL A   1      42.002  37.685  26.984  1.00  0.00     0.020 A 
ATOM     93  C   UNL A   1      43.130  38.374  29.007  1.00  0.00     0.020 A 
ATOM     94  C   UNL A   1      42.582  38.684  27.768  1.00  0.00     0.054 A 
BRANCH  94  95
ATOM     95  S   UNL A   1      42.554  40.404  27.204  1.00  0.00     0.124 S 
ATOM     96  O   UNL A   1      43.262  40.313  25.930  1.00  0.00    -0.237 OA
ATOM     97  O   UNL A   1      41.125  40.695  27.106  1.00  0.00    -0.237 OA
ATOM     98  O   UNL A   1      43.257  41.123  28.263  1.00  0.00    -0.744 OA
ENDBRANCH  94  95
ENDBRANCH  68  89
ENDBRANCH  42  43
ENDBRANCH  34  37
ENDBRANCH  32  33
ENDBRANCH  31  32
ENDBRANCH   1  31
TORSDOF 17
ENDMDL
