MODEL 1
REMARK VINA RESULT:     -11.0      0.000      0.000
REMARK SMILES CC(C)(C)c1ccc(CSc2ccnc(C(=O)NCCCNC(=O)c3ccc(-c4c5nc(c(-c6ccc(S(=O)(=O)[O-])cc6)c6ccc([nH]6)c(-c6ccc(S(=O)(=O)[O-])cc6)c6nc(c(-c7ccc(S(=O)(=O)[O-])cc7)c7ccc4[nH]7)C=C6)C=C5)cc3)c2)cc1
REMARK SMILES IDX 19 1 18 2 16 3 17 4 15 6 11 7 12 8 85 9 13 10 14 11 10 12
REMARK SMILES IDX 9 13 8 14 5 15 6 16 87 17 7 18 86 19 2 20 1 21 3 22 4 23
REMARK SMILES IDX 20 24 21 25 22 26 23 27 24 29 25 30 26 31 84 32 27 33 83 34
REMARK SMILES IDX 28 35 29 36 30 37 77 38 31 39 82 40 76 41 78 42 32 43 81 44
REMARK SMILES IDX 75 45 74 46 33 48 63 49 44 50 62 51 45 52 48 53 61 54 79 55
REMARK SMILES IDX 46 56 47 57 60 59 80 60 49 61 34 62 35 63 43 64 36 65 42 66
REMARK SMILES IDX 37 67 38 68 39 69 40 70 41 71 64 72 65 73 73 74 66 75 72 76
REMARK SMILES IDX 67 77 68 78 69 79 70 80 71 81 50 82 51 83 59 84 52 85 58 86
REMARK SMILES IDX 53 87 54 88 55 89 56 90 57 91
REMARK H PARENT 18 5 22 28 78 47 48 58
REMARK Flexibility Score: inf
ROOT
ATOM      1  C   UNL A   1      33.924  33.357  28.692  1.00  0.00     0.118 C 
ENDROOT
BRANCH   1   2
ATOM      2  N   UNL A   1      33.221  34.598  28.434  1.00  0.00    -0.351 N 
ATOM      3  C   UNL A   1      32.932  35.719  29.179  1.00  0.00     0.269 C 
ATOM      4  O   UNL A   1      32.313  36.598  28.570  1.00  0.00    -0.268 OA
ATOM      5  H   UNL A   1      32.870  34.652  27.516  1.00  0.00     0.163 HD
BRANCH   3   6
ATOM      6  C   UNL A   1      33.326  35.950  30.620  1.00  0.00     0.129 A 
ATOM      7  C   UNL A   1      34.176  35.350  32.789  1.00  0.00     0.011 A 
ATOM      8  C   UNL A   1      34.002  36.672  33.192  1.00  0.00     0.035 A 
ATOM      9  C   UNL A   1      33.812  34.982  31.490  1.00  0.00     0.049 A 
ATOM     10  C   UNL A   1      33.480  37.570  32.285  1.00  0.00     0.113 A 
ATOM     11  N   UNL A   1      33.158  37.241  31.020  1.00  0.00    -0.251 NA
BRANCH   7  12
ATOM     12  S   UNL A   1      34.961  34.241  33.957  1.00  0.00    -0.121 SA
BRANCH  12  13
ATOM     13  C   UNL A   1      35.633  32.897  32.911  1.00  0.00     0.110 C 
BRANCH  13  14
ATOM     14  C   UNL A   1      37.136  32.813  32.925  1.00  0.00    -0.038 A 
ATOM     15  C   UNL A   1      39.980  32.706  33.025  1.00  0.00    -0.043 A 
ATOM     16  C   UNL A   1      39.307  33.412  32.014  1.00  0.00     0.004 A 
ATOM     17  C   UNL A   1      39.188  31.996  33.943  1.00  0.00     0.004 A 
ATOM     18  C   UNL A   1      37.909  33.470  31.966  1.00  0.00     0.005 A 
ATOM     19  C   UNL A   1      37.793  32.044  33.888  1.00  0.00     0.005 A 
BRANCH  15  20
ATOM     20  C   UNL A   1      41.516  32.660  33.096  1.00  0.00    -0.013 C 
ATOM     21  C   UNL A   1      42.171  33.816  32.303  1.00  0.00     0.016 C 
ATOM     22  C   UNL A   1      42.093  31.350  32.511  1.00  0.00     0.016 C 
ATOM     23  C   UNL A   1      41.939  32.769  34.573  1.00  0.00     0.016 C 
ENDBRANCH  15  20
ENDBRANCH  13  14
ENDBRANCH  12  13
ENDBRANCH   7  12
ENDBRANCH   3   6
ENDBRANCH   1   2
BRANCH   1  24
ATOM     24  C   UNL A   1      35.315  33.373  28.062  1.00  0.00     0.042 C 
BRANCH  24  25
ATOM     25  C   UNL A   1      36.068  32.052  28.209  1.00  0.00     0.118 C 
BRANCH  25  26
ATOM     26  N   UNL A   1      35.833  31.436  29.507  1.00  0.00    -0.352 N 
ATOM     27  C   UNL A   1      36.520  30.455  30.179  1.00  0.00     0.251 C 
ATOM     28  H   UNL A   1      35.046  31.782  29.986  1.00  0.00     0.163 HD
ATOM     29  O   UNL A   1      35.983  29.916  31.143  1.00  0.00    -0.269 OA
BRANCH  27  30
ATOM     30  C   UNL A   1      37.880  30.034  29.767  1.00  0.00     0.039 A 
ATOM     31  C   UNL A   1      38.863  29.884  30.752  1.00  0.00     0.014 A 
ATOM     32  C   UNL A   1      38.222  29.866  28.423  1.00  0.00     0.014 A 
ATOM     33  C   UNL A   1      40.166  29.523  30.395  1.00  0.00     0.010 A 
ATOM     34  C   UNL A   1      39.501  29.430  28.075  1.00  0.00     0.010 A 
ATOM     35  C   UNL A   1      40.491  29.266  29.054  1.00  0.00    -0.014 A 
BRANCH  35  36
ATOM     36  C   UNL A   1      41.860  28.843  28.655  1.00  0.00     0.031 A 
ATOM     37  C   UNL A   1      42.974  29.855  28.570  1.00  0.00     0.074 A 
ATOM     38  C   UNL A   1      42.087  27.563  28.304  1.00  0.00     0.049 A 
ATOM     39  N   UNL A   1      44.207  29.694  28.162  1.00  0.00    -0.248 NA
ATOM     40  C   UNL A   1      42.651  31.235  28.971  1.00  0.00     0.031 C 
ATOM     41  C   UNL A   1      41.086  26.494  28.301  1.00  0.00     0.029 A 
ATOM     42  N   UNL A   1      43.232  26.942  27.868  1.00  0.00    -0.354 N 
ATOM     43  C   UNL A   1      44.797  30.951  28.229  1.00  0.00     0.074 A 
ATOM     44  C   UNL A   1      43.774  31.872  28.675  1.00  0.00     0.031 C 
ATOM     45  C   UNL A   1      41.663  25.349  27.904  1.00  0.00     0.029 A 
ATOM     46  C   UNL A   1      43.064  25.608  27.584  1.00  0.00     0.049 A 
ATOM     47  H   UNL A   1      44.092  27.410  27.767  1.00  0.00     0.167 HD
ATOM     48  C   UNL A   1      46.077  31.306  27.961  1.00  0.00     0.031 A 
ATOM     49  C   UNL A   1      43.933  24.695  27.109  1.00  0.00     0.031 A 
ATOM     50  C   UNL A   1      47.098  30.384  27.537  1.00  0.00     0.049 A 
ATOM     51  C   UNL A   1      45.352  25.107  26.833  1.00  0.00     0.074 A 
ATOM     52  C   UNL A   1      48.438  30.634  27.297  1.00  0.00     0.029 A 
ATOM     53  N   UNL A   1      46.891  29.036  27.291  1.00  0.00    -0.354 N 
ATOM     54  N   UNL A   1      45.905  26.290  26.959  1.00  0.00    -0.248 NA
ATOM     55  C   UNL A   1      46.269  24.059  26.361  1.00  0.00     0.031 C 
ATOM     56  C   UNL A   1      49.033  29.443  26.864  1.00  0.00     0.029 A 
ATOM     57  C   UNL A   1      48.075  28.442  26.885  1.00  0.00     0.049 A 
ATOM     58  H   UNL A   1      46.031  28.568  27.391  1.00  0.00     0.167 HD
ATOM     59  C   UNL A   1      47.239  26.123  26.605  1.00  0.00     0.074 A 
ATOM     60  C   UNL A   1      47.413  24.723  26.274  1.00  0.00     0.031 C 
ATOM     61  C   UNL A   1      48.231  27.047  26.558  1.00  0.00     0.031 A 
BRANCH  48  62
ATOM     62  C   UNL A   1      46.441  32.760  28.116  1.00  0.00    -0.014 A 
ATOM     63  C   UNL A   1      46.324  33.660  27.039  1.00  0.00     0.010 A 
ATOM     64  C   UNL A   1      46.886  33.242  29.361  1.00  0.00     0.010 A 
ATOM     65  C   UNL A   1      46.695  34.998  27.190  1.00  0.00     0.020 A 
ATOM     66  C   UNL A   1      47.230  34.588  29.523  1.00  0.00     0.020 A 
ATOM     67  C   UNL A   1      47.152  35.452  28.430  1.00  0.00     0.054 A 
BRANCH  67  68
ATOM     68  S   UNL A   1      47.624  37.196  28.598  1.00  0.00     0.124 S 
ATOM     69  O   UNL A   1      47.784  37.325  30.045  1.00  0.00    -0.237 OA
ATOM     70  O   UNL A   1      48.860  37.271  27.823  1.00  0.00    -0.237 OA
ATOM     71  O   UNL A   1      46.490  37.919  28.029  1.00  0.00    -0.744 OA
ENDBRANCH  67  68
ENDBRANCH  48  62
BRANCH  49  72
ATOM     72  C   UNL A   1      43.482  23.295  26.881  1.00  0.00    -0.014 A 
ATOM     73  C   UNL A   1      43.565  22.718  25.602  1.00  0.00     0.010 A 
ATOM     74  C   UNL A   1      42.996  22.520  27.951  1.00  0.00     0.010 A 
ATOM     75  C   UNL A   1      43.159  21.396  25.394  1.00  0.00     0.020 A 
ATOM     76  C   UNL A   1      42.615  21.191  27.752  1.00  0.00     0.020 A 
ATOM     77  C   UNL A   1      42.690  20.639  26.471  1.00  0.00     0.054 A 
BRANCH  77  78
ATOM     78  S   UNL A   1      42.230  18.906  26.190  1.00  0.00     0.124 S 
ATOM     79  O   UNL A   1      42.471  18.313  27.502  1.00  0.00    -0.237 OA
ATOM     80  O   UNL A   1      40.829  19.012  25.791  1.00  0.00    -0.237 OA
ATOM     81  O   UNL A   1      43.141  18.479  25.131  1.00  0.00    -0.744 OA
ENDBRANCH  77  78
ENDBRANCH  49  72
BRANCH  61  82
ATOM     82  C   UNL A   1      49.602  26.569  26.163  1.00  0.00    -0.014 A 
ATOM     83  C   UNL A   1      50.106  26.791  24.869  1.00  0.00     0.010 A 
ATOM     84  C   UNL A   1      50.419  25.938  27.118  1.00  0.00     0.010 A 
ATOM     85  C   UNL A   1      51.393  26.364  24.530  1.00  0.00     0.020 A 
ATOM     86  C   UNL A   1      51.715  25.532  26.791  1.00  0.00     0.020 A 
ATOM     87  C   UNL A   1      52.188  25.736  25.493  1.00  0.00     0.054 A 
BRANCH  87  88
ATOM     88  S   UNL A   1      53.871  25.230  25.041  1.00  0.00     0.124 S 
ATOM     89  O   UNL A   1      54.061  25.915  23.766  1.00  0.00    -0.237 OA
ATOM     90  O   UNL A   1      54.669  25.737  26.154  1.00  0.00    -0.237 OA
ATOM     91  O   UNL A   1      53.783  23.774  24.959  1.00  0.00    -0.744 OA
ENDBRANCH  87  88
ENDBRANCH  61  82
ENDBRANCH  35  36
ENDBRANCH  27  30
ENDBRANCH  25  26
ENDBRANCH  24  25
ENDBRANCH   1  24
TORSDOF 17
ENDMDL
MODEL 2
REMARK VINA RESULT:     -10.9      4.529      7.444
REMARK SMILES CC(C)(C)c1ccc(CSc2ccnc(C(=O)NCCCNC(=O)c3ccc(-c4c5nc(c(-c6ccc(S(=O)(=O)[O-])cc6)c6ccc([nH]6)c(-c6ccc(S(=O)(=O)[O-])cc6)c6nc(c(-c7ccc(S(=O)(=O)[O-])cc7)c7ccc4[nH]7)C=C6)C=C5)cc3)c2)cc1
REMARK SMILES IDX 19 1 18 2 16 3 17 4 15 6 11 7 12 8 85 9 13 10 14 11 10 12
REMARK SMILES IDX 9 13 8 14 5 15 6 16 87 17 7 18 86 19 2 20 1 21 3 22 4 23
REMARK SMILES IDX 20 24 21 25 22 26 23 27 24 29 25 30 26 31 84 32 27 33 83 34
REMARK SMILES IDX 28 35 29 36 30 37 77 38 31 39 82 40 76 41 78 42 32 43 81 44
REMARK SMILES IDX 75 45 74 46 33 48 63 49 44 50 62 51 45 52 48 53 61 54 79 55
REMARK SMILES IDX 46 56 47 57 60 59 80 60 49 61 34 62 35 63 43 64 36 65 42 66
REMARK SMILES IDX 37 67 38 68 39 69 40 70 41 71 64 72 65 73 73 74 66 75 72 76
REMARK SMILES IDX 67 77 68 78 69 79 70 80 71 81 50 82 51 83 59 84 52 85 58 86
REMARK SMILES IDX 53 87 54 88 55 89 56 90 57 91
REMARK H PARENT 18 5 22 28 78 47 48 58
REMARK Flexibility Score: inf
ROOT
ATOM      1  C   UNL A   1      33.172  29.665  26.337  1.00  0.00     0.118 C 
ENDROOT
BRANCH   1   2
ATOM      2  N   UNL A   1      33.465  29.602  24.919  1.00  0.00    -0.351 N 
ATOM      3  C   UNL A   1      33.028  28.819  23.875  1.00  0.00     0.269 C 
ATOM      4  O   UNL A   1      33.516  29.104  22.776  1.00  0.00    -0.268 OA
ATOM      5  H   UNL A   1      34.127  30.274  24.637  1.00  0.00     0.163 HD
BRANCH   3   6
ATOM      6  C   UNL A   1      32.018  27.698  23.972  1.00  0.00     0.129 A 
ATOM      7  C   UNL A   1      31.261  25.451  24.377  1.00  0.00     0.011 A 
ATOM      8  C   UNL A   1      29.959  25.871  24.116  1.00  0.00     0.035 A 
ATOM      9  C   UNL A   1      32.306  26.374  24.283  1.00  0.00     0.049 A 
ATOM     10  C   UNL A   1      29.754  27.192  23.778  1.00  0.00     0.113 A 
ATOM     11  N   UNL A   1      30.743  28.103  23.717  1.00  0.00    -0.251 NA
BRANCH   7  12
ATOM     12  S   UNL A   1      31.474  23.757  24.922  1.00  0.00    -0.121 SA
BRANCH  12  13
ATOM     13  C   UNL A   1      33.070  23.250  24.185  1.00  0.00     0.110 C 
BRANCH  13  14
ATOM     14  C   UNL A   1      33.322  21.767  24.246  1.00  0.00    -0.038 A 
ATOM     15  C   UNL A   1      33.735  18.955  24.428  1.00  0.00    -0.043 A 
ATOM     16  C   UNL A   1      34.695  19.870  24.894  1.00  0.00     0.004 A 
ATOM     17  C   UNL A   1      32.596  19.488  23.803  1.00  0.00     0.004 A 
ATOM     18  C   UNL A   1      34.491  21.252  24.810  1.00  0.00     0.005 A 
ATOM     19  C   UNL A   1      32.398  20.868  23.709  1.00  0.00     0.005 A 
BRANCH  15  20
ATOM     20  C   UNL A   1      33.944  17.435  24.539  1.00  0.00    -0.013 C 
ATOM     21  C   UNL A   1      35.361  17.077  25.047  1.00  0.00     0.016 C 
ATOM     22  C   UNL A   1      33.775  16.717  23.180  1.00  0.00     0.016 C 
ATOM     23  C   UNL A   1      32.906  16.872  25.527  1.00  0.00     0.016 C 
ENDBRANCH  15  20
ENDBRANCH  13  14
ENDBRANCH  12  13
ENDBRANCH   7  12
ENDBRANCH   3   6
ENDBRANCH   1   2
BRANCH   1  24
ATOM     24  C   UNL A   1      34.226  28.915  27.149  1.00  0.00     0.042 C 
BRANCH  24  25
ATOM     25  C   UNL A   1      35.409  29.787  27.570  1.00  0.00     0.118 C 
BRANCH  25  26
ATOM     26  N   UNL A   1      35.401  30.058  29.000  1.00  0.00    -0.352 N 
ATOM     27  C   UNL A   1      36.344  29.821  29.970  1.00  0.00     0.251 C 
ATOM     28  H   UNL A   1      34.577  30.485  29.329  1.00  0.00     0.163 HD
ATOM     29  O   UNL A   1      36.007  29.898  31.149  1.00  0.00    -0.269 OA
BRANCH  27  30
ATOM     30  C   UNL A   1      37.743  29.474  29.628  1.00  0.00     0.039 A 
ATOM     31  C   UNL A   1      38.162  29.610  28.300  1.00  0.00     0.014 A 
ATOM     32  C   UNL A   1      38.621  28.942  30.575  1.00  0.00     0.014 A 
ATOM     33  C   UNL A   1      39.466  29.258  27.935  1.00  0.00     0.010 A 
ATOM     34  C   UNL A   1      39.943  28.665  30.227  1.00  0.00     0.010 A 
ATOM     35  C   UNL A   1      40.378  28.807  28.902  1.00  0.00    -0.014 A 
BRANCH  35  36
ATOM     36  C   UNL A   1      41.781  28.464  28.545  1.00  0.00     0.031 A 
ATOM     37  C   UNL A   1      42.836  29.539  28.494  1.00  0.00     0.074 A 
ATOM     38  C   UNL A   1      42.092  27.199  28.201  1.00  0.00     0.049 A 
ATOM     39  N   UNL A   1      44.089  29.449  28.124  1.00  0.00    -0.248 NA
ATOM     40  C   UNL A   1      42.423  30.897  28.884  1.00  0.00     0.031 C 
ATOM     41  C   UNL A   1      41.154  26.075  28.168  1.00  0.00     0.029 A 
ATOM     42  N   UNL A   1      43.284  26.647  27.800  1.00  0.00    -0.354 N 
ATOM     43  C   UNL A   1      44.603  30.738  28.208  1.00  0.00     0.074 A 
ATOM     44  C   UNL A   1      43.516  31.599  28.623  1.00  0.00     0.031 C 
ATOM     45  C   UNL A   1      41.809  24.966  27.789  1.00  0.00     0.029 A 
ATOM     46  C   UNL A   1      43.202  25.306  27.512  1.00  0.00     0.049 A 
ATOM     47  H   UNL A   1      44.118  27.164  27.726  1.00  0.00     0.167 HD
ATOM     48  C   UNL A   1      45.868  31.167  27.980  1.00  0.00     0.031 A 
ATOM     49  C   UNL A   1      44.136  24.445  27.065  1.00  0.00     0.031 A 
ATOM     50  C   UNL A   1      46.953  30.306  27.588  1.00  0.00     0.049 A 
ATOM     51  C   UNL A   1      45.536  24.938  26.832  1.00  0.00     0.074 A 
ATOM     52  C   UNL A   1      48.283  30.633  27.388  1.00  0.00     0.029 A 
ATOM     53  N   UNL A   1      46.832  28.948  27.336  1.00  0.00    -0.354 N 
ATOM     54  N   UNL A   1      46.016  26.150  26.974  1.00  0.00    -0.248 NA
ATOM     55  C   UNL A   1      46.526  23.945  26.389  1.00  0.00     0.031 C 
ATOM     56  C   UNL A   1      48.959  29.479  26.974  1.00  0.00     0.029 A 
ATOM     57  C   UNL A   1      48.060  28.424  26.967  1.00  0.00     0.049 A 
ATOM     58  H   UNL A   1      45.997  28.432  27.409  1.00  0.00     0.167 HD
ATOM     59  C   UNL A   1      47.368  26.061  26.661  1.00  0.00     0.074 A 
ATOM     60  C   UNL A   1      47.632  24.674  26.337  1.00  0.00     0.031 C 
ATOM     61  C   UNL A   1      48.306  27.041  26.644  1.00  0.00     0.031 A 
BRANCH  48  62
ATOM     62  C   UNL A   1      46.143  32.640  28.146  1.00  0.00    -0.014 A 
ATOM     63  C   UNL A   1      46.576  33.166  29.378  1.00  0.00     0.010 A 
ATOM     64  C   UNL A   1      45.990  33.508  27.050  1.00  0.00     0.010 A 
ATOM     65  C   UNL A   1      46.797  34.537  29.524  1.00  0.00     0.020 A 
ATOM     66  C   UNL A   1      46.240  34.878  27.185  1.00  0.00     0.020 A 
ATOM     67  C   UNL A   1      46.621  35.386  28.428  1.00  0.00     0.054 A 
BRANCH  67  68
ATOM     68  S   UNL A   1      46.919  37.162  28.646  1.00  0.00     0.124 S 
ATOM     69  O   UNL A   1      46.343  37.715  27.422  1.00  0.00    -0.237 OA
ATOM     70  O   UNL A   1      46.187  37.463  29.874  1.00  0.00    -0.237 OA
ATOM     71  O   UNL A   1      48.373  37.260  28.751  1.00  0.00    -0.744 OA
ENDBRANCH  67  68
ENDBRANCH  48  62
BRANCH  49  72
ATOM     72  C   UNL A   1      43.773  23.021  26.823  1.00  0.00    -0.014 A 
ATOM     73  C   UNL A   1      43.113  22.274  27.814  1.00  0.00     0.010 A 
ATOM     74  C   UNL A   1      44.059  22.415  25.586  1.00  0.00     0.010 A 
ATOM     75  C   UNL A   1      42.757  20.943  27.577  1.00  0.00     0.020 A 
ATOM     76  C   UNL A   1      43.680  21.093  25.336  1.00  0.00     0.020 A 
ATOM     77  C   UNL A   1      43.039  20.361  26.338  1.00  0.00     0.054 A 
BRANCH  77  78
ATOM     78  S   UNL A   1      42.509  18.653  26.030  1.00  0.00     0.124 S 
ATOM     79  O   UNL A   1      42.733  18.028  27.330  1.00  0.00    -0.237 OA
ATOM     80  O   UNL A   1      41.112  18.823  25.640  1.00  0.00    -0.237 OA
ATOM     81  O   UNL A   1      43.397  18.209  24.959  1.00  0.00    -0.744 OA
ENDBRANCH  77  78
ENDBRANCH  49  72
BRANCH  61  82
ATOM     82  C   UNL A   1      49.714  26.644  26.292  1.00  0.00    -0.014 A 
ATOM     83  C   UNL A   1      50.569  26.067  27.248  1.00  0.00     0.010 A 
ATOM     84  C   UNL A   1      50.168  26.800  24.969  1.00  0.00     0.010 A 
ATOM     85  C   UNL A   1      51.864  25.679  26.893  1.00  0.00     0.020 A 
ATOM     86  C   UNL A   1      51.453  26.390  24.605  1.00  0.00     0.020 A 
ATOM     87  C   UNL A   1      52.297  25.845  25.573  1.00  0.00     0.054 A 
BRANCH  87  88
ATOM     88  S   UNL A   1      53.967  25.293  25.128  1.00  0.00     0.124 S 
ATOM     89  O   UNL A   1      54.721  25.599  26.340  1.00  0.00    -0.237 OA
ATOM     90  O   UNL A   1      53.773  23.873  24.848  1.00  0.00    -0.237 OA
ATOM     91  O   UNL A   1      54.302  26.111  23.964  1.00  0.00    -0.744 OA
ENDBRANCH  87  88
ENDBRANCH  61  82
ENDBRANCH  35  36
ENDBRANCH  27  30
ENDBRANCH  25  26
ENDBRANCH  24  25
ENDBRANCH   1  24
TORSDOF 17
ENDMDL
MODEL 3
REMARK VINA RESULT:     -10.5      6.187     12.144
REMARK SMILES CC(C)(C)c1ccc(CSc2ccnc(C(=O)NCCCNC(=O)c3ccc(-c4c5nc(c(-c6ccc(S(=O)(=O)[O-])cc6)c6ccc([nH]6)c(-c6ccc(S(=O)(=O)[O-])cc6)c6nc(c(-c7ccc(S(=O)(=O)[O-])cc7)c7ccc4[nH]7)C=C6)C=C5)cc3)c2)cc1
REMARK SMILES IDX 19 1 18 2 16 3 17 4 15 6 11 7 12 8 85 9 13 10 14 11 10 12
REMARK SMILES IDX 9 13 8 14 5 15 6 16 87 17 7 18 86 19 2 20 1 21 3 22 4 23
REMARK SMILES IDX 20 24 21 25 22 26 23 27 24 29 25 30 26 31 84 32 27 33 83 34
REMARK SMILES IDX 28 35 29 36 30 37 77 38 31 39 82 40 76 41 78 42 32 43 81 44
REMARK SMILES IDX 75 45 74 46 33 48 63 49 44 50 62 51 45 52 48 53 61 54 79 55
REMARK SMILES IDX 46 56 47 57 60 59 80 60 49 61 34 62 35 63 43 64 36 65 42 66
REMARK SMILES IDX 37 67 38 68 39 69 40 70 41 71 64 72 65 73 73 74 66 75 72 76
REMARK SMILES IDX 67 77 68 78 69 79 70 80 71 81 50 82 51 83 59 84 52 85 58 86
REMARK SMILES IDX 53 87 54 88 55 89 56 90 57 91
REMARK H PARENT 18 5 22 28 78 47 48 58
REMARK Flexibility Score: inf
ROOT
ATOM      1  C   UNL A   1      31.701  28.047  26.626  1.00  0.00     0.118 C 
ENDROOT
BRANCH   1   2
ATOM      2  N   UNL A   1      31.011  26.785  26.800  1.00  0.00    -0.351 N 
ATOM      3  C   UNL A   1      30.998  25.588  26.121  1.00  0.00     0.269 C 
ATOM      4  O   UNL A   1      30.271  24.721  26.618  1.00  0.00    -0.268 OA
ATOM      5  H   UNL A   1      30.416  26.783  27.584  1.00  0.00     0.163 HD
BRANCH   3   6
ATOM      6  C   UNL A   1      31.796  25.266  24.878  1.00  0.00     0.129 A 
ATOM      7  C   UNL A   1      33.682  24.449  23.628  1.00  0.00     0.011 A 
ATOM      8  C   UNL A   1      32.995  24.742  22.453  1.00  0.00     0.035 A 
ATOM      9  C   UNL A   1      33.080  24.736  24.857  1.00  0.00     0.049 A 
ATOM     10  C   UNL A   1      31.738  25.301  22.551  1.00  0.00     0.113 A 
ATOM     11  N   UNL A   1      31.129  25.550  23.725  1.00  0.00    -0.251 NA
BRANCH   7  12
ATOM     12  S   UNL A   1      35.262  23.621  23.461  1.00  0.00    -0.121 SA
BRANCH  12  13
ATOM     13  C   UNL A   1      35.448  22.697  25.030  1.00  0.00     0.110 C 
BRANCH  13  14
ATOM     14  C   UNL A   1      35.101  21.236  24.917  1.00  0.00    -0.038 A 
ATOM     15  C   UNL A   1      34.482  18.473  24.620  1.00  0.00    -0.043 A 
ATOM     16  C   UNL A   1      33.477  19.453  24.626  1.00  0.00     0.004 A 
ATOM     17  C   UNL A   1      35.799  18.907  24.839  1.00  0.00     0.004 A 
ATOM     18  C   UNL A   1      33.780  20.813  24.767  1.00  0.00     0.005 A 
ATOM     19  C   UNL A   1      36.100  20.263  24.991  1.00  0.00     0.005 A 
BRANCH  15  20
ATOM     20  C   UNL A   1      34.157  16.980  24.442  1.00  0.00    -0.013 C 
ATOM     21  C   UNL A   1      34.101  16.570  22.951  1.00  0.00     0.016 C 
ATOM     22  C   UNL A   1      32.786  16.599  25.048  1.00  0.00     0.016 C 
ATOM     23  C   UNL A   1      35.252  16.154  25.143  1.00  0.00     0.016 C 
ENDBRANCH  15  20
ENDBRANCH  13  14
ENDBRANCH  12  13
ENDBRANCH   7  12
ENDBRANCH   3   6
ENDBRANCH   1   2
BRANCH   1  24
ATOM     24  C   UNL A   1      33.203  27.888  26.853  1.00  0.00     0.042 C 
BRANCH  24  25
ATOM     25  C   UNL A   1      34.047  28.931  26.121  1.00  0.00     0.118 C 
BRANCH  25  26
ATOM     26  N   UNL A   1      33.684  30.288  26.504  1.00  0.00    -0.352 N 
ATOM     27  C   UNL A   1      34.164  31.105  27.498  1.00  0.00     0.251 C 
ATOM     28  H   UNL A   1      32.970  30.689  25.956  1.00  0.00     0.163 HD
ATOM     29  O   UNL A   1      33.522  32.110  27.794  1.00  0.00    -0.269 OA
BRANCH  27  30
ATOM     30  C   UNL A   1      35.425  30.801  28.215  1.00  0.00     0.039 A 
ATOM     31  C   UNL A   1      36.525  31.645  28.024  1.00  0.00     0.014 A 
ATOM     32  C   UNL A   1      35.564  29.658  29.005  1.00  0.00     0.014 A 
ATOM     33  C   UNL A   1      37.741  31.369  28.657  1.00  0.00     0.010 A 
ATOM     34  C   UNL A   1      36.752  29.425  29.698  1.00  0.00     0.010 A 
ATOM     35  C   UNL A   1      37.858  30.270  29.523  1.00  0.00    -0.014 A 
BRANCH  35  36
ATOM     36  C   UNL A   1      39.129  29.978  30.238  1.00  0.00     0.031 A 
ATOM     37  C   UNL A   1      40.038  28.877  29.753  1.00  0.00     0.074 A 
ATOM     38  C   UNL A   1      39.435  30.657  31.360  1.00  0.00     0.049 A 
ATOM     39  N   UNL A   1      41.141  28.420  30.291  1.00  0.00    -0.248 NA
ATOM     40  C   UNL A   1      39.640  28.180  28.519  1.00  0.00     0.031 C 
ATOM     41  C   UNL A   1      38.620  31.716  31.959  1.00  0.00     0.029 A 
ATOM     42  N   UNL A   1      40.509  30.548  32.209  1.00  0.00    -0.354 N 
ATOM     43  C   UNL A   1      41.552  27.369  29.480  1.00  0.00     0.074 A 
ATOM     44  C   UNL A   1      40.556  27.227  28.439  1.00  0.00     0.031 C 
ATOM     45  C   UNL A   1      39.231  32.173  33.064  1.00  0.00     0.029 A 
ATOM     46  C   UNL A   1      40.460  31.412  33.277  1.00  0.00     0.049 A 
ATOM     47  H   UNL A   1      41.245  29.910  32.067  1.00  0.00     0.167 HD
ATOM     48  C   UNL A   1      42.664  26.601  29.579  1.00  0.00     0.031 A 
ATOM     49  C   UNL A   1      41.299  31.572  34.317  1.00  0.00     0.031 A 
ATOM     50  C   UNL A   1      43.663  26.758  30.603  1.00  0.00     0.049 A 
ATOM     51  C   UNL A   1      42.535  30.720  34.400  1.00  0.00     0.074 A 
ATOM     52  C   UNL A   1      44.854  26.069  30.756  1.00  0.00     0.029 A 
ATOM     53  N   UNL A   1      43.589  27.666  31.647  1.00  0.00    -0.354 N 
ATOM     54  N   UNL A   1      42.935  29.770  33.589  1.00  0.00    -0.248 NA
ATOM     55  C   UNL A   1      43.440  30.969  35.532  1.00  0.00     0.031 C 
ATOM     56  C   UNL A   1      45.480  26.534  31.919  1.00  0.00     0.029 A 
ATOM     57  C   UNL A   1      44.703  27.546  32.460  1.00  0.00     0.049 A 
ATOM     58  H   UNL A   1      42.852  28.303  31.790  1.00  0.00     0.167 HD
ATOM     59  C   UNL A   1      44.149  29.324  34.100  1.00  0.00     0.074 A 
ATOM     60  C   UNL A   1      44.425  30.118  35.280  1.00  0.00     0.031 C 
ATOM     61  C   UNL A   1      44.963  28.344  33.632  1.00  0.00     0.031 A 
BRANCH  48  62
ATOM     62  C   UNL A   1      42.854  25.516  28.550  1.00  0.00    -0.014 A 
ATOM     63  C   UNL A   1      43.535  25.767  27.344  1.00  0.00     0.010 A 
ATOM     64  C   UNL A   1      42.364  24.221  28.799  1.00  0.00     0.010 A 
ATOM     65  C   UNL A   1      43.676  24.759  26.386  1.00  0.00     0.020 A 
ATOM     66  C   UNL A   1      42.530  23.202  27.856  1.00  0.00     0.020 A 
ATOM     67  C   UNL A   1      43.166  23.485  26.646  1.00  0.00     0.054 A 
BRANCH  67  68
ATOM     68  S   UNL A   1      43.366  22.194  25.386  1.00  0.00     0.124 S 
ATOM     69  O   UNL A   1      42.205  21.345  25.640  1.00  0.00    -0.237 OA
ATOM     70  O   UNL A   1      43.326  22.954  24.139  1.00  0.00    -0.237 OA
ATOM     71  O   UNL A   1      44.660  21.595  25.706  1.00  0.00    -0.744 OA
ENDBRANCH  67  68
ENDBRANCH  48  62
BRANCH  49  72
ATOM     72  C   UNL A   1      41.001  32.595  35.357  1.00  0.00    -0.014 A 
ATOM     73  C   UNL A   1      40.270  32.251  36.507  1.00  0.00     0.010 A 
ATOM     74  C   UNL A   1      41.476  33.912  35.217  1.00  0.00     0.010 A 
ATOM     75  C   UNL A   1      40.008  33.209  37.492  1.00  0.00     0.020 A 
ATOM     76  C   UNL A   1      41.240  34.865  36.211  1.00  0.00     0.020 A 
ATOM     77  C   UNL A   1      40.497  34.509  37.340  1.00  0.00     0.054 A 
BRANCH  77  78
ATOM     78  S   UNL A   1      40.201  35.718  38.661  1.00  0.00     0.124 S 
ATOM     79  O   UNL A   1      39.143  35.071  39.431  1.00  0.00    -0.237 OA
ATOM     80  O   UNL A   1      41.505  35.795  39.315  1.00  0.00    -0.237 OA
ATOM     81  O   UNL A   1      39.804  36.923  37.937  1.00  0.00    -0.744 OA
ENDBRANCH  77  78
ENDBRANCH  49  72
BRANCH  61  82
ATOM     82  C   UNL A   1      46.244  28.094  34.380  1.00  0.00    -0.014 A 
ATOM     83  C   UNL A   1      47.351  28.949  34.233  1.00  0.00     0.010 A 
ATOM     84  C   UNL A   1      46.322  27.020  35.285  1.00  0.00     0.010 A 
ATOM     85  C   UNL A   1      48.523  28.716  34.958  1.00  0.00     0.020 A 
ATOM     86  C   UNL A   1      47.482  26.799  36.030  1.00  0.00     0.020 A 
ATOM     87  C   UNL A   1      48.581  27.641  35.851  1.00  0.00     0.054 A 
BRANCH  87  88
ATOM     88  S   UNL A   1      50.098  27.386  36.812  1.00  0.00     0.124 S 
ATOM     89  O   UNL A   1      51.135  27.697  35.832  1.00  0.00    -0.237 OA
ATOM     90  O   UNL A   1      49.953  28.347  37.902  1.00  0.00    -0.237 OA
ATOM     91  O   UNL A   1      50.021  25.983  37.213  1.00  0.00    -0.744 OA
ENDBRANCH  87  88
ENDBRANCH  61  82
ENDBRANCH  35  36
ENDBRANCH  27  30
ENDBRANCH  25  26
ENDBRANCH  24  25
ENDBRANCH   1  24
TORSDOF 17
ENDMDL
