MODEL 1
REMARK VINA RESULT:     -11.6      0.000      0.000
REMARK SMILES O=C(COc1ccc(/C=N/NC(=O)C(=O)Nc2ccc(F)cc2)cc1)NCCCNC(=O)c1ccc(-c2c3nc(c(-c4ccc(S(=O)(=O)[O-])cc4)c4ccc([nH]4)c(-c4ccc(S(=O)(=O)[O-])cc4)c4nc(c(-c5ccc(S(=O)(=O)[O-])cc5)c5ccc2[nH]5)C=C4)C=C3)cc1
REMARK SMILES IDX 1 1 2 2 26 3 3 5 4 6 5 7 6 8 25 9 7 10 24 11 8 12 9 13 10 14
REMARK SMILES IDX 11 15 12 16 13 18 14 19 15 20 16 21 17 23 18 24 23 25 19 26
REMARK SMILES IDX 22 27 20 28 21 29 27 30 28 31 29 32 30 33 31 34 32 36 33 37
REMARK SMILES IDX 34 38 92 39 35 40 91 41 36 42 37 43 38 44 85 45 39 46 90 47
REMARK SMILES IDX 84 48 86 49 40 50 89 51 83 52 82 53 41 55 71 56 52 57 70 58
REMARK SMILES IDX 53 59 56 60 69 61 87 62 54 63 55 64 68 66 88 67 57 68 42 69
REMARK SMILES IDX 43 70 51 71 44 72 50 73 45 74 46 75 47 76 48 77 49 78 72 79
REMARK SMILES IDX 73 80 81 81 74 82 80 83 75 84 76 85 77 86 78 87 79 88 58 89
REMARK SMILES IDX 59 90 67 91 60 92 66 93 61 94 62 95 63 96 64 97 65 98
REMARK H PARENT 26 4 11 17 16 22 30 35 86 54 56 65
REMARK Flexibility Score: inf
ROOT
ATOM      1  O   UNL A   1      34.453  21.172  26.893  1.00  0.00    -0.271 OA
ATOM      2  C   UNL A   1      34.283  21.469  25.714  1.00  0.00     0.257 C 
ATOM      3  N   UNL A   1      34.988  22.466  25.071  1.00  0.00    -0.353 N 
ATOM      4  H   UNL A   1      34.956  22.517  24.088  1.00  0.00     0.163 HD
ENDROOT
BRANCH   2   5
ATOM      5  C   UNL A   1      33.212  20.790  24.850  1.00  0.00     0.329 C 
BRANCH   5   6
ATOM      6  O   UNL A   1      31.846  20.943  25.224  1.00  0.00    -0.484 OA
BRANCH   6   7
ATOM      7  C   UNL A   1      31.409  22.215  25.486  1.00  0.00     0.120 A 
ATOM      8  C   UNL A   1      31.179  23.029  24.368  1.00  0.00     0.047 A 
ATOM      9  C   UNL A   1      31.318  22.770  26.762  1.00  0.00     0.047 A 
ATOM     10  C   UNL A   1      30.885  24.389  24.523  1.00  0.00     0.013 A 
ATOM     11  C   UNL A   1      31.084  24.132  26.923  1.00  0.00     0.013 A 
ATOM     12  C   UNL A   1      30.879  24.934  25.804  1.00  0.00    -0.005 A 
BRANCH  12  13
ATOM     13  C   UNL A   1      30.762  26.374  26.037  1.00  0.00     0.141 C 
ATOM     14  N   UNL A   1      31.396  26.983  26.986  1.00  0.00    -0.180 NA
BRANCH  14  15
ATOM     15  N   UNL A   1      31.263  28.340  27.015  1.00  0.00    -0.239 N 
ATOM     16  C   UNL A   1      32.209  29.355  26.927  1.00  0.00     0.329 C 
ATOM     17  H   UNL A   1      30.336  28.656  27.116  1.00  0.00     0.194 HD
ATOM     18  O   UNL A   1      31.805  30.507  26.771  1.00  0.00    -0.262 OA
BRANCH  16  19
ATOM     19  C   UNL A   1      33.744  29.055  27.019  1.00  0.00     0.315 C 
ATOM     20  O   UNL A   1      34.460  29.511  27.903  1.00  0.00    -0.263 OA
ATOM     21  N   UNL A   1      34.298  28.110  26.175  1.00  0.00    -0.318 N 
ATOM     22  H   UNL A   1      35.068  27.624  26.550  1.00  0.00     0.170 HD
BRANCH  21  23
ATOM     23  C   UNL A   1      33.945  27.732  24.874  1.00  0.00     0.041 A 
ATOM     24  C   UNL A   1      34.038  26.373  24.546  1.00  0.00     0.029 A 
ATOM     25  C   UNL A   1      33.596  28.658  23.888  1.00  0.00     0.029 A 
ATOM     26  C   UNL A   1      33.712  25.938  23.260  1.00  0.00     0.041 A 
ATOM     27  C   UNL A   1      33.287  28.224  22.597  1.00  0.00     0.041 A 
ATOM     28  C   UNL A   1      33.336  26.868  22.298  1.00  0.00     0.123 A 
ATOM     29  F   UNL A   1      33.025  26.452  21.064  1.00  0.00    -0.207 F 
ENDBRANCH  21  23
ENDBRANCH  16  19
ENDBRANCH  14  15
ENDBRANCH  12  13
ENDBRANCH   6   7
ENDBRANCH   5   6
ENDBRANCH   2   5
BRANCH   3  30
ATOM     30  C   UNL A   1      35.776  23.440  25.801  1.00  0.00     0.117 C 
BRANCH  30  31
ATOM     31  C   UNL A   1      37.243  23.446  25.411  1.00  0.00     0.042 C 
BRANCH  31  32
ATOM     32  C   UNL A   1      38.143  24.160  26.410  1.00  0.00     0.118 C 
BRANCH  32  33
ATOM     33  N   UNL A   1      39.564  23.976  26.142  1.00  0.00    -0.352 N 
ATOM     34  C   UNL A   1      40.647  24.717  26.561  1.00  0.00     0.251 C 
ATOM     35  H   UNL A   1      39.785  23.202  25.573  1.00  0.00     0.163 HD
ATOM     36  O   UNL A   1      41.759  24.471  26.116  1.00  0.00    -0.269 OA
BRANCH  34  37
ATOM     37  C   UNL A   1      40.456  25.829  27.520  1.00  0.00     0.039 A 
ATOM     38  C   UNL A   1      39.560  25.661  28.579  1.00  0.00     0.014 A 
ATOM     39  C   UNL A   1      41.162  27.027  27.386  1.00  0.00     0.014 A 
ATOM     40  C   UNL A   1      39.439  26.657  29.552  1.00  0.00     0.010 A 
ATOM     41  C   UNL A   1      41.101  27.983  28.396  1.00  0.00     0.010 A 
ATOM     42  C   UNL A   1      40.246  27.806  29.495  1.00  0.00    -0.014 A 
BRANCH  42  43
ATOM     43  C   UNL A   1      40.230  28.827  30.575  1.00  0.00     0.031 A 
ATOM     44  C   UNL A   1      41.134  28.680  31.769  1.00  0.00     0.074 A 
ATOM     45  C   UNL A   1      39.339  29.839  30.525  1.00  0.00     0.049 A 
ATOM     46  N   UNL A   1      41.186  29.402  32.858  1.00  0.00    -0.248 NA
ATOM     47  C   UNL A   1      42.090  27.560  31.744  1.00  0.00     0.031 C 
ATOM     48  C   UNL A   1      38.385  30.078  29.439  1.00  0.00     0.029 A 
ATOM     49  N   UNL A   1      39.080  30.849  31.419  1.00  0.00    -0.354 N 
ATOM     50  C   UNL A   1      42.159  28.813  33.657  1.00  0.00     0.074 A 
ATOM     51  C   UNL A   1      42.642  27.649  32.946  1.00  0.00     0.031 C 
ATOM     52  C   UNL A   1      37.660  31.172  29.721  1.00  0.00     0.029 A 
ATOM     53  C   UNL A   1      38.060  31.685  31.028  1.00  0.00     0.049 A 
ATOM     54  H   UNL A   1      39.578  30.965  32.260  1.00  0.00     0.167 HD
ATOM     55  C   UNL A   1      42.620  29.214  34.866  1.00  0.00     0.031 A 
ATOM     56  C   UNL A   1      37.495  32.736  31.655  1.00  0.00     0.031 A 
ATOM     57  C   UNL A   1      42.144  30.377  35.566  1.00  0.00     0.049 A 
ATOM     58  C   UNL A   1      38.006  33.145  33.010  1.00  0.00     0.074 A 
ATOM     59  C   UNL A   1      42.587  30.894  36.772  1.00  0.00     0.029 A 
ATOM     60  N   UNL A   1      41.118  31.201  35.130  1.00  0.00    -0.354 N 
ATOM     61  N   UNL A   1      38.969  32.611  33.722  1.00  0.00    -0.248 NA
ATOM     62  C   UNL A   1      37.359  34.304  33.642  1.00  0.00     0.031 C 
ATOM     63  C   UNL A   1      41.791  31.998  37.091  1.00  0.00     0.029 A 
ATOM     64  C   UNL A   1      40.896  32.207  36.054  1.00  0.00     0.049 A 
ATOM     65  H   UNL A   1      40.621  31.087  34.288  1.00  0.00     0.167 HD
ATOM     66  C   UNL A   1      39.065  33.388  34.871  1.00  0.00     0.074 A 
ATOM     67  C   UNL A   1      38.069  34.433  34.756  1.00  0.00     0.031 C 
ATOM     68  C   UNL A   1      39.907  33.248  35.925  1.00  0.00     0.031 A 
BRANCH  55  69
ATOM     69  C   UNL A   1      43.693  28.378  35.515  1.00  0.00    -0.014 A 
ATOM     70  C   UNL A   1      43.366  27.320  36.383  1.00  0.00     0.010 A 
ATOM     71  C   UNL A   1      45.046  28.625  35.219  1.00  0.00     0.010 A 
ATOM     72  C   UNL A   1      44.373  26.554  36.976  1.00  0.00     0.020 A 
ATOM     73  C   UNL A   1      46.055  27.841  35.786  1.00  0.00     0.020 A 
ATOM     74  C   UNL A   1      45.711  26.822  36.675  1.00  0.00     0.054 A 
BRANCH  74  75
ATOM     75  S   UNL A   1      46.995  25.798  37.445  1.00  0.00     0.124 S 
ATOM     76  O   UNL A   1      46.275  24.553  37.698  1.00  0.00    -0.237 OA
ATOM     77  O   UNL A   1      48.018  25.731  36.405  1.00  0.00    -0.237 OA
ATOM     78  O   UNL A   1      47.373  26.552  38.638  1.00  0.00    -0.744 OA
ENDBRANCH  74  75
ENDBRANCH  55  69
BRANCH  56  79
ATOM     79  C   UNL A   1      36.379  33.478  31.003  1.00  0.00    -0.014 A 
ATOM     80  C   UNL A   1      35.223  33.809  31.733  1.00  0.00     0.010 A 
ATOM     81  C   UNL A   1      36.471  33.868  29.655  1.00  0.00     0.010 A 
ATOM     82  C   UNL A   1      34.174  34.502  31.121  1.00  0.00     0.020 A 
ATOM     83  C   UNL A   1      35.437  34.587  29.049  1.00  0.00     0.020 A 
ATOM     84  C   UNL A   1      34.289  34.889  29.783  1.00  0.00     0.054 A 
BRANCH  84  85
ATOM     85  S   UNL A   1      32.935  35.831  29.026  1.00  0.00     0.124 S 
ATOM     86  O   UNL A   1      33.648  36.940  28.401  1.00  0.00    -0.237 OA
ATOM     87  O   UNL A   1      32.350  34.857  28.108  1.00  0.00    -0.237 OA
ATOM     88  O   UNL A   1      32.091  36.188  30.164  1.00  0.00    -0.744 OA
ENDBRANCH  84  85
ENDBRANCH  56  79
BRANCH  68  89
ATOM     89  C   UNL A   1      39.827  34.272  37.027  1.00  0.00    -0.014 A 
ATOM     90  C   UNL A   1      39.020  34.066  38.159  1.00  0.00     0.010 A 
ATOM     91  C   UNL A   1      40.642  35.417  36.963  1.00  0.00     0.010 A 
ATOM     92  C   UNL A   1      39.019  34.997  39.202  1.00  0.00     0.020 A 
ATOM     93  C   UNL A   1      40.665  36.335  38.016  1.00  0.00     0.020 A 
ATOM     94  C   UNL A   1      39.846  36.123  39.126  1.00  0.00     0.054 A 
BRANCH  94  95
ATOM     95  S   UNL A   1      39.882  37.275  40.526  1.00  0.00     0.124 S 
ATOM     96  O   UNL A   1      41.290  37.240  40.912  1.00  0.00    -0.237 OA
ATOM     97  O   UNL A   1      39.428  38.526  39.923  1.00  0.00    -0.237 OA
ATOM     98  O   UNL A   1      38.957  36.682  41.488  1.00  0.00    -0.744 OA
ENDBRANCH  94  95
ENDBRANCH  68  89
ENDBRANCH  42  43
ENDBRANCH  34  37
ENDBRANCH  32  33
ENDBRANCH  31  32
ENDBRANCH  30  31
ENDBRANCH   3  30
TORSDOF 19
ENDMDL
MODEL 2
REMARK VINA RESULT:     -11.4      2.072      8.737
REMARK SMILES O=C(COc1ccc(/C=N/NC(=O)C(=O)Nc2ccc(F)cc2)cc1)NCCCNC(=O)c1ccc(-c2c3nc(c(-c4ccc(S(=O)(=O)[O-])cc4)c4ccc([nH]4)c(-c4ccc(S(=O)(=O)[O-])cc4)c4nc(c(-c5ccc(S(=O)(=O)[O-])cc5)c5ccc2[nH]5)C=C4)C=C3)cc1
REMARK SMILES IDX 1 1 2 2 26 3 3 5 4 6 5 7 6 8 25 9 7 10 24 11 8 12 9 13 10 14
REMARK SMILES IDX 11 15 12 16 13 18 14 19 15 20 16 21 17 23 18 24 23 25 19 26
REMARK SMILES IDX 22 27 20 28 21 29 27 30 28 31 29 32 30 33 31 34 32 36 33 37
REMARK SMILES IDX 34 38 92 39 35 40 91 41 36 42 37 43 38 44 85 45 39 46 90 47
REMARK SMILES IDX 84 48 86 49 40 50 89 51 83 52 82 53 41 55 71 56 52 57 70 58
REMARK SMILES IDX 53 59 56 60 69 61 87 62 54 63 55 64 68 66 88 67 57 68 42 69
REMARK SMILES IDX 43 70 51 71 44 72 50 73 45 74 46 75 47 76 48 77 49 78 72 79
REMARK SMILES IDX 73 80 81 81 74 82 80 83 75 84 76 85 77 86 78 87 79 88 58 89
REMARK SMILES IDX 59 90 67 91 60 92 66 93 61 94 62 95 63 96 64 97 65 98
REMARK H PARENT 26 4 11 17 16 22 30 35 86 54 56 65
REMARK Flexibility Score: inf
ROOT
ATOM      1  O   UNL A   1      42.535  19.654  26.768  1.00  0.00    -0.271 OA
ATOM      2  C   UNL A   1      41.881  20.568  26.273  1.00  0.00     0.257 C 
ATOM      3  N   UNL A   1      42.451  21.664  25.657  1.00  0.00    -0.353 N 
ATOM      4  H   UNL A   1      41.885  22.251  25.105  1.00  0.00     0.163 HD
ENDROOT
BRANCH   2   5
ATOM      5  C   UNL A   1      40.349  20.608  26.350  1.00  0.00     0.329 C 
BRANCH   5   6
ATOM      6  O   UNL A   1      39.726  21.814  26.780  1.00  0.00    -0.484 OA
BRANCH   6   7
ATOM      7  C   UNL A   1      38.598  22.208  26.108  1.00  0.00     0.120 A 
ATOM      8  C   UNL A   1      38.082  21.293  25.182  1.00  0.00     0.047 A 
ATOM      9  C   UNL A   1      38.038  23.483  26.191  1.00  0.00     0.047 A 
ATOM     10  C   UNL A   1      37.032  21.654  24.330  1.00  0.00     0.013 A 
ATOM     11  C   UNL A   1      37.033  23.870  25.309  1.00  0.00     0.013 A 
ATOM     12  C   UNL A   1      36.544  22.957  24.379  1.00  0.00    -0.005 A 
BRANCH  12  13
ATOM     13  C   UNL A   1      35.579  23.465  23.403  1.00  0.00     0.141 C 
ATOM     14  N   UNL A   1      34.445  23.984  23.743  1.00  0.00    -0.180 NA
BRANCH  14  15
ATOM     15  N   UNL A   1      33.697  24.502  22.727  1.00  0.00    -0.239 N 
ATOM     16  C   UNL A   1      32.377  24.935  22.690  1.00  0.00     0.329 C 
ATOM     17  H   UNL A   1      34.176  24.583  21.871  1.00  0.00     0.194 HD
ATOM     18  O   UNL A   1      32.002  25.555  21.696  1.00  0.00    -0.262 OA
BRANCH  16  19
ATOM     19  C   UNL A   1      31.388  24.650  23.872  1.00  0.00     0.315 C 
ATOM     20  O   UNL A   1      30.542  23.764  23.833  1.00  0.00    -0.263 OA
ATOM     21  N   UNL A   1      31.570  25.306  25.076  1.00  0.00    -0.318 N 
ATOM     22  H   UNL A   1      31.287  24.795  25.869  1.00  0.00     0.170 HD
BRANCH  21  23
ATOM     23  C   UNL A   1      32.089  26.576  25.352  1.00  0.00     0.041 A 
ATOM     24  C   UNL A   1      33.345  26.642  25.968  1.00  0.00     0.029 A 
ATOM     25  C   UNL A   1      31.370  27.751  25.121  1.00  0.00     0.029 A 
ATOM     26  C   UNL A   1      33.908  27.881  26.281  1.00  0.00     0.041 A 
ATOM     27  C   UNL A   1      31.926  28.989  25.450  1.00  0.00     0.041 A 
ATOM     28  C   UNL A   1      33.194  29.044  26.015  1.00  0.00     0.123 A 
ATOM     29  F   UNL A   1      33.732  30.233  26.316  1.00  0.00    -0.207 F 
ENDBRANCH  21  23
ENDBRANCH  16  19
ENDBRANCH  14  15
ENDBRANCH  12  13
ENDBRANCH   6   7
ENDBRANCH   5   6
ENDBRANCH   2   5
BRANCH   3  30
ATOM     30  C   UNL A   1      43.860  21.975  25.798  1.00  0.00     0.117 C 
BRANCH  30  31
ATOM     31  C   UNL A   1      44.163  22.892  26.969  1.00  0.00     0.042 C 
BRANCH  31  32
ATOM     32  C   UNL A   1      44.378  24.346  26.573  1.00  0.00     0.118 C 
BRANCH  32  33
ATOM     33  N   UNL A   1      43.364  24.851  25.656  1.00  0.00    -0.352 N 
ATOM     34  C   UNL A   1      42.324  25.726  25.881  1.00  0.00     0.251 C 
ATOM     35  H   UNL A   1      43.433  24.516  24.732  1.00  0.00     0.163 HD
ATOM     36  O   UNL A   1      41.497  25.925  25.002  1.00  0.00    -0.269 OA
BRANCH  34  37
ATOM     37  C   UNL A   1      42.190  26.395  27.196  1.00  0.00     0.039 A 
ATOM     38  C   UNL A   1      42.919  27.563  27.436  1.00  0.00     0.014 A 
ATOM     39  C   UNL A   1      41.345  25.883  28.183  1.00  0.00     0.014 A 
ATOM     40  C   UNL A   1      42.733  28.264  28.630  1.00  0.00     0.010 A 
ATOM     41  C   UNL A   1      41.100  26.624  29.336  1.00  0.00     0.010 A 
ATOM     42  C   UNL A   1      41.784  27.827  29.570  1.00  0.00    -0.014 A 
BRANCH  42  43
ATOM     43  C   UNL A   1      41.475  28.613  30.793  1.00  0.00     0.031 A 
ATOM     44  C   UNL A   1      40.332  29.592  30.793  1.00  0.00     0.074 A 
ATOM     45  C   UNL A   1      42.276  28.512  31.873  1.00  0.00     0.049 A 
ATOM     46  N   UNL A   1      39.977  30.444  31.720  1.00  0.00    -0.248 NA
ATOM     47  C   UNL A   1      39.493  29.635  29.584  1.00  0.00     0.031 C 
ATOM     48  C   UNL A   1      43.435  27.623  31.990  1.00  0.00     0.029 A 
ATOM     49  N   UNL A   1      42.246  29.174  33.076  1.00  0.00    -0.354 N 
ATOM     50  C   UNL A   1      38.891  31.139  31.200  1.00  0.00     0.074 A 
ATOM     51  C   UNL A   1      38.673  30.639  29.860  1.00  0.00     0.031 C 
ATOM     52  C   UNL A   1      43.992  27.783  33.201  1.00  0.00     0.029 A 
ATOM     53  C   UNL A   1      43.265  28.818  33.929  1.00  0.00     0.049 A 
ATOM     54  H   UNL A   1      41.559  29.842  33.306  1.00  0.00     0.167 HD
ATOM     55  C   UNL A   1      38.134  32.095  31.789  1.00  0.00     0.031 A 
ATOM     56  C   UNL A   1      43.590  29.282  35.152  1.00  0.00     0.031 A 
ATOM     57  C   UNL A   1      38.348  32.582  33.126  1.00  0.00     0.049 A 
ATOM     58  C   UNL A   1      42.751  30.363  35.776  1.00  0.00     0.074 A 
ATOM     59  C   UNL A   1      37.601  33.512  33.830  1.00  0.00     0.029 A 
ATOM     60  N   UNL A   1      39.384  32.188  33.959  1.00  0.00    -0.354 N 
ATOM     61  N   UNL A   1      41.691  30.965  35.290  1.00  0.00    -0.248 NA
ATOM     62  C   UNL A   1      43.146  30.824  37.114  1.00  0.00     0.031 C 
ATOM     63  C   UNL A   1      38.218  33.719  35.068  1.00  0.00     0.029 A 
ATOM     64  C   UNL A   1      39.312  32.872  35.159  1.00  0.00     0.049 A 
ATOM     65  H   UNL A   1      40.070  31.519  33.730  1.00  0.00     0.167 HD
ATOM     66  C   UNL A   1      41.274  31.851  36.278  1.00  0.00     0.074 A 
ATOM     67  C   UNL A   1      42.190  31.703  37.389  1.00  0.00     0.031 C 
ATOM     68  C   UNL A   1      40.224  32.709  36.263  1.00  0.00     0.031 A 
BRANCH  55  69
ATOM     69  C   UNL A   1      37.005  32.686  30.985  1.00  0.00    -0.014 A 
ATOM     70  C   UNL A   1      37.236  33.706  30.046  1.00  0.00     0.010 A 
ATOM     71  C   UNL A   1      35.700  32.181  31.139  1.00  0.00     0.010 A 
ATOM     72  C   UNL A   1      36.178  34.242  29.308  1.00  0.00     0.020 A 
ATOM     73  C   UNL A   1      34.644  32.693  30.380  1.00  0.00     0.020 A 
ATOM     74  C   UNL A   1      34.888  33.734  29.482  1.00  0.00     0.054 A 
BRANCH  74  75
ATOM     75  S   UNL A   1      33.538  34.437  28.496  1.00  0.00     0.124 S 
ATOM     76  O   UNL A   1      33.121  33.287  27.696  1.00  0.00    -0.237 OA
ATOM     77  O   UNL A   1      32.587  34.869  29.517  1.00  0.00    -0.237 OA
ATOM     78  O   UNL A   1      34.177  35.516  27.748  1.00  0.00    -0.744 OA
ENDBRANCH  74  75
ENDBRANCH  55  69
BRANCH  56  79
ATOM     79  C   UNL A   1      44.769  28.720  35.870  1.00  0.00    -0.014 A 
ATOM     80  C   UNL A   1      44.612  27.650  36.768  1.00  0.00     0.010 A 
ATOM     81  C   UNL A   1      46.056  29.245  35.650  1.00  0.00     0.010 A 
ATOM     82  C   UNL A   1      45.717  27.125  37.444  1.00  0.00     0.020 A 
ATOM     83  C   UNL A   1      47.167  28.703  36.303  1.00  0.00     0.020 A 
ATOM     84  C   UNL A   1      46.989  27.654  37.205  1.00  0.00     0.054 A 
BRANCH  84  85
ATOM     85  S   UNL A   1      48.414  26.923  38.058  1.00  0.00     0.124 S 
ATOM     86  O   UNL A   1      48.106  27.200  39.457  1.00  0.00    -0.237 OA
ATOM     87  O   UNL A   1      48.335  25.520  37.657  1.00  0.00    -0.237 OA
ATOM     88  O   UNL A   1      49.553  27.656  37.509  1.00  0.00    -0.744 OA
ENDBRANCH  84  85
ENDBRANCH  56  79
BRANCH  68  89
ATOM     89  C   UNL A   1      39.971  33.529  37.501  1.00  0.00    -0.014 A 
ATOM     90  C   UNL A   1      40.611  34.763  37.704  1.00  0.00     0.010 A 
ATOM     91  C   UNL A   1      39.010  33.092  38.432  1.00  0.00     0.010 A 
ATOM     92  C   UNL A   1      40.305  35.539  38.826  1.00  0.00     0.020 A 
ATOM     93  C   UNL A   1      38.681  33.878  39.539  1.00  0.00     0.020 A 
ATOM     94  C   UNL A   1      39.337  35.094  39.733  1.00  0.00     0.054 A 
BRANCH  94  95
ATOM     95  S   UNL A   1      38.905  36.156  41.138  1.00  0.00     0.124 S 
ATOM     96  O   UNL A   1      37.767  35.446  41.717  1.00  0.00    -0.237 OA
ATOM     97  O   UNL A   1      40.127  36.141  41.939  1.00  0.00    -0.237 OA
ATOM     98  O   UNL A   1      38.588  37.440  40.519  1.00  0.00    -0.744 OA
ENDBRANCH  94  95
ENDBRANCH  68  89
ENDBRANCH  42  43
ENDBRANCH  34  37
ENDBRANCH  32  33
ENDBRANCH  31  32
ENDBRANCH  30  31
ENDBRANCH   3  30
TORSDOF 19
ENDMDL
MODEL 3
REMARK VINA RESULT:     -11.4      1.659      2.219
REMARK SMILES O=C(COc1ccc(/C=N/NC(=O)C(=O)Nc2ccc(F)cc2)cc1)NCCCNC(=O)c1ccc(-c2c3nc(c(-c4ccc(S(=O)(=O)[O-])cc4)c4ccc([nH]4)c(-c4ccc(S(=O)(=O)[O-])cc4)c4nc(c(-c5ccc(S(=O)(=O)[O-])cc5)c5ccc2[nH]5)C=C4)C=C3)cc1
REMARK SMILES IDX 1 1 2 2 26 3 3 5 4 6 5 7 6 8 25 9 7 10 24 11 8 12 9 13 10 14
REMARK SMILES IDX 11 15 12 16 13 18 14 19 15 20 16 21 17 23 18 24 23 25 19 26
REMARK SMILES IDX 22 27 20 28 21 29 27 30 28 31 29 32 30 33 31 34 32 36 33 37
REMARK SMILES IDX 34 38 92 39 35 40 91 41 36 42 37 43 38 44 85 45 39 46 90 47
REMARK SMILES IDX 84 48 86 49 40 50 89 51 83 52 82 53 41 55 71 56 52 57 70 58
REMARK SMILES IDX 53 59 56 60 69 61 87 62 54 63 55 64 68 66 88 67 57 68 42 69
REMARK SMILES IDX 43 70 51 71 44 72 50 73 45 74 46 75 47 76 48 77 49 78 72 79
REMARK SMILES IDX 73 80 81 81 74 82 80 83 75 84 76 85 77 86 78 87 79 88 58 89
REMARK SMILES IDX 59 90 67 91 60 92 66 93 61 94 62 95 63 96 64 97 65 98
REMARK H PARENT 26 4 11 17 16 22 30 35 86 54 56 65
REMARK Flexibility Score: inf
ROOT
ATOM      1  O   UNL A   1      34.564  22.658  27.106  1.00  0.00    -0.271 OA
ATOM      2  C   UNL A   1      34.510  22.211  25.964  1.00  0.00     0.257 C 
ATOM      3  N   UNL A   1      35.484  22.436  25.012  1.00  0.00    -0.353 N 
ATOM      4  H   UNL A   1      35.488  21.889  24.193  1.00  0.00     0.163 HD
ENDROOT
BRANCH   2   5
ATOM      5  C   UNL A   1      33.308  21.399  25.464  1.00  0.00     0.329 C 
BRANCH   5   6
ATOM      6  O   UNL A   1      32.674  21.806  24.255  1.00  0.00    -0.484 OA
BRANCH   6   7
ATOM      7  C   UNL A   1      31.742  22.807  24.344  1.00  0.00     0.120 A 
ATOM      8  C   UNL A   1      31.416  23.453  23.145  1.00  0.00     0.047 A 
ATOM      9  C   UNL A   1      31.223  23.295  25.544  1.00  0.00     0.047 A 
ATOM     10  C   UNL A   1      30.599  24.590  23.145  1.00  0.00     0.013 A 
ATOM     11  C   UNL A   1      30.458  24.457  25.559  1.00  0.00     0.013 A 
ATOM     12  C   UNL A   1      30.159  25.102  24.362  1.00  0.00    -0.005 A 
BRANCH  12  13
ATOM     13  C   UNL A   1      29.459  26.383  24.461  1.00  0.00     0.141 C 
ATOM     14  N   UNL A   1      28.997  27.010  23.429  1.00  0.00    -0.180 NA
BRANCH  14  15
ATOM     15  N   UNL A   1      28.282  28.142  23.690  1.00  0.00    -0.239 N 
ATOM     16  C   UNL A   1      28.313  29.401  23.102  1.00  0.00     0.329 C 
ATOM     17  H   UNL A   1      27.630  28.051  24.423  1.00  0.00     0.194 HD
ATOM     18  O   UNL A   1      27.415  30.192  23.387  1.00  0.00    -0.262 OA
BRANCH  16  19
ATOM     19  C   UNL A   1      29.449  29.811  22.104  1.00  0.00     0.315 C 
ATOM     20  O   UNL A   1      29.227  30.158  20.949  1.00  0.00    -0.263 OA
ATOM     21  N   UNL A   1      30.742  29.950  22.573  1.00  0.00    -0.318 N 
ATOM     22  H   UNL A   1      31.281  30.624  22.100  1.00  0.00     0.170 HD
BRANCH  21  23
ATOM     23  C   UNL A   1      31.410  29.290  23.611  1.00  0.00     0.041 A 
ATOM     24  C   UNL A   1      32.259  28.232  23.266  1.00  0.00     0.029 A 
ATOM     25  C   UNL A   1      31.192  29.589  24.958  1.00  0.00     0.029 A 
ATOM     26  C   UNL A   1      32.942  27.527  24.260  1.00  0.00     0.041 A 
ATOM     27  C   UNL A   1      31.861  28.873  25.953  1.00  0.00     0.041 A 
ATOM     28  C   UNL A   1      32.739  27.858  25.595  1.00  0.00     0.123 A 
ATOM     29  F   UNL A   1      33.392  27.182  26.549  1.00  0.00    -0.207 F 
ENDBRANCH  21  23
ENDBRANCH  16  19
ENDBRANCH  14  15
ENDBRANCH  12  13
ENDBRANCH   6   7
ENDBRANCH   5   6
ENDBRANCH   2   5
BRANCH   3  30
ATOM     30  C   UNL A   1      36.501  23.454  25.183  1.00  0.00     0.117 C 
BRANCH  30  31
ATOM     31  C   UNL A   1      37.784  22.929  25.802  1.00  0.00     0.042 C 
BRANCH  31  32
ATOM     32  C   UNL A   1      38.633  24.006  26.464  1.00  0.00     0.118 C 
BRANCH  32  33
ATOM     33  N   UNL A   1      40.050  23.907  26.135  1.00  0.00    -0.352 N 
ATOM     34  C   UNL A   1      41.101  24.719  26.500  1.00  0.00     0.251 C 
ATOM     35  H   UNL A   1      40.294  23.143  25.564  1.00  0.00     0.163 HD
ATOM     36  O   UNL A   1      42.206  24.538  26.008  1.00  0.00    -0.269 OA
BRANCH  34  37
ATOM     37  C   UNL A   1      40.884  25.827  27.458  1.00  0.00     0.039 A 
ATOM     38  C   UNL A   1      39.925  25.672  28.463  1.00  0.00     0.014 A 
ATOM     39  C   UNL A   1      41.625  27.007  27.376  1.00  0.00     0.014 A 
ATOM     40  C   UNL A   1      39.774  26.663  29.437  1.00  0.00     0.010 A 
ATOM     41  C   UNL A   1      41.531  27.956  28.391  1.00  0.00     0.010 A 
ATOM     42  C   UNL A   1      40.610  27.791  29.438  1.00  0.00    -0.014 A 
BRANCH  42  43
ATOM     43  C   UNL A   1      40.558  28.803  30.525  1.00  0.00     0.031 A 
ATOM     44  C   UNL A   1      41.459  28.673  31.723  1.00  0.00     0.074 A 
ATOM     45  C   UNL A   1      39.638  29.789  30.477  1.00  0.00     0.049 A 
ATOM     46  N   UNL A   1      41.483  29.388  32.818  1.00  0.00    -0.248 NA
ATOM     47  C   UNL A   1      42.447  27.582  31.696  1.00  0.00     0.031 C 
ATOM     48  C   UNL A   1      38.684  30.008  29.387  1.00  0.00     0.029 A 
ATOM     49  N   UNL A   1      39.344  30.784  31.377  1.00  0.00    -0.354 N 
ATOM     50  C   UNL A   1      42.468  28.822  33.619  1.00  0.00     0.074 A 
ATOM     51  C   UNL A   1      42.989  27.678  32.902  1.00  0.00     0.031 C 
ATOM     52  C   UNL A   1      37.926  31.079  29.673  1.00  0.00     0.029 A 
ATOM     53  C   UNL A   1      38.302  31.593  30.986  1.00  0.00     0.049 A 
ATOM     54  H   UNL A   1      39.834  30.908  32.222  1.00  0.00     0.167 HD
ATOM     55  C   UNL A   1      42.910  29.226  34.834  1.00  0.00     0.031 A 
ATOM     56  C   UNL A   1      37.703  32.622  31.617  1.00  0.00     0.031 A 
ATOM     57  C   UNL A   1      42.396  30.370  35.539  1.00  0.00     0.049 A 
ATOM     58  C   UNL A   1      38.194  33.036  32.978  1.00  0.00     0.074 A 
ATOM     59  C   UNL A   1      42.816  30.890  36.752  1.00  0.00     0.029 A 
ATOM     60  N   UNL A   1      41.348  31.167  35.103  1.00  0.00    -0.354 N 
ATOM     61  N   UNL A   1      39.168  32.524  33.692  1.00  0.00    -0.248 NA
ATOM     62  C   UNL A   1      37.510  34.171  33.615  1.00  0.00     0.031 C 
ATOM     63  C   UNL A   1      41.987  31.968  37.075  1.00  0.00     0.029 A 
ATOM     64  C   UNL A   1      41.091  32.159  36.033  1.00  0.00     0.049 A 
ATOM     65  H   UNL A   1      40.860  31.045  34.257  1.00  0.00     0.167 HD
ATOM     66  C   UNL A   1      39.235  33.295  34.848  1.00  0.00     0.074 A 
ATOM     67  C   UNL A   1      38.209  34.311  34.735  1.00  0.00     0.031 C 
ATOM     68  C   UNL A   1      40.073  33.172  35.905  1.00  0.00     0.031 A 
BRANCH  55  69
ATOM     69  C   UNL A   1      44.003  28.417  35.484  1.00  0.00    -0.014 A 
ATOM     70  C   UNL A   1      43.710  27.247  36.207  1.00  0.00     0.010 A 
ATOM     71  C   UNL A   1      45.346  28.808  35.330  1.00  0.00     0.010 A 
ATOM     72  C   UNL A   1      44.735  26.508  36.803  1.00  0.00     0.020 A 
ATOM     73  C   UNL A   1      46.376  28.054  35.898  1.00  0.00     0.020 A 
ATOM     74  C   UNL A   1      46.062  26.918  36.647  1.00  0.00     0.054 A 
BRANCH  74  75
ATOM     75  S   UNL A   1      47.372  25.927  37.415  1.00  0.00     0.124 S 
ATOM     76  O   UNL A   1      47.458  24.786  36.507  1.00  0.00    -0.237 OA
ATOM     77  O   UNL A   1      48.516  26.836  37.391  1.00  0.00    -0.237 OA
ATOM     78  O   UNL A   1      46.848  25.627  38.745  1.00  0.00    -0.744 OA
ENDBRANCH  74  75
ENDBRANCH  55  69
BRANCH  56  79
ATOM     79  C   UNL A   1      36.570  33.336  30.964  1.00  0.00    -0.014 A 
ATOM     80  C   UNL A   1      36.756  33.992  29.734  1.00  0.00     0.010 A 
ATOM     81  C   UNL A   1      35.297  33.353  31.562  1.00  0.00     0.010 A 
ATOM     82  C   UNL A   1      35.694  34.665  29.123  1.00  0.00     0.020 A 
ATOM     83  C   UNL A   1      34.225  34.000  30.939  1.00  0.00     0.020 A 
ATOM     84  C   UNL A   1      34.434  34.662  29.729  1.00  0.00     0.054 A 
BRANCH  84  85
ATOM     85  S   UNL A   1      33.059  35.501  28.891  1.00  0.00     0.124 S 
ATOM     86  O   UNL A   1      32.261  35.974  30.017  1.00  0.00    -0.237 OA
ATOM     87  O   UNL A   1      33.745  36.535  28.120  1.00  0.00    -0.237 OA
ATOM     88  O   UNL A   1      32.450  34.440  28.091  1.00  0.00    -0.744 OA
ENDBRANCH  84  85
ENDBRANCH  56  79
BRANCH  68  89
ATOM     89  C   UNL A   1      39.957  34.184  37.015  1.00  0.00    -0.014 A 
ATOM     90  C   UNL A   1      40.556  35.451  36.914  1.00  0.00     0.010 A 
ATOM     91  C   UNL A   1      39.161  33.887  38.137  1.00  0.00     0.010 A 
ATOM     92  C   UNL A   1      40.373  36.399  37.926  1.00  0.00     0.020 A 
ATOM     93  C   UNL A   1      38.953  34.842  39.135  1.00  0.00     0.020 A 
ATOM     94  C   UNL A   1      39.567  36.090  39.027  1.00  0.00     0.054 A 
BRANCH  94  95
ATOM     95  S   UNL A   1      39.285  37.364  40.286  1.00  0.00     0.124 S 
ATOM     96  O   UNL A   1      38.560  36.621  41.313  1.00  0.00    -0.237 OA
ATOM     97  O   UNL A   1      40.643  37.767  40.644  1.00  0.00    -0.237 OA
ATOM     98  O   UNL A   1      38.504  38.379  39.585  1.00  0.00    -0.744 OA
ENDBRANCH  94  95
ENDBRANCH  68  89
ENDBRANCH  42  43
ENDBRANCH  34  37
ENDBRANCH  32  33
ENDBRANCH  31  32
ENDBRANCH  30  31
ENDBRANCH   3  30
TORSDOF 19
ENDMDL
