MODEL 1
REMARK VINA RESULT:     -12.9      0.000      0.000
REMARK SMILES Cc1nc(NC(=O)[C@H]2[C@@H]3CC[C@@H](C3)[C@@H]2C(=O)NCCCNC(=O)c2ccc(-c3c4nc(c(-c5ccc(S(=O)(=O)[O-])cc5)c5ccc([nH]5)c(-c5ccc(S(=O)(=O)[O-])cc5)c5nc(c(-c6ccc(S(=O)(=O)[O-])cc6)c6ccc3[nH]6)C=C5)C=C4)cc2)sc1-c1ccccc1
REMARK SMILES IDX 19 1 18 2 17 3 15 4 16 5 14 7 8 8 9 9 10 10 13 11 12 12
REMARK SMILES IDX 11 13 6 14 5 15 7 17 4 18 1 19 2 20 3 21 85 22 84 23 86 24
REMARK SMILES IDX 87 25 91 26 88 27 90 28 89 29 20 30 21 31 22 32 23 34 24 35
REMARK SMILES IDX 25 36 83 37 26 38 82 39 27 40 28 41 29 42 76 43 30 44 81 45
REMARK SMILES IDX 75 46 77 47 31 48 80 49 74 50 73 51 32 53 62 54 43 55 61 56
REMARK SMILES IDX 44 57 47 58 60 59 78 60 45 61 46 62 59 64 79 65 48 66 33 67
REMARK SMILES IDX 34 68 42 69 35 70 41 71 36 72 37 73 38 74 39 75 40 76 63 77
REMARK SMILES IDX 64 78 72 79 65 80 71 81 66 82 67 83 68 84 69 85 70 86 49 87
REMARK SMILES IDX 50 88 58 89 51 90 57 91 52 92 53 93 54 94 55 95 56 96
REMARK H PARENT 17 6 5 16 21 33 77 52 47 63
REMARK Flexibility Score: inf
ROOT
ATOM      1  C   UNL A   1      34.352  31.494  27.626  1.00  0.00     0.042 C 
ENDROOT
BRANCH   1   2
ATOM      2  C   UNL A   1      33.307  30.554  27.042  1.00  0.00     0.117 C 
BRANCH   2   3
ATOM      3  N   UNL A   1      33.852  29.558  26.137  1.00  0.00    -0.356 N 
ATOM      4  C   UNL A   1      33.296  28.661  25.280  1.00  0.00     0.224 C 
ATOM      5  O   UNL A   1      34.094  28.132  24.498  1.00  0.00    -0.275 OA
ATOM      6  H   UNL A   1      34.836  29.526  26.145  1.00  0.00     0.163 HD
BRANCH   4   7
ATOM      7  C   UNL A   1      31.796  28.299  25.282  1.00  0.00     0.094 C 
ATOM      8  C   UNL A   1      31.602  26.748  25.088  1.00  0.00     0.094 C 
ATOM      9  C   UNL A   1      30.826  26.720  23.728  1.00  0.00     0.002 C 
ATOM     10  C   UNL A   1      31.708  27.235  22.575  1.00  0.00     0.005 C 
ATOM     11  C   UNL A   1      29.850  27.875  23.930  1.00  0.00     0.009 C 
ATOM     12  C   UNL A   1      30.967  28.898  24.115  1.00  0.00     0.002 C 
ATOM     13  C   UNL A   1      31.714  28.751  22.784  1.00  0.00     0.005 C 
BRANCH   8  14
ATOM     14  C   UNL A   1      30.774  25.916  26.100  1.00  0.00     0.230 C 
ATOM     15  N   UNL A   1      30.845  24.583  26.301  1.00  0.00    -0.302 N 
ATOM     16  H   UNL A   1      30.320  24.240  27.059  1.00  0.00     0.172 HD
ATOM     17  O   UNL A   1      29.933  26.489  26.813  1.00  0.00    -0.274 OA
BRANCH  15  18
ATOM     18  C   UNL A   1      31.537  23.652  25.604  1.00  0.00     0.190 A 
ATOM     19  C   UNL A   1      32.230  21.751  22.676  1.00  0.00     0.068 C 
ATOM     20  C   UNL A   1      32.305  22.357  24.023  1.00  0.00     0.058 A 
ATOM     21  N   UNL A   1      31.227  23.094  24.471  1.00  0.00    -0.225 NA
ATOM     22  C   UNL A   1      33.419  22.390  24.845  1.00  0.00     0.059 A 
ATOM     23  S   UNL A   1      33.044  23.224  26.288  1.00  0.00    -0.096 S 
BRANCH  22  24
ATOM     24  C   UNL A   1      34.749  21.888  24.534  1.00  0.00    -0.006 A 
ATOM     25  C   UNL A   1      35.693  22.715  23.917  1.00  0.00     0.009 A 
ATOM     26  C   UNL A   1      35.154  20.656  25.071  1.00  0.00     0.009 A 
ATOM     27  C   UNL A   1      37.034  22.332  23.877  1.00  0.00     0.001 A 
ATOM     28  C   UNL A   1      36.495  20.278  25.029  1.00  0.00     0.001 A 
ATOM     29  C   UNL A   1      37.436  21.124  24.446  1.00  0.00     0.000 A 
ENDBRANCH  22  24
ENDBRANCH  15  18
ENDBRANCH   8  14
ENDBRANCH   4   7
ENDBRANCH   2   3
ENDBRANCH   1   2
BRANCH   1  30
ATOM     30  C   UNL A   1      35.598  30.803  28.177  1.00  0.00     0.118 C 
BRANCH  30  31
ATOM     31  N   UNL A   1      35.545  30.569  29.608  1.00  0.00    -0.352 N 
ATOM     32  C   UNL A   1      36.482  30.016  30.446  1.00  0.00     0.251 C 
ATOM     33  H   UNL A   1      34.708  30.850  30.045  1.00  0.00     0.163 HD
ATOM     34  O   UNL A   1      36.183  29.799  31.617  1.00  0.00    -0.269 OA
BRANCH  32  35
ATOM     35  C   UNL A   1      37.831  29.656  29.952  1.00  0.00     0.039 A 
ATOM     36  C   UNL A   1      38.790  29.252  30.887  1.00  0.00     0.014 A 
ATOM     37  C   UNL A   1      38.177  29.760  28.602  1.00  0.00     0.014 A 
ATOM     38  C   UNL A   1      40.078  28.914  30.464  1.00  0.00     0.010 A 
ATOM     39  C   UNL A   1      39.448  29.367  28.174  1.00  0.00     0.010 A 
ATOM     40  C   UNL A   1      40.414  28.951  29.101  1.00  0.00    -0.014 A 
BRANCH  40  41
ATOM     41  C   UNL A   1      41.782  28.584  28.646  1.00  0.00     0.031 A 
ATOM     42  C   UNL A   1      42.867  29.625  28.589  1.00  0.00     0.074 A 
ATOM     43  C   UNL A   1      42.042  27.319  28.260  1.00  0.00     0.049 A 
ATOM     44  N   UNL A   1      44.112  29.497  28.202  1.00  0.00    -0.248 NA
ATOM     45  C   UNL A   1      42.504  30.990  29.002  1.00  0.00     0.031 C 
ATOM     46  C   UNL A   1      41.074  26.221  28.245  1.00  0.00     0.029 A 
ATOM     47  N   UNL A   1      43.203  26.744  27.807  1.00  0.00    -0.354 N 
ATOM     48  C   UNL A   1      44.676  30.763  28.315  1.00  0.00     0.074 A 
ATOM     49  C   UNL A   1      43.627  31.653  28.763  1.00  0.00     0.031 C 
ATOM     50  C   UNL A   1      41.687  25.101  27.828  1.00  0.00     0.029 A 
ATOM     51  C   UNL A   1      43.081  25.406  27.516  1.00  0.00     0.049 A 
ATOM     52  H   UNL A   1      44.046  27.243  27.699  1.00  0.00     0.167 HD
ATOM     53  C   UNL A   1      45.955  31.149  28.083  1.00  0.00     0.031 A 
ATOM     54  C   UNL A   1      43.985  24.522  27.052  1.00  0.00     0.031 A 
ATOM     55  C   UNL A   1      47.003  30.263  27.650  1.00  0.00     0.049 A 
ATOM     56  C   UNL A   1      45.396  24.974  26.795  1.00  0.00     0.074 A 
ATOM     57  C   UNL A   1      48.339  30.554  27.430  1.00  0.00     0.029 A 
ATOM     58  N   UNL A   1      46.836  28.916  27.370  1.00  0.00    -0.354 N 
ATOM     59  N   UNL A   1      45.921  26.166  26.955  1.00  0.00    -0.248 NA
ATOM     60  C   UNL A   1      46.341  23.959  26.308  1.00  0.00     0.031 C 
ATOM     61  C   UNL A   1      48.971  29.390  26.977  1.00  0.00     0.029 A 
ATOM     62  C   UNL A   1      48.039  28.365  26.963  1.00  0.00     0.049 A 
ATOM     63  H   UNL A   1      45.987  28.423  27.450  1.00  0.00     0.167 HD
ATOM     64  C   UNL A   1      47.262  26.038  26.611  1.00  0.00     0.074 A 
ATOM     65  C   UNL A   1      47.471  24.651  26.247  1.00  0.00     0.031 C 
ATOM     66  C   UNL A   1      48.233  26.984  26.602  1.00  0.00     0.031 A 
BRANCH  53  67
ATOM     67  C   UNL A   1      46.288  32.603  28.290  1.00  0.00    -0.014 A 
ATOM     68  C   UNL A   1      46.711  33.078  29.545  1.00  0.00     0.010 A 
ATOM     69  C   UNL A   1      46.210  33.500  27.210  1.00  0.00     0.010 A 
ATOM     70  C   UNL A   1      47.005  34.432  29.726  1.00  0.00     0.020 A 
ATOM     71  C   UNL A   1      46.528  34.849  27.380  1.00  0.00     0.020 A 
ATOM     72  C   UNL A   1      46.906  35.311  28.643  1.00  0.00     0.054 A 
BRANCH  72  73
ATOM     73  S   UNL A   1      47.305  37.061  28.901  1.00  0.00     0.124 S 
ATOM     74  O   UNL A   1      46.007  37.611  29.287  1.00  0.00    -0.237 OA
ATOM     75  O   UNL A   1      48.305  37.010  29.965  1.00  0.00    -0.237 OA
ATOM     76  O   UNL A   1      47.806  37.498  27.601  1.00  0.00    -0.744 OA
ENDBRANCH  72  73
ENDBRANCH  53  67
BRANCH  54  77
ATOM     77  C   UNL A   1      43.584  23.110  26.813  1.00  0.00    -0.014 A 
ATOM     78  C   UNL A   1      43.825  22.501  25.568  1.00  0.00     0.010 A 
ATOM     79  C   UNL A   1      42.972  22.362  27.834  1.00  0.00     0.010 A 
ATOM     80  C   UNL A   1      43.449  21.173  25.345  1.00  0.00     0.020 A 
ATOM     81  C   UNL A   1      42.617  21.027  27.623  1.00  0.00     0.020 A 
ATOM     82  C   UNL A   1      42.848  20.444  26.376  1.00  0.00     0.054 A 
BRANCH  82  83
ATOM     83  S   UNL A   1      42.422  18.704  26.087  1.00  0.00     0.124 S 
ATOM     84  O   UNL A   1      41.021  18.798  25.688  1.00  0.00    -0.237 OA
ATOM     85  O   UNL A   1      43.357  18.319  25.033  1.00  0.00    -0.237 OA
ATOM     86  O   UNL A   1      42.665  18.076  27.383  1.00  0.00    -0.744 OA
ENDBRANCH  82  83
ENDBRANCH  54  77
BRANCH  66  87
ATOM     87  C   UNL A   1      49.620  26.549  26.213  1.00  0.00    -0.014 A 
ATOM     88  C   UNL A   1      50.096  26.722  24.901  1.00  0.00     0.010 A 
ATOM     89  C   UNL A   1      50.478  26.007  27.188  1.00  0.00     0.010 A 
ATOM     90  C   UNL A   1      51.396  26.334  24.565  1.00  0.00     0.020 A 
ATOM     91  C   UNL A   1      51.785  25.641  26.862  1.00  0.00     0.020 A 
ATOM     92  C   UNL A   1      52.232  25.796  25.548  1.00  0.00     0.054 A 
BRANCH  92  93
ATOM     93  S   UNL A   1      53.931  25.342  25.099  1.00  0.00     0.124 S 
ATOM     94  O   UNL A   1      54.672  25.716  26.301  1.00  0.00    -0.237 OA
ATOM     95  O   UNL A   1      53.825  23.907  24.847  1.00  0.00    -0.237 OA
ATOM     96  O   UNL A   1      54.206  26.157  23.918  1.00  0.00    -0.744 OA
ENDBRANCH  92  93
ENDBRANCH  66  87
ENDBRANCH  40  41
ENDBRANCH  32  35
ENDBRANCH  30  31
ENDBRANCH   1  30
TORSDOF 16
ENDMDL
MODEL 2
REMARK VINA RESULT:     -12.8      5.012      7.157
REMARK SMILES Cc1nc(NC(=O)[C@H]2[C@@H]3CC[C@@H](C3)[C@@H]2C(=O)NCCCNC(=O)c2ccc(-c3c4nc(c(-c5ccc(S(=O)(=O)[O-])cc5)c5ccc([nH]5)c(-c5ccc(S(=O)(=O)[O-])cc5)c5nc(c(-c6ccc(S(=O)(=O)[O-])cc6)c6ccc3[nH]6)C=C5)C=C4)cc2)sc1-c1ccccc1
REMARK SMILES IDX 19 1 18 2 17 3 15 4 16 5 14 7 8 8 9 9 10 10 13 11 12 12
REMARK SMILES IDX 11 13 6 14 5 15 7 17 4 18 1 19 2 20 3 21 85 22 84 23 86 24
REMARK SMILES IDX 87 25 91 26 88 27 90 28 89 29 20 30 21 31 22 32 23 34 24 35
REMARK SMILES IDX 25 36 83 37 26 38 82 39 27 40 28 41 29 42 76 43 30 44 81 45
REMARK SMILES IDX 75 46 77 47 31 48 80 49 74 50 73 51 32 53 62 54 43 55 61 56
REMARK SMILES IDX 44 57 47 58 60 59 78 60 45 61 46 62 59 64 79 65 48 66 33 67
REMARK SMILES IDX 34 68 42 69 35 70 41 71 36 72 37 73 38 74 39 75 40 76 63 77
REMARK SMILES IDX 64 78 72 79 65 80 71 81 66 82 67 83 68 84 69 85 70 86 49 87
REMARK SMILES IDX 50 88 58 89 51 90 57 91 52 92 53 93 54 94 55 95 56 96
REMARK H PARENT 17 6 5 16 21 33 77 52 47 63
REMARK Flexibility Score: inf
ROOT
ATOM      1  C   UNL A   1      33.290  28.012  26.588  1.00  0.00     0.042 C 
ENDROOT
BRANCH   1   2
ATOM      2  C   UNL A   1      33.666  26.644  26.038  1.00  0.00     0.117 C 
BRANCH   2   3
ATOM      3  N   UNL A   1      32.740  25.588  26.402  1.00  0.00    -0.356 N 
ATOM      4  C   UNL A   1      32.664  24.261  26.113  1.00  0.00     0.224 C 
ATOM      5  O   UNL A   1      31.852  23.630  26.799  1.00  0.00    -0.275 OA
ATOM      6  H   UNL A   1      32.010  25.898  26.985  1.00  0.00     0.163 HD
BRANCH   4   7
ATOM      7  C   UNL A   1      33.496  23.583  25.005  1.00  0.00     0.094 C 
ATOM      8  C   UNL A   1      32.645  22.475  24.276  1.00  0.00     0.094 C 
ATOM      9  C   UNL A   1      33.476  21.194  24.626  1.00  0.00     0.002 C 
ATOM     10  C   UNL A   1      33.436  20.904  26.139  1.00  0.00     0.005 C 
ATOM     11  C   UNL A   1      34.899  21.713  24.433  1.00  0.00     0.009 C 
ATOM     12  C   UNL A   1      34.739  22.795  25.496  1.00  0.00     0.002 C 
ATOM     13  C   UNL A   1      34.394  21.943  26.724  1.00  0.00     0.005 C 
BRANCH   8  14
ATOM     14  C   UNL A   1      32.466  22.493  22.737  1.00  0.00     0.230 C 
ATOM     15  N   UNL A   1      32.502  23.575  21.931  1.00  0.00    -0.302 N 
ATOM     16  H   UNL A   1      32.475  23.386  20.965  1.00  0.00     0.172 HD
ATOM     17  O   UNL A   1      32.251  21.425  22.138  1.00  0.00    -0.274 OA
BRANCH  15  18
ATOM     18  C   UNL A   1      32.570  24.885  22.265  1.00  0.00     0.190 A 
ATOM     19  C   UNL A   1      34.091  28.102  22.189  1.00  0.00     0.068 C 
ATOM     20  C   UNL A   1      33.146  26.985  22.413  1.00  0.00     0.058 A 
ATOM     21  N   UNL A   1      33.574  25.702  22.139  1.00  0.00    -0.225 NA
ATOM     22  C   UNL A   1      31.804  27.100  22.734  1.00  0.00     0.059 A 
ATOM     23  S   UNL A   1      31.109  25.545  22.860  1.00  0.00    -0.096 S 
BRANCH  22  24
ATOM     24  C   UNL A   1      31.039  28.330  22.864  1.00  0.00    -0.006 A 
ATOM     25  C   UNL A   1      29.953  28.583  22.020  1.00  0.00     0.009 A 
ATOM     26  C   UNL A   1      31.245  29.144  23.988  1.00  0.00     0.009 A 
ATOM     27  C   UNL A   1      29.060  29.611  22.322  1.00  0.00     0.001 A 
ATOM     28  C   UNL A   1      30.350  30.170  24.288  1.00  0.00     0.001 A 
ATOM     29  C   UNL A   1      29.249  30.392  23.463  1.00  0.00     0.000 A 
ENDBRANCH  22  24
ENDBRANCH  15  18
ENDBRANCH   8  14
ENDBRANCH   4   7
ENDBRANCH   2   3
ENDBRANCH   1   2
BRANCH   1  30
ATOM     30  C   UNL A   1      34.181  29.159  26.114  1.00  0.00     0.118 C 
BRANCH  30  31
ATOM     31  N   UNL A   1      33.776  30.456  26.624  1.00  0.00    -0.352 N 
ATOM     32  C   UNL A   1      34.334  31.227  27.613  1.00  0.00     0.251 C 
ATOM     33  H   UNL A   1      32.978  30.841  26.195  1.00  0.00     0.163 HD
ATOM     34  O   UNL A   1      33.756  32.249  27.973  1.00  0.00    -0.269 OA
BRANCH  32  35
ATOM     35  C   UNL A   1      35.604  30.832  28.265  1.00  0.00     0.039 A 
ATOM     36  C   UNL A   1      35.591  29.725  29.120  1.00  0.00     0.014 A 
ATOM     37  C   UNL A   1      36.784  31.562  28.091  1.00  0.00     0.014 A 
ATOM     38  C   UNL A   1      36.765  29.326  29.764  1.00  0.00     0.010 A 
ATOM     39  C   UNL A   1      37.969  31.128  28.690  1.00  0.00     0.010 A 
ATOM     40  C   UNL A   1      37.969  30.013  29.541  1.00  0.00    -0.014 A 
BRANCH  40  41
ATOM     41  C   UNL A   1      39.223  29.587  30.218  1.00  0.00     0.031 A 
ATOM     42  C   UNL A   1      39.674  30.271  31.480  1.00  0.00     0.074 A 
ATOM     43  C   UNL A   1      39.970  28.600  29.685  1.00  0.00     0.049 A 
ATOM     44  N   UNL A   1      40.746  30.050  32.199  1.00  0.00    -0.248 NA
ATOM     45  C   UNL A   1      38.822  31.356  31.991  1.00  0.00     0.031 C 
ATOM     46  C   UNL A   1      39.657  27.871  28.454  1.00  0.00     0.029 A 
ATOM     47  N   UNL A   1      41.147  28.038  30.113  1.00  0.00    -0.354 N 
ATOM     48  C   UNL A   1      40.703  30.972  33.239  1.00  0.00     0.074 A 
ATOM     49  C   UNL A   1      39.523  31.785  33.032  1.00  0.00     0.031 C 
ATOM     50  C   UNL A   1      40.606  26.944  28.240  1.00  0.00     0.029 A 
ATOM     51  C   UNL A   1      41.609  27.032  29.298  1.00  0.00     0.049 A 
ATOM     52  H   UNL A   1      41.618  28.329  30.927  1.00  0.00     0.167 HD
ATOM     53  C   UNL A   1      41.556  31.121  34.281  1.00  0.00     0.031 A 
ATOM     54  C   UNL A   1      42.713  26.265  29.388  1.00  0.00     0.031 A 
ATOM     55  C   UNL A   1      42.723  30.307  34.496  1.00  0.00     0.049 A 
ATOM     56  C   UNL A   1      43.649  26.453  30.550  1.00  0.00     0.074 A 
ATOM     57  C   UNL A   1      43.624  30.355  35.547  1.00  0.00     0.029 A 
ATOM     58  N   UNL A   1      43.152  29.298  33.648  1.00  0.00    -0.354 N 
ATOM     59  N   UNL A   1      43.563  27.299  31.548  1.00  0.00    -0.248 NA
ATOM     60  C   UNL A   1      44.826  25.573  30.604  1.00  0.00     0.031 C 
ATOM     61  C   UNL A   1      44.621  29.401  35.311  1.00  0.00     0.029 A 
ATOM     62  C   UNL A   1      44.313  28.727  34.141  1.00  0.00     0.049 A 
ATOM     63  H   UNL A   1      42.697  29.026  32.818  1.00  0.00     0.167 HD
ATOM     64  C   UNL A   1      44.660  27.037  32.362  1.00  0.00     0.074 A 
ATOM     65  C   UNL A   1      45.388  25.946  31.746  1.00  0.00     0.031 C 
ATOM     66  C   UNL A   1      45.028  27.644  33.517  1.00  0.00     0.031 A 
BRANCH  53  67
ATOM     67  C   UNL A   1      41.258  32.217  35.270  1.00  0.00    -0.014 A 
ATOM     68  C   UNL A   1      41.736  33.526  35.068  1.00  0.00     0.010 A 
ATOM     69  C   UNL A   1      40.463  31.946  36.397  1.00  0.00     0.010 A 
ATOM     70  C   UNL A   1      41.462  34.530  35.999  1.00  0.00     0.020 A 
ATOM     71  C   UNL A   1      40.165  32.954  37.318  1.00  0.00     0.020 A 
ATOM     72  C   UNL A   1      40.684  34.237  37.122  1.00  0.00     0.054 A 
BRANCH  72  73
ATOM     73  S   UNL A   1      40.332  35.561  38.310  1.00  0.00     0.124 S 
ATOM     74  O   UNL A   1      40.061  36.693  37.426  1.00  0.00    -0.237 OA
ATOM     75  O   UNL A   1      39.176  35.044  39.038  1.00  0.00    -0.237 OA
ATOM     76  O   UNL A   1      41.562  35.661  39.092  1.00  0.00    -0.744 OA
ENDBRANCH  72  73
ENDBRANCH  53  67
BRANCH  54  77
ATOM     77  C   UNL A   1      42.985  25.235  28.351  1.00  0.00    -0.014 A 
ATOM     78  C   UNL A   1      43.765  25.546  27.223  1.00  0.00     0.010 A 
ATOM     79  C   UNL A   1      42.476  23.932  28.493  1.00  0.00     0.010 A 
ATOM     80  C   UNL A   1      44.022  24.577  26.250  1.00  0.00     0.020 A 
ATOM     81  C   UNL A   1      42.751  22.953  27.535  1.00  0.00     0.020 A 
ATOM     82  C   UNL A   1      43.514  23.284  26.413  1.00  0.00     0.054 A 
BRANCH  82  83
ATOM     83  S   UNL A   1      43.907  22.024  25.169  1.00  0.00     0.124 S 
ATOM     84  O   UNL A   1      43.593  22.717  23.924  1.00  0.00    -0.237 OA
ATOM     85  O   UNL A   1      45.324  21.769  25.412  1.00  0.00    -0.237 OA
ATOM     86  O   UNL A   1      43.016  20.918  25.514  1.00  0.00    -0.744 OA
ENDBRANCH  82  83
ENDBRANCH  54  77
BRANCH  66  87
ATOM     87  C   UNL A   1      46.259  27.125  34.210  1.00  0.00    -0.014 A 
ATOM     88  C   UNL A   1      46.182  26.075  35.142  1.00  0.00     0.010 A 
ATOM     89  C   UNL A   1      47.519  27.661  33.883  1.00  0.00     0.010 A 
ATOM     90  C   UNL A   1      47.340  25.590  35.756  1.00  0.00     0.020 A 
ATOM     91  C   UNL A   1      48.680  27.162  34.476  1.00  0.00     0.020 A 
ATOM     92  C   UNL A   1      48.581  26.137  35.420  1.00  0.00     0.054 A 
BRANCH  92  93
ATOM     93  S   UNL A   1      50.076  25.461  36.196  1.00  0.00     0.124 S 
ATOM     94  O   UNL A   1      50.303  26.403  37.288  1.00  0.00    -0.237 OA
ATOM     95  O   UNL A   1      49.651  24.122  36.599  1.00  0.00    -0.237 OA
ATOM     96  O   UNL A   1      51.069  25.497  35.125  1.00  0.00    -0.744 OA
ENDBRANCH  92  93
ENDBRANCH  66  87
ENDBRANCH  40  41
ENDBRANCH  32  35
ENDBRANCH  30  31
ENDBRANCH   1  30
TORSDOF 16
ENDMDL
MODEL 3
REMARK VINA RESULT:     -12.6      0.649      7.979
REMARK SMILES Cc1nc(NC(=O)[C@H]2[C@@H]3CC[C@@H](C3)[C@@H]2C(=O)NCCCNC(=O)c2ccc(-c3c4nc(c(-c5ccc(S(=O)(=O)[O-])cc5)c5ccc([nH]5)c(-c5ccc(S(=O)(=O)[O-])cc5)c5nc(c(-c6ccc(S(=O)(=O)[O-])cc6)c6ccc3[nH]6)C=C5)C=C4)cc2)sc1-c1ccccc1
REMARK SMILES IDX 19 1 18 2 17 3 15 4 16 5 14 7 8 8 9 9 10 10 13 11 12 12
REMARK SMILES IDX 11 13 6 14 5 15 7 17 4 18 1 19 2 20 3 21 85 22 84 23 86 24
REMARK SMILES IDX 87 25 91 26 88 27 90 28 89 29 20 30 21 31 22 32 23 34 24 35
REMARK SMILES IDX 25 36 83 37 26 38 82 39 27 40 28 41 29 42 76 43 30 44 81 45
REMARK SMILES IDX 75 46 77 47 31 48 80 49 74 50 73 51 32 53 62 54 43 55 61 56
REMARK SMILES IDX 44 57 47 58 60 59 78 60 45 61 46 62 59 64 79 65 48 66 33 67
REMARK SMILES IDX 34 68 42 69 35 70 41 71 36 72 37 73 38 74 39 75 40 76 63 77
REMARK SMILES IDX 64 78 72 79 65 80 71 81 66 82 67 83 68 84 69 85 70 86 49 87
REMARK SMILES IDX 50 88 58 89 51 90 57 91 52 92 53 93 54 94 55 95 56 96
REMARK H PARENT 17 6 5 16 21 33 77 52 47 63
REMARK Flexibility Score: inf
ROOT
ATOM      1  C   UNL A   1      34.474  31.234  27.448  1.00  0.00     0.042 C 
ENDROOT
BRANCH   1   2
ATOM      2  C   UNL A   1      33.483  30.096  27.646  1.00  0.00     0.117 C 
BRANCH   2   3
ATOM      3  N   UNL A   1      33.970  28.806  27.196  1.00  0.00    -0.356 N 
ATOM      4  C   UNL A   1      33.447  27.822  26.416  1.00  0.00     0.224 C 
ATOM      5  O   UNL A   1      34.258  26.960  26.061  1.00  0.00    -0.275 OA
ATOM      6  H   UNL A   1      34.875  28.598  27.524  1.00  0.00     0.163 HD
BRANCH   4   7
ATOM      7  C   UNL A   1      31.958  27.755  26.014  1.00  0.00     0.094 C 
ATOM      8  C   UNL A   1      31.627  26.364  25.353  1.00  0.00     0.094 C 
ATOM      9  C   UNL A   1      31.208  26.820  23.914  1.00  0.00     0.002 C 
ATOM     10  C   UNL A   1      32.401  27.433  23.156  1.00  0.00     0.005 C 
ATOM     11  C   UNL A   1      30.362  28.049  24.237  1.00  0.00     0.009 C 
ATOM     12  C   UNL A   1      31.520  28.768  24.925  1.00  0.00     0.002 C 
ATOM     13  C   UNL A   1      32.543  28.821  23.784  1.00  0.00     0.005 C 
BRANCH   8  14
ATOM     14  C   UNL A   1      30.481  25.476  25.900  1.00  0.00     0.230 C 
ATOM     15  N   UNL A   1      30.406  24.129  25.844  1.00  0.00    -0.302 N 
ATOM     16  H   UNL A   1      29.655  23.726  26.337  1.00  0.00     0.172 HD
ATOM     17  O   UNL A   1      29.501  26.014  26.442  1.00  0.00    -0.274 OA
BRANCH  15  18
ATOM     18  C   UNL A   1      31.217  23.256  25.204  1.00  0.00     0.190 A 
ATOM     19  C   UNL A   1      32.261  21.409  22.347  1.00  0.00     0.068 C 
ATOM     20  C   UNL A   1      32.194  22.023  23.691  1.00  0.00     0.058 A 
ATOM     21  N   UNL A   1      31.032  22.671  24.058  1.00  0.00    -0.225 NA
ATOM     22  C   UNL A   1      33.243  22.151  24.586  1.00  0.00     0.059 A 
ATOM     23  S   UNL A   1      32.704  22.956  25.993  1.00  0.00    -0.096 S 
BRANCH  22  24
ATOM     24  C   UNL A   1      34.628  21.759  24.370  1.00  0.00    -0.006 A 
ATOM     25  C   UNL A   1      35.527  22.638  23.759  1.00  0.00     0.009 A 
ATOM     26  C   UNL A   1      35.111  20.597  24.992  1.00  0.00     0.009 A 
ATOM     27  C   UNL A   1      36.897  22.378  23.807  1.00  0.00     0.001 A 
ATOM     28  C   UNL A   1      36.480  20.341  25.039  1.00  0.00     0.001 A 
ATOM     29  C   UNL A   1      37.373  21.241  24.460  1.00  0.00     0.000 A 
ENDBRANCH  22  24
ENDBRANCH  15  18
ENDBRANCH   8  14
ENDBRANCH   4   7
ENDBRANCH   2   3
ENDBRANCH   1   2
BRANCH   1  30
ATOM     30  C   UNL A   1      35.813  31.049  28.161  1.00  0.00     0.118 C 
BRANCH  30  31
ATOM     31  N   UNL A   1      35.683  30.526  29.508  1.00  0.00    -0.352 N 
ATOM     32  C   UNL A   1      36.568  29.788  30.256  1.00  0.00     0.251 C 
ATOM     33  H   UNL A   1      34.830  30.731  29.954  1.00  0.00     0.163 HD
ATOM     34  O   UNL A   1      36.207  29.341  31.341  1.00  0.00    -0.269 OA
BRANCH  32  35
ATOM     35  C   UNL A   1      37.935  29.504  29.762  1.00  0.00     0.039 A 
ATOM     36  C   UNL A   1      38.940  29.263  30.703  1.00  0.00     0.014 A 
ATOM     37  C   UNL A   1      38.248  29.523  28.399  1.00  0.00     0.014 A 
ATOM     38  C   UNL A   1      40.246  29.002  30.280  1.00  0.00     0.010 A 
ATOM     39  C   UNL A   1      39.541  29.204  27.975  1.00  0.00     0.010 A 
ATOM     40  C   UNL A   1      40.555  28.952  28.911  1.00  0.00    -0.014 A 
BRANCH  40  41
ATOM     41  C   UNL A   1      41.941  28.666  28.456  1.00  0.00     0.031 A 
ATOM     42  C   UNL A   1      42.325  27.277  28.019  1.00  0.00     0.074 A 
ATOM     43  C   UNL A   1      42.864  29.649  28.458  1.00  0.00     0.049 A 
ATOM     44  N   UNL A   1      43.487  26.835  27.609  1.00  0.00    -0.248 NA
ATOM     45  C   UNL A   1      41.273  26.250  28.065  1.00  0.00     0.031 C 
ATOM     46  C   UNL A   1      42.628  31.031  28.879  1.00  0.00     0.029 A 
ATOM     47  N   UNL A   1      44.187  29.634  28.091  1.00  0.00    -0.354 N 
ATOM     48  C   UNL A   1      43.310  25.479  27.359  1.00  0.00     0.074 A 
ATOM     49  C   UNL A   1      41.941  25.162  27.707  1.00  0.00     0.031 C 
ATOM     50  C   UNL A   1      43.761  31.736  28.725  1.00  0.00     0.029 A 
ATOM     51  C   UNL A   1      44.810  30.852  28.225  1.00  0.00     0.049 A 
ATOM     52  H   UNL A   1      44.646  28.827  27.764  1.00  0.00     0.167 HD
ATOM     53  C   UNL A   1      44.198  24.579  26.870  1.00  0.00     0.031 A 
ATOM     54  C   UNL A   1      46.082  31.219  27.974  1.00  0.00     0.031 A 
ATOM     55  C   UNL A   1      45.556  24.894  26.512  1.00  0.00     0.049 A 
ATOM     56  C   UNL A   1      47.053  30.203  27.438  1.00  0.00     0.074 A 
ATOM     57  C   UNL A   1      46.518  24.059  25.968  1.00  0.00     0.029 A 
ATOM     58  N   UNL A   1      46.146  26.139  26.660  1.00  0.00    -0.354 N 
ATOM     59  N   UNL A   1      46.850  28.936  27.163  1.00  0.00    -0.248 NA
ATOM     60  C   UNL A   1      48.420  30.669  27.165  1.00  0.00     0.031 C 
ATOM     61  C   UNL A   1      47.702  24.791  25.826  1.00  0.00     0.029 A 
ATOM     62  C   UNL A   1      47.462  26.092  26.235  1.00  0.00     0.049 A 
ATOM     63  H   UNL A   1      45.694  26.939  27.014  1.00  0.00     0.167 HD
ATOM     64  C   UNL A   1      48.057  28.460  26.663  1.00  0.00     0.074 A 
ATOM     65  C   UNL A   1      48.980  29.577  26.661  1.00  0.00     0.031 C 
ATOM     66  C   UNL A   1      48.371  27.210  26.240  1.00  0.00     0.031 A 
BRANCH  53  67
ATOM     67  C   UNL A   1      43.725  23.160  26.700  1.00  0.00    -0.014 A 
ATOM     68  C   UNL A   1      44.006  22.437  25.525  1.00  0.00     0.010 A 
ATOM     69  C   UNL A   1      43.019  22.527  27.739  1.00  0.00     0.010 A 
ATOM     70  C   UNL A   1      43.551  21.125  25.376  1.00  0.00     0.020 A 
ATOM     71  C   UNL A   1      42.584  21.207  27.604  1.00  0.00     0.020 A 
ATOM     72  C   UNL A   1      42.837  20.520  26.414  1.00  0.00     0.054 A 
BRANCH  72  73
ATOM     73  S   UNL A   1      42.267  18.811  26.200  1.00  0.00     0.124 S 
ATOM     74  O   UNL A   1      42.426  18.271  27.549  1.00  0.00    -0.237 OA
ATOM     75  O   UNL A   1      40.887  18.985  25.754  1.00  0.00    -0.237 OA
ATOM     76  O   UNL A   1      43.178  18.264  25.198  1.00  0.00    -0.744 OA
ENDBRANCH  72  73
ENDBRANCH  53  67
BRANCH  54  77
ATOM     77  C   UNL A   1      46.508  32.624  28.213  1.00  0.00    -0.014 A 
ATOM     78  C   UNL A   1      46.388  33.589  27.198  1.00  0.00     0.010 A 
ATOM     79  C   UNL A   1      47.024  33.006  29.464  1.00  0.00     0.010 A 
ATOM     80  C   UNL A   1      46.787  34.909  27.425  1.00  0.00     0.020 A 
ATOM     81  C   UNL A   1      47.402  34.330  29.703  1.00  0.00     0.020 A 
ATOM     82  C   UNL A   1      47.290  35.272  28.678  1.00  0.00     0.054 A 
BRANCH  82  83
ATOM     83  S   UNL A   1      47.748  37.003  28.972  1.00  0.00     0.124 S 
ATOM     84  O   UNL A   1      49.205  36.931  29.000  1.00  0.00    -0.237 OA
ATOM     85  O   UNL A   1      47.168  37.685  27.818  1.00  0.00    -0.237 OA
ATOM     86  O   UNL A   1      47.110  37.309  30.251  1.00  0.00    -0.744 OA
ENDBRANCH  82  83
ENDBRANCH  54  77
BRANCH  66  87
ATOM     87  C   UNL A   1      49.762  26.987  25.711  1.00  0.00    -0.014 A 
ATOM     88  C   UNL A   1      50.065  27.186  24.353  1.00  0.00     0.010 A 
ATOM     89  C   UNL A   1      50.792  26.624  26.598  1.00  0.00     0.010 A 
ATOM     90  C   UNL A   1      51.369  26.997  23.886  1.00  0.00     0.020 A 
ATOM     91  C   UNL A   1      52.100  26.459  26.140  1.00  0.00     0.020 A 
ATOM     92  C   UNL A   1      52.378  26.634  24.782  1.00  0.00     0.054 A 
BRANCH  92  93
ATOM     93  S   UNL A   1      54.072  26.440  24.161  1.00  0.00     0.124 S 
ATOM     94  O   UNL A   1      53.849  26.223  22.735  1.00  0.00    -0.237 OA
ATOM     95  O   UNL A   1      54.692  27.715  24.514  1.00  0.00    -0.237 OA
ATOM     96  O   UNL A   1      54.579  25.283  24.896  1.00  0.00    -0.744 OA
ENDBRANCH  92  93
ENDBRANCH  66  87
ENDBRANCH  40  41
ENDBRANCH  32  35
ENDBRANCH  30  31
ENDBRANCH   1  30
TORSDOF 16
ENDMDL
