MODEL 1
REMARK VINA RESULT:     -14.0      0.000      0.000
REMARK SMILES Cc1ccc(C(=O)N2CCCC[C@@H]2C(=O)NCCCNC(=O)c2ccc(-c3c4nc(c(-c5ccc(S(=O)(=O)[O-])cc5)c5ccc([nH]5)c(-c5ccc(S(=O)(=O)[O-])cc5)c5nc(c(-c6ccc(S(=O)(=O)[O-])cc6)c6ccc3[nH]6)C=C5)C=C4)cc2)cc1S(=O)(=O)N1CCCCC1
REMARK SMILES IDX 17 1 16 2 14 3 15 4 13 6 8 7 9 8 10 9 12 10 11 11 6 12 7 13
REMARK SMILES IDX 5 14 1 15 2 16 3 17 84 18 4 19 83 20 85 21 86 22 87 23 88 24
REMARK SMILES IDX 89 25 93 26 90 27 92 28 91 29 18 30 19 31 20 32 21 33 22 35
REMARK SMILES IDX 23 36 24 37 82 38 25 39 81 40 26 41 27 42 28 43 75 44 29 45
REMARK SMILES IDX 80 46 74 47 76 48 30 49 79 50 73 51 72 52 31 54 61 55 42 56
REMARK SMILES IDX 60 57 43 58 46 59 59 60 77 61 44 62 45 63 58 65 78 66 47 67
REMARK SMILES IDX 32 68 33 69 41 70 34 71 40 72 35 73 36 74 37 75 38 76 39 77
REMARK SMILES IDX 62 78 63 79 71 80 64 81 70 82 65 83 66 84 67 85 68 86 69 87
REMARK SMILES IDX 48 88 49 89 57 90 50 91 56 92 51 93 52 94 53 95 54 96 55 97
REMARK H PARENT 16 5 20 34 76 53 46 64
REMARK Flexibility Score: inf
ROOT
ATOM      1  C   UNL A   1      32.786  29.069  25.324  1.00  0.00     0.117 C 
ENDROOT
BRANCH   1   2
ATOM      2  N   UNL A   1      31.961  28.238  26.192  1.00  0.00    -0.354 N 
ATOM      3  C   UNL A   1      31.465  26.982  26.011  1.00  0.00     0.242 C 
ATOM      4  O   UNL A   1      30.647  26.567  26.840  1.00  0.00    -0.273 OA
ATOM      5  H   UNL A   1      31.724  28.655  27.052  1.00  0.00     0.163 HD
BRANCH   3   6
ATOM      6  C   UNL A   1      31.762  26.139  24.742  1.00  0.00     0.174 C 
ATOM      7  N   UNL A   1      33.195  25.850  24.476  1.00  0.00    -0.327 N 
ATOM      8  C   UNL A   1      33.597  25.550  23.105  1.00  0.00     0.120 C 
ATOM      9  C   UNL A   1      32.945  26.425  22.054  1.00  0.00     0.022 C 
ATOM     10  C   UNL A   1      31.048  26.866  23.580  1.00  0.00     0.035 C 
ATOM     11  C   UNL A   1      31.437  26.367  22.199  1.00  0.00     0.004 C 
BRANCH   7  12
ATOM     12  C   UNL A   1      34.108  25.396  25.441  1.00  0.00     0.254 C 
ATOM     13  O   UNL A   1      34.628  26.141  26.273  1.00  0.00    -0.269 OA
BRANCH  12  14
ATOM     14  C   UNL A   1      34.562  23.994  25.464  1.00  0.00     0.041 A 
ATOM     15  C   UNL A   1      36.226  20.068  24.852  1.00  0.00     0.046 C 
ATOM     16  C   UNL A   1      35.495  21.353  25.077  1.00  0.00    -0.031 A 
ATOM     17  C   UNL A   1      36.356  22.408  25.486  1.00  0.00     0.005 A 
ATOM     18  C   UNL A   1      34.127  21.640  24.911  1.00  0.00     0.086 A 
ATOM     19  C   UNL A   1      35.904  23.712  25.671  1.00  0.00     0.014 A 
ATOM     20  C   UNL A   1      33.690  22.975  25.082  1.00  0.00     0.035 A 
BRANCH  18  21
ATOM     21  S   UNL A   1      32.740  20.582  24.474  1.00  0.00     0.243 S 
ATOM     22  O   UNL A   1      31.723  20.825  25.477  1.00  0.00    -0.207 OA
ATOM     23  O   UNL A   1      32.464  20.880  23.079  1.00  0.00    -0.207 OA
BRANCH  21  24
ATOM     24  N   UNL A   1      33.120  18.937  24.537  1.00  0.00    -0.198 NA
ATOM     25  C   UNL A   1      32.740  18.219  25.768  1.00  0.00     0.102 C 
ATOM     26  C   UNL A   1      33.305  18.245  23.243  1.00  0.00     0.102 C 
ATOM     27  C   UNL A   1      33.203  16.772  25.794  1.00  0.00     0.017 C 
ATOM     28  C   UNL A   1      33.687  16.778  23.375  1.00  0.00     0.017 C 
ATOM     29  C   UNL A   1      32.929  16.064  24.481  1.00  0.00     0.003 C 
ENDBRANCH  21  24
ENDBRANCH  18  21
ENDBRANCH  12  14
ENDBRANCH   7  12
ENDBRANCH   3   6
ENDBRANCH   1   2
BRANCH   1  30
ATOM     30  C   UNL A   1      34.176  29.286  25.908  1.00  0.00     0.042 C 
BRANCH  30  31
ATOM     31  C   UNL A   1      34.161  29.428  27.422  1.00  0.00     0.118 C 
BRANCH  31  32
ATOM     32  N   UNL A   1      34.733  30.692  27.874  1.00  0.00    -0.352 N 
ATOM     33  C   UNL A   1      35.995  30.900  28.403  1.00  0.00     0.251 C 
ATOM     34  H   UNL A   1      34.157  31.486  27.792  1.00  0.00     0.163 HD
ATOM     35  O   UNL A   1      36.363  31.967  28.852  1.00  0.00    -0.269 OA
BRANCH  33  36
ATOM     36  C   UNL A   1      36.916  29.750  28.328  1.00  0.00     0.039 A 
ATOM     37  C   UNL A   1      37.154  29.043  29.510  1.00  0.00     0.014 A 
ATOM     38  C   UNL A   1      37.748  29.627  27.218  1.00  0.00     0.014 A 
ATOM     39  C   UNL A   1      38.339  28.326  29.639  1.00  0.00     0.010 A 
ATOM     40  C   UNL A   1      38.961  28.987  27.381  1.00  0.00     0.010 A 
ATOM     41  C   UNL A   1      39.276  28.381  28.605  1.00  0.00    -0.014 A 
BRANCH  41  42
ATOM     42  C   UNL A   1      40.633  27.863  28.739  1.00  0.00     0.031 A 
ATOM     43  C   UNL A   1      40.895  26.449  28.369  1.00  0.00     0.074 A 
ATOM     44  C   UNL A   1      41.640  28.657  29.176  1.00  0.00     0.049 A 
ATOM     45  N   UNL A   1      41.863  25.734  28.839  1.00  0.00    -0.248 NA
ATOM     46  C   UNL A   1      40.028  25.703  27.458  1.00  0.00     0.031 C 
ATOM     47  C   UNL A   1      43.065  28.325  29.169  1.00  0.00     0.029 A 
ATOM     48  N   UNL A   1      41.598  29.858  29.892  1.00  0.00    -0.354 N 
ATOM     49  C   UNL A   1      41.921  24.571  28.100  1.00  0.00     0.074 A 
ATOM     50  C   UNL A   1      40.710  24.563  27.315  1.00  0.00     0.031 C 
ATOM     51  C   UNL A   1      43.684  29.079  30.093  1.00  0.00     0.029 A 
ATOM     52  C   UNL A   1      42.646  29.784  30.823  1.00  0.00     0.049 A 
ATOM     53  H   UNL A   1      40.963  30.601  29.768  1.00  0.00     0.167 HD
ATOM     54  C   UNL A   1      43.053  23.810  28.126  1.00  0.00     0.031 A 
ATOM     55  C   UNL A   1      42.486  29.736  32.181  1.00  0.00     0.031 A 
ATOM     56  C   UNL A   1      44.029  24.333  29.078  1.00  0.00     0.049 A 
ATOM     57  C   UNL A   1      43.135  28.517  32.821  1.00  0.00     0.074 A 
ATOM     58  C   UNL A   1      45.155  25.127  28.933  1.00  0.00     0.029 A 
ATOM     59  N   UNL A   1      43.734  24.308  30.435  1.00  0.00    -0.354 N 
ATOM     60  N   UNL A   1      43.501  27.456  32.155  1.00  0.00    -0.248 NA
ATOM     61  C   UNL A   1      43.384  28.373  34.256  1.00  0.00     0.031 C 
ATOM     62  C   UNL A   1      45.483  25.655  30.210  1.00  0.00     0.029 A 
ATOM     63  C   UNL A   1      44.581  25.152  31.129  1.00  0.00     0.049 A 
ATOM     64  H   UNL A   1      43.022  23.765  30.846  1.00  0.00     0.167 HD
ATOM     65  C   UNL A   1      44.011  26.515  33.013  1.00  0.00     0.074 A 
ATOM     66  C   UNL A   1      43.930  27.143  34.318  1.00  0.00     0.031 C 
ATOM     67  C   UNL A   1      44.446  25.297  32.574  1.00  0.00     0.031 A 
BRANCH  54  68
ATOM     68  C   UNL A   1      43.385  22.774  27.071  1.00  0.00    -0.014 A 
ATOM     69  C   UNL A   1      42.617  21.592  26.991  1.00  0.00     0.010 A 
ATOM     70  C   UNL A   1      44.470  22.866  26.181  1.00  0.00     0.010 A 
ATOM     71  C   UNL A   1      42.980  20.523  26.157  1.00  0.00     0.020 A 
ATOM     72  C   UNL A   1      44.870  21.791  25.371  1.00  0.00     0.020 A 
ATOM     73  C   UNL A   1      44.128  20.616  25.375  1.00  0.00     0.054 A 
BRANCH  73  74
ATOM     74  S   UNL A   1      44.640  19.192  24.379  1.00  0.00     0.124 S 
ATOM     75  O   UNL A   1      43.771  18.128  24.877  1.00  0.00    -0.237 OA
ATOM     76  O   UNL A   1      44.367  19.645  23.019  1.00  0.00    -0.237 OA
ATOM     77  O   UNL A   1      46.056  19.031  24.708  1.00  0.00    -0.744 OA
ENDBRANCH  73  74
ENDBRANCH  54  68
BRANCH  55  78
ATOM     78  C   UNL A   1      41.262  30.410  32.694  1.00  0.00    -0.014 A 
ATOM     79  C   UNL A   1      40.141  29.604  32.988  1.00  0.00     0.010 A 
ATOM     80  C   UNL A   1      41.324  31.707  33.228  1.00  0.00     0.010 A 
ATOM     81  C   UNL A   1      39.191  30.020  33.923  1.00  0.00     0.020 A 
ATOM     82  C   UNL A   1      40.367  32.131  34.161  1.00  0.00     0.020 A 
ATOM     83  C   UNL A   1      39.342  31.261  34.545  1.00  0.00     0.054 A 
BRANCH  83  84
ATOM     84  S   UNL A   1      38.300  31.619  35.991  1.00  0.00     0.124 S 
ATOM     85  O   UNL A   1      37.105  32.186  35.376  1.00  0.00    -0.237 OA
ATOM     86  O   UNL A   1      38.135  30.290  36.580  1.00  0.00    -0.237 OA
ATOM     87  O   UNL A   1      39.114  32.545  36.771  1.00  0.00    -0.744 OA
ENDBRANCH  83  84
ENDBRANCH  55  78
BRANCH  67  88
ATOM     88  C   UNL A   1      44.853  24.123  33.437  1.00  0.00    -0.014 A 
ATOM     89  C   UNL A   1      44.028  23.025  33.721  1.00  0.00     0.010 A 
ATOM     90  C   UNL A   1      46.196  24.046  33.884  1.00  0.00     0.010 A 
ATOM     91  C   UNL A   1      44.504  21.927  34.456  1.00  0.00     0.020 A 
ATOM     92  C   UNL A   1      46.692  22.939  34.577  1.00  0.00     0.020 A 
ATOM     93  C   UNL A   1      45.833  21.891  34.880  1.00  0.00     0.054 A 
BRANCH  93  94
ATOM     94  S   UNL A   1      46.462  20.436  35.755  1.00  0.00     0.124 S 
ATOM     95  O   UNL A   1      47.791  20.283  35.168  1.00  0.00    -0.237 OA
ATOM     96  O   UNL A   1      46.441  20.860  37.154  1.00  0.00    -0.237 OA
ATOM     97  O   UNL A   1      45.501  19.390  35.415  1.00  0.00    -0.744 OA
ENDBRANCH  93  94
ENDBRANCH  67  88
ENDBRANCH  41  42
ENDBRANCH  33  36
ENDBRANCH  31  32
ENDBRANCH  30  31
ENDBRANCH   1  30
TORSDOF 17
ENDMDL
MODEL 2
REMARK VINA RESULT:     -13.6      1.321      2.070
REMARK SMILES Cc1ccc(C(=O)N2CCCC[C@@H]2C(=O)NCCCNC(=O)c2ccc(-c3c4nc(c(-c5ccc(S(=O)(=O)[O-])cc5)c5ccc([nH]5)c(-c5ccc(S(=O)(=O)[O-])cc5)c5nc(c(-c6ccc(S(=O)(=O)[O-])cc6)c6ccc3[nH]6)C=C5)C=C4)cc2)cc1S(=O)(=O)N1CCCCC1
REMARK SMILES IDX 17 1 16 2 14 3 15 4 13 6 8 7 9 8 10 9 12 10 11 11 6 12 7 13
REMARK SMILES IDX 5 14 1 15 2 16 3 17 84 18 4 19 83 20 85 21 86 22 87 23 88 24
REMARK SMILES IDX 89 25 93 26 90 27 92 28 91 29 18 30 19 31 20 32 21 33 22 35
REMARK SMILES IDX 23 36 24 37 82 38 25 39 81 40 26 41 27 42 28 43 75 44 29 45
REMARK SMILES IDX 80 46 74 47 76 48 30 49 79 50 73 51 72 52 31 54 61 55 42 56
REMARK SMILES IDX 60 57 43 58 46 59 59 60 77 61 44 62 45 63 58 65 78 66 47 67
REMARK SMILES IDX 32 68 33 69 41 70 34 71 40 72 35 73 36 74 37 75 38 76 39 77
REMARK SMILES IDX 62 78 63 79 71 80 64 81 70 82 65 83 66 84 67 85 68 86 69 87
REMARK SMILES IDX 48 88 49 89 57 90 50 91 56 92 51 93 52 94 53 95 54 96 55 97
REMARK H PARENT 16 5 20 34 76 53 46 64
REMARK Flexibility Score: inf
ROOT
ATOM      1  C   UNL A   1      32.260  29.277  26.291  1.00  0.00     0.117 C 
ENDROOT
BRANCH   1   2
ATOM      2  N   UNL A   1      31.754  27.978  26.716  1.00  0.00    -0.354 N 
ATOM      3  C   UNL A   1      31.102  27.005  26.020  1.00  0.00     0.242 C 
ATOM      4  O   UNL A   1      30.629  26.061  26.663  1.00  0.00    -0.273 OA
ATOM      5  H   UNL A   1      31.909  27.769  27.666  1.00  0.00     0.163 HD
BRANCH   3   6
ATOM      6  C   UNL A   1      30.801  27.122  24.501  1.00  0.00     0.174 C 
ATOM      7  N   UNL A   1      31.980  27.322  23.619  1.00  0.00    -0.327 N 
ATOM      8  C   UNL A   1      31.772  27.950  22.318  1.00  0.00     0.120 C 
ATOM      9  C   UNL A   1      30.815  29.124  22.333  1.00  0.00     0.022 C 
ATOM     10  C   UNL A   1      29.732  28.230  24.370  1.00  0.00     0.035 C 
ATOM     11  C   UNL A   1      29.494  28.703  22.946  1.00  0.00     0.004 C 
BRANCH   7  12
ATOM     12  C   UNL A   1      33.171  26.583  23.702  1.00  0.00     0.254 C 
ATOM     13  O   UNL A   1      34.278  27.110  23.822  1.00  0.00    -0.269 OA
BRANCH  12  14
ATOM     14  C   UNL A   1      33.171  25.115  23.571  1.00  0.00     0.041 A 
ATOM     15  C   UNL A   1      32.409  20.882  23.343  1.00  0.00     0.046 C 
ATOM     16  C   UNL A   1      32.791  22.313  23.542  1.00  0.00    -0.031 A 
ATOM     17  C   UNL A   1      32.380  23.144  22.464  1.00  0.00     0.005 A 
ATOM     18  C   UNL A   1      33.451  22.916  24.630  1.00  0.00     0.086 A 
ATOM     19  C   UNL A   1      32.559  24.525  22.476  1.00  0.00     0.014 A 
ATOM     20  C   UNL A   1      33.602  24.322  24.634  1.00  0.00     0.035 A 
BRANCH  18  21
ATOM     21  S   UNL A   1      34.163  22.208  26.122  1.00  0.00     0.243 S 
ATOM     22  O   UNL A   1      34.333  23.313  27.044  1.00  0.00    -0.207 OA
ATOM     23  O   UNL A   1      33.286  21.105  26.471  1.00  0.00    -0.207 OA
BRANCH  21  24
ATOM     24  N   UNL A   1      35.691  21.532  25.867  1.00  0.00    -0.198 NA
ATOM     25  C   UNL A   1      35.731  20.248  25.142  1.00  0.00     0.102 C 
ATOM     26  C   UNL A   1      36.843  22.458  25.901  1.00  0.00     0.102 C 
ATOM     27  C   UNL A   1      37.125  19.653  25.039  1.00  0.00     0.017 C 
ATOM     28  C   UNL A   1      38.190  21.776  25.705  1.00  0.00     0.017 C 
ATOM     29  C   UNL A   1      38.159  20.691  24.644  1.00  0.00     0.003 C 
ENDBRANCH  21  24
ENDBRANCH  18  21
ENDBRANCH  12  14
ENDBRANCH   7  12
ENDBRANCH   3   6
ENDBRANCH   1   2
BRANCH   1  30
ATOM     30  C   UNL A   1      33.776  29.359  26.420  1.00  0.00     0.042 C 
BRANCH  30  31
ATOM     31  C   UNL A   1      34.245  29.326  27.866  1.00  0.00     0.118 C 
BRANCH  31  32
ATOM     32  N   UNL A   1      34.812  30.599  28.301  1.00  0.00    -0.352 N 
ATOM     33  C   UNL A   1      36.099  30.832  28.755  1.00  0.00     0.251 C 
ATOM     34  H   UNL A   1      34.212  31.378  28.268  1.00  0.00     0.163 HD
ATOM     35  O   UNL A   1      36.466  31.901  29.197  1.00  0.00    -0.269 OA
BRANCH  33  36
ATOM     36  C   UNL A   1      37.042  29.708  28.604  1.00  0.00     0.039 A 
ATOM     37  C   UNL A   1      37.298  28.931  29.737  1.00  0.00     0.014 A 
ATOM     38  C   UNL A   1      37.873  29.674  27.487  1.00  0.00     0.014 A 
ATOM     39  C   UNL A   1      38.497  28.232  29.818  1.00  0.00     0.010 A 
ATOM     40  C   UNL A   1      39.100  29.049  27.606  1.00  0.00     0.010 A 
ATOM     41  C   UNL A   1      39.430  28.372  28.789  1.00  0.00    -0.014 A 
BRANCH  41  42
ATOM     42  C   UNL A   1      40.797  27.873  28.887  1.00  0.00     0.031 A 
ATOM     43  C   UNL A   1      41.076  26.474  28.477  1.00  0.00     0.074 A 
ATOM     44  C   UNL A   1      41.799  28.673  29.326  1.00  0.00     0.049 A 
ATOM     45  N   UNL A   1      42.064  25.764  28.913  1.00  0.00    -0.248 NA
ATOM     46  C   UNL A   1      40.206  25.736  27.563  1.00  0.00     0.031 C 
ATOM     47  C   UNL A   1      43.229  28.366  29.287  1.00  0.00     0.029 A 
ATOM     48  N   UNL A   1      41.749  29.855  30.072  1.00  0.00    -0.354 N 
ATOM     49  C   UNL A   1      42.128  24.621  28.144  1.00  0.00     0.074 A 
ATOM     50  C   UNL A   1      40.904  24.611  27.380  1.00  0.00     0.031 C 
ATOM     51  C   UNL A   1      43.851  29.107  30.218  1.00  0.00     0.029 A 
ATOM     52  C   UNL A   1      42.814  29.777  30.983  1.00  0.00     0.049 A 
ATOM     53  H   UNL A   1      41.100  30.591  29.977  1.00  0.00     0.167 HD
ATOM     54  C   UNL A   1      43.273  23.878  28.132  1.00  0.00     0.031 A 
ATOM     55  C   UNL A   1      42.679  29.693  32.342  1.00  0.00     0.031 A 
ATOM     56  C   UNL A   1      44.256  24.395  29.081  1.00  0.00     0.049 A 
ATOM     57  C   UNL A   1      43.359  28.469  32.941  1.00  0.00     0.074 A 
ATOM     58  C   UNL A   1      45.366  25.211  28.936  1.00  0.00     0.029 A 
ATOM     59  N   UNL A   1      43.985  24.331  30.441  1.00  0.00    -0.354 N 
ATOM     60  N   UNL A   1      43.730  27.431  32.243  1.00  0.00    -0.248 NA
ATOM     61  C   UNL A   1      43.634  28.295  34.367  1.00  0.00     0.031 C 
ATOM     62  C   UNL A   1      45.708  25.713  30.220  1.00  0.00     0.029 A 
ATOM     63  C   UNL A   1      44.830  25.172  31.142  1.00  0.00     0.049 A 
ATOM     64  H   UNL A   1      43.290  23.766  30.850  1.00  0.00     0.167 HD
ATOM     65  C   UNL A   1      44.270  26.479  33.068  1.00  0.00     0.074 A 
ATOM     66  C   UNL A   1      44.202  27.073  34.390  1.00  0.00     0.031 C 
ATOM     67  C   UNL A   1      44.718  25.279  32.592  1.00  0.00     0.031 A 
BRANCH  54  68
ATOM     68  C   UNL A   1      43.603  22.874  27.047  1.00  0.00    -0.014 A 
ATOM     69  C   UNL A   1      42.837  21.695  26.934  1.00  0.00     0.010 A 
ATOM     70  C   UNL A   1      44.687  22.994  26.157  1.00  0.00     0.010 A 
ATOM     71  C   UNL A   1      43.199  20.651  26.067  1.00  0.00     0.020 A 
ATOM     72  C   UNL A   1      45.085  21.943  25.315  1.00  0.00     0.020 A 
ATOM     73  C   UNL A   1      44.345  20.768  25.285  1.00  0.00     0.054 A 
BRANCH  73  74
ATOM     74  S   UNL A   1      44.857  19.375  24.247  1.00  0.00     0.124 S 
ATOM     75  O   UNL A   1      44.095  18.263  24.811  1.00  0.00    -0.237 OA
ATOM     76  O   UNL A   1      44.448  19.808  22.915  1.00  0.00    -0.237 OA
ATOM     77  O   UNL A   1      46.302  19.298  24.459  1.00  0.00    -0.744 OA
ENDBRANCH  73  74
ENDBRANCH  54  68
BRANCH  55  78
ATOM     78  C   UNL A   1      41.452  30.333  32.893  1.00  0.00    -0.014 A 
ATOM     79  C   UNL A   1      40.353  29.500  33.194  1.00  0.00     0.010 A 
ATOM     80  C   UNL A   1      41.501  31.621  33.450  1.00  0.00     0.010 A 
ATOM     81  C   UNL A   1      39.415  29.881  34.155  1.00  0.00     0.020 A 
ATOM     82  C   UNL A   1      40.555  32.010  34.409  1.00  0.00     0.020 A 
ATOM     83  C   UNL A   1      39.555  31.112  34.797  1.00  0.00     0.054 A 
BRANCH  83  84
ATOM     84  S   UNL A   1      38.536  31.423  36.271  1.00  0.00     0.124 S 
ATOM     85  O   UNL A   1      37.463  32.252  35.733  1.00  0.00    -0.237 OA
ATOM     86  O   UNL A   1      38.151  30.068  36.662  1.00  0.00    -0.237 OA
ATOM     87  O   UNL A   1      39.459  32.091  37.182  1.00  0.00    -0.744 OA
ENDBRANCH  83  84
ENDBRANCH  55  78
BRANCH  67  88
ATOM     88  C   UNL A   1      45.159  24.092  33.418  1.00  0.00    -0.014 A 
ATOM     89  C   UNL A   1      46.398  23.995  34.067  1.00  0.00     0.010 A 
ATOM     90  C   UNL A   1      44.220  23.061  33.677  1.00  0.00     0.010 A 
ATOM     91  C   UNL A   1      46.705  22.902  34.894  1.00  0.00     0.020 A 
ATOM     92  C   UNL A   1      44.498  21.992  34.533  1.00  0.00     0.020 A 
ATOM     93  C   UNL A   1      45.753  21.907  35.121  1.00  0.00     0.054 A 
BRANCH  93  94
ATOM     94  S   UNL A   1      46.126  20.543  36.253  1.00  0.00     0.124 S 
ATOM     95  O   UNL A   1      47.561  20.368  36.050  1.00  0.00    -0.237 OA
ATOM     96  O   UNL A   1      45.739  21.083  37.556  1.00  0.00    -0.237 OA
ATOM     97  O   UNL A   1      45.284  19.454  35.765  1.00  0.00    -0.744 OA
ENDBRANCH  93  94
ENDBRANCH  67  88
ENDBRANCH  41  42
ENDBRANCH  33  36
ENDBRANCH  31  32
ENDBRANCH  30  31
ENDBRANCH   1  30
TORSDOF 17
ENDMDL
MODEL 3
REMARK VINA RESULT:     -11.3      4.763     11.398
REMARK SMILES Cc1ccc(C(=O)N2CCCC[C@@H]2C(=O)NCCCNC(=O)c2ccc(-c3c4nc(c(-c5ccc(S(=O)(=O)[O-])cc5)c5ccc([nH]5)c(-c5ccc(S(=O)(=O)[O-])cc5)c5nc(c(-c6ccc(S(=O)(=O)[O-])cc6)c6ccc3[nH]6)C=C5)C=C4)cc2)cc1S(=O)(=O)N1CCCCC1
REMARK SMILES IDX 17 1 16 2 14 3 15 4 13 6 8 7 9 8 10 9 12 10 11 11 6 12 7 13
REMARK SMILES IDX 5 14 1 15 2 16 3 17 84 18 4 19 83 20 85 21 86 22 87 23 88 24
REMARK SMILES IDX 89 25 93 26 90 27 92 28 91 29 18 30 19 31 20 32 21 33 22 35
REMARK SMILES IDX 23 36 24 37 82 38 25 39 81 40 26 41 27 42 28 43 75 44 29 45
REMARK SMILES IDX 80 46 74 47 76 48 30 49 79 50 73 51 72 52 31 54 61 55 42 56
REMARK SMILES IDX 60 57 43 58 46 59 59 60 77 61 44 62 45 63 58 65 78 66 47 67
REMARK SMILES IDX 32 68 33 69 41 70 34 71 40 72 35 73 36 74 37 75 38 76 39 77
REMARK SMILES IDX 62 78 63 79 71 80 64 81 70 82 65 83 66 84 67 85 68 86 69 87
REMARK SMILES IDX 48 88 49 89 57 90 50 91 56 92 51 93 52 94 53 95 54 96 55 97
REMARK H PARENT 16 5 20 34 76 53 46 64
REMARK Flexibility Score: inf
ROOT
ATOM      1  C   UNL A   1      39.970  34.103  29.941  1.00  0.00     0.117 C 
ENDROOT
BRANCH   1   2
ATOM      2  N   UNL A   1      40.430  35.215  29.118  1.00  0.00    -0.354 N 
ATOM      3  C   UNL A   1      41.664  35.497  28.615  1.00  0.00     0.242 C 
ATOM      4  O   UNL A   1      41.825  36.602  28.083  1.00  0.00    -0.273 OA
ATOM      5  H   UNL A   1      39.732  35.870  28.888  1.00  0.00     0.163 HD
BRANCH   3   6
ATOM      6  C   UNL A   1      42.888  34.566  28.826  1.00  0.00     0.174 C 
ATOM      7  N   UNL A   1      43.904  35.040  29.801  1.00  0.00    -0.327 N 
ATOM      8  C   UNL A   1      45.269  34.538  29.677  1.00  0.00     0.120 C 
ATOM      9  C   UNL A   1      45.781  34.453  28.254  1.00  0.00     0.022 C 
ATOM     10  C   UNL A   1      43.458  34.295  27.416  1.00  0.00     0.035 C 
ATOM     11  C   UNL A   1      44.824  33.631  27.411  1.00  0.00     0.004 C 
BRANCH   7  12
ATOM     12  C   UNL A   1      43.608  35.554  31.074  1.00  0.00     0.254 C 
ATOM     13  O   UNL A   1      42.686  35.127  31.770  1.00  0.00    -0.269 OA
BRANCH  12  14
ATOM     14  C   UNL A   1      44.349  36.702  31.627  1.00  0.00     0.041 A 
ATOM     15  C   UNL A   1      46.010  40.008  33.832  1.00  0.00     0.046 C 
ATOM     16  C   UNL A   1      45.414  38.970  32.935  1.00  0.00    -0.031 A 
ATOM     17  C   UNL A   1      45.681  37.647  33.378  1.00  0.00     0.005 A 
ATOM     18  C   UNL A   1      44.631  39.138  31.777  1.00  0.00     0.086 A 
ATOM     19  C   UNL A   1      45.154  36.525  32.741  1.00  0.00     0.014 A 
ATOM     20  C   UNL A   1      44.085  37.989  31.158  1.00  0.00     0.035 A 
BRANCH  18  21
ATOM     21  S   UNL A   1      44.136  40.620  30.887  1.00  0.00     0.243 S 
ATOM     22  O   UNL A   1      45.362  41.217  30.397  1.00  0.00    -0.207 OA
ATOM     23  O   UNL A   1      43.124  40.173  29.946  1.00  0.00    -0.207 OA
BRANCH  21  24
ATOM     24  N   UNL A   1      43.385  41.764  31.877  1.00  0.00    -0.198 NA
ATOM     25  C   UNL A   1      42.926  41.294  33.198  1.00  0.00     0.102 C 
ATOM     26  C   UNL A   1      43.694  43.185  31.607  1.00  0.00     0.102 C 
ATOM     27  C   UNL A   1      42.172  42.349  33.989  1.00  0.00     0.017 C 
ATOM     28  C   UNL A   1      42.952  44.162  32.509  1.00  0.00     0.017 C 
ATOM     29  C   UNL A   1      42.871  43.696  33.951  1.00  0.00     0.003 C 
ENDBRANCH  21  24
ENDBRANCH  18  21
ENDBRANCH  12  14
ENDBRANCH   7  12
ENDBRANCH   3   6
ENDBRANCH   1   2
BRANCH   1  30
ATOM     30  C   UNL A   1      38.489  33.818  29.722  1.00  0.00     0.042 C 
BRANCH  30  31
ATOM     31  C   UNL A   1      38.198  32.338  29.530  1.00  0.00     0.118 C 
BRANCH  31  32
ATOM     32  N   UNL A   1      36.786  32.071  29.276  1.00  0.00    -0.352 N 
ATOM     33  C   UNL A   1      36.233  30.920  28.741  1.00  0.00     0.251 C 
ATOM     34  H   UNL A   1      36.156  32.790  29.511  1.00  0.00     0.163 HD
ATOM     35  O   UNL A   1      35.056  30.812  28.464  1.00  0.00    -0.269 OA
BRANCH  33  36
ATOM     36  C   UNL A   1      37.157  29.781  28.587  1.00  0.00     0.039 A 
ATOM     37  C   UNL A   1      37.395  28.993  29.717  1.00  0.00     0.014 A 
ATOM     38  C   UNL A   1      37.990  29.737  27.472  1.00  0.00     0.014 A 
ATOM     39  C   UNL A   1      38.581  28.272  29.798  1.00  0.00     0.010 A 
ATOM     40  C   UNL A   1      39.205  29.089  27.592  1.00  0.00     0.010 A 
ATOM     41  C   UNL A   1      39.520  28.400  28.772  1.00  0.00    -0.014 A 
BRANCH  41  42
ATOM     42  C   UNL A   1      40.878  27.877  28.871  1.00  0.00     0.031 A 
ATOM     43  C   UNL A   1      41.131  26.472  28.462  1.00  0.00     0.074 A 
ATOM     44  C   UNL A   1      41.893  28.658  29.310  1.00  0.00     0.049 A 
ATOM     45  N   UNL A   1      42.105  25.745  28.899  1.00  0.00    -0.248 NA
ATOM     46  C   UNL A   1      40.248  25.750  27.548  1.00  0.00     0.031 C 
ATOM     47  C   UNL A   1      43.317  28.325  29.272  1.00  0.00     0.029 A 
ATOM     48  N   UNL A   1      41.864  29.842  30.056  1.00  0.00    -0.354 N 
ATOM     49  C   UNL A   1      42.149  24.600  28.132  1.00  0.00     0.074 A 
ATOM     50  C   UNL A   1      40.925  24.612  27.366  1.00  0.00     0.031 C 
ATOM     51  C   UNL A   1      43.952  29.055  30.204  1.00  0.00     0.029 A 
ATOM     52  C   UNL A   1      42.927  29.744  30.968  1.00  0.00     0.049 A 
ATOM     53  H   UNL A   1      41.230  30.589  29.960  1.00  0.00     0.167 HD
ATOM     54  C   UNL A   1      43.279  23.836  28.120  1.00  0.00     0.031 A 
ATOM     55  C   UNL A   1      42.790  29.664  32.326  1.00  0.00     0.031 A 
ATOM     56  C   UNL A   1      44.271  24.335  29.069  1.00  0.00     0.049 A 
ATOM     57  C   UNL A   1      43.446  28.428  32.926  1.00  0.00     0.074 A 
ATOM     58  C   UNL A   1      45.396  25.130  28.925  1.00  0.00     0.029 A 
ATOM     59  N   UNL A   1      43.998  24.277  30.430  1.00  0.00    -0.354 N 
ATOM     60  N   UNL A   1      43.800  27.383  32.229  1.00  0.00    -0.248 NA
ATOM     61  C   UNL A   1      43.718  28.249  34.353  1.00  0.00     0.031 C 
ATOM     62  C   UNL A   1      45.747  25.627  30.209  1.00  0.00     0.029 A 
ATOM     63  C   UNL A   1      44.858  25.103  31.130  1.00  0.00     0.049 A 
ATOM     64  H   UNL A   1      43.292  23.726  30.839  1.00  0.00     0.167 HD
ATOM     65  C   UNL A   1      44.321  26.421  33.055  1.00  0.00     0.074 A 
ATOM     66  C   UNL A   1      44.263  27.017  34.377  1.00  0.00     0.031 C 
ATOM     67  C   UNL A   1      44.747  25.212  32.580  1.00  0.00     0.031 A 
BRANCH  54  68
ATOM     68  C   UNL A   1      43.592  22.826  27.036  1.00  0.00    -0.014 A 
ATOM     69  C   UNL A   1      42.880  21.608  26.994  1.00  0.00     0.010 A 
ATOM     70  C   UNL A   1      44.611  22.977  26.078  1.00  0.00     0.010 A 
ATOM     71  C   UNL A   1      43.239  20.564  26.126  1.00  0.00     0.020 A 
ATOM     72  C   UNL A   1      45.009  21.929  25.233  1.00  0.00     0.020 A 
ATOM     73  C   UNL A   1      44.327  20.719  25.272  1.00  0.00     0.054 A 
BRANCH  73  74
ATOM     74  S   UNL A   1      44.843  19.330  24.231  1.00  0.00     0.124 S 
ATOM     75  O   UNL A   1      44.468  19.781  22.893  1.00  0.00    -0.237 OA
ATOM     76  O   UNL A   1      46.276  19.256  24.493  1.00  0.00    -0.237 OA
ATOM     77  O   UNL A   1      44.060  18.205  24.741  1.00  0.00    -0.744 OA
ENDBRANCH  73  74
ENDBRANCH  54  68
BRANCH  55  78
ATOM     78  C   UNL A   1      41.575  30.326  32.876  1.00  0.00    -0.014 A 
ATOM     79  C   UNL A   1      40.429  29.530  33.088  1.00  0.00     0.010 A 
ATOM     80  C   UNL A   1      41.663  31.575  33.514  1.00  0.00     0.010 A 
ATOM     81  C   UNL A   1      39.476  29.895  34.041  1.00  0.00     0.020 A 
ATOM     82  C   UNL A   1      40.702  31.948  34.464  1.00  0.00     0.020 A 
ATOM     83  C   UNL A   1      39.649  31.077  34.762  1.00  0.00     0.054 A 
BRANCH  83  84
ATOM     84  S   UNL A   1      38.594  31.346  36.219  1.00  0.00     0.124 S 
ATOM     85  O   UNL A   1      39.481  32.087  37.108  1.00  0.00    -0.237 OA
ATOM     86  O   UNL A   1      37.486  32.114  35.651  1.00  0.00    -0.237 OA
ATOM     87  O   UNL A   1      38.255  29.992  36.643  1.00  0.00    -0.744 OA
ENDBRANCH  83  84
ENDBRANCH  55  78
BRANCH  67  88
ATOM     88  C   UNL A   1      45.165  24.018  33.408  1.00  0.00    -0.014 A 
ATOM     89  C   UNL A   1      46.442  23.847  33.963  1.00  0.00     0.010 A 
ATOM     90  C   UNL A   1      44.178  23.066  33.771  1.00  0.00     0.010 A 
ATOM     91  C   UNL A   1      46.733  22.756  34.798  1.00  0.00     0.020 A 
ATOM     92  C   UNL A   1      44.445  22.003  34.636  1.00  0.00     0.020 A 
ATOM     93  C   UNL A   1      45.733  21.840  35.129  1.00  0.00     0.054 A 
BRANCH  93  94
ATOM     94  S   UNL A   1      46.095  20.483  36.271  1.00  0.00     0.124 S 
ATOM     95  O   UNL A   1      47.532  20.306  36.083  1.00  0.00    -0.237 OA
ATOM     96  O   UNL A   1      45.697  21.030  37.568  1.00  0.00    -0.237 OA
ATOM     97  O   UNL A   1      45.257  19.391  35.782  1.00  0.00    -0.744 OA
ENDBRANCH  93  94
ENDBRANCH  67  88
ENDBRANCH  41  42
ENDBRANCH  33  36
ENDBRANCH  31  32
ENDBRANCH  30  31
ENDBRANCH   1  30
TORSDOF 17
ENDMDL
