MODEL 1
REMARK VINA RESULT:     -10.7      0.000      0.000
REMARK SMILES COc1nc(-c2ccccc2)nc(C)c1CC(=O)NCCCNC(=O)c1ccc(-c2c3nc(c(-c4ccc(S(=O)(=O)[O-])cc4)c4ccc([nH]4)c(-c4ccc(S(=O)(=O)[O-])cc4)c4nc(c(-c5ccc(S(=O)(=O)[O-])cc5)c5ccc2[nH]5)C=C4)C=C3)cc1
REMARK SMILES IDX 21 1 20 2 19 3 17 4 18 5 16 7 15 8 3 9 4 10 5 11 13 12 12 13
REMARK SMILES IDX 14 14 2 15 1 16 6 17 7 18 11 19 8 20 10 21 9 22 22 23 23 24
REMARK SMILES IDX 24 25 25 27 26 28 27 29 85 30 28 31 84 32 29 33 30 34 31 35
REMARK SMILES IDX 78 36 32 37 83 38 77 39 79 40 33 41 82 42 76 43 75 44 34 46
REMARK SMILES IDX 64 47 45 48 63 49 46 50 49 51 62 52 80 53 47 54 48 55 61 57
REMARK SMILES IDX 81 58 50 59 35 60 36 61 44 62 37 63 43 64 38 65 39 66 40 67
REMARK SMILES IDX 41 68 42 69 65 70 66 71 74 72 67 73 73 74 68 75 69 76 70 77
REMARK SMILES IDX 71 78 72 79 51 80 52 81 60 82 53 83 59 84 54 85 55 86 56 87
REMARK SMILES IDX 57 88 58 89
REMARK H PARENT 19 6 23 26 79 45 49 56
REMARK Flexibility Score: inf
ROOT
ATOM      1  C   UNL A   1      36.116  23.685  24.566  1.00  0.00     0.042 C 
ENDROOT
BRANCH   1   2
ATOM      2  C   UNL A   1      35.058  22.697  24.083  1.00  0.00     0.117 C 
BRANCH   2   3
ATOM      3  N   UNL A   1      34.589  22.976  22.738  1.00  0.00    -0.356 N 
ATOM      4  C   UNL A   1      33.410  23.493  22.297  1.00  0.00     0.224 C 
ATOM      5  O   UNL A   1      33.339  23.773  21.096  1.00  0.00    -0.275 OA
ATOM      6  H   UNL A   1      35.233  22.755  22.027  1.00  0.00     0.163 HD
BRANCH   4   7
ATOM      7  C   UNL A   1      32.246  23.794  23.233  1.00  0.00     0.143 C 
BRANCH   7   8
ATOM      8  C   UNL A   1      32.375  25.056  24.040  1.00  0.00     0.045 A 
ATOM      9  C   UNL A   1      32.732  25.019  25.386  1.00  0.00     0.220 A 
ATOM     10  N   UNL A   1      32.984  26.099  26.149  1.00  0.00    -0.193 NA
ATOM     11  C   UNL A   1      32.803  27.284  25.548  1.00  0.00     0.163 A 
ATOM     12  C   UNL A   1      32.153  26.331  23.541  1.00  0.00     0.049 A 
ATOM     13  N   UNL A   1      32.370  27.434  24.283  1.00  0.00    -0.233 NA
ATOM     14  C   UNL A   1      31.629  26.645  22.171  1.00  0.00     0.067 C 
BRANCH   9  15
ATOM     15  O   UNL A   1      32.544  23.845  26.077  1.00  0.00    -0.481 OA
ATOM     16  C   UNL A   1      31.324  23.816  26.807  1.00  0.00     0.280 C 
ENDBRANCH   9  15
BRANCH  11  17
ATOM     17  C   UNL A   1      33.067  28.528  26.280  1.00  0.00     0.019 A 
ATOM     18  C   UNL A   1      32.091  29.542  26.337  1.00  0.00     0.012 A 
ATOM     19  C   UNL A   1      34.315  28.789  26.869  1.00  0.00     0.012 A 
ATOM     20  C   UNL A   1      32.351  30.772  26.948  1.00  0.00     0.001 A 
ATOM     21  C   UNL A   1      34.584  30.026  27.467  1.00  0.00     0.001 A 
ATOM     22  C   UNL A   1      33.603  31.016  27.505  1.00  0.00     0.000 A 
ENDBRANCH  11  17
ENDBRANCH   7   8
ENDBRANCH   4   7
ENDBRANCH   2   3
ENDBRANCH   1   2
BRANCH   1  23
ATOM     23  C   UNL A   1      36.609  23.436  25.991  1.00  0.00     0.118 C 
BRANCH  23  24
ATOM     24  N   UNL A   1      37.802  22.600  26.036  1.00  0.00    -0.352 N 
ATOM     25  C   UNL A   1      39.096  22.909  26.360  1.00  0.00     0.251 C 
ATOM     26  H   UNL A   1      37.653  21.658  25.795  1.00  0.00     0.163 HD
ATOM     27  O   UNL A   1      39.981  22.079  26.129  1.00  0.00    -0.269 OA
BRANCH  25  28
ATOM     28  C   UNL A   1      39.450  24.208  26.970  1.00  0.00     0.039 A 
ATOM     29  C   UNL A   1      39.067  24.462  28.290  1.00  0.00     0.014 A 
ATOM     30  C   UNL A   1      40.110  25.199  26.237  1.00  0.00     0.014 A 
ATOM     31  C   UNL A   1      39.398  25.679  28.893  1.00  0.00     0.010 A 
ATOM     32  C   UNL A   1      40.504  26.382  26.861  1.00  0.00     0.010 A 
ATOM     33  C   UNL A   1      40.150  26.637  28.194  1.00  0.00    -0.014 A 
BRANCH  33  34
ATOM     34  C   UNL A   1      40.581  27.903  28.843  1.00  0.00     0.031 A 
ATOM     35  C   UNL A   1      41.951  28.013  29.462  1.00  0.00     0.074 A 
ATOM     36  C   UNL A   1      39.714  28.933  28.933  1.00  0.00     0.049 A 
ATOM     37  N   UNL A   1      42.474  29.010  30.130  1.00  0.00    -0.248 NA
ATOM     38  C   UNL A   1      42.841  26.846  29.336  1.00  0.00     0.031 C 
ATOM     39  C   UNL A   1      38.345  28.937  28.410  1.00  0.00     0.029 A 
ATOM     40  N   UNL A   1      39.850  30.172  29.507  1.00  0.00    -0.354 N 
ATOM     41  C   UNL A   1      43.737  28.582  30.525  1.00  0.00     0.074 A 
ATOM     42  C   UNL A   1      43.891  27.224  30.051  1.00  0.00     0.031 C 
ATOM     43  C   UNL A   1      37.778  30.127  28.668  1.00  0.00     0.029 A 
ATOM     44  C   UNL A   1      38.721  30.955  29.411  1.00  0.00     0.049 A 
ATOM     45  H   UNL A   1      40.679  30.475  29.947  1.00  0.00     0.167 HD
ATOM     46  C   UNL A   1      44.688  29.263  31.207  1.00  0.00     0.031 A 
ATOM     47  C   UNL A   1      38.469  32.193  29.880  1.00  0.00     0.031 A 
ATOM     48  C   UNL A   1      44.543  30.625  31.650  1.00  0.00     0.049 A 
ATOM     49  C   UNL A   1      39.547  32.925  30.635  1.00  0.00     0.074 A 
ATOM     50  C   UNL A   1      45.482  31.426  32.278  1.00  0.00     0.029 A 
ATOM     51  N   UNL A   1      43.395  31.387  31.513  1.00  0.00    -0.354 N 
ATOM     52  N   UNL A   1      40.764  32.529  30.923  1.00  0.00    -0.248 NA
ATOM     53  C   UNL A   1      39.220  34.273  31.118  1.00  0.00     0.031 C 
ATOM     54  C   UNL A   1      44.882  32.653  32.575  1.00  0.00     0.029 A 
ATOM     55  C   UNL A   1      43.591  32.639  32.073  1.00  0.00     0.049 A 
ATOM     56  H   UNL A   1      42.562  31.085  31.082  1.00  0.00     0.167 HD
ATOM     57  C   UNL A   1      41.359  33.597  31.590  1.00  0.00     0.074 A 
ATOM     58  C   UNL A   1      40.375  34.656  31.648  1.00  0.00     0.031 C 
ATOM     59  C   UNL A   1      42.607  33.690  32.109  1.00  0.00     0.031 A 
BRANCH  46  60
ATOM     60  C   UNL A   1      45.979  28.556  31.528  1.00  0.00    -0.014 A 
ATOM     61  C   UNL A   1      46.127  27.814  32.712  1.00  0.00     0.010 A 
ATOM     62  C   UNL A   1      47.022  28.554  30.583  1.00  0.00     0.010 A 
ATOM     63  C   UNL A   1      47.301  27.095  32.953  1.00  0.00     0.020 A 
ATOM     64  C   UNL A   1      48.188  27.817  30.809  1.00  0.00     0.020 A 
ATOM     65  C   UNL A   1      48.322  27.096  31.997  1.00  0.00     0.054 A 
BRANCH  65  66
ATOM     66  S   UNL A   1      49.803  26.097  32.307  1.00  0.00     0.124 S 
ATOM     67  O   UNL A   1      49.458  25.424  33.557  1.00  0.00    -0.237 OA
ATOM     68  O   UNL A   1      49.861  25.238  31.127  1.00  0.00    -0.237 OA
ATOM     69  O   UNL A   1      50.875  27.084  32.408  1.00  0.00    -0.744 OA
ENDBRANCH  65  66
ENDBRANCH  46  60
BRANCH  47  70
ATOM     70  C   UNL A   1      37.138  32.826  29.662  1.00  0.00    -0.014 A 
ATOM     71  C   UNL A   1      36.907  33.636  28.535  1.00  0.00     0.010 A 
ATOM     72  C   UNL A   1      36.106  32.655  30.601  1.00  0.00     0.010 A 
ATOM     73  C   UNL A   1      35.686  34.298  28.376  1.00  0.00     0.020 A 
ATOM     74  C   UNL A   1      34.873  33.289  30.429  1.00  0.00     0.020 A 
ATOM     75  C   UNL A   1      34.678  34.126  29.329  1.00  0.00     0.054 A 
BRANCH  75  76
ATOM     76  S   UNL A   1      33.102  34.995  29.106  1.00  0.00     0.124 S 
ATOM     77  O   UNL A   1      33.542  36.302  28.630  1.00  0.00    -0.237 OA
ATOM     78  O   UNL A   1      32.416  34.160  28.123  1.00  0.00    -0.237 OA
ATOM     79  O   UNL A   1      32.513  34.980  30.443  1.00  0.00    -0.744 OA
ENDBRANCH  75  76
ENDBRANCH  47  70
BRANCH  59  80
ATOM     80  C   UNL A   1      43.003  34.998  32.739  1.00  0.00    -0.014 A 
ATOM     81  C   UNL A   1      42.778  35.253  34.103  1.00  0.00     0.010 A 
ATOM     82  C   UNL A   1      43.661  35.968  31.959  1.00  0.00     0.010 A 
ATOM     83  C   UNL A   1      43.175  36.468  34.669  1.00  0.00     0.020 A 
ATOM     84  C   UNL A   1      44.086  37.171  32.528  1.00  0.00     0.020 A 
ATOM     85  C   UNL A   1      43.826  37.420  33.877  1.00  0.00     0.054 A 
BRANCH  85  86
ATOM     86  S   UNL A   1      44.367  38.971  34.644  1.00  0.00     0.124 S 
ATOM     87  O   UNL A   1      44.273  38.656  36.066  1.00  0.00    -0.237 OA
ATOM     88  O   UNL A   1      45.724  39.130  34.124  1.00  0.00    -0.237 OA
ATOM     89  O   UNL A   1      43.402  39.955  34.159  1.00  0.00    -0.744 OA
ENDBRANCH  85  86
ENDBRANCH  59  80
ENDBRANCH  33  34
ENDBRANCH  25  28
ENDBRANCH  23  24
ENDBRANCH   1  23
TORSDOF 16
ENDMDL
MODEL 2
REMARK VINA RESULT:     -10.5      2.592      9.304
REMARK SMILES COc1nc(-c2ccccc2)nc(C)c1CC(=O)NCCCNC(=O)c1ccc(-c2c3nc(c(-c4ccc(S(=O)(=O)[O-])cc4)c4ccc([nH]4)c(-c4ccc(S(=O)(=O)[O-])cc4)c4nc(c(-c5ccc(S(=O)(=O)[O-])cc5)c5ccc2[nH]5)C=C4)C=C3)cc1
REMARK SMILES IDX 21 1 20 2 19 3 17 4 18 5 16 7 15 8 3 9 4 10 5 11 13 12 12 13
REMARK SMILES IDX 14 14 2 15 1 16 6 17 7 18 11 19 8 20 10 21 9 22 22 23 23 24
REMARK SMILES IDX 24 25 25 27 26 28 27 29 85 30 28 31 84 32 29 33 30 34 31 35
REMARK SMILES IDX 78 36 32 37 83 38 77 39 79 40 33 41 82 42 76 43 75 44 34 46
REMARK SMILES IDX 64 47 45 48 63 49 46 50 49 51 62 52 80 53 47 54 48 55 61 57
REMARK SMILES IDX 81 58 50 59 35 60 36 61 44 62 37 63 43 64 38 65 39 66 40 67
REMARK SMILES IDX 41 68 42 69 65 70 66 71 74 72 67 73 73 74 68 75 69 76 70 77
REMARK SMILES IDX 71 78 72 79 51 80 52 81 60 82 53 83 59 84 54 85 55 86 56 87
REMARK SMILES IDX 57 88 58 89
REMARK H PARENT 19 6 23 26 79 45 49 56
REMARK Flexibility Score: inf
ROOT
ATOM      1  C   UNL A   1      33.066  27.247  26.424  1.00  0.00     0.042 C 
ENDROOT
BRANCH   1   2
ATOM      2  C   UNL A   1      31.723  27.472  25.736  1.00  0.00     0.117 C 
BRANCH   2   3
ATOM      3  N   UNL A   1      30.656  26.660  26.288  1.00  0.00    -0.356 N 
ATOM      4  C   UNL A   1      30.196  25.431  25.927  1.00  0.00     0.224 C 
ATOM      5  O   UNL A   1      29.371  24.902  26.679  1.00  0.00    -0.275 OA
ATOM      6  H   UNL A   1      30.188  27.065  27.053  1.00  0.00     0.163 HD
BRANCH   4   7
ATOM      7  C   UNL A   1      30.714  24.689  24.701  1.00  0.00     0.143 C 
BRANCH   7   8
ATOM      8  C   UNL A   1      32.116  24.158  24.812  1.00  0.00     0.045 A 
ATOM      9  C   UNL A   1      33.130  24.615  23.973  1.00  0.00     0.220 A 
ATOM     10  N   UNL A   1      34.431  24.284  24.079  1.00  0.00    -0.193 NA
ATOM     11  C   UNL A   1      34.721  23.393  25.038  1.00  0.00     0.163 A 
ATOM     12  C   UNL A   1      32.519  23.193  25.723  1.00  0.00     0.049 A 
ATOM     13  N   UNL A   1      33.807  22.817  25.840  1.00  0.00    -0.233 NA
ATOM     14  C   UNL A   1      31.606  22.439  26.644  1.00  0.00     0.067 C 
BRANCH   9  15
ATOM     15  O   UNL A   1      32.773  25.211  22.786  1.00  0.00    -0.481 OA
ATOM     16  C   UNL A   1      33.371  26.488  22.601  1.00  0.00     0.280 C 
ENDBRANCH   9  15
BRANCH  11  17
ATOM     17  C   UNL A   1      36.110  22.973  25.256  1.00  0.00     0.019 A 
ATOM     18  C   UNL A   1      36.526  21.673  24.906  1.00  0.00     0.012 A 
ATOM     19  C   UNL A   1      37.043  23.808  25.892  1.00  0.00     0.012 A 
ATOM     20  C   UNL A   1      37.817  21.220  25.188  1.00  0.00     0.001 A 
ATOM     21  C   UNL A   1      38.332  23.349  26.191  1.00  0.00     0.001 A 
ATOM     22  C   UNL A   1      38.718  22.057  25.839  1.00  0.00     0.000 A 
ENDBRANCH  11  17
ENDBRANCH   7   8
ENDBRANCH   4   7
ENDBRANCH   2   3
ENDBRANCH   1   2
BRANCH   1  23
ATOM     23  C   UNL A   1      34.117  28.316  26.124  1.00  0.00     0.118 C 
BRANCH  23  24
ATOM     24  N   UNL A   1      33.795  29.606  26.722  1.00  0.00    -0.352 N 
ATOM     25  C   UNL A   1      34.471  30.352  27.650  1.00  0.00     0.251 C 
ATOM     26  H   UNL A   1      32.954  30.007  26.405  1.00  0.00     0.163 HD
ATOM     27  O   UNL A   1      33.901  31.322  28.161  1.00  0.00    -0.269 OA
BRANCH  25  28
ATOM     28  C   UNL A   1      35.853  30.018  28.052  1.00  0.00     0.039 A 
ATOM     29  C   UNL A   1      36.090  29.580  29.359  1.00  0.00     0.014 A 
ATOM     30  C   UNL A   1      36.925  30.181  27.171  1.00  0.00     0.014 A 
ATOM     31  C   UNL A   1      37.386  29.249  29.761  1.00  0.00     0.010 A 
ATOM     32  C   UNL A   1      38.206  29.781  27.549  1.00  0.00     0.010 A 
ATOM     33  C   UNL A   1      38.452  29.314  28.849  1.00  0.00    -0.014 A 
BRANCH  33  34
ATOM     34  C   UNL A   1      39.824  28.889  29.233  1.00  0.00     0.031 A 
ATOM     35  C   UNL A   1      40.749  29.849  29.937  1.00  0.00     0.074 A 
ATOM     36  C   UNL A   1      40.261  27.660  28.888  1.00  0.00     0.049 A 
ATOM     37  N   UNL A   1      41.999  29.681  30.286  1.00  0.00    -0.248 NA
ATOM     38  C   UNL A   1      40.209  31.178  30.272  1.00  0.00     0.031 C 
ATOM     39  C   UNL A   1      39.477  26.652  28.169  1.00  0.00     0.029 A 
ATOM     40  N   UNL A   1      41.475  27.051  29.086  1.00  0.00    -0.354 N 
ATOM     41  C   UNL A   1      42.401  30.884  30.855  1.00  0.00     0.074 A 
ATOM     42  C   UNL A   1      41.274  31.787  30.775  1.00  0.00     0.031 C 
ATOM     43  C   UNL A   1      40.222  25.547  28.007  1.00  0.00     0.029 A 
ATOM     44  C   UNL A   1      41.548  25.778  28.568  1.00  0.00     0.049 A 
ATOM     45  H   UNL A   1      42.225  27.485  29.555  1.00  0.00     0.167 HD
ATOM     46  C   UNL A   1      43.596  31.204  31.406  1.00  0.00     0.031 A 
ATOM     47  C   UNL A   1      42.571  24.901  28.536  1.00  0.00     0.031 A 
ATOM     48  C   UNL A   1      44.705  30.293  31.512  1.00  0.00     0.049 A 
ATOM     49  C   UNL A   1      43.887  25.286  29.158  1.00  0.00     0.074 A 
ATOM     50  C   UNL A   1      45.929  30.501  32.126  1.00  0.00     0.029 A 
ATOM     51  N   UNL A   1      44.730  29.008  30.996  1.00  0.00    -0.354 N 
ATOM     52  N   UNL A   1      44.216  26.401  29.765  1.00  0.00    -0.248 NA
ATOM     53  C   UNL A   1      44.965  24.289  29.100  1.00  0.00     0.031 C 
ATOM     54  C   UNL A   1      46.715  29.362  31.930  1.00  0.00     0.029 A 
ATOM     55  C   UNL A   1      45.958  28.422  31.251  1.00  0.00     0.049 A 
ATOM     56  H   UNL A   1      43.985  28.575  30.518  1.00  0.00     0.167 HD
ATOM     57  C   UNL A   1      45.529  26.224  30.192  1.00  0.00     0.074 A 
ATOM     58  C   UNL A   1      45.926  24.892  29.789  1.00  0.00     0.031 C 
ATOM     59  C   UNL A   1      46.334  27.088  30.857  1.00  0.00     0.031 A 
BRANCH  46  60
ATOM     60  C   UNL A   1      43.783  32.599  31.942  1.00  0.00    -0.014 A 
ATOM     61  C   UNL A   1      43.503  32.906  33.285  1.00  0.00     0.010 A 
ATOM     62  C   UNL A   1      44.341  33.591  31.115  1.00  0.00     0.010 A 
ATOM     63  C   UNL A   1      43.763  34.184  33.788  1.00  0.00     0.020 A 
ATOM     64  C   UNL A   1      44.626  34.864  31.619  1.00  0.00     0.020 A 
ATOM     65  C   UNL A   1      44.328  35.153  32.952  1.00  0.00     0.054 A 
BRANCH  65  66
ATOM     66  S   UNL A   1      44.720  36.780  33.652  1.00  0.00     0.124 S 
ATOM     67  O   UNL A   1      45.926  36.493  34.426  1.00  0.00    -0.237 OA
ATOM     68  O   UNL A   1      44.920  37.601  32.461  1.00  0.00    -0.237 OA
ATOM     69  O   UNL A   1      43.539  37.113  34.443  1.00  0.00    -0.744 OA
ENDBRANCH  65  66
ENDBRANCH  46  60
BRANCH  47  70
ATOM     70  C   UNL A   1      42.404  23.570  27.886  1.00  0.00    -0.014 A 
ATOM     71  C   UNL A   1      41.886  22.481  28.609  1.00  0.00     0.010 A 
ATOM     72  C   UNL A   1      42.800  23.375  26.551  1.00  0.00     0.010 A 
ATOM     73  C   UNL A   1      41.810  21.213  28.025  1.00  0.00     0.020 A 
ATOM     74  C   UNL A   1      42.695  22.117  25.953  1.00  0.00     0.020 A 
ATOM     75  C   UNL A   1      42.222  21.038  26.701  1.00  0.00     0.054 A 
BRANCH  75  76
ATOM     76  S   UNL A   1      42.118  19.386  25.960  1.00  0.00     0.124 S 
ATOM     77  O   UNL A   1      40.688  19.261  25.701  1.00  0.00    -0.237 OA
ATOM     78  O   UNL A   1      42.968  19.514  24.779  1.00  0.00    -0.237 OA
ATOM     79  O   UNL A   1      42.645  18.510  27.005  1.00  0.00    -0.744 OA
ENDBRANCH  75  76
ENDBRANCH  47  70
BRANCH  59  80
ATOM     80  C   UNL A   1      47.707  26.605  31.240  1.00  0.00    -0.014 A 
ATOM     81  C   UNL A   1      47.921  25.860  32.413  1.00  0.00     0.010 A 
ATOM     82  C   UNL A   1      48.792  26.859  30.380  1.00  0.00     0.010 A 
ATOM     83  C   UNL A   1      49.203  25.405  32.736  1.00  0.00     0.020 A 
ATOM     84  C   UNL A   1      50.069  26.379  30.684  1.00  0.00     0.020 A 
ATOM     85  C   UNL A   1      50.269  25.669  31.869  1.00  0.00     0.054 A 
BRANCH  85  86
ATOM     86  S   UNL A   1      51.914  25.032  32.289  1.00  0.00     0.124 S 
ATOM     87  O   UNL A   1      52.722  25.521  31.176  1.00  0.00    -0.237 OA
ATOM     88  O   UNL A   1      52.180  25.659  33.581  1.00  0.00    -0.237 OA
ATOM     89  O   UNL A   1      51.725  23.584  32.333  1.00  0.00    -0.744 OA
ENDBRANCH  85  86
ENDBRANCH  59  80
ENDBRANCH  33  34
ENDBRANCH  25  28
ENDBRANCH  23  24
ENDBRANCH   1  23
TORSDOF 16
ENDMDL
MODEL 3
REMARK VINA RESULT:     -10.5      1.512      2.585
REMARK SMILES COc1nc(-c2ccccc2)nc(C)c1CC(=O)NCCCNC(=O)c1ccc(-c2c3nc(c(-c4ccc(S(=O)(=O)[O-])cc4)c4ccc([nH]4)c(-c4ccc(S(=O)(=O)[O-])cc4)c4nc(c(-c5ccc(S(=O)(=O)[O-])cc5)c5ccc2[nH]5)C=C4)C=C3)cc1
REMARK SMILES IDX 21 1 20 2 19 3 17 4 18 5 16 7 15 8 3 9 4 10 5 11 13 12 12 13
REMARK SMILES IDX 14 14 2 15 1 16 6 17 7 18 11 19 8 20 10 21 9 22 22 23 23 24
REMARK SMILES IDX 24 25 25 27 26 28 27 29 85 30 28 31 84 32 29 33 30 34 31 35
REMARK SMILES IDX 78 36 32 37 83 38 77 39 79 40 33 41 82 42 76 43 75 44 34 46
REMARK SMILES IDX 64 47 45 48 63 49 46 50 49 51 62 52 80 53 47 54 48 55 61 57
REMARK SMILES IDX 81 58 50 59 35 60 36 61 44 62 37 63 43 64 38 65 39 66 40 67
REMARK SMILES IDX 41 68 42 69 65 70 66 71 74 72 67 73 73 74 68 75 69 76 70 77
REMARK SMILES IDX 71 78 72 79 51 80 52 81 60 82 53 83 59 84 54 85 55 86 56 87
REMARK SMILES IDX 57 88 58 89
REMARK H PARENT 19 6 23 26 79 45 49 56
REMARK Flexibility Score: inf
ROOT
ATOM      1  C   UNL A   1      35.209  22.733  25.881  1.00  0.00     0.042 C 
ENDROOT
BRANCH   1   2
ATOM      2  C   UNL A   1      34.084  23.391  25.087  1.00  0.00     0.117 C 
BRANCH   2   3
ATOM      3  N   UNL A   1      32.963  23.796  25.914  1.00  0.00    -0.356 N 
ATOM      4  C   UNL A   1      32.511  25.033  26.254  1.00  0.00     0.224 C 
ATOM      5  O   UNL A   1      31.430  25.087  26.850  1.00  0.00    -0.275 OA
ATOM      6  H   UNL A   1      32.443  23.050  26.291  1.00  0.00     0.163 HD
BRANCH   4   7
ATOM      7  C   UNL A   1      33.243  26.310  25.863  1.00  0.00     0.143 C 
BRANCH   7   8
ATOM      8  C   UNL A   1      32.413  27.339  25.146  1.00  0.00     0.045 A 
ATOM      9  C   UNL A   1      32.028  27.160  23.820  1.00  0.00     0.220 A 
ATOM     10  N   UNL A   1      31.191  27.968  23.141  1.00  0.00    -0.193 NA
ATOM     11  C   UNL A   1      30.770  29.051  23.808  1.00  0.00     0.163 A 
ATOM     12  C   UNL A   1      31.971  28.524  25.716  1.00  0.00     0.049 A 
ATOM     13  N   UNL A   1      31.154  29.370  25.058  1.00  0.00    -0.233 NA
ATOM     14  C   UNL A   1      32.355  29.026  27.077  1.00  0.00     0.067 C 
BRANCH   9  15
ATOM     15  O   UNL A   1      32.750  26.281  23.046  1.00  0.00    -0.481 OA
ATOM     16  C   UNL A   1      32.141  26.016  21.788  1.00  0.00     0.280 C 
ENDBRANCH   9  15
BRANCH  11  17
ATOM     17  C   UNL A   1      29.840  29.991  23.172  1.00  0.00     0.019 A 
ATOM     18  C   UNL A   1      29.238  31.019  23.926  1.00  0.00     0.012 A 
ATOM     19  C   UNL A   1      29.451  29.852  21.830  1.00  0.00     0.012 A 
ATOM     20  C   UNL A   1      28.280  31.868  23.367  1.00  0.00     0.001 A 
ATOM     21  C   UNL A   1      28.479  30.692  21.273  1.00  0.00     0.001 A 
ATOM     22  C   UNL A   1      27.895  31.698  22.041  1.00  0.00     0.000 A 
ENDBRANCH  11  17
ENDBRANCH   7   8
ENDBRANCH   4   7
ENDBRANCH   2   3
ENDBRANCH   1   2
BRANCH   1  23
ATOM     23  C   UNL A   1      36.530  23.502  25.861  1.00  0.00     0.118 C 
BRANCH  23  24
ATOM     24  N   UNL A   1      37.692  22.630  25.976  1.00  0.00    -0.352 N 
ATOM     25  C   UNL A   1      38.979  22.905  26.352  1.00  0.00     0.251 C 
ATOM     26  H   UNL A   1      37.523  21.688  25.747  1.00  0.00     0.163 HD
ATOM     27  O   UNL A   1      39.847  22.042  26.177  1.00  0.00    -0.269 OA
BRANCH  25  28
ATOM     28  C   UNL A   1      39.348  24.204  26.952  1.00  0.00     0.039 A 
ATOM     29  C   UNL A   1      38.958  24.477  28.267  1.00  0.00     0.014 A 
ATOM     30  C   UNL A   1      40.029  25.177  26.216  1.00  0.00     0.014 A 
ATOM     31  C   UNL A   1      39.302  25.694  28.861  1.00  0.00     0.010 A 
ATOM     32  C   UNL A   1      40.436  26.361  26.831  1.00  0.00     0.010 A 
ATOM     33  C   UNL A   1      40.075  26.634  28.159  1.00  0.00    -0.014 A 
BRANCH  33  34
ATOM     34  C   UNL A   1      40.520  27.900  28.799  1.00  0.00     0.031 A 
ATOM     35  C   UNL A   1      41.897  28.005  29.401  1.00  0.00     0.074 A 
ATOM     36  C   UNL A   1      39.659  28.934  28.897  1.00  0.00     0.049 A 
ATOM     37  N   UNL A   1      42.433  29.000  30.061  1.00  0.00    -0.248 NA
ATOM     38  C   UNL A   1      42.780  26.833  29.267  1.00  0.00     0.031 C 
ATOM     39  C   UNL A   1      38.283  28.943  28.391  1.00  0.00     0.029 A 
ATOM     40  N   UNL A   1      39.808  30.174  29.466  1.00  0.00    -0.354 N 
ATOM     41  C   UNL A   1      43.699  28.568  30.441  1.00  0.00     0.074 A 
ATOM     42  C   UNL A   1      43.841  27.208  29.969  1.00  0.00     0.031 C 
ATOM     43  C   UNL A   1      37.726  30.137  28.653  1.00  0.00     0.029 A 
ATOM     44  C   UNL A   1      38.682  30.962  29.382  1.00  0.00     0.049 A 
ATOM     45  H   UNL A   1      40.643  30.474  29.895  1.00  0.00     0.167 HD
ATOM     46  C   UNL A   1      44.661  29.246  31.110  1.00  0.00     0.031 A 
ATOM     47  C   UNL A   1      38.441  32.202  29.851  1.00  0.00     0.031 A 
ATOM     48  C   UNL A   1      44.529  30.609  31.551  1.00  0.00     0.049 A 
ATOM     49  C   UNL A   1      39.532  32.931  30.591  1.00  0.00     0.074 A 
ATOM     50  C   UNL A   1      45.479  31.408  32.166  1.00  0.00     0.029 A 
ATOM     51  N   UNL A   1      43.382  31.377  31.426  1.00  0.00    -0.354 N 
ATOM     52  N   UNL A   1      40.750  32.530  30.865  1.00  0.00    -0.248 NA
ATOM     53  C   UNL A   1      39.217  34.282  31.075  1.00  0.00     0.031 C 
ATOM     54  C   UNL A   1      44.888  32.638  32.466  1.00  0.00     0.029 A 
ATOM     55  C   UNL A   1      43.591  32.629  31.980  1.00  0.00     0.049 A 
ATOM     56  H   UNL A   1      42.543  31.077  31.006  1.00  0.00     0.167 HD
ATOM     57  C   UNL A   1      41.357  33.596  31.522  1.00  0.00     0.074 A 
ATOM     58  C   UNL A   1      40.380  34.661  31.589  1.00  0.00     0.031 C 
ATOM     59  C   UNL A   1      42.613  33.685  32.026  1.00  0.00     0.031 A 
BRANCH  46  60
ATOM     60  C   UNL A   1      45.953  28.534  31.417  1.00  0.00    -0.014 A 
ATOM     61  C   UNL A   1      47.055  28.620  30.549  1.00  0.00     0.010 A 
ATOM     62  C   UNL A   1      46.096  27.853  32.640  1.00  0.00     0.010 A 
ATOM     63  C   UNL A   1      48.272  28.024  30.890  1.00  0.00     0.020 A 
ATOM     64  C   UNL A   1      47.319  27.277  32.997  1.00  0.00     0.020 A 
ATOM     65  C   UNL A   1      48.398  27.361  32.116  1.00  0.00     0.054 A 
BRANCH  65  66
ATOM     66  S   UNL A   1      50.010  26.660  32.562  1.00  0.00     0.124 S 
ATOM     67  O   UNL A   1      50.721  26.702  31.286  1.00  0.00    -0.237 OA
ATOM     68  O   UNL A   1      50.492  27.590  33.580  1.00  0.00    -0.237 OA
ATOM     69  O   UNL A   1      49.685  25.322  33.049  1.00  0.00    -0.744 OA
ENDBRANCH  65  66
ENDBRANCH  46  60
BRANCH  47  70
ATOM     70  C   UNL A   1      37.110  32.841  29.647  1.00  0.00    -0.014 A 
ATOM     71  C   UNL A   1      36.810  33.500  28.441  1.00  0.00     0.010 A 
ATOM     72  C   UNL A   1      36.150  32.829  30.674  1.00  0.00     0.010 A 
ATOM     73  C   UNL A   1      35.595  34.173  28.283  1.00  0.00     0.020 A 
ATOM     74  C   UNL A   1      34.920  33.472  30.508  1.00  0.00     0.020 A 
ATOM     75  C   UNL A   1      34.659  34.160  29.322  1.00  0.00     0.054 A 
BRANCH  75  76
ATOM     76  S   UNL A   1      33.089  35.039  29.101  1.00  0.00     0.124 S 
ATOM     77  O   UNL A   1      32.525  34.995  30.446  1.00  0.00    -0.237 OA
ATOM     78  O   UNL A   1      33.525  36.355  28.639  1.00  0.00    -0.237 OA
ATOM     79  O   UNL A   1      32.388  34.237  28.100  1.00  0.00    -0.744 OA
ENDBRANCH  75  76
ENDBRANCH  47  70
BRANCH  59  80
ATOM     80  C   UNL A   1      43.022  34.993  32.647  1.00  0.00    -0.014 A 
ATOM     81  C   UNL A   1      42.765  35.274  34.000  1.00  0.00     0.010 A 
ATOM     82  C   UNL A   1      43.727  35.934  31.872  1.00  0.00     0.010 A 
ATOM     83  C   UNL A   1      43.174  36.489  34.559  1.00  0.00     0.020 A 
ATOM     84  C   UNL A   1      44.164  37.136  32.436  1.00  0.00     0.020 A 
ATOM     85  C   UNL A   1      43.871  37.411  33.772  1.00  0.00     0.054 A 
BRANCH  85  86
ATOM     86  S   UNL A   1      44.429  38.961  34.531  1.00  0.00     0.124 S 
ATOM     87  O   UNL A   1      45.727  39.162  33.894  1.00  0.00    -0.237 OA
ATOM     88  O   UNL A   1      43.384  39.904  34.139  1.00  0.00    -0.237 OA
ATOM     89  O   UNL A   1      44.477  38.651  35.959  1.00  0.00    -0.744 OA
ENDBRANCH  85  86
ENDBRANCH  59  80
ENDBRANCH  33  34
ENDBRANCH  25  28
ENDBRANCH  23  24
ENDBRANCH   1  23
TORSDOF 16
ENDMDL
