MODEL 1
REMARK VINA RESULT:     -12.3      0.000      0.000
REMARK SMILES O=C(NCCCNC(=O)c1ccc(-c2ccn(C(F)F)c(=O)c2)cc1O)c1ccc(-c2c3nc(c(-c4ccc(S(=O)(=O)[O-])cc4)c4ccc([nH]4)c(-c4ccc(S(=O)(=O)[O-])cc4)c4nc(c(-c5ccc(S(=O)(=O)[O-])cc5)c5ccc2[nH]5)C=C4)C=C3)cc1
REMARK SMILES IDX 4 1 3 2 1 3 2 4 27 6 28 7 86 8 29 9 85 10 30 11 31 12 32 13
REMARK SMILES IDX 79 14 33 15 84 16 78 17 80 18 34 19 83 20 77 21 76 22 35 24
REMARK SMILES IDX 65 25 46 26 64 27 47 28 50 29 63 30 81 31 48 32 49 33 62 35
REMARK SMILES IDX 82 36 51 37 36 38 37 39 45 40 38 41 44 42 39 43 40 44 41 45
REMARK SMILES IDX 42 46 43 47 66 48 67 49 75 50 68 51 74 52 69 53 70 54 71 55
REMARK SMILES IDX 72 56 73 57 52 58 53 59 61 60 54 61 60 62 55 63 56 64 57 65
REMARK SMILES IDX 58 66 59 67 5 68 6 69 7 70 8 71 9 73 10 74 11 75 25 76 12 77
REMARK SMILES IDX 24 78 13 79 26 80 14 82 15 83 23 84 16 85 21 86 17 87 22 88
REMARK SMILES IDX 18 89 19 90 20 91
REMARK H PARENT 3 5 80 23 50 34 7 72 26 81
REMARK Flexibility Score: inf
ROOT
ATOM      1  C   UNL A   1      36.519  23.893  25.672  1.00  0.00     0.118 C 
ENDROOT
BRANCH   1   2
ATOM      2  N   UNL A   1      37.533  22.862  25.838  1.00  0.00    -0.352 N 
ATOM      3  O   UNL A   1      39.576  21.983  26.137  1.00  0.00    -0.269 OA
ATOM      4  C   UNL A   1      38.831  22.954  26.272  1.00  0.00     0.251 C 
ATOM      5  H   UNL A   1      37.240  21.953  25.600  1.00  0.00     0.163 HD
BRANCH   4   6
ATOM      6  C   UNL A   1      39.345  24.197  26.890  1.00  0.00     0.039 A 
ATOM      7  C   UNL A   1      39.083  24.438  28.242  1.00  0.00     0.014 A 
ATOM      8  C   UNL A   1      40.025  25.158  26.137  1.00  0.00     0.014 A 
ATOM      9  C   UNL A   1      39.521  25.623  28.839  1.00  0.00     0.010 A 
ATOM     10  C   UNL A   1      40.549  26.290  26.754  1.00  0.00     0.010 A 
ATOM     11  C   UNL A   1      40.269  26.554  28.101  1.00  0.00    -0.014 A 
BRANCH  11  12
ATOM     12  C   UNL A   1      40.687  27.854  28.686  1.00  0.00     0.031 A 
ATOM     13  C   UNL A   1      42.111  28.034  29.145  1.00  0.00     0.074 A 
ATOM     14  C   UNL A   1      39.796  28.853  28.837  1.00  0.00     0.049 A 
ATOM     15  N   UNL A   1      42.658  29.055  29.749  1.00  0.00    -0.248 NA
ATOM     16  C   UNL A   1      43.038  26.910  28.915  1.00  0.00     0.031 C 
ATOM     17  C   UNL A   1      38.388  28.796  28.442  1.00  0.00     0.029 A 
ATOM     18  N   UNL A   1      39.944  30.114  29.361  1.00  0.00    -0.354 N 
ATOM     19  C   UNL A   1      43.979  28.691  29.985  1.00  0.00     0.074 A 
ATOM     20  C   UNL A   1      44.139  27.335  29.517  1.00  0.00     0.031 C 
ATOM     21  C   UNL A   1      37.811  29.979  28.705  1.00  0.00     0.029 A 
ATOM     22  C   UNL A   1      38.791  30.864  29.330  1.00  0.00     0.049 A 
ATOM     23  H   UNL A   1      40.795  30.450  29.725  1.00  0.00     0.167 HD
ATOM     24  C   UNL A   1      44.979  29.433  30.513  1.00  0.00     0.031 A 
ATOM     25  C   UNL A   1      38.546  32.119  29.760  1.00  0.00     0.031 A 
ATOM     26  C   UNL A   1      44.824  30.798  30.937  1.00  0.00     0.049 A 
ATOM     27  C   UNL A   1      39.668  32.922  30.360  1.00  0.00     0.074 A 
ATOM     28  C   UNL A   1      45.792  31.650  31.438  1.00  0.00     0.029 A 
ATOM     29  N   UNL A   1      43.638  31.516  30.896  1.00  0.00    -0.354 N 
ATOM     30  N   UNL A   1      40.920  32.573  30.541  1.00  0.00    -0.248 NA
ATOM     31  C   UNL A   1      39.355  34.288  30.804  1.00  0.00     0.031 C 
ATOM     32  C   UNL A   1      45.179  32.860  31.761  1.00  0.00     0.029 A 
ATOM     33  C   UNL A   1      43.844  32.791  31.389  1.00  0.00     0.049 A 
ATOM     34  H   UNL A   1      42.778  31.168  30.566  1.00  0.00     0.167 HD
ATOM     35  C   UNL A   1      41.548  33.680  31.102  1.00  0.00     0.074 A 
ATOM     36  C   UNL A   1      40.543  34.717  31.214  1.00  0.00     0.031 C 
ATOM     37  C   UNL A   1      42.838  33.820  31.490  1.00  0.00     0.031 A 
BRANCH  24  38
ATOM     38  C   UNL A   1      46.345  28.810  30.640  1.00  0.00    -0.014 A 
ATOM     39  C   UNL A   1      47.247  28.875  29.563  1.00  0.00     0.010 A 
ATOM     40  C   UNL A   1      46.690  28.054  31.775  1.00  0.00     0.010 A 
ATOM     41  C   UNL A   1      48.448  28.162  29.599  1.00  0.00     0.020 A 
ATOM     42  C   UNL A   1      47.904  27.366  31.829  1.00  0.00     0.020 A 
ATOM     43  C   UNL A   1      48.763  27.401  30.728  1.00  0.00     0.054 A 
BRANCH  43  44
ATOM     44  S   UNL A   1      50.303  26.444  30.737  1.00  0.00     0.124 S 
ATOM     45  O   UNL A   1      49.917  25.247  31.475  1.00  0.00    -0.237 OA
ATOM     46  O   UNL A   1      50.567  26.252  29.312  1.00  0.00    -0.237 OA
ATOM     47  O   UNL A   1      51.249  27.324  31.421  1.00  0.00    -0.744 OA
ENDBRANCH  43  44
ENDBRANCH  24  38
BRANCH  25  48
ATOM     48  C   UNL A   1      37.182  32.693  29.584  1.00  0.00    -0.014 A 
ATOM     49  C   UNL A   1      36.789  33.234  28.345  1.00  0.00     0.010 A 
ATOM     50  C   UNL A   1      36.305  32.790  30.678  1.00  0.00     0.010 A 
ATOM     51  C   UNL A   1      35.575  33.916  28.219  1.00  0.00     0.020 A 
ATOM     52  C   UNL A   1      35.074  33.444  30.549  1.00  0.00     0.020 A 
ATOM     53  C   UNL A   1      34.734  34.031  29.328  1.00  0.00     0.054 A 
BRANCH  53  54
ATOM     54  S   UNL A   1      33.199  34.986  29.162  1.00  0.00     0.124 S 
ATOM     55  O   UNL A   1      32.463  34.198  28.178  1.00  0.00    -0.237 OA
ATOM     56  O   UNL A   1      32.660  34.960  30.519  1.00  0.00    -0.237 OA
ATOM     57  O   UNL A   1      33.656  36.294  28.701  1.00  0.00    -0.744 OA
ENDBRANCH  53  54
ENDBRANCH  25  48
BRANCH  37  58
ATOM     58  C   UNL A   1      43.276  35.136  32.079  1.00  0.00    -0.014 A 
ATOM     59  C   UNL A   1      42.971  35.435  33.420  1.00  0.00     0.010 A 
ATOM     60  C   UNL A   1      43.833  36.137  31.264  1.00  0.00     0.010 A 
ATOM     61  C   UNL A   1      43.166  36.724  33.923  1.00  0.00     0.020 A 
ATOM     62  C   UNL A   1      44.058  37.420  31.772  1.00  0.00     0.020 A 
ATOM     63  C   UNL A   1      43.695  37.711  33.089  1.00  0.00     0.054 A 
BRANCH  63  64
ATOM     64  S   UNL A   1      43.882  39.394  33.740  1.00  0.00     0.124 S 
ATOM     65  O   UNL A   1      42.572  39.977  33.468  1.00  0.00    -0.237 OA
ATOM     66  O   UNL A   1      44.187  39.159  35.151  1.00  0.00    -0.237 OA
ATOM     67  O   UNL A   1      44.987  39.944  32.957  1.00  0.00    -0.744 OA
ENDBRANCH  63  64
ENDBRANCH  37  58
ENDBRANCH  11  12
ENDBRANCH   4   6
ENDBRANCH   1   2
BRANCH   1  68
ATOM     68  C   UNL A   1      35.204  23.341  25.145  1.00  0.00     0.042 C 
BRANCH  68  69
ATOM     69  C   UNL A   1      34.126  23.176  26.205  1.00  0.00     0.118 C 
BRANCH  69  70
ATOM     70  N   UNL A   1      33.248  22.047  25.942  1.00  0.00    -0.352 N 
ATOM     71  C   UNL A   1      31.979  22.050  25.423  1.00  0.00     0.255 C 
ATOM     72  H   UNL A   1      33.614  21.162  26.166  1.00  0.00     0.163 HD
ATOM     73  O   UNL A   1      31.345  20.998  25.339  1.00  0.00    -0.269 OA
BRANCH  71  74
ATOM     74  C   UNL A   1      31.335  23.316  25.024  1.00  0.00     0.081 A 
ATOM     75  C   UNL A   1      31.281  23.607  23.655  1.00  0.00     0.018 A 
ATOM     76  C   UNL A   1      30.817  24.229  25.948  1.00  0.00     0.128 A 
ATOM     77  C   UNL A   1      30.682  24.788  23.210  1.00  0.00     0.010 A 
ATOM     78  C   UNL A   1      30.197  25.394  25.504  1.00  0.00     0.055 A 
ATOM     79  C   UNL A   1      30.131  25.687  24.133  1.00  0.00    -0.014 A 
BRANCH  76  80
ATOM     80  O   UNL A   1      30.920  23.999  27.292  1.00  0.00    -0.507 OA
ATOM     81  H   UNL A   1      30.800  23.133  27.631  1.00  0.00     0.293 HD
ENDBRANCH  76  80
BRANCH  79  82
ATOM     82  C   UNL A   1      29.535  26.971  23.713  1.00  0.00    -0.011 A 
ATOM     83  C   UNL A   1      30.361  28.104  23.338  1.00  0.00     0.027 A 
ATOM     84  C   UNL A   1      28.198  27.114  23.717  1.00  0.00     0.080 A 
ATOM     85  C   UNL A   1      29.809  29.284  23.046  1.00  0.00     0.095 A 
ATOM     86  C   UNL A   1      27.569  28.417  23.364  1.00  0.00     0.255 A 
ATOM     87  N   UNL A   1      28.439  29.451  23.066  1.00  0.00    -0.258 N 
ATOM     88  O   UNL A   1      26.341  28.498  23.368  1.00  0.00    -0.269 OA
BRANCH  87  89
ATOM     89  C   UNL A   1      27.860  30.735  22.768  1.00  0.00     0.451 C 
ATOM     90  F   UNL A   1      27.381  31.331  23.887  1.00  0.00    -0.185 F 
ATOM     91  F   UNL A   1      28.771  31.563  22.204  1.00  0.00    -0.185 F 
ENDBRANCH  87  89
ENDBRANCH  79  82
ENDBRANCH  71  74
ENDBRANCH  69  70
ENDBRANCH  68  69
ENDBRANCH   1  68
TORSDOF 16
ENDMDL
MODEL 2
REMARK VINA RESULT:     -12.2      3.860      9.864
REMARK SMILES O=C(NCCCNC(=O)c1ccc(-c2ccn(C(F)F)c(=O)c2)cc1O)c1ccc(-c2c3nc(c(-c4ccc(S(=O)(=O)[O-])cc4)c4ccc([nH]4)c(-c4ccc(S(=O)(=O)[O-])cc4)c4nc(c(-c5ccc(S(=O)(=O)[O-])cc5)c5ccc2[nH]5)C=C4)C=C3)cc1
REMARK SMILES IDX 4 1 3 2 1 3 2 4 27 6 28 7 86 8 29 9 85 10 30 11 31 12 32 13
REMARK SMILES IDX 79 14 33 15 84 16 78 17 80 18 34 19 83 20 77 21 76 22 35 24
REMARK SMILES IDX 65 25 46 26 64 27 47 28 50 29 63 30 81 31 48 32 49 33 62 35
REMARK SMILES IDX 82 36 51 37 36 38 37 39 45 40 38 41 44 42 39 43 40 44 41 45
REMARK SMILES IDX 42 46 43 47 66 48 67 49 75 50 68 51 74 52 69 53 70 54 71 55
REMARK SMILES IDX 72 56 73 57 52 58 53 59 61 60 54 61 60 62 55 63 56 64 57 65
REMARK SMILES IDX 58 66 59 67 5 68 6 69 7 70 8 71 9 73 10 74 11 75 25 76 12 77
REMARK SMILES IDX 24 78 13 79 26 80 14 82 15 83 23 84 16 85 21 86 17 87 22 88
REMARK SMILES IDX 18 89 19 90 20 91
REMARK H PARENT 3 5 80 23 50 34 7 72 26 81
REMARK Flexibility Score: inf
ROOT
ATOM      1  C   UNL A   1      33.471  28.469  27.112  1.00  0.00     0.118 C 
ENDROOT
BRANCH   1   2
ATOM      2  N   UNL A   1      33.449  29.872  27.501  1.00  0.00    -0.352 N 
ATOM      3  O   UNL A   1      34.078  31.747  28.561  1.00  0.00    -0.269 OA
ATOM      4  C   UNL A   1      34.391  30.630  28.148  1.00  0.00     0.251 C 
ATOM      5  H   UNL A   1      32.624  30.354  27.261  1.00  0.00     0.163 HD
BRANCH   4   6
ATOM      6  C   UNL A   1      35.766  30.125  28.359  1.00  0.00     0.039 A 
ATOM      7  C   UNL A   1      36.116  29.622  29.616  1.00  0.00     0.014 A 
ATOM      8  C   UNL A   1      36.734  30.203  27.354  1.00  0.00     0.014 A 
ATOM      9  C   UNL A   1      37.419  29.179  29.854  1.00  0.00     0.010 A 
ATOM     10  C   UNL A   1      38.002  29.668  27.559  1.00  0.00     0.010 A 
ATOM     11  C   UNL A   1      38.371  29.188  28.822  1.00  0.00    -0.014 A 
BRANCH  11  12
ATOM     12  C   UNL A   1      39.781  28.791  29.062  1.00  0.00     0.031 A 
ATOM     13  C   UNL A   1      40.725  29.771  29.712  1.00  0.00     0.074 A 
ATOM     14  C   UNL A   1      40.226  27.579  28.675  1.00  0.00     0.049 A 
ATOM     15  N   UNL A   1      42.007  29.652  29.939  1.00  0.00    -0.248 NA
ATOM     16  C   UNL A   1      40.160  31.063  30.141  1.00  0.00     0.031 C 
ATOM     17  C   UNL A   1      39.413  26.549  28.027  1.00  0.00     0.029 A 
ATOM     18  N   UNL A   1      41.471  27.008  28.771  1.00  0.00    -0.354 N 
ATOM     19  C   UNL A   1      42.400  30.853  30.518  1.00  0.00     0.074 A 
ATOM     20  C   UNL A   1      41.239  31.712  30.552  1.00  0.00     0.031 C 
ATOM     21  C   UNL A   1      40.169  25.461  27.817  1.00  0.00     0.029 A 
ATOM     22  C   UNL A   1      41.533  25.729  28.269  1.00  0.00     0.049 A 
ATOM     23  H   UNL A   1      42.247  27.471  29.163  1.00  0.00     0.167 HD
ATOM     24  C   UNL A   1      43.612  31.198  31.010  1.00  0.00     0.031 A 
ATOM     25  C   UNL A   1      42.568  24.868  28.178  1.00  0.00     0.031 A 
ATOM     26  C   UNL A   1      44.752  30.321  31.013  1.00  0.00     0.049 A 
ATOM     27  C   UNL A   1      43.912  25.277  28.716  1.00  0.00     0.074 A 
ATOM     28  C   UNL A   1      46.009  30.563  31.536  1.00  0.00     0.029 A 
ATOM     29  N   UNL A   1      44.773  29.039  30.488  1.00  0.00    -0.354 N 
ATOM     30  N   UNL A   1      44.255  26.405  29.294  1.00  0.00    -0.248 NA
ATOM     31  C   UNL A   1      45.006  24.303  28.603  1.00  0.00     0.031 C 
ATOM     32  C   UNL A   1      46.809  29.452  31.268  1.00  0.00     0.029 A 
ATOM     33  C   UNL A   1      46.030  28.486  30.649  1.00  0.00     0.049 A 
ATOM     34  H   UNL A   1      44.007  28.589  30.063  1.00  0.00     0.167 HD
ATOM     35  C   UNL A   1      45.599  26.268  29.630  1.00  0.00     0.074 A 
ATOM     36  C   UNL A   1      46.001  24.942  29.207  1.00  0.00     0.031 C 
ATOM     37  C   UNL A   1      46.420  27.162  30.230  1.00  0.00     0.031 A 
BRANCH  24  38
ATOM     38  C   UNL A   1      43.777  32.566  31.619  1.00  0.00    -0.014 A 
ATOM     39  C   UNL A   1      43.522  32.758  32.990  1.00  0.00     0.010 A 
ATOM     40  C   UNL A   1      44.060  33.684  30.814  1.00  0.00     0.010 A 
ATOM     41  C   UNL A   1      43.506  34.044  33.535  1.00  0.00     0.020 A 
ATOM     42  C   UNL A   1      44.078  34.969  31.362  1.00  0.00     0.020 A 
ATOM     43  C   UNL A   1      43.772  35.143  32.714  1.00  0.00     0.054 A 
BRANCH  43  44
ATOM     44  S   UNL A   1      43.698  36.807  33.429  1.00  0.00     0.124 S 
ATOM     45  O   UNL A   1      44.914  36.850  34.235  1.00  0.00    -0.237 OA
ATOM     46  O   UNL A   1      43.693  37.663  32.244  1.00  0.00    -0.237 OA
ATOM     47  O   UNL A   1      42.446  36.801  34.184  1.00  0.00    -0.744 OA
ENDBRANCH  43  44
ENDBRANCH  24  38
BRANCH  25  48
ATOM     48  C   UNL A   1      42.339  23.518  27.591  1.00  0.00    -0.014 A 
ATOM     49  C   UNL A   1      41.961  22.437  28.409  1.00  0.00     0.010 A 
ATOM     50  C   UNL A   1      42.593  23.284  26.228  1.00  0.00     0.010 A 
ATOM     51  C   UNL A   1      41.902  21.140  27.892  1.00  0.00     0.020 A 
ATOM     52  C   UNL A   1      42.505  21.991  25.699  1.00  0.00     0.020 A 
ATOM     53  C   UNL A   1      42.192  20.923  26.544  1.00  0.00     0.054 A 
BRANCH  53  54
ATOM     54  S   UNL A   1      42.185  19.221  25.912  1.00  0.00     0.124 S 
ATOM     55  O   UNL A   1      43.097  19.321  24.777  1.00  0.00    -0.237 OA
ATOM     56  O   UNL A   1      42.682  18.457  27.053  1.00  0.00    -0.237 OA
ATOM     57  O   UNL A   1      40.784  18.988  25.572  1.00  0.00    -0.744 OA
ENDBRANCH  53  54
ENDBRANCH  25  48
BRANCH  37  58
ATOM     58  C   UNL A   1      47.852  26.768  30.485  1.00  0.00    -0.014 A 
ATOM     59  C   UNL A   1      48.196  26.141  31.697  1.00  0.00     0.010 A 
ATOM     60  C   UNL A   1      48.874  27.170  29.608  1.00  0.00     0.010 A 
ATOM     61  C   UNL A   1      49.536  25.968  32.052  1.00  0.00     0.020 A 
ATOM     62  C   UNL A   1      50.216  26.971  29.946  1.00  0.00     0.020 A 
ATOM     63  C   UNL A   1      50.537  26.399  31.179  1.00  0.00     0.054 A 
BRANCH  63  64
ATOM     64  S   UNL A   1      52.270  26.224  31.685  1.00  0.00     0.124 S 
ATOM     65  O   UNL A   1      52.474  27.413  32.506  1.00  0.00    -0.237 OA
ATOM     66  O   UNL A   1      52.267  24.952  32.406  1.00  0.00    -0.237 OA
ATOM     67  O   UNL A   1      52.998  26.208  30.417  1.00  0.00    -0.744 OA
ENDBRANCH  63  64
ENDBRANCH  37  58
ENDBRANCH  11  12
ENDBRANCH   4   6
ENDBRANCH   1   2
BRANCH   1  68
ATOM     68  C   UNL A   1      33.286  28.273  25.617  1.00  0.00     0.042 C 
BRANCH  68  69
ATOM     69  C   UNL A   1      32.190  27.287  25.246  1.00  0.00     0.118 C 
BRANCH  69  70
ATOM     70  N   UNL A   1      31.614  27.554  23.937  1.00  0.00    -0.352 N 
ATOM     71  C   UNL A   1      31.404  26.684  22.898  1.00  0.00     0.255 C 
ATOM     72  H   UNL A   1      31.337  28.484  23.776  1.00  0.00     0.163 HD
ATOM     73  O   UNL A   1      30.972  27.100  21.823  1.00  0.00    -0.269 OA
BRANCH  71  74
ATOM     74  C   UNL A   1      31.754  25.257  23.033  1.00  0.00     0.081 A 
ATOM     75  C   UNL A   1      30.767  24.397  23.531  1.00  0.00     0.018 A 
ATOM     76  C   UNL A   1      33.020  24.753  22.718  1.00  0.00     0.128 A 
ATOM     77  C   UNL A   1      31.033  23.033  23.680  1.00  0.00     0.010 A 
ATOM     78  C   UNL A   1      33.278  23.390  22.842  1.00  0.00     0.055 A 
ATOM     79  C   UNL A   1      32.291  22.521  23.331  1.00  0.00    -0.014 A 
BRANCH  76  80
ATOM     80  O   UNL A   1      34.020  25.585  22.296  1.00  0.00    -0.507 OA
ATOM     81  H   UNL A   1      33.885  26.513  22.283  1.00  0.00     0.293 HD
ENDBRANCH  76  80
BRANCH  79  82
ATOM     82  C   UNL A   1      32.633  21.097  23.520  1.00  0.00    -0.011 A 
ATOM     83  C   UNL A   1      33.527  20.666  24.579  1.00  0.00     0.027 A 
ATOM     84  C   UNL A   1      32.144  20.179  22.667  1.00  0.00     0.080 A 
ATOM     85  C   UNL A   1      33.897  19.388  24.683  1.00  0.00     0.095 A 
ATOM     86  C   UNL A   1      32.526  18.745  22.791  1.00  0.00     0.255 A 
ATOM     87  N   UNL A   1      33.419  18.437  23.803  1.00  0.00    -0.258 N 
ATOM     88  O   UNL A   1      32.043  17.937  21.997  1.00  0.00    -0.269 OA
BRANCH  87  89
ATOM     89  C   UNL A   1      33.843  17.066  23.914  1.00  0.00     0.451 C 
ATOM     90  F   UNL A   1      34.418  16.634  22.766  1.00  0.00    -0.185 F 
ATOM     91  F   UNL A   1      34.737  16.912  24.920  1.00  0.00    -0.185 F 
ENDBRANCH  87  89
ENDBRANCH  79  82
ENDBRANCH  71  74
ENDBRANCH  69  70
ENDBRANCH  68  69
ENDBRANCH   1  68
TORSDOF 16
ENDMDL
MODEL 3
REMARK VINA RESULT:     -12.2      5.226     11.673
REMARK SMILES O=C(NCCCNC(=O)c1ccc(-c2ccn(C(F)F)c(=O)c2)cc1O)c1ccc(-c2c3nc(c(-c4ccc(S(=O)(=O)[O-])cc4)c4ccc([nH]4)c(-c4ccc(S(=O)(=O)[O-])cc4)c4nc(c(-c5ccc(S(=O)(=O)[O-])cc5)c5ccc2[nH]5)C=C4)C=C3)cc1
REMARK SMILES IDX 4 1 3 2 1 3 2 4 27 6 28 7 86 8 29 9 85 10 30 11 31 12 32 13
REMARK SMILES IDX 79 14 33 15 84 16 78 17 80 18 34 19 83 20 77 21 76 22 35 24
REMARK SMILES IDX 65 25 46 26 64 27 47 28 50 29 63 30 81 31 48 32 49 33 62 35
REMARK SMILES IDX 82 36 51 37 36 38 37 39 45 40 38 41 44 42 39 43 40 44 41 45
REMARK SMILES IDX 42 46 43 47 66 48 67 49 75 50 68 51 74 52 69 53 70 54 71 55
REMARK SMILES IDX 72 56 73 57 52 58 53 59 61 60 54 61 60 62 55 63 56 64 57 65
REMARK SMILES IDX 58 66 59 67 5 68 6 69 7 70 8 71 9 73 10 74 11 75 25 76 12 77
REMARK SMILES IDX 24 78 13 79 26 80 14 82 15 83 23 84 16 85 21 86 17 87 22 88
REMARK SMILES IDX 18 89 19 90 20 91
REMARK H PARENT 3 5 80 23 50 34 7 72 26 81
REMARK Flexibility Score: inf
ROOT
ATOM      1  C   UNL A   1      34.609  32.922  27.915  1.00  0.00     0.118 C 
ENDROOT
BRANCH   1   2
ATOM      2  N   UNL A   1      33.887  31.675  27.707  1.00  0.00    -0.352 N 
ATOM      3  O   UNL A   1      33.583  29.496  27.268  1.00  0.00    -0.269 OA
ATOM      4  C   UNL A   1      34.341  30.382  27.663  1.00  0.00     0.251 C 
ATOM      5  H   UNL A   1      32.916  31.777  27.579  1.00  0.00     0.163 HD
BRANCH   4   6
ATOM      6  C   UNL A   1      35.722  30.041  28.074  1.00  0.00     0.039 A 
ATOM      7  C   UNL A   1      36.742  30.088  27.120  1.00  0.00     0.014 A 
ATOM      8  C   UNL A   1      36.010  29.611  29.372  1.00  0.00     0.014 A 
ATOM      9  C   UNL A   1      38.046  29.730  27.472  1.00  0.00     0.010 A 
ATOM     10  C   UNL A   1      37.324  29.353  29.749  1.00  0.00     0.010 A 
ATOM     11  C   UNL A   1      38.350  29.370  28.795  1.00  0.00    -0.014 A 
BRANCH  11  12
ATOM     12  C   UNL A   1      39.709  28.916  29.184  1.00  0.00     0.031 A 
ATOM     13  C   UNL A   1      40.599  29.841  29.975  1.00  0.00     0.074 A 
ATOM     14  C   UNL A   1      40.158  27.703  28.808  1.00  0.00     0.049 A 
ATOM     15  N   UNL A   1      41.840  29.670  30.347  1.00  0.00    -0.248 NA
ATOM     16  C   UNL A   1      40.027  31.138  30.381  1.00  0.00     0.031 C 
ATOM     17  C   UNL A   1      39.396  26.724  28.032  1.00  0.00     0.029 A 
ATOM     18  N   UNL A   1      41.365  27.086  29.029  1.00  0.00    -0.354 N 
ATOM     19  C   UNL A   1      42.199  30.837  31.011  1.00  0.00     0.074 A 
ATOM     20  C   UNL A   1      41.070  31.734  30.940  1.00  0.00     0.031 C 
ATOM     21  C   UNL A   1      40.138  25.617  27.874  1.00  0.00     0.029 A 
ATOM     22  C   UNL A   1      41.446  25.822  28.492  1.00  0.00     0.049 A 
ATOM     23  H   UNL A   1      42.103  27.508  29.526  1.00  0.00     0.167 HD
ATOM     24  C   UNL A   1      43.354  31.123  31.654  1.00  0.00     0.031 A 
ATOM     25  C   UNL A   1      42.457  24.929  28.492  1.00  0.00     0.031 A 
ATOM     26  C   UNL A   1      44.458  30.207  31.759  1.00  0.00     0.049 A 
ATOM     27  C   UNL A   1      43.740  25.273  29.198  1.00  0.00     0.074 A 
ATOM     28  C   UNL A   1      45.652  30.387  32.434  1.00  0.00     0.029 A 
ATOM     29  N   UNL A   1      44.501  28.943  31.194  1.00  0.00    -0.354 N 
ATOM     30  N   UNL A   1      44.048  26.368  29.853  1.00  0.00    -0.248 NA
ATOM     31  C   UNL A   1      44.810  24.264  29.179  1.00  0.00     0.031 C 
ATOM     32  C   UNL A   1      46.443  29.259  32.222  1.00  0.00     0.029 A 
ATOM     33  C   UNL A   1      45.713  28.341  31.481  1.00  0.00     0.049 A 
ATOM     34  H   UNL A   1      43.778  28.534  30.666  1.00  0.00     0.167 HD
ATOM     35  C   UNL A   1      45.337  26.173  30.339  1.00  0.00     0.074 A 
ATOM     36  C   UNL A   1      45.745  24.849  29.919  1.00  0.00     0.031 C 
ATOM     37  C   UNL A   1      46.108  27.018  31.063  1.00  0.00     0.031 A 
BRANCH  24  38
ATOM     38  C   UNL A   1      43.488  32.464  32.327  1.00  0.00    -0.014 A 
ATOM     39  C   UNL A   1      43.161  32.600  33.689  1.00  0.00     0.010 A 
ATOM     40  C   UNL A   1      43.817  33.613  31.586  1.00  0.00     0.010 A 
ATOM     41  C   UNL A   1      43.117  33.862  34.286  1.00  0.00     0.020 A 
ATOM     42  C   UNL A   1      43.807  34.874  32.187  1.00  0.00     0.020 A 
ATOM     43  C   UNL A   1      43.428  34.993  33.527  1.00  0.00     0.054 A 
BRANCH  43  44
ATOM     44  S   UNL A   1      43.319  36.627  34.305  1.00  0.00     0.124 S 
ATOM     45  O   UNL A   1      43.579  37.521  33.182  1.00  0.00    -0.237 OA
ATOM     46  O   UNL A   1      41.953  36.642  34.824  1.00  0.00    -0.237 OA
ATOM     47  O   UNL A   1      44.362  36.589  35.329  1.00  0.00    -0.744 OA
ENDBRANCH  43  44
ENDBRANCH  24  38
BRANCH  25  48
ATOM     48  C   UNL A   1      42.258  23.607  27.833  1.00  0.00    -0.014 A 
ATOM     49  C   UNL A   1      41.560  22.578  28.493  1.00  0.00     0.010 A 
ATOM     50  C   UNL A   1      42.848  23.339  26.585  1.00  0.00     0.010 A 
ATOM     51  C   UNL A   1      41.510  21.291  27.949  1.00  0.00     0.020 A 
ATOM     52  C   UNL A   1      42.773  22.060  26.022  1.00  0.00     0.020 A 
ATOM     53  C   UNL A   1      42.133  21.036  26.725  1.00  0.00     0.054 A 
BRANCH  53  54
ATOM     54  S   UNL A   1      42.120  19.342  26.076  1.00  0.00     0.124 S 
ATOM     55  O   UNL A   1      40.698  19.131  25.821  1.00  0.00    -0.237 OA
ATOM     56  O   UNL A   1      42.964  19.449  24.889  1.00  0.00    -0.237 OA
ATOM     57  O   UNL A   1      42.684  18.552  27.168  1.00  0.00    -0.744 OA
ENDBRANCH  53  54
ENDBRANCH  25  48
BRANCH  37  58
ATOM     58  C   UNL A   1      47.487  26.567  31.470  1.00  0.00    -0.014 A 
ATOM     59  C   UNL A   1      48.550  26.658  30.552  1.00  0.00     0.010 A 
ATOM     60  C   UNL A   1      47.693  25.900  32.691  1.00  0.00     0.010 A 
ATOM     61  C   UNL A   1      49.776  26.047  30.821  1.00  0.00     0.020 A 
ATOM     62  C   UNL A   1      48.929  25.313  32.978  1.00  0.00     0.020 A 
ATOM     63  C   UNL A   1      49.952  25.366  32.028  1.00  0.00     0.054 A 
BRANCH  63  64
ATOM     64  S   UNL A   1      51.530  24.526  32.333  1.00  0.00     0.124 S 
ATOM     65  O   UNL A   1      51.775  24.831  33.739  1.00  0.00    -0.237 OA
ATOM     66  O   UNL A   1      51.213  23.130  32.037  1.00  0.00    -0.237 OA
ATOM     67  O   UNL A   1      52.446  25.161  31.387  1.00  0.00    -0.744 OA
ENDBRANCH  63  64
ENDBRANCH  37  58
ENDBRANCH  11  12
ENDBRANCH   4   6
ENDBRANCH   1   2
BRANCH   1  68
ATOM     68  C   UNL A   1      33.854  33.894  28.808  1.00  0.00     0.042 C 
BRANCH  68  69
ATOM     69  C   UNL A   1      34.744  34.860  29.573  1.00  0.00     0.118 C 
BRANCH  69  70
ATOM     70  N   UNL A   1      34.097  35.403  30.756  1.00  0.00    -0.352 N 
ATOM     71  C   UNL A   1      34.308  35.085  32.073  1.00  0.00     0.255 C 
ATOM     72  H   UNL A   1      33.415  36.094  30.589  1.00  0.00     0.163 HD
ATOM     73  O   UNL A   1      33.609  35.593  32.950  1.00  0.00    -0.269 OA
BRANCH  71  74
ATOM     74  C   UNL A   1      35.325  34.084  32.449  1.00  0.00     0.081 A 
ATOM     75  C   UNL A   1      36.524  34.559  32.994  1.00  0.00     0.018 A 
ATOM     76  C   UNL A   1      35.146  32.711  32.252  1.00  0.00     0.128 A 
ATOM     77  C   UNL A   1      37.527  33.663  33.373  1.00  0.00     0.010 A 
ATOM     78  C   UNL A   1      36.135  31.815  32.654  1.00  0.00     0.055 A 
ATOM     79  C   UNL A   1      37.336  32.284  33.210  1.00  0.00    -0.014 A 
BRANCH  76  80
ATOM     80  O   UNL A   1      34.013  32.230  31.659  1.00  0.00    -0.507 OA
ATOM     81  H   UNL A   1      33.898  31.306  31.547  1.00  0.00     0.293 HD
ENDBRANCH  76  80
BRANCH  79  82
ATOM     82  C   UNL A   1      38.387  31.304  33.548  1.00  0.00    -0.011 A 
ATOM     83  C   UNL A   1      39.557  31.684  34.320  1.00  0.00     0.027 A 
ATOM     84  C   UNL A   1      38.288  30.042  33.097  1.00  0.00     0.080 A 
ATOM     85  C   UNL A   1      40.542  30.811  34.542  1.00  0.00     0.095 A 
ATOM     86  C   UNL A   1      39.366  29.049  33.364  1.00  0.00     0.255 A 
ATOM     87  N   UNL A   1      40.463  29.516  34.068  1.00  0.00    -0.258 N 
ATOM     88  O   UNL A   1      39.226  27.901  32.944  1.00  0.00    -0.269 OA
BRANCH  87  89
ATOM     89  C   UNL A   1      41.541  28.591  34.297  1.00  0.00     0.451 C 
ATOM     90  F   UNL A   1      42.739  29.224  34.305  1.00  0.00    -0.185 F 
ATOM     91  F   UNL A   1      41.392  27.953  35.483  1.00  0.00    -0.185 F 
ENDBRANCH  87  89
ENDBRANCH  79  82
ENDBRANCH  71  74
ENDBRANCH  69  70
ENDBRANCH  68  69
ENDBRANCH   1  68
TORSDOF 16
ENDMDL
