MODEL 1
REMARK VINA RESULT:     -10.8      0.000      0.000
REMARK SMILES CCOc1cc(F)ccc1NC(=O)CC1(C(=O)NCCCNC(=O)c2ccc(-c3c4nc(c(-c5ccc(S(=O)(=O)[O-])cc5)c5ccc([nH]5)c(-c5ccc(S(=O)(=O)[O-])cc5)c5nc(c(-c6ccc(S(=O)(=O)[O-])cc6)c6ccc3[nH]6)C=C5)C=C4)cc2)CCCCC1
REMARK SMILES IDX 19 1 18 2 16 3 17 4 15 6 85 7 89 8 86 9 88 10 87 11 14 12
REMARK SMILES IDX 12 13 11 14 13 16 10 17 4 18 5 19 6 20 9 21 7 22 8 23 3 24
REMARK SMILES IDX 2 25 1 26 20 27 21 28 22 29 23 30 24 32 25 33 26 34 84 35
REMARK SMILES IDX 27 36 83 37 28 38 29 39 30 40 77 41 31 42 82 43 76 44 78 45
REMARK SMILES IDX 32 46 81 47 75 48 74 49 33 51 63 52 44 53 62 54 45 55 48 56
REMARK SMILES IDX 61 57 79 58 46 59 47 60 60 62 80 63 49 64 34 65 35 66 43 67
REMARK SMILES IDX 36 68 42 69 37 70 38 71 39 72 40 73 41 74 64 75 65 76 73 77
REMARK SMILES IDX 66 78 72 79 67 80 68 81 69 82 70 83 71 84 50 85 51 86 59 87
REMARK SMILES IDX 52 88 58 89 53 90 54 91 55 92 56 93 57 94
REMARK H PARENT 18 5 11 15 22 31 78 50 48 61
REMARK Flexibility Score: inf
ROOT
ATOM      1  C   UNL A   1      32.850  27.888  24.312  1.00  0.00     0.117 C 
ENDROOT
BRANCH   1   2
ATOM      2  N   UNL A   1      33.248  27.383  23.023  1.00  0.00    -0.356 N 
ATOM      3  C   UNL A   1      33.402  26.115  22.556  1.00  0.00     0.226 C 
ATOM      4  O   UNL A   1      33.671  26.055  21.353  1.00  0.00    -0.274 OA
ATOM      5  H   UNL A   1      33.443  28.083  22.358  1.00  0.00     0.163 HD
BRANCH   3   6
ATOM      6  C   UNL A   1      33.305  24.832  23.463  1.00  0.00     0.058 C 
ATOM      7  C   UNL A   1      33.775  23.587  22.659  1.00  0.00     0.017 C 
ATOM      8  C   UNL A   1      31.846  24.742  24.002  1.00  0.00     0.017 C 
ATOM      9  C   UNL A   1      32.778  22.480  22.277  1.00  0.00     0.001 C 
ATOM     10  C   UNL A   1      30.840  23.902  23.240  1.00  0.00     0.001 C 
ATOM     11  C   UNL A   1      31.354  22.542  22.809  1.00  0.00     0.000 C 
BRANCH   6  12
ATOM     12  C   UNL A   1      34.210  25.135  24.746  1.00  0.00     0.117 C 
BRANCH  12  13
ATOM     13  C   UNL A   1      33.925  24.442  26.072  1.00  0.00     0.225 C 
ATOM     14  N   UNL A   1      34.439  23.216  26.401  1.00  0.00    -0.323 N 
ATOM     15  H   UNL A   1      34.088  22.841  27.240  1.00  0.00     0.170 HD
ATOM     16  O   UNL A   1      33.231  25.006  26.925  1.00  0.00    -0.275 OA
BRANCH  14  17
ATOM     17  C   UNL A   1      35.384  22.396  25.751  1.00  0.00     0.084 A 
ATOM     18  C   UNL A   1      34.956  21.108  25.364  1.00  0.00     0.145 A 
ATOM     19  C   UNL A   1      35.893  20.162  24.949  1.00  0.00     0.087 A 
ATOM     20  C   UNL A   1      37.235  20.510  24.888  1.00  0.00     0.127 A 
ATOM     21  C   UNL A   1      36.720  22.754  25.572  1.00  0.00     0.033 A 
ATOM     22  F   UNL A   1      38.141  19.582  24.557  1.00  0.00    -0.207 F 
ATOM     23  C   UNL A   1      37.651  21.805  25.156  1.00  0.00     0.041 A 
BRANCH  18  24
ATOM     24  O   UNL A   1      33.607  20.858  25.364  1.00  0.00    -0.492 OA
BRANCH  24  25
ATOM     25  C   UNL A   1      33.211  19.485  25.249  1.00  0.00     0.226 C 
ATOM     26  C   UNL A   1      32.428  19.197  23.976  1.00  0.00     0.049 C 
ENDBRANCH  24  25
ENDBRANCH  18  24
ENDBRANCH  14  17
ENDBRANCH  12  13
ENDBRANCH   6  12
ENDBRANCH   3   6
ENDBRANCH   1   2
BRANCH   1  27
ATOM     27  C   UNL A   1      34.006  28.428  25.124  1.00  0.00     0.042 C 
BRANCH  27  28
ATOM     28  C   UNL A   1      33.683  28.479  26.597  1.00  0.00     0.118 C 
BRANCH  28  29
ATOM     29  N   UNL A   1      33.596  29.852  27.089  1.00  0.00    -0.352 N 
ATOM     30  C   UNL A   1      34.463  30.574  27.874  1.00  0.00     0.251 C 
ATOM     31  H   UNL A   1      32.785  30.338  26.814  1.00  0.00     0.163 HD
ATOM     32  O   UNL A   1      34.102  31.636  28.362  1.00  0.00    -0.269 OA
BRANCH  30  33
ATOM     33  C   UNL A   1      35.817  30.045  28.141  1.00  0.00     0.039 A 
ATOM     34  C   UNL A   1      36.806  30.150  27.160  1.00  0.00     0.014 A 
ATOM     35  C   UNL A   1      36.115  29.464  29.373  1.00  0.00     0.014 A 
ATOM     36  C   UNL A   1      38.108  29.741  27.454  1.00  0.00     0.010 A 
ATOM     37  C   UNL A   1      37.432  29.212  29.714  1.00  0.00     0.010 A 
ATOM     38  C   UNL A   1      38.440  29.312  28.749  1.00  0.00    -0.014 A 
BRANCH  38  39
ATOM     39  C   UNL A   1      39.820  28.913  29.119  1.00  0.00     0.031 A 
ATOM     40  C   UNL A   1      40.717  29.909  29.813  1.00  0.00     0.074 A 
ATOM     41  C   UNL A   1      40.286  27.699  28.767  1.00  0.00     0.049 A 
ATOM     42  N   UNL A   1      41.979  29.795  30.137  1.00  0.00    -0.248 NA
ATOM     43  C   UNL A   1      40.133  31.221  30.150  1.00  0.00     0.031 C 
ATOM     44  C   UNL A   1      39.531  26.674  28.040  1.00  0.00     0.029 A 
ATOM     45  N   UNL A   1      41.513  27.120  28.970  1.00  0.00    -0.354 N 
ATOM     46  C   UNL A   1      42.340  31.023  30.681  1.00  0.00     0.074 A 
ATOM     47  C   UNL A   1      41.190  31.890  30.581  1.00  0.00     0.031 C 
ATOM     48  C   UNL A   1      40.297  25.581  27.896  1.00  0.00     0.029 A 
ATOM     49  C   UNL A   1      41.610  25.841  28.474  1.00  0.00     0.049 A 
ATOM     50  H   UNL A   1      42.255  27.579  29.427  1.00  0.00     0.167 HD
ATOM     51  C   UNL A   1      43.514  31.387  31.244  1.00  0.00     0.031 A 
ATOM     52  C   UNL A   1      42.644  24.979  28.480  1.00  0.00     0.031 A 
ATOM     53  C   UNL A   1      44.639  30.504  31.378  1.00  0.00     0.049 A 
ATOM     54  C   UNL A   1      43.936  25.403  29.127  1.00  0.00     0.074 A 
ATOM     55  C   UNL A   1      45.850  30.745  31.999  1.00  0.00     0.029 A 
ATOM     56  N   UNL A   1      44.685  29.208  30.889  1.00  0.00    -0.354 N 
ATOM     57  N   UNL A   1      44.232  26.544  29.704  1.00  0.00    -0.248 NA
ATOM     58  C   UNL A   1      45.028  24.421  29.135  1.00  0.00     0.031 C 
ATOM     59  C   UNL A   1      46.652  29.611  31.837  1.00  0.00     0.029 A 
ATOM     60  C   UNL A   1      45.916  28.643  31.173  1.00  0.00     0.049 A 
ATOM     61  H   UNL A   1      43.952  28.756  30.411  1.00  0.00     0.167 HD
ATOM     62  C   UNL A   1      45.534  26.404  30.170  1.00  0.00     0.074 A 
ATOM     63  C   UNL A   1      45.960  25.063  29.825  1.00  0.00     0.031 C 
ATOM     64  C   UNL A   1      46.311  27.302  30.825  1.00  0.00     0.031 A 
BRANCH  51  65
ATOM     65  C   UNL A   1      43.636  32.794  31.769  1.00  0.00    -0.014 A 
ATOM     66  C   UNL A   1      43.282  33.111  33.093  1.00  0.00     0.010 A 
ATOM     67  C   UNL A   1      44.165  33.803  30.943  1.00  0.00     0.010 A 
ATOM     68  C   UNL A   1      43.422  34.415  33.572  1.00  0.00     0.020 A 
ATOM     69  C   UNL A   1      44.337  35.103  31.428  1.00  0.00     0.020 A 
ATOM     70  C   UNL A   1      43.953  35.402  32.737  1.00  0.00     0.054 A 
BRANCH  70  71
ATOM     71  S   UNL A   1      44.174  37.074  33.405  1.00  0.00     0.124 S 
ATOM     72  O   UNL A   1      43.155  37.118  34.451  1.00  0.00    -0.237 OA
ATOM     73  O   UNL A   1      45.556  37.049  33.875  1.00  0.00    -0.237 OA
ATOM     74  O   UNL A   1      43.925  37.943  32.256  1.00  0.00    -0.744 OA
ENDBRANCH  70  71
ENDBRANCH  51  65
BRANCH  52  75
ATOM     75  C   UNL A   1      42.502  23.628  27.868  1.00  0.00    -0.014 A 
ATOM     76  C   UNL A   1      41.914  22.573  28.590  1.00  0.00     0.010 A 
ATOM     77  C   UNL A   1      42.959  23.386  26.560  1.00  0.00     0.010 A 
ATOM     78  C   UNL A   1      41.819  21.296  28.030  1.00  0.00     0.020 A 
ATOM     79  C   UNL A   1      42.836  22.118  25.984  1.00  0.00     0.020 A 
ATOM     80  C   UNL A   1      42.282  21.076  26.730  1.00  0.00     0.054 A 
BRANCH  80  81
ATOM     81  S   UNL A   1      42.127  19.416  26.013  1.00  0.00     0.124 S 
ATOM     82  O   UNL A   1      40.685  19.306  25.814  1.00  0.00    -0.237 OA
ATOM     83  O   UNL A   1      42.929  19.522  24.797  1.00  0.00    -0.237 OA
ATOM     84  O   UNL A   1      42.685  18.545  27.045  1.00  0.00    -0.744 OA
ENDBRANCH  80  81
ENDBRANCH  52  75
BRANCH  64  85
ATOM     85  C   UNL A   1      47.682  26.852  31.250  1.00  0.00    -0.014 A 
ATOM     86  C   UNL A   1      48.803  27.050  30.426  1.00  0.00     0.010 A 
ATOM     87  C   UNL A   1      47.857  26.280  32.524  1.00  0.00     0.010 A 
ATOM     88  C   UNL A   1      50.071  26.653  30.856  1.00  0.00     0.020 A 
ATOM     89  C   UNL A   1      49.126  25.912  32.970  1.00  0.00     0.020 A 
ATOM     90  C   UNL A   1      50.225  26.087  32.126  1.00  0.00     0.054 A 
BRANCH  90  91
ATOM     91  S   UNL A   1      51.888  25.622  32.677  1.00  0.00     0.124 S 
ATOM     92  O   UNL A   1      52.024  24.276  32.130  1.00  0.00    -0.237 OA
ATOM     93  O   UNL A   1      52.728  26.643  32.054  1.00  0.00    -0.237 OA
ATOM     94  O   UNL A   1      51.804  25.698  34.134  1.00  0.00    -0.744 OA
ENDBRANCH  90  91
ENDBRANCH  64  85
ENDBRANCH  38  39
ENDBRANCH  30  33
ENDBRANCH  28  29
ENDBRANCH  27  28
ENDBRANCH   1  27
TORSDOF 18
ENDMDL
MODEL 2
REMARK VINA RESULT:     -10.7      4.350      9.977
REMARK SMILES CCOc1cc(F)ccc1NC(=O)CC1(C(=O)NCCCNC(=O)c2ccc(-c3c4nc(c(-c5ccc(S(=O)(=O)[O-])cc5)c5ccc([nH]5)c(-c5ccc(S(=O)(=O)[O-])cc5)c5nc(c(-c6ccc(S(=O)(=O)[O-])cc6)c6ccc3[nH]6)C=C5)C=C4)cc2)CCCCC1
REMARK SMILES IDX 19 1 18 2 16 3 17 4 15 6 85 7 89 8 86 9 88 10 87 11 14 12
REMARK SMILES IDX 12 13 11 14 13 16 10 17 4 18 5 19 6 20 9 21 7 22 8 23 3 24
REMARK SMILES IDX 2 25 1 26 20 27 21 28 22 29 23 30 24 32 25 33 26 34 84 35
REMARK SMILES IDX 27 36 83 37 28 38 29 39 30 40 77 41 31 42 82 43 76 44 78 45
REMARK SMILES IDX 32 46 81 47 75 48 74 49 33 51 63 52 44 53 62 54 45 55 48 56
REMARK SMILES IDX 61 57 79 58 46 59 47 60 60 62 80 63 49 64 34 65 35 66 43 67
REMARK SMILES IDX 36 68 42 69 37 70 38 71 39 72 40 73 41 74 64 75 65 76 73 77
REMARK SMILES IDX 66 78 72 79 67 80 68 81 69 82 70 83 71 84 50 85 51 86 59 87
REMARK SMILES IDX 52 88 58 89 53 90 54 91 55 92 56 93 57 94
REMARK H PARENT 18 5 11 15 22 31 78 50 48 61
REMARK Flexibility Score: inf
ROOT
ATOM      1  C   UNL A   1      36.291  23.944  26.010  1.00  0.00     0.117 C 
ENDROOT
BRANCH   1   2
ATOM      2  N   UNL A   1      35.580  24.101  24.767  1.00  0.00    -0.356 N 
ATOM      3  C   UNL A   1      34.373  23.634  24.350  1.00  0.00     0.226 C 
ATOM      4  O   UNL A   1      34.034  24.048  23.238  1.00  0.00    -0.274 OA
ATOM      5  H   UNL A   1      36.053  24.646  24.098  1.00  0.00     0.163 HD
BRANCH   3   6
ATOM      6  C   UNL A   1      33.499  22.614  25.171  1.00  0.00     0.058 C 
ATOM      7  C   UNL A   1      34.288  21.289  25.366  1.00  0.00     0.017 C 
ATOM      8  C   UNL A   1      32.137  22.455  24.432  1.00  0.00     0.017 C 
ATOM      9  C   UNL A   1      33.820  19.992  24.684  1.00  0.00     0.001 C 
ATOM     10  C   UNL A   1      31.977  21.318  23.440  1.00  0.00     0.001 C 
ATOM     11  C   UNL A   1      32.501  19.982  23.925  1.00  0.00     0.000 C 
BRANCH   6  12
ATOM     12  C   UNL A   1      33.147  23.349  26.547  1.00  0.00     0.117 C 
BRANCH  12  13
ATOM     13  C   UNL A   1      31.763  23.943  26.772  1.00  0.00     0.225 C 
ATOM     14  N   UNL A   1      31.441  25.235  26.447  1.00  0.00    -0.323 N 
ATOM     15  H   UNL A   1      30.547  25.517  26.746  1.00  0.00     0.170 HD
ATOM     16  O   UNL A   1      30.858  23.239  27.234  1.00  0.00    -0.275 OA
BRANCH  14  17
ATOM     17  C   UNL A   1      32.164  26.231  25.759  1.00  0.00     0.084 A 
ATOM     18  C   UNL A   1      31.848  26.425  24.397  1.00  0.00     0.145 A 
ATOM     19  C   UNL A   1      32.681  27.205  23.597  1.00  0.00     0.087 A 
ATOM     20  C   UNL A   1      33.796  27.813  24.159  1.00  0.00     0.127 A 
ATOM     21  C   UNL A   1      33.222  26.942  26.323  1.00  0.00     0.033 A 
ATOM     22  F   UNL A   1      34.633  28.503  23.376  1.00  0.00    -0.207 F 
ATOM     23  C   UNL A   1      34.051  27.721  25.518  1.00  0.00     0.041 A 
BRANCH  18  24
ATOM     24  O   UNL A   1      30.685  25.869  23.927  1.00  0.00    -0.492 OA
BRANCH  24  25
ATOM     25  C   UNL A   1      29.690  26.781  23.444  1.00  0.00     0.226 C 
ATOM     26  C   UNL A   1      28.315  26.535  24.048  1.00  0.00     0.049 C 
ENDBRANCH  24  25
ENDBRANCH  18  24
ENDBRANCH  14  17
ENDBRANCH  12  13
ENDBRANCH   6  12
ENDBRANCH   3   6
ENDBRANCH   1   2
BRANCH   1  27
ATOM     27  C   UNL A   1      37.725  23.499  25.825  1.00  0.00     0.042 C 
BRANCH  27  28
ATOM     28  C   UNL A   1      38.684  24.352  26.617  1.00  0.00     0.118 C 
BRANCH  28  29
ATOM     29  N   UNL A   1      40.053  24.240  26.118  1.00  0.00    -0.352 N 
ATOM     30  C   UNL A   1      41.177  24.970  26.427  1.00  0.00     0.251 C 
ATOM     31  H   UNL A   1      40.194  23.526  25.454  1.00  0.00     0.163 HD
ATOM     32  O   UNL A   1      42.179  24.865  25.734  1.00  0.00    -0.269 OA
BRANCH  30  33
ATOM     33  C   UNL A   1      41.152  25.894  27.579  1.00  0.00     0.039 A 
ATOM     34  C   UNL A   1      42.056  26.958  27.633  1.00  0.00     0.014 A 
ATOM     35  C   UNL A   1      40.216  25.722  28.598  1.00  0.00     0.014 A 
ATOM     36  C   UNL A   1      41.960  27.886  28.671  1.00  0.00     0.010 A 
ATOM     37  C   UNL A   1      40.022  26.725  29.531  1.00  0.00     0.010 A 
ATOM     38  C   UNL A   1      40.912  27.802  29.602  1.00  0.00    -0.014 A 
BRANCH  38  39
ATOM     39  C   UNL A   1      40.745  28.792  30.694  1.00  0.00     0.031 A 
ATOM     40  C   UNL A   1      41.613  28.691  31.923  1.00  0.00     0.074 A 
ATOM     41  C   UNL A   1      39.773  29.722  30.614  1.00  0.00     0.049 A 
ATOM     42  N   UNL A   1      41.565  29.393  33.026  1.00  0.00    -0.248 NA
ATOM     43  C   UNL A   1      42.643  27.635  31.937  1.00  0.00     0.031 C 
ATOM     44  C   UNL A   1      38.832  29.879  29.501  1.00  0.00     0.029 A 
ATOM     45  N   UNL A   1      39.411  30.713  31.491  1.00  0.00    -0.354 N 
ATOM     46  C   UNL A   1      42.529  28.844  33.864  1.00  0.00     0.074 A 
ATOM     47  C   UNL A   1      43.098  27.710  33.176  1.00  0.00     0.031 C 
ATOM     48  C   UNL A   1      38.031  30.929  29.744  1.00  0.00     0.029 A 
ATOM     49  C   UNL A   1      38.366  31.489  31.049  1.00  0.00     0.049 A 
ATOM     50  H   UNL A   1      39.858  30.854  32.357  1.00  0.00     0.167 HD
ATOM     51  C   UNL A   1      42.930  29.266  35.084  1.00  0.00     0.031 A 
ATOM     52  C   UNL A   1      37.743  32.531  31.633  1.00  0.00     0.031 A 
ATOM     53  C   UNL A   1      42.388  30.422  35.743  1.00  0.00     0.049 A 
ATOM     54  C   UNL A   1      38.218  32.990  32.985  1.00  0.00     0.074 A 
ATOM     55  C   UNL A   1      42.771  30.984  36.946  1.00  0.00     0.029 A 
ATOM     56  N   UNL A   1      41.350  31.197  35.247  1.00  0.00    -0.354 N 
ATOM     57  N   UNL A   1      39.184  32.503  33.728  1.00  0.00    -0.248 NA
ATOM     58  C   UNL A   1      37.529  34.147  33.572  1.00  0.00     0.031 C 
ATOM     59  C   UNL A   1      41.928  32.068  37.206  1.00  0.00     0.029 A 
ATOM     60  C   UNL A   1      41.064  32.220  36.133  1.00  0.00     0.049 A 
ATOM     61  H   UNL A   1      40.888  31.044  34.392  1.00  0.00     0.167 HD
ATOM     62  C   UNL A   1      39.237  33.314  34.857  1.00  0.00     0.074 A 
ATOM     63  C   UNL A   1      38.220  34.333  34.688  1.00  0.00     0.031 C 
ATOM     64  C   UNL A   1      40.052  33.227  35.937  1.00  0.00     0.031 A 
BRANCH  51  65
ATOM     65  C   UNL A   1      44.012  28.483  35.780  1.00  0.00    -0.014 A 
ATOM     66  C   UNL A   1      45.370  28.819  35.622  1.00  0.00     0.010 A 
ATOM     67  C   UNL A   1      43.666  27.431  36.646  1.00  0.00     0.010 A 
ATOM     68  C   UNL A   1      46.361  28.097  36.291  1.00  0.00     0.020 A 
ATOM     69  C   UNL A   1      44.652  26.727  37.343  1.00  0.00     0.020 A 
ATOM     70  C   UNL A   1      45.995  27.058  37.151  1.00  0.00     0.054 A 
BRANCH  70  71
ATOM     71  S   UNL A   1      47.301  26.176  38.048  1.00  0.00     0.124 S 
ATOM     72  O   UNL A   1      47.203  26.765  39.381  1.00  0.00    -0.237 OA
ATOM     73  O   UNL A   1      46.874  24.784  37.944  1.00  0.00    -0.237 OA
ATOM     74  O   UNL A   1      48.517  26.509  37.308  1.00  0.00    -0.744 OA
ENDBRANCH  70  71
ENDBRANCH  51  65
BRANCH  52  75
ATOM     75  C   UNL A   1      36.616  33.218  30.942  1.00  0.00    -0.014 A 
ATOM     76  C   UNL A   1      36.825  33.887  29.722  1.00  0.00     0.010 A 
ATOM     77  C   UNL A   1      35.327  33.214  31.504  1.00  0.00     0.010 A 
ATOM     78  C   UNL A   1      35.775  34.566  29.096  1.00  0.00     0.020 A 
ATOM     79  C   UNL A   1      34.268  33.865  30.866  1.00  0.00     0.020 A 
ATOM     80  C   UNL A   1      34.503  34.552  29.674  1.00  0.00     0.054 A 
BRANCH  80  81
ATOM     81  S   UNL A   1      33.150  35.421  28.833  1.00  0.00     0.124 S 
ATOM     82  O   UNL A   1      32.521  34.343  28.077  1.00  0.00    -0.237 OA
ATOM     83  O   UNL A   1      32.373  35.950  29.950  1.00  0.00    -0.237 OA
ATOM     84  O   UNL A   1      33.839  36.430  28.030  1.00  0.00    -0.744 OA
ENDBRANCH  80  81
ENDBRANCH  52  75
BRANCH  64  85
ATOM     85  C   UNL A   1      39.910  34.282  36.999  1.00  0.00    -0.014 A 
ATOM     86  C   UNL A   1      40.531  35.536  36.870  1.00  0.00     0.010 A 
ATOM     87  C   UNL A   1      39.087  34.033  38.114  1.00  0.00     0.010 A 
ATOM     88  C   UNL A   1      40.358  36.511  37.855  1.00  0.00     0.020 A 
ATOM     89  C   UNL A   1      38.886  35.016  39.083  1.00  0.00     0.020 A 
ATOM     90  C   UNL A   1      39.535  36.245  38.955  1.00  0.00     0.054 A 
BRANCH  90  91
ATOM     91  S   UNL A   1      39.292  37.545  40.195  1.00  0.00     0.124 S 
ATOM     92  O   UNL A   1      38.236  38.350  39.588  1.00  0.00    -0.237 OA
ATOM     93  O   UNL A   1      38.902  36.786  41.381  1.00  0.00    -0.237 OA
ATOM     94  O   UNL A   1      40.600  38.192  40.279  1.00  0.00    -0.744 OA
ENDBRANCH  90  91
ENDBRANCH  64  85
ENDBRANCH  38  39
ENDBRANCH  30  33
ENDBRANCH  28  29
ENDBRANCH  27  28
ENDBRANCH   1  27
TORSDOF 18
ENDMDL
MODEL 3
REMARK VINA RESULT:     -10.7      1.198      2.442
REMARK SMILES CCOc1cc(F)ccc1NC(=O)CC1(C(=O)NCCCNC(=O)c2ccc(-c3c4nc(c(-c5ccc(S(=O)(=O)[O-])cc5)c5ccc([nH]5)c(-c5ccc(S(=O)(=O)[O-])cc5)c5nc(c(-c6ccc(S(=O)(=O)[O-])cc6)c6ccc3[nH]6)C=C5)C=C4)cc2)CCCCC1
REMARK SMILES IDX 19 1 18 2 16 3 17 4 15 6 85 7 89 8 86 9 88 10 87 11 14 12
REMARK SMILES IDX 12 13 11 14 13 16 10 17 4 18 5 19 6 20 9 21 7 22 8 23 3 24
REMARK SMILES IDX 2 25 1 26 20 27 21 28 22 29 23 30 24 32 25 33 26 34 84 35
REMARK SMILES IDX 27 36 83 37 28 38 29 39 30 40 77 41 31 42 82 43 76 44 78 45
REMARK SMILES IDX 32 46 81 47 75 48 74 49 33 51 63 52 44 53 62 54 45 55 48 56
REMARK SMILES IDX 61 57 79 58 46 59 47 60 60 62 80 63 49 64 34 65 35 66 43 67
REMARK SMILES IDX 36 68 42 69 37 70 38 71 39 72 40 73 41 74 64 75 65 76 73 77
REMARK SMILES IDX 66 78 72 79 67 80 68 81 69 82 70 83 71 84 50 85 51 86 59 87
REMARK SMILES IDX 52 88 58 89 53 90 54 91 55 92 56 93 57 94
REMARK H PARENT 18 5 11 15 22 31 78 50 48 61
REMARK Flexibility Score: inf
ROOT
ATOM      1  C   UNL A   1      31.387  27.460  26.664  1.00  0.00     0.117 C 
ENDROOT
BRANCH   1   2
ATOM      2  N   UNL A   1      31.465  27.871  25.285  1.00  0.00    -0.356 N 
ATOM      3  C   UNL A   1      31.687  27.168  24.143  1.00  0.00     0.226 C 
ATOM      4  O   UNL A   1      31.593  27.844  23.114  1.00  0.00    -0.274 OA
ATOM      5  H   UNL A   1      31.331  28.836  25.144  1.00  0.00     0.163 HD
BRANCH   3   6
ATOM      6  C   UNL A   1      32.084  25.645  24.117  1.00  0.00     0.058 C 
ATOM      7  C   UNL A   1      31.271  24.875  25.195  1.00  0.00     0.017 C 
ATOM      8  C   UNL A   1      33.630  25.556  24.285  1.00  0.00     0.017 C 
ATOM      9  C   UNL A   1      31.974  24.268  26.421  1.00  0.00     0.001 C 
ATOM     10  C   UNL A   1      34.200  25.362  25.676  1.00  0.00     0.001 C 
ATOM     11  C   UNL A   1      33.494  24.308  26.505  1.00  0.00     0.000 C 
BRANCH   6  12
ATOM     12  C   UNL A   1      31.793  25.143  22.626  1.00  0.00     0.117 C 
BRANCH  12  13
ATOM     13  C   UNL A   1      32.918  24.582  21.768  1.00  0.00     0.225 C 
ATOM     14  N   UNL A   1      33.616  23.449  22.096  1.00  0.00    -0.323 N 
ATOM     15  H   UNL A   1      34.384  23.263  21.509  1.00  0.00     0.170 HD
ATOM     16  O   UNL A   1      33.213  25.133  20.701  1.00  0.00    -0.275 OA
BRANCH  14  17
ATOM     17  C   UNL A   1      33.427  22.502  23.122  1.00  0.00     0.084 A 
ATOM     18  C   UNL A   1      34.567  22.128  23.866  1.00  0.00     0.145 A 
ATOM     19  C   UNL A   1      34.507  21.026  24.718  1.00  0.00     0.087 A 
ATOM     20  C   UNL A   1      33.314  20.329  24.852  1.00  0.00     0.127 A 
ATOM     21  C   UNL A   1      32.214  21.857  23.361  1.00  0.00     0.033 A 
ATOM     22  F   UNL A   1      33.277  19.230  25.615  1.00  0.00    -0.207 F 
ATOM     23  C   UNL A   1      32.160  20.757  24.215  1.00  0.00     0.041 A 
BRANCH  18  24
ATOM     24  O   UNL A   1      35.687  22.912  23.753  1.00  0.00    -0.492 OA
BRANCH  24  25
ATOM     25  C   UNL A   1      36.827  22.513  24.524  1.00  0.00     0.226 C 
ATOM     26  C   UNL A   1      37.397  23.643  25.370  1.00  0.00     0.049 C 
ENDBRANCH  24  25
ENDBRANCH  18  24
ENDBRANCH  14  17
ENDBRANCH  12  13
ENDBRANCH   6  12
ENDBRANCH   3   6
ENDBRANCH   1   2
BRANCH   1  27
ATOM     27  C   UNL A   1      32.620  27.818  27.463  1.00  0.00     0.042 C 
BRANCH  27  28
ATOM     28  C   UNL A   1      33.547  28.724  26.692  1.00  0.00     0.118 C 
BRANCH  28  29
ATOM     29  N   UNL A   1      33.486  30.103  27.171  1.00  0.00    -0.352 N 
ATOM     30  C   UNL A   1      34.374  30.821  27.936  1.00  0.00     0.251 C 
ATOM     31  H   UNL A   1      32.679  30.598  26.901  1.00  0.00     0.163 HD
ATOM     32  O   UNL A   1      34.034  31.893  28.418  1.00  0.00    -0.269 OA
BRANCH  30  33
ATOM     33  C   UNL A   1      35.724  30.275  28.191  1.00  0.00     0.039 A 
ATOM     34  C   UNL A   1      36.701  30.354  27.196  1.00  0.00     0.014 A 
ATOM     35  C   UNL A   1      36.030  29.704  29.425  1.00  0.00     0.014 A 
ATOM     36  C   UNL A   1      38.001  29.930  27.477  1.00  0.00     0.010 A 
ATOM     37  C   UNL A   1      37.347  29.436  29.752  1.00  0.00     0.010 A 
ATOM     38  C   UNL A   1      38.344  29.511  28.773  1.00  0.00    -0.014 A 
BRANCH  38  39
ATOM     39  C   UNL A   1      39.723  29.096  29.129  1.00  0.00     0.031 A 
ATOM     40  C   UNL A   1      40.645  30.088  29.794  1.00  0.00     0.074 A 
ATOM     41  C   UNL A   1      40.165  27.870  28.788  1.00  0.00     0.049 A 
ATOM     42  N   UNL A   1      41.910  29.960  30.101  1.00  0.00    -0.248 NA
ATOM     43  C   UNL A   1      40.087  31.414  30.120  1.00  0.00     0.031 C 
ATOM     44  C   UNL A   1      39.384  26.846  28.088  1.00  0.00     0.029 A 
ATOM     45  N   UNL A   1      41.386  27.275  28.982  1.00  0.00    -0.354 N 
ATOM     46  C   UNL A   1      42.298  31.190  30.621  1.00  0.00     0.074 A 
ATOM     47  C   UNL A   1      41.160  32.073  30.525  1.00  0.00     0.031 C 
ATOM     48  C   UNL A   1      40.130  25.738  27.950  1.00  0.00     0.029 A 
ATOM     49  C   UNL A   1      41.455  25.987  28.505  1.00  0.00     0.049 A 
ATOM     50  H   UNL A   1      42.141  27.728  29.422  1.00  0.00     0.167 HD
ATOM     51  C   UNL A   1      43.485  31.544  31.162  1.00  0.00     0.031 A 
ATOM     52  C   UNL A   1      42.476  25.109  28.509  1.00  0.00     0.031 A 
ATOM     53  C   UNL A   1      44.599  30.645  31.292  1.00  0.00     0.049 A 
ATOM     54  C   UNL A   1      43.783  25.523  29.130  1.00  0.00     0.074 A 
ATOM     55  C   UNL A   1      45.822  30.877  31.892  1.00  0.00     0.029 A 
ATOM     56  N   UNL A   1      44.618  29.341  30.822  1.00  0.00    -0.354 N 
ATOM     57  N   UNL A   1      44.105  26.667  29.685  1.00  0.00    -0.248 NA
ATOM     58  C   UNL A   1      44.860  24.523  29.137  1.00  0.00     0.031 C 
ATOM     59  C   UNL A   1      46.605  29.728  31.736  1.00  0.00     0.029 A 
ATOM     60  C   UNL A   1      45.843  28.761  31.098  1.00  0.00     0.049 A 
ATOM     61  H   UNL A   1      43.871  28.894  30.363  1.00  0.00     0.167 HD
ATOM     62  C   UNL A   1      45.412  26.514  30.135  1.00  0.00     0.074 A 
ATOM     63  C   UNL A   1      45.812  25.161  29.804  1.00  0.00     0.031 C 
ATOM     64  C   UNL A   1      46.212  27.409  30.765  1.00  0.00     0.031 A 
BRANCH  51  65
ATOM     65  C   UNL A   1      43.637  32.957  31.662  1.00  0.00    -0.014 A 
ATOM     66  C   UNL A   1      44.059  33.991  30.806  1.00  0.00     0.010 A 
ATOM     67  C   UNL A   1      43.302  33.266  32.993  1.00  0.00     0.010 A 
ATOM     68  C   UNL A   1      44.174  35.300  31.279  1.00  0.00     0.020 A 
ATOM     69  C   UNL A   1      43.384  34.580  33.462  1.00  0.00     0.020 A 
ATOM     70  C   UNL A   1      43.832  35.587  32.604  1.00  0.00     0.054 A 
BRANCH  70  71
ATOM     71  S   UNL A   1      43.939  37.305  33.173  1.00  0.00     0.124 S 
ATOM     72  O   UNL A   1      45.227  37.314  33.864  1.00  0.00    -0.237 OA
ATOM     73  O   UNL A   1      43.892  38.058  31.923  1.00  0.00    -0.237 OA
ATOM     74  O   UNL A   1      42.770  37.459  34.035  1.00  0.00    -0.744 OA
ENDBRANCH  70  71
ENDBRANCH  51  65
BRANCH  52  75
ATOM     75  C   UNL A   1      42.304  23.751  27.920  1.00  0.00    -0.014 A 
ATOM     76  C   UNL A   1      42.586  23.517  26.562  1.00  0.00     0.010 A 
ATOM     77  C   UNL A   1      41.850  22.682  28.715  1.00  0.00     0.010 A 
ATOM     78  C   UNL A   1      42.385  22.252  26.003  1.00  0.00     0.020 A 
ATOM     79  C   UNL A   1      41.678  21.408  28.167  1.00  0.00     0.020 A 
ATOM     80  C   UNL A   1      41.930  21.205  26.809  1.00  0.00     0.054 A 
BRANCH  80  81
ATOM     81  S   UNL A   1      41.697  19.565  26.067  1.00  0.00     0.124 S 
ATOM     82  O   UNL A   1      42.068  18.681  27.167  1.00  0.00    -0.237 OA
ATOM     83  O   UNL A   1      40.281  19.578  25.713  1.00  0.00    -0.237 OA
ATOM     84  O   UNL A   1      42.617  19.571  24.930  1.00  0.00    -0.744 OA
ENDBRANCH  80  81
ENDBRANCH  52  75
BRANCH  64  85
ATOM     85  C   UNL A   1      47.583  26.945  31.176  1.00  0.00    -0.014 A 
ATOM     86  C   UNL A   1      47.805  26.347  32.429  1.00  0.00     0.010 A 
ATOM     87  C   UNL A   1      48.650  27.052  30.266  1.00  0.00     0.010 A 
ATOM     88  C   UNL A   1      49.080  25.894  32.776  1.00  0.00     0.020 A 
ATOM     89  C   UNL A   1      49.918  26.571  30.597  1.00  0.00     0.020 A 
ATOM     90  C   UNL A   1      50.128  26.009  31.857  1.00  0.00     0.054 A 
BRANCH  90  91
ATOM     91  S   UNL A   1      51.762  25.372  32.316  1.00  0.00     0.124 S 
ATOM     92  O   UNL A   1      52.625  26.007  31.325  1.00  0.00    -0.237 OA
ATOM     93  O   UNL A   1      51.918  25.852  33.687  1.00  0.00    -0.237 OA
ATOM     94  O   UNL A   1      51.620  23.923  32.182  1.00  0.00    -0.744 OA
ENDBRANCH  90  91
ENDBRANCH  64  85
ENDBRANCH  38  39
ENDBRANCH  30  33
ENDBRANCH  28  29
ENDBRANCH  27  28
ENDBRANCH   1  27
TORSDOF 18
ENDMDL
