MODEL 1
REMARK VINA RESULT:     -12.9      0.000      0.000
REMARK SMILES CC(=O)N[C@@H](CS[C@@H]1CC(=O)N(c2cccc3ccccc23)C1=O)C(=O)NCCCNC(=O)c1ccc(-c2c3nc(c(-c4ccc(S(=O)(=O)[O-])cc4)c4ccc([nH]4)c(-c4ccc(S(=O)(=O)[O-])cc4)c4nc(c(-c5ccc(S(=O)(=O)[O-])cc5)c5ccc2[nH]5)C=C4)C=C3)cc1
REMARK SMILES IDX 28 1 27 2 25 3 26 4 5 6 4 7 1 8 2 9 3 10 6 12 7 13 8 14 9 15
REMARK SMILES IDX 23 16 10 17 12 18 24 19 11 20 13 21 14 22 22 23 15 24 17 25
REMARK SMILES IDX 21 26 16 27 18 28 20 29 19 30 29 31 30 32 31 33 32 34 33 36
REMARK SMILES IDX 34 37 35 38 93 39 36 40 92 41 37 42 38 43 39 44 86 45 40 46
REMARK SMILES IDX 91 47 85 48 87 49 41 50 90 51 84 52 83 53 42 55 72 56 53 57
REMARK SMILES IDX 71 58 54 59 57 60 70 61 88 62 55 63 56 64 69 66 89 67 58 68
REMARK SMILES IDX 43 69 44 70 52 71 45 72 51 73 46 74 47 75 48 76 49 77 50 78
REMARK SMILES IDX 73 79 74 80 82 81 75 82 81 83 76 84 77 85 78 86 79 87 80 88
REMARK SMILES IDX 59 89 60 90 68 91 61 92 67 93 62 94 63 95 64 96 65 97 66 98
REMARK H PARENT 27 5 4 11 31 35 87 54 57 65
REMARK Flexibility Score: inf
ROOT
ATOM      1  C   UNL A   1      33.105  28.675  27.049  1.00  0.00     0.117 C 
ENDROOT
BRANCH   1   2
ATOM      2  N   UNL A   1      32.277  29.754  26.560  1.00  0.00    -0.354 N 
ATOM      3  C   UNL A   1      31.550  29.879  25.408  1.00  0.00     0.243 C 
ATOM      4  O   UNL A   1      30.949  30.960  25.299  1.00  0.00    -0.273 OA
ATOM      5  H   UNL A   1      32.229  30.534  27.158  1.00  0.00     0.163 HD
BRANCH   3   6
ATOM      6  C   UNL A   1      31.535  28.890  24.182  1.00  0.00     0.181 C 
BRANCH   6   7
ATOM      7  N   UNL A   1      30.992  29.475  22.960  1.00  0.00    -0.344 N 
ATOM      8  C   UNL A   1      28.603  28.774  22.976  1.00  0.00     0.114 C 
ATOM      9  C   UNL A   1      29.789  29.413  22.334  1.00  0.00     0.217 C 
ATOM     10  O   UNL A   1      29.665  29.928  21.222  1.00  0.00    -0.275 OA
ATOM     11  H   UNL A   1      31.643  30.041  22.485  1.00  0.00     0.164 HD
ENDBRANCH   6   7
BRANCH   6  12
ATOM     12  C   UNL A   1      32.675  27.893  23.879  1.00  0.00     0.105 C 
BRANCH  12  13
ATOM     13  S   UNL A   1      33.016  27.013  22.298  1.00  0.00    -0.145 SA
BRANCH  13  14
ATOM     14  C   UNL A   1      32.201  25.363  22.295  1.00  0.00     0.146 C 
ATOM     15  C   UNL A   1      31.131  25.296  23.380  1.00  0.00     0.125 C 
ATOM     16  C   UNL A   1      33.015  24.138  22.577  1.00  0.00     0.247 C 
ATOM     17  C   UNL A   1      31.622  24.242  24.338  1.00  0.00     0.235 C 
ATOM     18  N   UNL A   1      32.789  23.706  23.871  1.00  0.00    -0.249 N 
ATOM     19  O   UNL A   1      33.687  23.598  21.711  1.00  0.00    -0.273 OA
ATOM     20  O   UNL A   1      31.015  23.931  25.355  1.00  0.00    -0.274 OA
BRANCH  18  21
ATOM     21  C   UNL A   1      33.299  22.460  24.362  1.00  0.00     0.060 A 
ATOM     22  C   UNL A   1      32.459  21.344  24.244  1.00  0.00     0.027 A 
ATOM     23  C   UNL A   1      34.652  22.282  24.801  1.00  0.00     0.006 A 
ATOM     24  C   UNL A   1      32.962  20.062  24.432  1.00  0.00     0.003 A 
ATOM     25  C   UNL A   1      35.176  20.968  24.852  1.00  0.00    -0.016 A 
ATOM     26  C   UNL A   1      35.532  23.316  25.202  1.00  0.00     0.011 A 
ATOM     27  C   UNL A   1      34.319  19.875  24.679  1.00  0.00     0.009 A 
ATOM     28  C   UNL A   1      36.553  20.755  25.060  1.00  0.00     0.009 A 
ATOM     29  C   UNL A   1      36.900  23.098  25.418  1.00  0.00     0.001 A 
ATOM     30  C   UNL A   1      37.419  21.819  25.301  1.00  0.00     0.001 A 
ENDBRANCH  18  21
ENDBRANCH  13  14
ENDBRANCH  12  13
ENDBRANCH   6  12
ENDBRANCH   3   6
ENDBRANCH   1   2
BRANCH   1  31
ATOM     31  C   UNL A   1      34.602  28.954  27.205  1.00  0.00     0.042 C 
BRANCH  31  32
ATOM     32  C   UNL A   1      34.994  30.383  27.558  1.00  0.00     0.118 C 
BRANCH  32  33
ATOM     33  N   UNL A   1      35.232  30.586  28.982  1.00  0.00    -0.352 N 
ATOM     34  C   UNL A   1      36.292  30.415  29.841  1.00  0.00     0.251 C 
ATOM     35  H   UNL A   1      34.434  30.931  29.444  1.00  0.00     0.163 HD
ATOM     36  O   UNL A   1      36.049  30.620  31.035  1.00  0.00    -0.269 OA
BRANCH  34  37
ATOM     37  C   UNL A   1      37.676  29.989  29.467  1.00  0.00     0.039 A 
ATOM     38  C   UNL A   1      38.574  29.714  30.517  1.00  0.00     0.014 A 
ATOM     39  C   UNL A   1      38.172  29.927  28.167  1.00  0.00     0.014 A 
ATOM     40  C   UNL A   1      39.910  29.354  30.269  1.00  0.00     0.010 A 
ATOM     41  C   UNL A   1      39.485  29.494  27.914  1.00  0.00     0.010 A 
ATOM     42  C   UNL A   1      40.378  29.207  28.958  1.00  0.00    -0.014 A 
BRANCH  42  43
ATOM     43  C   UNL A   1      41.775  28.765  28.655  1.00  0.00     0.031 A 
ATOM     44  C   UNL A   1      42.907  29.766  28.598  1.00  0.00     0.074 A 
ATOM     45  C   UNL A   1      42.027  27.473  28.346  1.00  0.00     0.049 A 
ATOM     46  N   UNL A   1      44.147  29.595  28.207  1.00  0.00    -0.248 NA
ATOM     47  C   UNL A   1      42.599  31.147  29.005  1.00  0.00     0.031 C 
ATOM     48  C   UNL A   1      41.035  26.396  28.322  1.00  0.00     0.029 A 
ATOM     49  N   UNL A   1      43.195  26.849  27.970  1.00  0.00    -0.354 N 
ATOM     50  C   UNL A   1      44.748  30.847  28.274  1.00  0.00     0.074 A 
ATOM     51  C   UNL A   1      43.734  31.776  28.724  1.00  0.00     0.031 C 
ATOM     52  C   UNL A   1      41.635  25.249  27.962  1.00  0.00     0.029 A 
ATOM     53  C   UNL A   1      43.043  25.513  27.680  1.00  0.00     0.049 A 
ATOM     54  H   UNL A   1      44.060  27.317  27.914  1.00  0.00     0.167 HD
ATOM     55  C   UNL A   1      46.029  31.197  27.998  1.00  0.00     0.031 A 
ATOM     56  C   UNL A   1      43.921  24.601  27.216  1.00  0.00     0.031 A 
ATOM     57  C   UNL A   1      47.059  30.270  27.604  1.00  0.00     0.049 A 
ATOM     58  C   UNL A   1      45.345  25.010  26.945  1.00  0.00     0.074 A 
ATOM     59  C   UNL A   1      48.405  30.525  27.390  1.00  0.00     0.029 A 
ATOM     60  N   UNL A   1      46.868  28.918  27.372  1.00  0.00    -0.354 N 
ATOM     61  N   UNL A   1      45.902  26.189  27.078  1.00  0.00    -0.248 NA
ATOM     62  C   UNL A   1      46.260  23.960  26.471  1.00  0.00     0.031 C 
ATOM     63  C   UNL A   1      49.017  29.335  26.986  1.00  0.00     0.029 A 
ATOM     64  C   UNL A   1      48.065  28.330  27.000  1.00  0.00     0.049 A 
ATOM     65  H   UNL A   1      46.008  28.446  27.460  1.00  0.00     0.167 HD
ATOM     66  C   UNL A   1      47.239  26.014  26.730  1.00  0.00     0.074 A 
ATOM     67  C   UNL A   1      47.410  24.616  26.399  1.00  0.00     0.031 C 
ATOM     68  C   UNL A   1      48.233  26.934  26.687  1.00  0.00     0.031 A 
BRANCH  55  69
ATOM     69  C   UNL A   1      46.412  32.650  28.109  1.00  0.00    -0.014 A 
ATOM     70  C   UNL A   1      46.280  33.525  27.016  1.00  0.00     0.010 A 
ATOM     71  C   UNL A   1      46.816  33.169  29.355  1.00  0.00     0.010 A 
ATOM     72  C   UNL A   1      46.567  34.886  27.160  1.00  0.00     0.020 A 
ATOM     73  C   UNL A   1      47.079  34.533  29.509  1.00  0.00     0.020 A 
ATOM     74  C   UNL A   1      46.962  35.382  28.407  1.00  0.00     0.054 A 
BRANCH  74  75
ATOM     75  S   UNL A   1      47.269  37.162  28.577  1.00  0.00     0.124 S 
ATOM     76  O   UNL A   1      48.725  37.228  28.465  1.00  0.00    -0.237 OA
ATOM     77  O   UNL A   1      46.527  37.725  27.451  1.00  0.00    -0.237 OA
ATOM     78  O   UNL A   1      46.733  37.483  29.896  1.00  0.00    -0.744 OA
ENDBRANCH  74  75
ENDBRANCH  55  69
BRANCH  56  79
ATOM     79  C   UNL A   1      43.483  23.200  26.956  1.00  0.00    -0.014 A 
ATOM     80  C   UNL A   1      42.937  22.417  27.988  1.00  0.00     0.010 A 
ATOM     81  C   UNL A   1      43.639  22.632  25.678  1.00  0.00     0.010 A 
ATOM     82  C   UNL A   1      42.587  21.082  27.758  1.00  0.00     0.020 A 
ATOM     83  C   UNL A   1      43.261  21.307  25.436  1.00  0.00     0.020 A 
ATOM     84  C   UNL A   1      42.755  20.535  26.483  1.00  0.00     0.054 A 
BRANCH  84  85
ATOM     85  S   UNL A   1      42.274  18.809  26.197  1.00  0.00     0.124 S 
ATOM     86  O   UNL A   1      42.494  18.212  27.511  1.00  0.00    -0.237 OA
ATOM     87  O   UNL A   1      40.878  18.932  25.783  1.00  0.00    -0.237 OA
ATOM     88  O   UNL A   1      43.190  18.370  25.147  1.00  0.00    -0.744 OA
ENDBRANCH  84  85
ENDBRANCH  56  79
BRANCH  68  89
ATOM     89  C   UNL A   1      49.611  26.457  26.316  1.00  0.00    -0.014 A 
ATOM     90  C   UNL A   1      50.093  26.565  25.000  1.00  0.00     0.010 A 
ATOM     91  C   UNL A   1      50.458  25.942  27.315  1.00  0.00     0.010 A 
ATOM     92  C   UNL A   1      51.386  26.140  24.684  1.00  0.00     0.020 A 
ATOM     93  C   UNL A   1      51.760  25.540  27.009  1.00  0.00     0.020 A 
ATOM     94  C   UNL A   1      52.212  25.629  25.691  1.00  0.00     0.054 A 
BRANCH  94  95
ATOM     95  S   UNL A   1      53.902  25.125  25.266  1.00  0.00     0.124 S 
ATOM     96  O   UNL A   1      54.591  25.257  26.546  1.00  0.00    -0.237 OA
ATOM     97  O   UNL A   1      53.720  23.756  24.789  1.00  0.00    -0.237 OA
ATOM     98  O   UNL A   1      54.303  26.086  24.240  1.00  0.00    -0.744 OA
ENDBRANCH  94  95
ENDBRANCH  68  89
ENDBRANCH  42  43
ENDBRANCH  34  37
ENDBRANCH  32  33
ENDBRANCH  31  32
ENDBRANCH   1  31
TORSDOF 18
ENDMDL
MODEL 2
REMARK VINA RESULT:     -12.5      0.825      7.885
REMARK SMILES CC(=O)N[C@@H](CS[C@@H]1CC(=O)N(c2cccc3ccccc23)C1=O)C(=O)NCCCNC(=O)c1ccc(-c2c3nc(c(-c4ccc(S(=O)(=O)[O-])cc4)c4ccc([nH]4)c(-c4ccc(S(=O)(=O)[O-])cc4)c4nc(c(-c5ccc(S(=O)(=O)[O-])cc5)c5ccc2[nH]5)C=C4)C=C3)cc1
REMARK SMILES IDX 28 1 27 2 25 3 26 4 5 6 4 7 1 8 2 9 3 10 6 12 7 13 8 14 9 15
REMARK SMILES IDX 23 16 10 17 12 18 24 19 11 20 13 21 14 22 22 23 15 24 17 25
REMARK SMILES IDX 21 26 16 27 18 28 20 29 19 30 29 31 30 32 31 33 32 34 33 36
REMARK SMILES IDX 34 37 35 38 93 39 36 40 92 41 37 42 38 43 39 44 86 45 40 46
REMARK SMILES IDX 91 47 85 48 87 49 41 50 90 51 84 52 83 53 42 55 72 56 53 57
REMARK SMILES IDX 71 58 54 59 57 60 70 61 88 62 55 63 56 64 69 66 89 67 58 68
REMARK SMILES IDX 43 69 44 70 52 71 45 72 51 73 46 74 47 75 48 76 49 77 50 78
REMARK SMILES IDX 73 79 74 80 82 81 75 82 81 83 76 84 77 85 78 86 79 87 80 88
REMARK SMILES IDX 59 89 60 90 68 91 61 92 67 93 62 94 63 95 64 96 65 97 66 98
REMARK H PARENT 27 5 4 11 31 35 87 54 57 65
REMARK Flexibility Score: inf
ROOT
ATOM      1  C   UNL A   1      33.139  28.827  27.032  1.00  0.00     0.117 C 
ENDROOT
BRANCH   1   2
ATOM      2  N   UNL A   1      32.320  29.972  26.708  1.00  0.00    -0.354 N 
ATOM      3  C   UNL A   1      31.525  30.233  25.625  1.00  0.00     0.243 C 
ATOM      4  O   UNL A   1      30.957  31.336  25.663  1.00  0.00    -0.273 OA
ATOM      5  H   UNL A   1      32.337  30.690  27.381  1.00  0.00     0.163 HD
BRANCH   3   6
ATOM      6  C   UNL A   1      31.398  29.373  24.312  1.00  0.00     0.181 C 
BRANCH   6   7
ATOM      7  N   UNL A   1      30.204  29.669  23.527  1.00  0.00    -0.344 N 
ATOM      8  C   UNL A   1      28.966  27.509  23.491  1.00  0.00     0.114 C 
ATOM      9  C   UNL A   1      29.166  28.925  23.067  1.00  0.00     0.217 C 
ATOM     10  O   UNL A   1      28.348  29.444  22.306  1.00  0.00    -0.275 OA
ATOM     11  H   UNL A   1      30.136  30.618  23.276  1.00  0.00     0.164 HD
ENDBRANCH   6   7
BRANCH   6  12
ATOM     12  C   UNL A   1      32.600  29.015  23.408  1.00  0.00     0.105 C 
BRANCH  12  13
ATOM     13  S   UNL A   1      33.870  27.711  23.679  1.00  0.00    -0.145 SA
BRANCH  13  14
ATOM     14  C   UNL A   1      33.094  26.043  23.643  1.00  0.00     0.146 C 
ATOM     15  C   UNL A   1      32.243  25.825  24.890  1.00  0.00     0.125 C 
ATOM     16  C   UNL A   1      33.966  24.825  23.637  1.00  0.00     0.247 C 
ATOM     17  C   UNL A   1      32.918  24.694  25.622  1.00  0.00     0.235 C 
ATOM     18  N   UNL A   1      33.988  24.252  24.895  1.00  0.00    -0.249 N 
ATOM     19  O   UNL A   1      34.475  24.403  22.609  1.00  0.00    -0.273 OA
ATOM     20  O   UNL A   1      32.514  24.257  26.691  1.00  0.00    -0.274 OA
BRANCH  18  21
ATOM     21  C   UNL A   1      34.599  22.980  25.146  1.00  0.00     0.060 A 
ATOM     22  C   UNL A   1      33.833  21.843  24.853  1.00  0.00     0.027 A 
ATOM     23  C   UNL A   1      35.976  22.828  25.515  1.00  0.00     0.006 A 
ATOM     24  C   UNL A   1      34.428  20.588  24.800  1.00  0.00     0.003 A 
ATOM     25  C   UNL A   1      36.590  21.567  25.320  1.00  0.00    -0.016 A 
ATOM     26  C   UNL A   1      36.798  23.838  26.071  1.00  0.00     0.011 A 
ATOM     27  C   UNL A   1      35.803  20.461  24.977  1.00  0.00     0.009 A 
ATOM     28  C   UNL A   1      37.985  21.423  25.454  1.00  0.00     0.009 A 
ATOM     29  C   UNL A   1      38.184  23.687  26.212  1.00  0.00     0.001 A 
ATOM     30  C   UNL A   1      38.784  22.489  25.858  1.00  0.00     0.001 A 
ENDBRANCH  18  21
ENDBRANCH  13  14
ENDBRANCH  12  13
ENDBRANCH   6  12
ENDBRANCH   3   6
ENDBRANCH   1   2
BRANCH   1  31
ATOM     31  C   UNL A   1      34.624  29.081  27.308  1.00  0.00     0.042 C 
BRANCH  31  32
ATOM     32  C   UNL A   1      34.987  30.455  27.859  1.00  0.00     0.118 C 
BRANCH  32  33
ATOM     33  N   UNL A   1      35.322  30.442  29.278  1.00  0.00    -0.352 N 
ATOM     34  C   UNL A   1      36.443  30.168  30.026  1.00  0.00     0.251 C 
ATOM     35  H   UNL A   1      34.554  30.693  29.840  1.00  0.00     0.163 HD
ATOM     36  O   UNL A   1      36.282  30.181  31.251  1.00  0.00    -0.269 OA
BRANCH  34  37
ATOM     37  C   UNL A   1      37.802  29.838  29.497  1.00  0.00     0.039 A 
ATOM     38  C   UNL A   1      38.819  29.586  30.440  1.00  0.00     0.014 A 
ATOM     39  C   UNL A   1      38.163  29.847  28.152  1.00  0.00     0.014 A 
ATOM     40  C   UNL A   1      40.141  29.317  30.045  1.00  0.00     0.010 A 
ATOM     41  C   UNL A   1      39.467  29.503  27.752  1.00  0.00     0.010 A 
ATOM     42  C   UNL A   1      40.478  29.239  28.688  1.00  0.00    -0.014 A 
BRANCH  42  43
ATOM     43  C   UNL A   1      41.859  28.892  28.228  1.00  0.00     0.031 A 
ATOM     44  C   UNL A   1      42.196  27.484  27.791  1.00  0.00     0.074 A 
ATOM     45  C   UNL A   1      42.844  29.815  28.278  1.00  0.00     0.049 A 
ATOM     46  N   UNL A   1      43.364  26.961  27.505  1.00  0.00    -0.248 NA
ATOM     47  C   UNL A   1      41.079  26.529  27.691  1.00  0.00     0.031 C 
ATOM     48  C   UNL A   1      42.685  31.206  28.710  1.00  0.00     0.029 A 
ATOM     49  N   UNL A   1      44.185  29.718  27.982  1.00  0.00    -0.354 N 
ATOM     50  C   UNL A   1      43.130  25.616  27.241  1.00  0.00     0.074 A 
ATOM     51  C   UNL A   1      41.711  25.395  27.419  1.00  0.00     0.031 C 
ATOM     52  C   UNL A   1      43.872  31.830  28.643  1.00  0.00     0.029 A 
ATOM     53  C   UNL A   1      44.891  30.877  28.211  1.00  0.00     0.049 A 
ATOM     54  H   UNL A   1      44.600  28.894  27.637  1.00  0.00     0.167 HD
ATOM     55  C   UNL A   1      44.009  24.651  26.873  1.00  0.00     0.031 A 
ATOM     56  C   UNL A   1      46.208  31.147  28.114  1.00  0.00     0.031 A 
ATOM     57  C   UNL A   1      45.413  24.875  26.639  1.00  0.00     0.049 A 
ATOM     58  C   UNL A   1      47.158  30.064  27.675  1.00  0.00     0.074 A 
ATOM     59  C   UNL A   1      46.359  23.973  26.178  1.00  0.00     0.029 A 
ATOM     60  N   UNL A   1      46.071  26.077  26.836  1.00  0.00    -0.354 N 
ATOM     61  N   UNL A   1      46.900  28.815  27.370  1.00  0.00    -0.248 NA
ATOM     62  C   UNL A   1      48.578  30.431  27.558  1.00  0.00     0.031 C 
ATOM     63  C   UNL A   1      47.598  24.619  26.140  1.00  0.00     0.029 A 
ATOM     64  C   UNL A   1      47.413  25.936  26.525  1.00  0.00     0.049 A 
ATOM     65  H   UNL A   1      45.647  26.908  27.151  1.00  0.00     0.167 HD
ATOM     66  C   UNL A   1      48.121  28.258  26.999  1.00  0.00     0.074 A 
ATOM     67  C   UNL A   1      49.112  29.307  27.100  1.00  0.00     0.031 C 
ATOM     68  C   UNL A   1      48.393  26.988  26.612  1.00  0.00     0.031 A 
BRANCH  55  69
ATOM     69  C   UNL A   1      43.493  23.246  26.693  1.00  0.00    -0.014 A 
ATOM     70  C   UNL A   1      43.455  22.640  25.425  1.00  0.00     0.010 A 
ATOM     71  C   UNL A   1      43.133  22.489  27.824  1.00  0.00     0.010 A 
ATOM     72  C   UNL A   1      43.046  21.310  25.288  1.00  0.00     0.020 A 
ATOM     73  C   UNL A   1      42.747  21.151  27.694  1.00  0.00     0.020 A 
ATOM     74  C   UNL A   1      42.697  20.573  26.424  1.00  0.00     0.054 A 
BRANCH  74  75
ATOM     75  S   UNL A   1      42.227  18.832  26.221  1.00  0.00     0.124 S 
ATOM     76  O   UNL A   1      40.846  18.946  25.755  1.00  0.00    -0.237 OA
ATOM     77  O   UNL A   1      43.187  18.355  25.229  1.00  0.00    -0.237 OA
ATOM     78  O   UNL A   1      42.386  18.270  27.559  1.00  0.00    -0.744 OA
ENDBRANCH  74  75
ENDBRANCH  55  69
BRANCH  56  79
ATOM     79  C   UNL A   1      46.725  32.503  28.454  1.00  0.00    -0.014 A 
ATOM     80  C   UNL A   1      47.119  32.810  29.768  1.00  0.00     0.010 A 
ATOM     81  C   UNL A   1      46.797  33.504  27.468  1.00  0.00     0.010 A 
ATOM     82  C   UNL A   1      47.543  34.102  30.098  1.00  0.00     0.020 A 
ATOM     83  C   UNL A   1      47.249  34.788  27.787  1.00  0.00     0.020 A 
ATOM     84  C   UNL A   1      47.601  35.084  29.105  1.00  0.00     0.054 A 
BRANCH  84  85
ATOM     85  S   UNL A   1      48.175  36.747  29.548  1.00  0.00     0.124 S 
ATOM     86  O   UNL A   1      47.412  37.585  28.628  1.00  0.00    -0.237 OA
ATOM     87  O   UNL A   1      47.800  36.849  30.956  1.00  0.00    -0.237 OA
ATOM     88  O   UNL A   1      49.614  36.688  29.298  1.00  0.00    -0.744 OA
ENDBRANCH  84  85
ENDBRANCH  56  79
BRANCH  68  89
ATOM     89  C   UNL A   1      49.809  26.666  26.218  1.00  0.00    -0.014 A 
ATOM     90  C   UNL A   1      50.672  25.980  27.090  1.00  0.00     0.010 A 
ATOM     91  C   UNL A   1      50.265  27.008  24.931  1.00  0.00     0.010 A 
ATOM     92  C   UNL A   1      51.975  25.667  26.692  1.00  0.00     0.020 A 
ATOM     93  C   UNL A   1      51.558  26.674  24.521  1.00  0.00     0.020 A 
ATOM     94  C   UNL A   1      52.411  26.018  25.410  1.00  0.00     0.054 A 
BRANCH  94  95
ATOM     95  S   UNL A   1      54.091  25.562  24.901  1.00  0.00     0.124 S 
ATOM     96  O   UNL A   1      54.901  26.153  25.963  1.00  0.00    -0.237 OA
ATOM     97  O   UNL A   1      54.040  24.102  24.889  1.00  0.00    -0.237 OA
ATOM     98  O   UNL A   1      54.236  26.185  23.587  1.00  0.00    -0.744 OA
ENDBRANCH  94  95
ENDBRANCH  68  89
ENDBRANCH  42  43
ENDBRANCH  34  37
ENDBRANCH  32  33
ENDBRANCH  31  32
ENDBRANCH   1  31
TORSDOF 18
ENDMDL
MODEL 3
REMARK VINA RESULT:     -12.5      6.143     12.006
REMARK SMILES CC(=O)N[C@@H](CS[C@@H]1CC(=O)N(c2cccc3ccccc23)C1=O)C(=O)NCCCNC(=O)c1ccc(-c2c3nc(c(-c4ccc(S(=O)(=O)[O-])cc4)c4ccc([nH]4)c(-c4ccc(S(=O)(=O)[O-])cc4)c4nc(c(-c5ccc(S(=O)(=O)[O-])cc5)c5ccc2[nH]5)C=C4)C=C3)cc1
REMARK SMILES IDX 28 1 27 2 25 3 26 4 5 6 4 7 1 8 2 9 3 10 6 12 7 13 8 14 9 15
REMARK SMILES IDX 23 16 10 17 12 18 24 19 11 20 13 21 14 22 22 23 15 24 17 25
REMARK SMILES IDX 21 26 16 27 18 28 20 29 19 30 29 31 30 32 31 33 32 34 33 36
REMARK SMILES IDX 34 37 35 38 93 39 36 40 92 41 37 42 38 43 39 44 86 45 40 46
REMARK SMILES IDX 91 47 85 48 87 49 41 50 90 51 84 52 83 53 42 55 72 56 53 57
REMARK SMILES IDX 71 58 54 59 57 60 70 61 88 62 55 63 56 64 69 66 89 67 58 68
REMARK SMILES IDX 43 69 44 70 52 71 45 72 51 73 46 74 47 75 48 76 49 77 50 78
REMARK SMILES IDX 73 79 74 80 82 81 75 82 81 83 76 84 77 85 78 86 79 87 80 88
REMARK SMILES IDX 59 89 60 90 68 91 61 92 67 93 62 94 63 95 64 96 65 97 66 98
REMARK H PARENT 27 5 4 11 31 35 87 54 57 65
REMARK Flexibility Score: inf
ROOT
ATOM      1  C   UNL A   1      36.960  22.514  25.452  1.00  0.00     0.117 C 
ENDROOT
BRANCH   1   2
ATOM      2  N   UNL A   1      35.961  22.266  26.466  1.00  0.00    -0.354 N 
ATOM      3  C   UNL A   1      34.899  21.404  26.491  1.00  0.00     0.243 C 
ATOM      4  O   UNL A   1      34.226  21.453  27.534  1.00  0.00    -0.273 OA
ATOM      5  H   UNL A   1      36.060  22.812  27.279  1.00  0.00     0.163 HD
BRANCH   3   6
ATOM      6  C   UNL A   1      34.372  20.511  25.305  1.00  0.00     0.181 C 
BRANCH   6   7
ATOM      7  N   UNL A   1      33.436  19.471  25.722  1.00  0.00    -0.344 N 
ATOM      8  C   UNL A   1      33.884  17.603  24.138  1.00  0.00     0.114 C 
ATOM      9  C   UNL A   1      33.108  18.245  25.239  1.00  0.00     0.217 C 
ATOM     10  O   UNL A   1      32.168  17.633  25.748  1.00  0.00    -0.275 OA
ATOM     11  H   UNL A   1      32.932  19.711  26.532  1.00  0.00     0.164 HD
ENDBRANCH   6   7
BRANCH   6  12
ATOM     12  C   UNL A   1      34.016  21.072  23.910  1.00  0.00     0.105 C 
BRANCH  12  13
ATOM     13  S   UNL A   1      32.418  21.801  23.359  1.00  0.00    -0.145 SA
BRANCH  13  14
ATOM     14  C   UNL A   1      31.921  23.175  24.478  1.00  0.00     0.146 C 
ATOM     15  C   UNL A   1      30.632  23.824  23.984  1.00  0.00     0.125 C 
ATOM     16  C   UNL A   1      32.827  24.356  24.643  1.00  0.00     0.247 C 
ATOM     17  C   UNL A   1      31.026  25.233  23.624  1.00  0.00     0.235 C 
ATOM     18  N   UNL A   1      32.348  25.427  23.912  1.00  0.00    -0.249 N 
ATOM     19  O   UNL A   1      33.783  24.332  25.405  1.00  0.00    -0.273 OA
ATOM     20  O   UNL A   1      30.236  26.050  23.168  1.00  0.00    -0.274 OA
BRANCH  18  21
ATOM     21  C   UNL A   1      32.914  26.740  24.018  1.00  0.00     0.060 A 
ATOM     22  C   UNL A   1      33.632  27.209  22.909  1.00  0.00     0.027 A 
ATOM     23  C   UNL A   1      32.643  27.627  25.111  1.00  0.00     0.006 A 
ATOM     24  C   UNL A   1      33.974  28.552  22.809  1.00  0.00     0.003 A 
ATOM     25  C   UNL A   1      32.876  29.011  24.927  1.00  0.00    -0.016 A 
ATOM     26  C   UNL A   1      32.157  27.244  26.384  1.00  0.00     0.011 A 
ATOM     27  C   UNL A   1      33.552  29.453  23.783  1.00  0.00     0.009 A 
ATOM     28  C   UNL A   1      32.423  29.945  25.879  1.00  0.00     0.009 A 
ATOM     29  C   UNL A   1      31.715  28.177  27.332  1.00  0.00     0.001 A 
ATOM     30  C   UNL A   1      31.807  29.532  27.058  1.00  0.00     0.001 A 
ENDBRANCH  18  21
ENDBRANCH  13  14
ENDBRANCH  12  13
ENDBRANCH   6  12
ENDBRANCH   3   6
ENDBRANCH   1   2
BRANCH   1  31
ATOM     31  C   UNL A   1      38.392  22.060  25.752  1.00  0.00     0.042 C 
BRANCH  31  32
ATOM     32  C   UNL A   1      39.179  22.908  26.744  1.00  0.00     0.118 C 
BRANCH  32  33
ATOM     33  N   UNL A   1      40.446  23.396  26.214  1.00  0.00    -0.352 N 
ATOM     34  C   UNL A   1      41.275  24.465  26.464  1.00  0.00     0.251 C 
ATOM     35  H   UNL A   1      40.795  22.816  25.499  1.00  0.00     0.163 HD
ATOM     36  O   UNL A   1      42.244  24.576  25.704  1.00  0.00    -0.269 OA
BRANCH  34  37
ATOM     37  C   UNL A   1      41.097  25.493  27.534  1.00  0.00     0.039 A 
ATOM     38  C   UNL A   1      42.169  26.378  27.765  1.00  0.00     0.014 A 
ATOM     39  C   UNL A   1      39.993  25.589  28.378  1.00  0.00     0.014 A 
ATOM     40  C   UNL A   1      42.119  27.347  28.782  1.00  0.00     0.010 A 
ATOM     41  C   UNL A   1      39.910  26.607  29.345  1.00  0.00     0.010 A 
ATOM     42  C   UNL A   1      40.970  27.497  29.569  1.00  0.00    -0.014 A 
BRANCH  42  43
ATOM     43  C   UNL A   1      40.855  28.559  30.617  1.00  0.00     0.031 A 
ATOM     44  C   UNL A   1      41.705  28.505  31.867  1.00  0.00     0.074 A 
ATOM     45  C   UNL A   1      39.928  29.535  30.498  1.00  0.00     0.049 A 
ATOM     46  N   UNL A   1      41.640  29.246  32.947  1.00  0.00    -0.248 NA
ATOM     47  C   UNL A   1      42.744  27.463  31.925  1.00  0.00     0.031 C 
ATOM     48  C   UNL A   1      39.009  29.702  29.369  1.00  0.00     0.029 A 
ATOM     49  N   UNL A   1      39.589  30.564  31.347  1.00  0.00    -0.354 N 
ATOM     50  C   UNL A   1      42.589  28.732  33.825  1.00  0.00     0.074 A 
ATOM     51  C   UNL A   1      43.205  27.603  33.161  1.00  0.00     0.031 C 
ATOM     52  C   UNL A   1      38.223  30.767  29.591  1.00  0.00     0.029 A 
ATOM     53  C   UNL A   1      38.542  31.334  30.898  1.00  0.00     0.049 A 
ATOM     54  H   UNL A   1      40.055  30.732  32.199  1.00  0.00     0.167 HD
ATOM     55  C   UNL A   1      42.929  29.162  35.065  1.00  0.00     0.031 A 
ATOM     56  C   UNL A   1      37.888  32.364  31.472  1.00  0.00     0.031 A 
ATOM     57  C   UNL A   1      42.361  30.319  35.709  1.00  0.00     0.049 A 
ATOM     58  C   UNL A   1      38.306  32.840  32.839  1.00  0.00     0.074 A 
ATOM     59  C   UNL A   1      42.710  30.878  36.928  1.00  0.00     0.029 A 
ATOM     60  N   UNL A   1      41.338  31.096  35.193  1.00  0.00    -0.354 N 
ATOM     61  N   UNL A   1      39.249  32.375  33.620  1.00  0.00    -0.248 NA
ATOM     62  C   UNL A   1      37.573  33.988  33.397  1.00  0.00     0.031 C 
ATOM     63  C   UNL A   1      41.867  31.967  37.168  1.00  0.00     0.029 A 
ATOM     64  C   UNL A   1      41.031  32.118  36.075  1.00  0.00     0.049 A 
ATOM     65  H   UNL A   1      40.896  30.945  34.326  1.00  0.00     0.167 HD
ATOM     66  C   UNL A   1      39.242  33.192  34.747  1.00  0.00     0.074 A 
ATOM     67  C   UNL A   1      38.214  34.188  34.540  1.00  0.00     0.031 C 
ATOM     68  C   UNL A   1      40.018  33.117  35.856  1.00  0.00     0.031 A 
BRANCH  55  69
ATOM     69  C   UNL A   1      43.971  28.386  35.829  1.00  0.00    -0.014 A 
ATOM     70  C   UNL A   1      45.327  28.755  35.792  1.00  0.00     0.010 A 
ATOM     71  C   UNL A   1      43.571  27.332  36.673  1.00  0.00     0.010 A 
ATOM     72  C   UNL A   1      46.268  28.071  36.568  1.00  0.00     0.020 A 
ATOM     73  C   UNL A   1      44.505  26.662  37.469  1.00  0.00     0.020 A 
ATOM     74  C   UNL A   1      45.850  27.031  37.404  1.00  0.00     0.054 A 
BRANCH  74  75
ATOM     75  S   UNL A   1      47.085  26.201  38.443  1.00  0.00     0.124 S 
ATOM     76  O   UNL A   1      47.886  27.328  38.917  1.00  0.00    -0.237 OA
ATOM     77  O   UNL A   1      46.263  25.546  39.458  1.00  0.00    -0.237 OA
ATOM     78  O   UNL A   1      47.767  25.298  37.520  1.00  0.00    -0.744 OA
ENDBRANCH  74  75
ENDBRANCH  55  69
BRANCH  56  79
ATOM     79  C   UNL A   1      36.748  33.018  30.768  1.00  0.00    -0.014 A 
ATOM     80  C   UNL A   1      36.980  33.919  29.713  1.00  0.00     0.010 A 
ATOM     81  C   UNL A   1      35.424  32.765  31.171  1.00  0.00     0.010 A 
ATOM     82  C   UNL A   1      35.912  34.580  29.098  1.00  0.00     0.020 A 
ATOM     83  C   UNL A   1      34.353  33.401  30.537  1.00  0.00     0.020 A 
ATOM     84  C   UNL A   1      34.605  34.320  29.517  1.00  0.00     0.054 A 
BRANCH  84  85
ATOM     85  S   UNL A   1      33.232  35.170  28.691  1.00  0.00     0.124 S 
ATOM     86  O   UNL A   1      32.577  34.073  27.985  1.00  0.00    -0.237 OA
ATOM     87  O   UNL A   1      32.487  35.736  29.813  1.00  0.00    -0.237 OA
ATOM     88  O   UNL A   1      33.902  36.152  27.841  1.00  0.00    -0.744 OA
ENDBRANCH  84  85
ENDBRANCH  56  79
BRANCH  68  89
ATOM     89  C   UNL A   1      39.825  34.169  36.915  1.00  0.00    -0.014 A 
ATOM     90  C   UNL A   1      38.999  33.942  38.030  1.00  0.00     0.010 A 
ATOM     91  C   UNL A   1      40.528  35.385  36.820  1.00  0.00     0.010 A 
ATOM     92  C   UNL A   1      38.857  34.923  39.015  1.00  0.00     0.020 A 
ATOM     93  C   UNL A   1      40.408  36.358  37.815  1.00  0.00     0.020 A 
ATOM     94  C   UNL A   1      39.562  36.126  38.901  1.00  0.00     0.054 A 
BRANCH  94  95
ATOM     95  S   UNL A   1      39.396  37.367  40.214  1.00  0.00     0.124 S 
ATOM     96  O   UNL A   1      38.844  36.577  41.311  1.00  0.00    -0.237 OA
ATOM     97  O   UNL A   1      40.770  37.826  40.400  1.00  0.00    -0.237 OA
ATOM     98  O   UNL A   1      38.487  38.358  39.641  1.00  0.00    -0.744 OA
ENDBRANCH  94  95
ENDBRANCH  68  89
ENDBRANCH  42  43
ENDBRANCH  34  37
ENDBRANCH  32  33
ENDBRANCH  31  32
ENDBRANCH   1  31
TORSDOF 18
ENDMDL
