MODEL 1
REMARK VINA RESULT:     -12.2      0.000      0.000
REMARK SMILES CCCc1c(C(=O)NCCCNC(=O)c2ccc(-c3c4nc(c(-c5ccc(S(=O)(=O)[O-])cc5)c5ccc([nH]5)c(-c5ccc(S(=O)(=O)[O-])cc5)c5nc(c(-c6ccc(S(=O)(=O)[O-])cc6)c6ccc3[nH]6)C=C5)C=C4)cc2)nnn1-c1ccccc1[N+](=O)[O-]
REMARK SMILES IDX 10 1 9 2 8 3 6 4 7 5 5 7 4 8 77 9 75 10 76 11 3 12 2 13 1 14
REMARK SMILES IDX 78 15 79 16 83 17 80 18 82 19 81 20 84 21 85 22 86 23 11 24
REMARK SMILES IDX 12 25 13 26 14 28 15 29 16 30 74 31 17 32 73 33 18 34 19 35
REMARK SMILES IDX 20 36 67 37 21 38 72 39 66 40 68 41 22 42 71 43 65 44 64 45
REMARK SMILES IDX 23 47 53 48 34 49 52 50 35 51 38 52 51 53 69 54 36 55 37 56
REMARK SMILES IDX 50 58 70 59 39 60 24 61 25 62 33 63 26 64 32 65 27 66 28 67
REMARK SMILES IDX 29 68 30 69 31 70 54 71 55 72 63 73 56 74 62 75 57 76 58 77
REMARK SMILES IDX 59 78 60 79 61 80 40 81 41 82 49 83 42 84 48 85 43 86 44 87
REMARK SMILES IDX 45 88 46 89 47 90
REMARK H PARENT 8 6 12 27 68 46 38 57
REMARK Flexibility Score: inf
ROOT
ATOM      1  C   UNL A   1      37.393  21.068  24.945  1.00  0.00     0.042 C 
ENDROOT
BRANCH   1   2
ATOM      2  C   UNL A   1      35.923  21.355  24.720  1.00  0.00     0.118 C 
BRANCH   2   3
ATOM      3  N   UNL A   1      34.936  20.488  25.280  1.00  0.00    -0.351 N 
ATOM      4  C   UNL A   1      33.576  20.543  25.039  1.00  0.00     0.273 C 
ATOM      5  O   UNL A   1      32.903  19.610  25.480  1.00  0.00    -0.267 OA
ATOM      6  H   UNL A   1      35.253  19.787  25.894  1.00  0.00     0.163 HD
BRANCH   4   7
ATOM      7  C   UNL A   1      32.932  21.690  24.367  1.00  0.00     0.174 A 
ATOM      8  C   UNL A   1      32.771  23.068  24.621  1.00  0.00     0.078 A 
ATOM      9  N   UNL A   1      31.994  23.491  23.529  1.00  0.00    -0.210 N 
ATOM     10  N   UNL A   1      32.264  21.385  23.197  1.00  0.00    -0.124 NA
ATOM     11  N   UNL A   1      31.619  22.448  22.773  1.00  0.00    -0.061 NA
BRANCH   8  12
ATOM     12  C   UNL A   1      33.066  24.014  25.759  1.00  0.00     0.059 C 
BRANCH  12  13
ATOM     13  C   UNL A   1      34.134  25.105  25.636  1.00  0.00     0.003 C 
ATOM     14  C   UNL A   1      33.715  26.559  25.711  1.00  0.00     0.004 C 
ENDBRANCH  12  13
ENDBRANCH   8  12
BRANCH   9  15
ATOM     15  C   UNL A   1      31.384  24.747  23.299  1.00  0.00     0.144 A 
ATOM     16  C   UNL A   1      30.178  25.016  23.970  1.00  0.00     0.036 A 
ATOM     17  C   UNL A   1      31.957  25.744  22.500  1.00  0.00     0.294 A 
ATOM     18  C   UNL A   1      29.611  26.291  23.905  1.00  0.00     0.003 A 
ATOM     19  C   UNL A   1      31.388  27.025  22.439  1.00  0.00     0.088 A 
ATOM     20  C   UNL A   1      30.222  27.297  23.156  1.00  0.00     0.007 A 
BRANCH  17  21
ATOM     21  N   UNL A   1      33.105  25.477  21.642  1.00  0.00     0.065 N 
ATOM     22  O   UNL A   1      34.206  25.883  22.036  1.00  0.00    -0.258 OA
ATOM     23  O   UNL A   1      32.901  24.873  20.583  1.00  0.00    -0.258 OA
ENDBRANCH  17  21
ENDBRANCH   9  15
ENDBRANCH   4   7
ENDBRANCH   2   3
ENDBRANCH   1   2
BRANCH   1  24
ATOM     24  C   UNL A   1      38.116  22.211  25.635  1.00  0.00     0.118 C 
BRANCH  24  25
ATOM     25  N   UNL A   1      39.485  21.926  26.093  1.00  0.00    -0.352 N 
ATOM     26  C   UNL A   1      40.408  22.851  26.604  1.00  0.00     0.251 C 
ATOM     27  H   UNL A   1      39.783  20.989  26.037  1.00  0.00     0.163 HD
ATOM     28  O   UNL A   1      41.550  22.562  26.843  1.00  0.00    -0.269 OA
BRANCH  26  29
ATOM     29  C   UNL A   1      39.880  24.219  26.828  1.00  0.00     0.039 A 
ATOM     30  C   UNL A   1      39.323  24.566  28.063  1.00  0.00     0.014 A 
ATOM     31  C   UNL A   1      40.376  25.178  25.968  1.00  0.00     0.014 A 
ATOM     32  C   UNL A   1      39.458  25.884  28.519  1.00  0.00     0.010 A 
ATOM     33  C   UNL A   1      40.692  26.399  26.521  1.00  0.00     0.010 A 
ATOM     34  C   UNL A   1      40.233  26.794  27.786  1.00  0.00    -0.014 A 
BRANCH  34  35
ATOM     35  C   UNL A   1      40.688  28.078  28.361  1.00  0.00     0.031 A 
ATOM     36  C   UNL A   1      41.917  28.752  27.809  1.00  0.00     0.074 A 
ATOM     37  C   UNL A   1      39.924  28.832  29.187  1.00  0.00     0.049 A 
ATOM     38  N   UNL A   1      43.012  29.035  28.445  1.00  0.00    -0.248 NA
ATOM     39  C   UNL A   1      41.937  29.185  26.404  1.00  0.00     0.031 C 
ATOM     40  C   UNL A   1      38.571  28.576  29.699  1.00  0.00     0.029 A 
ATOM     41  N   UNL A   1      40.158  30.103  29.618  1.00  0.00    -0.354 N 
ATOM     42  C   UNL A   1      43.800  29.810  27.591  1.00  0.00     0.074 A 
ATOM     43  C   UNL A   1      43.126  29.793  26.314  1.00  0.00     0.031 C 
ATOM     44  C   UNL A   1      37.993  29.738  30.061  1.00  0.00     0.029 A 
ATOM     45  C   UNL A   1      39.021  30.755  30.066  1.00  0.00     0.049 A 
ATOM     46  H   UNL A   1      41.050  30.518  29.612  1.00  0.00     0.167 HD
ATOM     47  C   UNL A   1      44.874  30.536  28.025  1.00  0.00     0.031 A 
ATOM     48  C   UNL A   1      38.909  32.038  30.467  1.00  0.00     0.031 A 
ATOM     49  C   UNL A   1      45.217  30.242  29.391  1.00  0.00     0.049 A 
ATOM     50  C   UNL A   1      40.249  32.457  30.931  1.00  0.00     0.074 A 
ATOM     51  C   UNL A   1      45.600  29.114  30.089  1.00  0.00     0.029 A 
ATOM     52  N   UNL A   1      44.839  31.153  30.351  1.00  0.00    -0.354 N 
ATOM     53  N   UNL A   1      40.853  31.894  31.943  1.00  0.00    -0.248 NA
ATOM     54  C   UNL A   1      41.112  33.204  30.033  1.00  0.00     0.031 C 
ATOM     55  C   UNL A   1      44.927  29.221  31.344  1.00  0.00     0.029 A 
ATOM     56  C   UNL A   1      44.224  30.429  31.342  1.00  0.00     0.049 A 
ATOM     57  H   UNL A   1      44.981  32.126  30.331  1.00  0.00     0.167 HD
ATOM     58  C   UNL A   1      42.190  31.843  31.581  1.00  0.00     0.074 A 
ATOM     59  C   UNL A   1      42.306  32.784  30.468  1.00  0.00     0.031 C 
ATOM     60  C   UNL A   1      43.016  30.848  32.029  1.00  0.00     0.031 A 
BRANCH  47  61
ATOM     61  C   UNL A   1      45.468  31.743  27.335  1.00  0.00    -0.014 A 
ATOM     62  C   UNL A   1      46.839  31.740  26.991  1.00  0.00     0.010 A 
ATOM     63  C   UNL A   1      44.793  32.976  27.253  1.00  0.00     0.010 A 
ATOM     64  C   UNL A   1      47.513  32.920  26.641  1.00  0.00     0.020 A 
ATOM     65  C   UNL A   1      45.447  34.154  26.868  1.00  0.00     0.020 A 
ATOM     66  C   UNL A   1      46.813  34.125  26.600  1.00  0.00     0.054 A 
BRANCH  66  67
ATOM     67  S   UNL A   1      47.716  35.663  26.272  1.00  0.00     0.124 S 
ATOM     68  O   UNL A   1      46.650  36.543  25.803  1.00  0.00    -0.237 OA
ATOM     69  O   UNL A   1      48.274  35.988  27.582  1.00  0.00    -0.237 OA
ATOM     70  O   UNL A   1      48.699  35.274  25.262  1.00  0.00    -0.744 OA
ENDBRANCH  66  67
ENDBRANCH  47  61
BRANCH  48  71
ATOM     71  C   UNL A   1      37.760  32.928  30.204  1.00  0.00    -0.014 A 
ATOM     72  C   UNL A   1      37.384  33.278  28.900  1.00  0.00     0.010 A 
ATOM     73  C   UNL A   1      36.875  33.256  31.259  1.00  0.00     0.010 A 
ATOM     74  C   UNL A   1      36.143  33.887  28.652  1.00  0.00     0.020 A 
ATOM     75  C   UNL A   1      35.641  33.868  31.020  1.00  0.00     0.020 A 
ATOM     76  C   UNL A   1      35.272  34.159  29.711  1.00  0.00     0.054 A 
BRANCH  76  77
ATOM     77  S   UNL A   1      33.600  34.773  29.355  1.00  0.00     0.124 S 
ATOM     78  O   UNL A   1      33.131  33.829  28.345  1.00  0.00    -0.237 OA
ATOM     79  O   UNL A   1      32.946  34.681  30.658  1.00  0.00    -0.237 OA
ATOM     80  O   UNL A   1      33.828  36.136  28.877  1.00  0.00    -0.744 OA
ENDBRANCH  76  77
ENDBRANCH  48  71
BRANCH  60  81
ATOM     81  C   UNL A   1      42.507  29.905  33.106  1.00  0.00    -0.014 A 
ATOM     82  C   UNL A   1      41.695  28.790  32.819  1.00  0.00     0.010 A 
ATOM     83  C   UNL A   1      43.020  30.029  34.410  1.00  0.00     0.010 A 
ATOM     84  C   UNL A   1      41.389  27.838  33.802  1.00  0.00     0.020 A 
ATOM     85  C   UNL A   1      42.731  29.074  35.394  1.00  0.00     0.020 A 
ATOM     86  C   UNL A   1      41.914  27.985  35.087  1.00  0.00     0.054 A 
BRANCH  86  87
ATOM     87  S   UNL A   1      41.572  26.708  36.331  1.00  0.00     0.124 S 
ATOM     88  O   UNL A   1      40.686  27.401  37.263  1.00  0.00    -0.237 OA
ATOM     89  O   UNL A   1      40.949  25.644  35.546  1.00  0.00    -0.237 OA
ATOM     90  O   UNL A   1      42.893  26.379  36.863  1.00  0.00    -0.744 OA
ENDBRANCH  86  87
ENDBRANCH  60  81
ENDBRANCH  34  35
ENDBRANCH  26  29
ENDBRANCH  24  25
ENDBRANCH   1  24
TORSDOF 17
ENDMDL
MODEL 2
REMARK VINA RESULT:     -12.0      1.496      2.083
REMARK SMILES CCCc1c(C(=O)NCCCNC(=O)c2ccc(-c3c4nc(c(-c5ccc(S(=O)(=O)[O-])cc5)c5ccc([nH]5)c(-c5ccc(S(=O)(=O)[O-])cc5)c5nc(c(-c6ccc(S(=O)(=O)[O-])cc6)c6ccc3[nH]6)C=C5)C=C4)cc2)nnn1-c1ccccc1[N+](=O)[O-]
REMARK SMILES IDX 10 1 9 2 8 3 6 4 7 5 5 7 4 8 77 9 75 10 76 11 3 12 2 13 1 14
REMARK SMILES IDX 78 15 79 16 83 17 80 18 82 19 81 20 84 21 85 22 86 23 11 24
REMARK SMILES IDX 12 25 13 26 14 28 15 29 16 30 74 31 17 32 73 33 18 34 19 35
REMARK SMILES IDX 20 36 67 37 21 38 72 39 66 40 68 41 22 42 71 43 65 44 64 45
REMARK SMILES IDX 23 47 53 48 34 49 52 50 35 51 38 52 51 53 69 54 36 55 37 56
REMARK SMILES IDX 50 58 70 59 39 60 24 61 25 62 33 63 26 64 32 65 27 66 28 67
REMARK SMILES IDX 29 68 30 69 31 70 54 71 55 72 63 73 56 74 62 75 57 76 58 77
REMARK SMILES IDX 59 78 60 79 61 80 40 81 41 82 49 83 42 84 48 85 43 86 44 87
REMARK SMILES IDX 45 88 46 89 47 90
REMARK H PARENT 8 6 12 27 68 46 38 57
REMARK Flexibility Score: inf
ROOT
ATOM      1  C   UNL A   1      37.789  20.840  25.229  1.00  0.00     0.042 C 
ENDROOT
BRANCH   1   2
ATOM      2  C   UNL A   1      36.373  21.362  25.090  1.00  0.00     0.118 C 
BRANCH   2   3
ATOM      3  N   UNL A   1      35.274  20.451  25.138  1.00  0.00    -0.351 N 
ATOM      4  C   UNL A   1      33.937  20.797  25.190  1.00  0.00     0.273 C 
ATOM      5  O   UNL A   1      33.128  19.877  25.059  1.00  0.00    -0.267 OA
ATOM      6  H   UNL A   1      35.487  19.490  25.134  1.00  0.00     0.163 HD
BRANCH   4   7
ATOM      7  C   UNL A   1      33.479  22.172  25.474  1.00  0.00     0.174 A 
ATOM      8  C   UNL A   1      33.453  23.406  24.789  1.00  0.00     0.078 A 
ATOM      9  N   UNL A   1      32.895  24.272  25.744  1.00  0.00    -0.210 N 
ATOM     10  N   UNL A   1      32.965  22.370  26.741  1.00  0.00    -0.124 NA
ATOM     11  N   UNL A   1      32.727  23.650  26.920  1.00  0.00    -0.061 NA
BRANCH   8  12
ATOM     12  C   UNL A   1      33.994  23.948  23.489  1.00  0.00     0.059 C 
BRANCH  12  13
ATOM     13  C   UNL A   1      33.063  24.377  22.352  1.00  0.00     0.003 C 
ATOM     14  C   UNL A   1      32.981  25.843  21.979  1.00  0.00     0.004 C 
ENDBRANCH  12  13
ENDBRANCH   8  12
BRANCH   9  15
ATOM     15  C   UNL A   1      32.749  25.679  25.696  1.00  0.00     0.144 A 
ATOM     16  C   UNL A   1      33.891  26.459  25.952  1.00  0.00     0.036 A 
ATOM     17  C   UNL A   1      31.554  26.317  25.342  1.00  0.00     0.294 A 
ATOM     18  C   UNL A   1      33.848  27.843  25.770  1.00  0.00     0.003 A 
ATOM     19  C   UNL A   1      31.514  27.706  25.155  1.00  0.00     0.088 A 
ATOM     20  C   UNL A   1      32.669  28.463  25.356  1.00  0.00     0.007 A 
BRANCH  17  21
ATOM     21  N   UNL A   1      30.296  25.588  25.235  1.00  0.00     0.065 N 
ATOM     22  O   UNL A   1      29.710  25.322  26.293  1.00  0.00    -0.258 OA
ATOM     23  O   UNL A   1      29.905  25.281  24.104  1.00  0.00    -0.258 OA
ENDBRANCH  17  21
ENDBRANCH   9  15
ENDBRANCH   4   7
ENDBRANCH   2   3
ENDBRANCH   1   2
BRANCH   1  24
ATOM     24  C   UNL A   1      38.759  21.898  25.723  1.00  0.00     0.118 C 
BRANCH  24  25
ATOM     25  N   UNL A   1      39.627  21.505  26.845  1.00  0.00    -0.352 N 
ATOM     26  C   UNL A   1      40.561  22.315  27.506  1.00  0.00     0.251 C 
ATOM     27  H   UNL A   1      39.542  20.577  27.165  1.00  0.00     0.163 HD
ATOM     28  O   UNL A   1      41.321  21.887  28.334  1.00  0.00    -0.269 OA
BRANCH  26  29
ATOM     29  C   UNL A   1      40.554  23.746  27.113  1.00  0.00     0.039 A 
ATOM     30  C   UNL A   1      39.383  24.501  27.224  1.00  0.00     0.014 A 
ATOM     31  C   UNL A   1      41.798  24.346  27.092  1.00  0.00     0.014 A 
ATOM     32  C   UNL A   1      39.484  25.866  27.524  1.00  0.00     0.010 A 
ATOM     33  C   UNL A   1      41.874  25.624  27.599  1.00  0.00     0.010 A 
ATOM     34  C   UNL A   1      40.739  26.421  27.809  1.00  0.00    -0.014 A 
BRANCH  34  35
ATOM     35  C   UNL A   1      40.884  27.747  28.446  1.00  0.00     0.031 A 
ATOM     36  C   UNL A   1      41.984  28.676  28.001  1.00  0.00     0.074 A 
ATOM     37  C   UNL A   1      39.931  28.299  29.234  1.00  0.00     0.049 A 
ATOM     38  N   UNL A   1      42.954  29.149  28.720  1.00  0.00    -0.248 NA
ATOM     39  C   UNL A   1      42.006  29.158  26.612  1.00  0.00     0.031 C 
ATOM     40  C   UNL A   1      38.628  27.756  29.641  1.00  0.00     0.029 A 
ATOM     41  N   UNL A   1      39.873  29.573  29.712  1.00  0.00    -0.354 N 
ATOM     42  C   UNL A   1      43.622  30.099  27.944  1.00  0.00     0.074 A 
ATOM     43  C   UNL A   1      43.050  29.996  26.622  1.00  0.00     0.031 C 
ATOM     44  C   UNL A   1      37.803  28.763  29.990  1.00  0.00     0.029 A 
ATOM     45  C   UNL A   1      38.600  29.965  30.094  1.00  0.00     0.049 A 
ATOM     46  H   UNL A   1      40.660  30.160  29.780  1.00  0.00     0.167 HD
ATOM     47  C   UNL A   1      44.495  31.009  28.471  1.00  0.00     0.031 A 
ATOM     48  C   UNL A   1      38.203  31.183  30.517  1.00  0.00     0.031 A 
ATOM     49  C   UNL A   1      44.802  30.738  29.851  1.00  0.00     0.049 A 
ATOM     50  C   UNL A   1      39.396  31.845  31.086  1.00  0.00     0.074 A 
ATOM     51  C   UNL A   1      45.360  29.684  30.546  1.00  0.00     0.029 A 
ATOM     52  N   UNL A   1      44.184  31.516  30.804  1.00  0.00    -0.354 N 
ATOM     53  N   UNL A   1      40.036  31.376  32.125  1.00  0.00    -0.248 NA
ATOM     54  C   UNL A   1      40.146  32.784  30.271  1.00  0.00     0.031 C 
ATOM     55  C   UNL A   1      44.599  29.605  31.752  1.00  0.00     0.029 A 
ATOM     56  C   UNL A   1      43.666  30.645  31.730  1.00  0.00     0.049 A 
ATOM     57  H   UNL A   1      44.126  32.498  30.819  1.00  0.00     0.167 HD
ATOM     58  C   UNL A   1      41.376  31.609  31.858  1.00  0.00     0.074 A 
ATOM     59  C   UNL A   1      41.369  32.597  30.779  1.00  0.00     0.031 C 
ATOM     60  C   UNL A   1      42.356  30.785  32.339  1.00  0.00     0.031 A 
BRANCH  47  61
ATOM     61  C   UNL A   1      44.874  32.337  27.856  1.00  0.00    -0.014 A 
ATOM     62  C   UNL A   1      46.207  32.797  27.965  1.00  0.00     0.010 A 
ATOM     63  C   UNL A   1      43.914  33.266  27.410  1.00  0.00     0.010 A 
ATOM     64  C   UNL A   1      46.550  34.131  27.698  1.00  0.00     0.020 A 
ATOM     65  C   UNL A   1      44.253  34.591  27.104  1.00  0.00     0.020 A 
ATOM     66  C   UNL A   1      45.563  35.025  27.286  1.00  0.00     0.054 A 
BRANCH  66  67
ATOM     67  S   UNL A   1      45.988  36.775  27.067  1.00  0.00     0.124 S 
ATOM     68  O   UNL A   1      44.671  37.404  27.049  1.00  0.00    -0.237 OA
ATOM     69  O   UNL A   1      46.806  37.051  28.245  1.00  0.00    -0.237 OA
ATOM     70  O   UNL A   1      46.710  36.794  25.796  1.00  0.00    -0.744 OA
ENDBRANCH  66  67
ENDBRANCH  47  61
BRANCH  48  71
ATOM     71  C   UNL A   1      36.916  31.832  30.195  1.00  0.00    -0.014 A 
ATOM     72  C   UNL A   1      36.144  32.462  31.180  1.00  0.00     0.010 A 
ATOM     73  C   UNL A   1      36.554  32.031  28.841  1.00  0.00     0.010 A 
ATOM     74  C   UNL A   1      35.078  33.305  30.823  1.00  0.00     0.020 A 
ATOM     75  C   UNL A   1      35.492  32.863  28.479  1.00  0.00     0.020 A 
ATOM     76  C   UNL A   1      34.773  33.516  29.475  1.00  0.00     0.054 A 
BRANCH  76  77
ATOM     77  S   UNL A   1      33.517  34.749  29.028  1.00  0.00     0.124 S 
ATOM     78  O   UNL A   1      32.896  35.041  30.316  1.00  0.00    -0.237 OA
ATOM     79  O   UNL A   1      34.322  35.825  28.455  1.00  0.00    -0.237 OA
ATOM     80  O   UNL A   1      32.666  34.044  28.071  1.00  0.00    -0.744 OA
ENDBRANCH  76  77
ENDBRANCH  48  71
BRANCH  60  81
ATOM     81  C   UNL A   1      41.981  29.718  33.353  1.00  0.00    -0.014 A 
ATOM     82  C   UNL A   1      41.501  28.448  32.978  1.00  0.00     0.010 A 
ATOM     83  C   UNL A   1      42.306  29.926  34.706  1.00  0.00     0.010 A 
ATOM     84  C   UNL A   1      41.334  27.422  33.921  1.00  0.00     0.020 A 
ATOM     85  C   UNL A   1      42.156  28.904  35.651  1.00  0.00     0.020 A 
ATOM     86  C   UNL A   1      41.667  27.657  35.256  1.00  0.00     0.054 A 
BRANCH  86  87
ATOM     87  S   UNL A   1      41.516  26.303  36.454  1.00  0.00     0.124 S 
ATOM     88  O   UNL A   1      40.797  25.283  35.695  1.00  0.00    -0.237 OA
ATOM     89  O   UNL A   1      42.909  25.986  36.767  1.00  0.00    -0.237 OA
ATOM     90  O   UNL A   1      40.764  26.898  37.558  1.00  0.00    -0.744 OA
ENDBRANCH  86  87
ENDBRANCH  60  81
ENDBRANCH  34  35
ENDBRANCH  26  29
ENDBRANCH  24  25
ENDBRANCH   1  24
TORSDOF 17
ENDMDL
MODEL 3
REMARK VINA RESULT:     -11.9      1.558      2.198
REMARK SMILES CCCc1c(C(=O)NCCCNC(=O)c2ccc(-c3c4nc(c(-c5ccc(S(=O)(=O)[O-])cc5)c5ccc([nH]5)c(-c5ccc(S(=O)(=O)[O-])cc5)c5nc(c(-c6ccc(S(=O)(=O)[O-])cc6)c6ccc3[nH]6)C=C5)C=C4)cc2)nnn1-c1ccccc1[N+](=O)[O-]
REMARK SMILES IDX 10 1 9 2 8 3 6 4 7 5 5 7 4 8 77 9 75 10 76 11 3 12 2 13 1 14
REMARK SMILES IDX 78 15 79 16 83 17 80 18 82 19 81 20 84 21 85 22 86 23 11 24
REMARK SMILES IDX 12 25 13 26 14 28 15 29 16 30 74 31 17 32 73 33 18 34 19 35
REMARK SMILES IDX 20 36 67 37 21 38 72 39 66 40 68 41 22 42 71 43 65 44 64 45
REMARK SMILES IDX 23 47 53 48 34 49 52 50 35 51 38 52 51 53 69 54 36 55 37 56
REMARK SMILES IDX 50 58 70 59 39 60 24 61 25 62 33 63 26 64 32 65 27 66 28 67
REMARK SMILES IDX 29 68 30 69 31 70 54 71 55 72 63 73 56 74 62 75 57 76 58 77
REMARK SMILES IDX 59 78 60 79 61 80 40 81 41 82 49 83 42 84 48 85 43 86 44 87
REMARK SMILES IDX 45 88 46 89 47 90
REMARK H PARENT 8 6 12 27 68 46 38 57
REMARK Flexibility Score: inf
ROOT
ATOM      1  C   UNL A   1      37.231  21.788  25.226  1.00  0.00     0.042 C 
ENDROOT
BRANCH   1   2
ATOM      2  C   UNL A   1      36.259  22.653  24.450  1.00  0.00     0.118 C 
BRANCH   2   3
ATOM      3  N   UNL A   1      35.061  22.079  23.927  1.00  0.00    -0.351 N 
ATOM      4  C   UNL A   1      33.949  22.777  23.496  1.00  0.00     0.273 C 
ATOM      5  O   UNL A   1      33.078  22.121  22.923  1.00  0.00    -0.267 OA
ATOM      6  H   UNL A   1      35.023  21.097  23.867  1.00  0.00     0.163 HD
BRANCH   4   7
ATOM      7  C   UNL A   1      33.753  24.215  23.772  1.00  0.00     0.174 A 
ATOM      8  C   UNL A   1      33.283  24.997  24.848  1.00  0.00     0.078 A 
ATOM      9  N   UNL A   1      33.360  26.302  24.333  1.00  0.00    -0.210 N 
ATOM     10  N   UNL A   1      34.060  25.061  22.724  1.00  0.00    -0.124 NA
ATOM     11  N   UNL A   1      33.713  26.288  23.039  1.00  0.00    -0.061 NA
BRANCH   8  12
ATOM     12  C   UNL A   1      32.635  24.742  26.187  1.00  0.00     0.059 C 
BRANCH  12  13
ATOM     13  C   UNL A   1      32.651  23.353  26.832  1.00  0.00     0.003 C 
ATOM     14  C   UNL A   1      33.967  22.783  27.321  1.00  0.00     0.004 C 
ENDBRANCH  12  13
ENDBRANCH   8  12
BRANCH   9  15
ATOM     15  C   UNL A   1      32.887  27.513  24.893  1.00  0.00     0.144 A 
ATOM     16  C   UNL A   1      33.767  28.232  25.721  1.00  0.00     0.036 A 
ATOM     17  C   UNL A   1      31.627  28.052  24.605  1.00  0.00     0.294 A 
ATOM     18  C   UNL A   1      33.416  29.504  26.177  1.00  0.00     0.003 A 
ATOM     19  C   UNL A   1      31.278  29.332  25.061  1.00  0.00     0.088 A 
ATOM     20  C   UNL A   1      32.183  30.060  25.834  1.00  0.00     0.007 A 
BRANCH  17  21
ATOM     21  N   UNL A   1      30.605  27.287  23.902  1.00  0.00     0.065 N 
ATOM     22  O   UNL A   1      29.924  26.505  24.580  1.00  0.00    -0.258 OA
ATOM     23  O   UNL A   1      30.492  27.464  22.684  1.00  0.00    -0.258 OA
ENDBRANCH  17  21
ENDBRANCH   9  15
ENDBRANCH   4   7
ENDBRANCH   2   3
ENDBRANCH   1   2
BRANCH   1  24
ATOM     24  C   UNL A   1      38.443  22.560  25.717  1.00  0.00     0.118 C 
BRANCH  24  25
ATOM     25  N   UNL A   1      39.211  21.933  26.804  1.00  0.00    -0.352 N 
ATOM     26  C   UNL A   1      40.346  22.458  27.440  1.00  0.00     0.251 C 
ATOM     27  H   UNL A   1      38.895  21.055  27.119  1.00  0.00     0.163 HD
ATOM     28  O   UNL A   1      40.992  21.831  28.237  1.00  0.00    -0.269 OA
BRANCH  26  29
ATOM     29  C   UNL A   1      40.702  23.847  27.059  1.00  0.00     0.039 A 
ATOM     30  C   UNL A   1      39.704  24.758  26.701  1.00  0.00     0.014 A 
ATOM     31  C   UNL A   1      41.935  24.273  27.514  1.00  0.00     0.014 A 
ATOM     32  C   UNL A   1      39.887  26.115  27.003  1.00  0.00     0.010 A 
ATOM     33  C   UNL A   1      42.003  25.560  27.999  1.00  0.00     0.010 A 
ATOM     34  C   UNL A   1      41.006  26.515  27.745  1.00  0.00    -0.014 A 
BRANCH  34  35
ATOM     35  C   UNL A   1      41.095  27.849  28.375  1.00  0.00     0.031 A 
ATOM     36  C   UNL A   1      42.176  28.808  27.950  1.00  0.00     0.074 A 
ATOM     37  C   UNL A   1      40.105  28.376  29.135  1.00  0.00     0.049 A 
ATOM     38  N   UNL A   1      43.112  29.317  28.689  1.00  0.00    -0.248 NA
ATOM     39  C   UNL A   1      42.218  29.281  26.558  1.00  0.00     0.031 C 
ATOM     40  C   UNL A   1      38.810  27.795  29.514  1.00  0.00     0.029 A 
ATOM     41  N   UNL A   1      39.995  29.651  29.601  1.00  0.00    -0.354 N 
ATOM     42  C   UNL A   1      43.769  30.282  27.922  1.00  0.00     0.074 A 
ATOM     43  C   UNL A   1      43.234  30.152  26.588  1.00  0.00     0.031 C 
ATOM     44  C   UNL A   1      37.946  28.778  29.834  1.00  0.00     0.029 A 
ATOM     45  C   UNL A   1      38.702  30.006  29.948  1.00  0.00     0.049 A 
ATOM     46  H   UNL A   1      40.762  30.262  29.684  1.00  0.00     0.167 HD
ATOM     47  C   UNL A   1      44.601  31.222  28.464  1.00  0.00     0.031 A 
ATOM     48  C   UNL A   1      38.257  31.214  30.352  1.00  0.00     0.031 A 
ATOM     49  C   UNL A   1      44.881  30.970  29.853  1.00  0.00     0.049 A 
ATOM     50  C   UNL A   1      39.414  31.917  30.945  1.00  0.00     0.074 A 
ATOM     51  C   UNL A   1      45.454  29.939  30.570  1.00  0.00     0.029 A 
ATOM     52  N   UNL A   1      44.215  31.735  30.784  1.00  0.00    -0.354 N 
ATOM     53  N   UNL A   1      40.042  31.476  32.003  1.00  0.00    -0.248 NA
ATOM     54  C   UNL A   1      40.155  32.873  30.141  1.00  0.00     0.031 C 
ATOM     55  C   UNL A   1      44.666  29.845  31.757  1.00  0.00     0.029 A 
ATOM     56  C   UNL A   1      43.701  30.856  31.704  1.00  0.00     0.049 A 
ATOM     57  H   UNL A   1      44.126  32.716  30.790  1.00  0.00     0.167 HD
ATOM     58  C   UNL A   1      41.380  31.749  31.767  1.00  0.00     0.074 A 
ATOM     59  C   UNL A   1      41.370  32.728  30.681  1.00  0.00     0.031 C 
ATOM     60  C   UNL A   1      42.373  30.959  32.279  1.00  0.00     0.031 A 
BRANCH  47  61
ATOM     61  C   UNL A   1      44.953  32.557  27.848  1.00  0.00    -0.014 A 
ATOM     62  C   UNL A   1      46.313  32.907  27.684  1.00  0.00     0.010 A 
ATOM     63  C   UNL A   1      44.004  33.583  27.670  1.00  0.00     0.010 A 
ATOM     64  C   UNL A   1      46.706  34.228  27.416  1.00  0.00     0.020 A 
ATOM     65  C   UNL A   1      44.384  34.896  27.364  1.00  0.00     0.020 A 
ATOM     66  C   UNL A   1      45.736  35.218  27.275  1.00  0.00     0.054 A 
BRANCH  66  67
ATOM     67  S   UNL A   1      46.256  36.943  27.056  1.00  0.00     0.124 S 
ATOM     68  O   UNL A   1      46.999  37.191  28.287  1.00  0.00    -0.237 OA
ATOM     69  O   UNL A   1      47.055  36.879  25.836  1.00  0.00    -0.237 OA
ATOM     70  O   UNL A   1      44.992  37.666  26.929  1.00  0.00    -0.744 OA
ENDBRANCH  66  67
ENDBRANCH  47  61
BRANCH  48  71
ATOM     71  C   UNL A   1      36.959  31.820  29.992  1.00  0.00    -0.014 A 
ATOM     72  C   UNL A   1      36.021  32.183  30.969  1.00  0.00     0.010 A 
ATOM     73  C   UNL A   1      36.737  32.259  28.666  1.00  0.00     0.010 A 
ATOM     74  C   UNL A   1      34.928  33.001  30.642  1.00  0.00     0.020 A 
ATOM     75  C   UNL A   1      35.647  33.068  28.331  1.00  0.00     0.020 A 
ATOM     76  C   UNL A   1      34.760  33.455  29.330  1.00  0.00     0.054 A 
BRANCH  76  77
ATOM     77  S   UNL A   1      33.450  34.660  28.964  1.00  0.00     0.124 S 
ATOM     78  O   UNL A   1      32.633  33.944  27.991  1.00  0.00    -0.237 OA
ATOM     79  O   UNL A   1      32.839  34.867  30.275  1.00  0.00    -0.237 OA
ATOM     80  O   UNL A   1      34.180  35.812  28.439  1.00  0.00    -0.744 OA
ENDBRANCH  76  77
ENDBRANCH  48  71
BRANCH  60  81
ATOM     81  C   UNL A   1      42.006  29.888  33.292  1.00  0.00    -0.014 A 
ATOM     82  C   UNL A   1      41.518  28.621  32.916  1.00  0.00     0.010 A 
ATOM     83  C   UNL A   1      42.347  30.088  34.642  1.00  0.00     0.010 A 
ATOM     84  C   UNL A   1      41.358  27.591  33.855  1.00  0.00     0.020 A 
ATOM     85  C   UNL A   1      42.205  29.061  35.584  1.00  0.00     0.020 A 
ATOM     86  C   UNL A   1      41.707  27.819  35.187  1.00  0.00     0.054 A 
BRANCH  86  87
ATOM     87  S   UNL A   1      41.566  26.458  36.381  1.00  0.00     0.124 S 
ATOM     88  O   UNL A   1      40.971  25.392  35.580  1.00  0.00    -0.237 OA
ATOM     89  O   UNL A   1      42.952  26.237  36.791  1.00  0.00    -0.237 OA
ATOM     90  O   UNL A   1      40.700  27.002  37.427  1.00  0.00    -0.744 OA
ENDBRANCH  86  87
ENDBRANCH  60  81
ENDBRANCH  34  35
ENDBRANCH  26  29
ENDBRANCH  24  25
ENDBRANCH   1  24
TORSDOF 17
ENDMDL
