MODEL 1
REMARK VINA RESULT:     -10.7      0.000      0.000
REMARK SMILES C[C@H](NC(=O)NCCc1ccccc1F)C(=O)NCCCNC(=O)c1ccc(-c2c3nc(c(-c4ccc(S(=O)(=O)[O-])cc4)c4ccc([nH]4)c(-c4ccc(S(=O)(=O)[O-])cc4)c4nc(c(-c5ccc(S(=O)(=O)[O-])cc5)c5ccc2[nH]5)C=C4)C=C3)cc1
REMARK SMILES IDX 19 1 18 2 16 3 17 4 2 6 1 7 3 8 4 9 5 11 6 12 7 14 8 15 9 16
REMARK SMILES IDX 10 17 14 18 11 19 13 20 15 21 12 22 20 23 21 24 22 25 23 26
REMARK SMILES IDX 24 28 25 29 26 30 84 31 27 32 83 33 28 34 29 35 30 36 77 37
REMARK SMILES IDX 31 38 82 39 76 40 78 41 32 42 81 43 75 44 74 45 33 47 63 48
REMARK SMILES IDX 44 49 62 50 45 51 48 52 61 53 79 54 46 55 47 56 60 58 80 59
REMARK SMILES IDX 49 60 34 61 35 62 43 63 36 64 42 65 37 66 38 67 39 68 40 69
REMARK SMILES IDX 41 70 64 71 65 72 73 73 66 74 72 75 67 76 68 77 69 78 70 79
REMARK SMILES IDX 71 80 50 81 51 82 59 83 52 84 58 85 53 86 54 87 55 88 56 89
REMARK SMILES IDX 57 90
REMARK H PARENT 18 5 3 10 6 13 22 27 78 46 48 57
REMARK Flexibility Score: inf
ROOT
ATOM      1  C   UNL A   1      32.596  26.556  26.159  1.00  0.00     0.117 C 
ENDROOT
BRANCH   1   2
ATOM      2  N   UNL A   1      32.992  25.738  25.038  1.00  0.00    -0.354 N 
ATOM      3  C   UNL A   1      32.239  24.960  24.215  1.00  0.00     0.242 C 
ATOM      4  O   UNL A   1      32.787  24.575  23.174  1.00  0.00    -0.273 OA
ATOM      5  H   UNL A   1      33.955  25.744  24.838  1.00  0.00     0.163 HD
BRANCH   3   6
ATOM      6  C   UNL A   1      30.731  24.678  24.436  1.00  0.00     0.170 C 
ATOM      7  C   UNL A   1      29.859  25.763  23.824  1.00  0.00     0.041 C 
BRANCH   6   8
ATOM      8  N   UNL A   1      30.326  24.103  25.723  1.00  0.00    -0.327 N 
ATOM      9  C   UNL A   1      30.524  23.088  26.551  1.00  0.00     0.315 C 
ATOM     10  H   UNL A   1      29.651  24.698  26.124  1.00  0.00     0.166 HD
ATOM     11  O   UNL A   1      29.890  23.128  27.610  1.00  0.00    -0.249 OA
ATOM     12  N   UNL A   1      31.319  22.043  26.369  1.00  0.00    -0.338 N 
ATOM     13  H   UNL A   1      31.360  21.475  27.172  1.00  0.00     0.165 HD
BRANCH  12  14
ATOM     14  C   UNL A   1      32.143  21.514  25.302  1.00  0.00     0.122 C 
BRANCH  14  15
ATOM     15  C   UNL A   1      33.493  21.003  25.807  1.00  0.00     0.060 C 
BRANCH  15  16
ATOM     16  C   UNL A   1      34.619  21.910  25.381  1.00  0.00    -0.010 A 
ATOM     17  C   UNL A   1      35.418  21.582  24.276  1.00  0.00     0.007 A 
ATOM     18  C   UNL A   1      34.930  23.062  26.110  1.00  0.00     0.126 A 
ATOM     19  C   UNL A   1      36.504  22.386  23.926  1.00  0.00     0.000 A 
ATOM     20  C   UNL A   1      36.013  23.866  25.769  1.00  0.00     0.039 A 
ATOM     21  F   UNL A   1      34.193  23.393  27.180  1.00  0.00    -0.207 F 
ATOM     22  C   UNL A   1      36.804  23.525  24.674  1.00  0.00     0.003 A 
ENDBRANCH  15  16
ENDBRANCH  14  15
ENDBRANCH  12  14
ENDBRANCH   6   8
ENDBRANCH   3   6
ENDBRANCH   1   2
BRANCH   1  23
ATOM     23  C   UNL A   1      33.369  27.858  26.274  1.00  0.00     0.042 C 
BRANCH  23  24
ATOM     24  C   UNL A   1      33.223  28.522  27.636  1.00  0.00     0.118 C 
BRANCH  24  25
ATOM     25  N   UNL A   1      33.326  29.978  27.570  1.00  0.00    -0.352 N 
ATOM     26  C   UNL A   1      34.386  30.798  27.879  1.00  0.00     0.251 C 
ATOM     27  H   UNL A   1      32.516  30.441  27.258  1.00  0.00     0.163 HD
ATOM     28  O   UNL A   1      34.228  32.016  27.909  1.00  0.00    -0.269 OA
BRANCH  26  29
ATOM     29  C   UNL A   1      35.702  30.208  28.195  1.00  0.00     0.039 A 
ATOM     30  C   UNL A   1      36.655  30.075  27.180  1.00  0.00     0.014 A 
ATOM     31  C   UNL A   1      36.002  29.807  29.499  1.00  0.00     0.014 A 
ATOM     32  C   UNL A   1      37.939  29.624  27.493  1.00  0.00     0.010 A 
ATOM     33  C   UNL A   1      37.301  29.439  29.823  1.00  0.00     0.010 A 
ATOM     34  C   UNL A   1      38.285  29.348  28.826  1.00  0.00    -0.014 A 
BRANCH  34  35
ATOM     35  C   UNL A   1      39.663  28.966  29.222  1.00  0.00     0.031 A 
ATOM     36  C   UNL A   1      40.560  29.987  29.867  1.00  0.00     0.074 A 
ATOM     37  C   UNL A   1      40.143  27.750  28.896  1.00  0.00     0.049 A 
ATOM     38  N   UNL A   1      41.841  29.918  30.121  1.00  0.00    -0.248 NA
ATOM     39  C   UNL A   1      39.940  31.269  30.242  1.00  0.00     0.031 C 
ATOM     40  C   UNL A   1      39.383  26.683  28.237  1.00  0.00     0.029 A 
ATOM     41  N   UNL A   1      41.395  27.210  29.056  1.00  0.00    -0.354 N 
ATOM     42  C   UNL A   1      42.187  31.157  30.648  1.00  0.00     0.074 A 
ATOM     43  C   UNL A   1      40.990  31.969  30.643  1.00  0.00     0.031 C 
ATOM     44  C   UNL A   1      40.181  25.617  28.063  1.00  0.00     0.029 A 
ATOM     45  C   UNL A   1      41.518  25.938  28.550  1.00  0.00     0.049 A 
ATOM     46  H   UNL A   1      42.136  27.691  29.491  1.00  0.00     0.167 HD
ATOM     47  C   UNL A   1      43.390  31.576  31.105  1.00  0.00     0.031 A 
ATOM     48  C   UNL A   1      42.591  25.126  28.470  1.00  0.00     0.031 A 
ATOM     49  C   UNL A   1      44.569  30.753  31.133  1.00  0.00     0.049 A 
ATOM     50  C   UNL A   1      43.914  25.607  28.999  1.00  0.00     0.074 A 
ATOM     51  C   UNL A   1      45.823  31.064  31.630  1.00  0.00     0.029 A 
ATOM     52  N   UNL A   1      44.636  29.453  30.656  1.00  0.00    -0.354 N 
ATOM     53  N   UNL A   1      44.213  26.768  29.532  1.00  0.00    -0.248 NA
ATOM     54  C   UNL A   1      45.042  24.669  28.923  1.00  0.00     0.031 C 
ATOM     55  C   UNL A   1      46.658  29.963  31.419  1.00  0.00     0.029 A 
ATOM     56  C   UNL A   1      45.912  28.950  30.837  1.00  0.00     0.049 A 
ATOM     57  H   UNL A   1      43.887  28.962  30.248  1.00  0.00     0.167 HD
ATOM     58  C   UNL A   1      45.555  26.687  29.885  1.00  0.00     0.074 A 
ATOM     59  C   UNL A   1      46.009  25.364  29.508  1.00  0.00     0.031 C 
ATOM     60  C   UNL A   1      46.339  27.623  30.474  1.00  0.00     0.031 A 
BRANCH  47  61
ATOM     61  C   UNL A   1      43.487  32.991  31.607  1.00  0.00    -0.014 A 
ATOM     62  C   UNL A   1      42.823  33.392  32.781  1.00  0.00     0.010 A 
ATOM     63  C   UNL A   1      44.275  33.927  30.913  1.00  0.00     0.010 A 
ATOM     64  C   UNL A   1      42.906  34.715  33.224  1.00  0.00     0.020 A 
ATOM     65  C   UNL A   1      44.384  35.244  31.369  1.00  0.00     0.020 A 
ATOM     66  C   UNL A   1      43.682  35.634  32.510  1.00  0.00     0.054 A 
BRANCH  66  67
ATOM     67  S   UNL A   1      43.782  37.342  33.114  1.00  0.00     0.124 S 
ATOM     68  O   UNL A   1      43.480  38.105  31.907  1.00  0.00    -0.237 OA
ATOM     69  O   UNL A   1      42.755  37.378  34.152  1.00  0.00    -0.237 OA
ATOM     70  O   UNL A   1      45.156  37.458  33.597  1.00  0.00    -0.744 OA
ENDBRANCH  66  67
ENDBRANCH  47  61
BRANCH  48  71
ATOM     71  C   UNL A   1      42.451  23.766  27.881  1.00  0.00    -0.014 A 
ATOM     72  C   UNL A   1      42.132  22.670  28.703  1.00  0.00     0.010 A 
ATOM     73  C   UNL A   1      42.612  23.562  26.500  1.00  0.00     0.010 A 
ATOM     74  C   UNL A   1      41.995  21.392  28.156  1.00  0.00     0.020 A 
ATOM     75  C   UNL A   1      42.451  22.288  25.945  1.00  0.00     0.020 A 
ATOM     76  C   UNL A   1      42.155  21.208  26.780  1.00  0.00     0.054 A 
BRANCH  76  77
ATOM     77  S   UNL A   1      41.921  19.547  26.087  1.00  0.00     0.124 S 
ATOM     78  O   UNL A   1      42.340  18.694  27.194  1.00  0.00    -0.237 OA
ATOM     79  O   UNL A   1      40.493  19.530  25.780  1.00  0.00    -0.237 OA
ATOM     80  O   UNL A   1      42.801  19.537  24.919  1.00  0.00    -0.744 OA
ENDBRANCH  76  77
ENDBRANCH  48  71
BRANCH  60  81
ATOM     81  C   UNL A   1      47.756  27.241  30.802  1.00  0.00    -0.014 A 
ATOM     82  C   UNL A   1      48.070  26.560  31.989  1.00  0.00     0.010 A 
ATOM     83  C   UNL A   1      48.770  27.490  29.859  1.00  0.00     0.010 A 
ATOM     84  C   UNL A   1      49.382  26.141  32.232  1.00  0.00     0.020 A 
ATOM     85  C   UNL A   1      50.076  27.054  30.088  1.00  0.00     0.020 A 
ATOM     86  C   UNL A   1      50.375  26.387  31.278  1.00  0.00     0.054 A 
BRANCH  86  87
ATOM     87  S   UNL A   1      52.053  25.765  31.579  1.00  0.00     0.124 S 
ATOM     88  O   UNL A   1      51.805  24.357  31.879  1.00  0.00    -0.237 OA
ATOM     89  O   UNL A   1      52.726  26.029  30.310  1.00  0.00    -0.237 OA
ATOM     90  O   UNL A   1      52.523  26.568  32.705  1.00  0.00    -0.744 OA
ENDBRANCH  86  87
ENDBRANCH  60  81
ENDBRANCH  34  35
ENDBRANCH  26  29
ENDBRANCH  24  25
ENDBRANCH  23  24
ENDBRANCH   1  23
TORSDOF 17
ENDMDL
MODEL 2
REMARK VINA RESULT:     -10.6      4.390     10.347
REMARK SMILES C[C@H](NC(=O)NCCc1ccccc1F)C(=O)NCCCNC(=O)c1ccc(-c2c3nc(c(-c4ccc(S(=O)(=O)[O-])cc4)c4ccc([nH]4)c(-c4ccc(S(=O)(=O)[O-])cc4)c4nc(c(-c5ccc(S(=O)(=O)[O-])cc5)c5ccc2[nH]5)C=C4)C=C3)cc1
REMARK SMILES IDX 19 1 18 2 16 3 17 4 2 6 1 7 3 8 4 9 5 11 6 12 7 14 8 15 9 16
REMARK SMILES IDX 10 17 14 18 11 19 13 20 15 21 12 22 20 23 21 24 22 25 23 26
REMARK SMILES IDX 24 28 25 29 26 30 84 31 27 32 83 33 28 34 29 35 30 36 77 37
REMARK SMILES IDX 31 38 82 39 76 40 78 41 32 42 81 43 75 44 74 45 33 47 63 48
REMARK SMILES IDX 44 49 62 50 45 51 48 52 61 53 79 54 46 55 47 56 60 58 80 59
REMARK SMILES IDX 49 60 34 61 35 62 43 63 36 64 42 65 37 66 38 67 39 68 40 69
REMARK SMILES IDX 41 70 64 71 65 72 73 73 66 74 72 75 67 76 68 77 69 78 70 79
REMARK SMILES IDX 71 80 50 81 51 82 59 83 52 84 58 85 53 86 54 87 55 88 56 89
REMARK SMILES IDX 57 90
REMARK H PARENT 18 5 3 10 6 13 22 27 78 46 48 57
REMARK Flexibility Score: inf
ROOT
ATOM      1  C   UNL A   1      35.865  23.909  25.071  1.00  0.00     0.117 C 
ENDROOT
BRANCH   1   2
ATOM      2  N   UNL A   1      34.953  22.889  24.613  1.00  0.00    -0.354 N 
ATOM      3  C   UNL A   1      33.829  22.397  25.198  1.00  0.00     0.242 C 
ATOM      4  O   UNL A   1      33.088  21.718  24.475  1.00  0.00    -0.273 OA
ATOM      5  H   UNL A   1      35.179  22.489  23.743  1.00  0.00     0.163 HD
BRANCH   3   6
ATOM      6  C   UNL A   1      33.369  22.766  26.631  1.00  0.00     0.170 C 
ATOM      7  C   UNL A   1      33.887  21.774  27.662  1.00  0.00     0.041 C 
BRANCH   6   8
ATOM      8  N   UNL A   1      32.011  23.297  26.797  1.00  0.00    -0.327 N 
ATOM      9  C   UNL A   1      31.276  24.396  26.722  1.00  0.00     0.315 C 
ATOM     10  H   UNL A   1      31.424  22.553  27.068  1.00  0.00     0.166 HD
ATOM     11  O   UNL A   1      30.071  24.251  26.948  1.00  0.00    -0.249 OA
ATOM     12  N   UNL A   1      31.689  25.623  26.435  1.00  0.00    -0.338 N 
ATOM     13  H   UNL A   1      30.933  26.248  26.351  1.00  0.00     0.165 HD
BRANCH  12  14
ATOM     14  C   UNL A   1      32.956  26.288  26.213  1.00  0.00     0.122 C 
BRANCH  14  15
ATOM     15  C   UNL A   1      32.804  27.575  25.401  1.00  0.00     0.060 C 
BRANCH  15  16
ATOM     16  C   UNL A   1      33.284  28.775  26.178  1.00  0.00    -0.010 A 
ATOM     17  C   UNL A   1      34.525  28.750  26.831  1.00  0.00     0.007 A 
ATOM     18  C   UNL A   1      32.480  29.911  26.317  1.00  0.00     0.126 A 
ATOM     19  C   UNL A   1      34.935  29.834  27.608  1.00  0.00     0.000 A 
ATOM     20  C   UNL A   1      32.882  30.993  27.093  1.00  0.00     0.039 A 
ATOM     21  F   UNL A   1      31.282  29.957  25.717  1.00  0.00    -0.207 F 
ATOM     22  C   UNL A   1      34.113  30.953  27.743  1.00  0.00     0.003 A 
ENDBRANCH  15  16
ENDBRANCH  14  15
ENDBRANCH  12  14
ENDBRANCH   6   8
ENDBRANCH   3   6
ENDBRANCH   1   2
BRANCH   1  23
ATOM     23  C   UNL A   1      37.130  23.362  25.708  1.00  0.00     0.042 C 
BRANCH  23  24
ATOM     24  C   UNL A   1      38.089  24.453  26.167  1.00  0.00     0.118 C 
BRANCH  24  25
ATOM     25  N   UNL A   1      39.488  24.031  26.124  1.00  0.00    -0.352 N 
ATOM     26  C   UNL A   1      40.596  24.611  26.693  1.00  0.00     0.251 C 
ATOM     27  H   UNL A   1      39.662  23.210  25.611  1.00  0.00     0.163 HD
ATOM     28  O   UNL A   1      41.717  24.193  26.412  1.00  0.00    -0.269 OA
BRANCH  26  29
ATOM     29  C   UNL A   1      40.435  25.748  27.621  1.00  0.00     0.039 A 
ATOM     30  C   UNL A   1      39.500  25.659  28.657  1.00  0.00     0.014 A 
ATOM     31  C   UNL A   1      41.225  26.892  27.482  1.00  0.00     0.014 A 
ATOM     32  C   UNL A   1      39.420  26.682  29.606  1.00  0.00     0.010 A 
ATOM     33  C   UNL A   1      41.203  27.866  28.471  1.00  0.00     0.010 A 
ATOM     34  C   UNL A   1      40.305  27.770  29.546  1.00  0.00    -0.014 A 
BRANCH  34  35
ATOM     35  C   UNL A   1      40.329  28.828  30.587  1.00  0.00     0.031 A 
ATOM     36  C   UNL A   1      41.264  28.695  31.757  1.00  0.00     0.074 A 
ATOM     37  C   UNL A   1      39.434  29.834  30.542  1.00  0.00     0.049 A 
ATOM     38  N   UNL A   1      41.317  29.401  32.857  1.00  0.00    -0.248 NA
ATOM     39  C   UNL A   1      42.248  27.601  31.697  1.00  0.00     0.031 C 
ATOM     40  C   UNL A   1      38.450  30.053  29.478  1.00  0.00     0.029 A 
ATOM     41  N   UNL A   1      39.191  30.854  31.429  1.00  0.00    -0.354 N 
ATOM     42  C   UNL A   1      42.308  28.814  33.634  1.00  0.00     0.074 A 
ATOM     43  C   UNL A   1      42.806  27.674  32.897  1.00  0.00     0.031 C 
ATOM     44  C   UNL A   1      37.723  31.144  29.768  1.00  0.00     0.029 A 
ATOM     45  C   UNL A   1      38.152  31.674  31.057  1.00  0.00     0.049 A 
ATOM     46  H   UNL A   1      39.714  30.985  32.254  1.00  0.00     0.167 HD
ATOM     47  C   UNL A   1      42.770  29.197  34.847  1.00  0.00     0.031 A 
ATOM     48  C   UNL A   1      37.594  32.723  31.693  1.00  0.00     0.031 A 
ATOM     49  C   UNL A   1      42.290  30.349  35.562  1.00  0.00     0.049 A 
ATOM     50  C   UNL A   1      38.133  33.140  33.033  1.00  0.00     0.074 A 
ATOM     51  C   UNL A   1      42.732  30.856  36.771  1.00  0.00     0.029 A 
ATOM     52  N   UNL A   1      41.269  31.179  35.126  1.00  0.00    -0.354 N 
ATOM     53  N   UNL A   1      39.100  32.597  33.734  1.00  0.00    -0.248 NA
ATOM     54  C   UNL A   1      37.515  34.313  33.664  1.00  0.00     0.031 C 
ATOM     55  C   UNL A   1      41.952  31.974  37.084  1.00  0.00     0.029 A 
ATOM     56  C   UNL A   1      41.059  32.190  36.047  1.00  0.00     0.049 A 
ATOM     57  H   UNL A   1      40.767  31.065  34.287  1.00  0.00     0.167 HD
ATOM     58  C   UNL A   1      39.227  33.383  34.873  1.00  0.00     0.074 A 
ATOM     59  C   UNL A   1      38.241  34.440  34.766  1.00  0.00     0.031 C 
ATOM     60  C   UNL A   1      40.087  33.245  35.912  1.00  0.00     0.031 A 
BRANCH  47  61
ATOM     61  C   UNL A   1      43.847  28.356  35.477  1.00  0.00    -0.014 A 
ATOM     62  C   UNL A   1      45.208  28.624  35.241  1.00  0.00     0.010 A 
ATOM     63  C   UNL A   1      43.497  27.300  36.339  1.00  0.00     0.010 A 
ATOM     64  C   UNL A   1      46.197  27.822  35.817  1.00  0.00     0.020 A 
ATOM     65  C   UNL A   1      44.484  26.513  36.939  1.00  0.00     0.020 A 
ATOM     66  C   UNL A   1      45.827  26.767  36.657  1.00  0.00     0.054 A 
BRANCH  66  67
ATOM     67  S   UNL A   1      47.132  25.749  37.401  1.00  0.00     0.124 S 
ATOM     68  O   UNL A   1      46.379  24.585  37.858  1.00  0.00    -0.237 OA
ATOM     69  O   UNL A   1      48.034  25.510  36.277  1.00  0.00    -0.237 OA
ATOM     70  O   UNL A   1      47.672  26.598  38.460  1.00  0.00    -0.744 OA
ENDBRANCH  66  67
ENDBRANCH  47  61
BRANCH  48  71
ATOM     71  C   UNL A   1      36.470  33.463  31.056  1.00  0.00    -0.014 A 
ATOM     72  C   UNL A   1      36.586  33.923  29.732  1.00  0.00     0.010 A 
ATOM     73  C   UNL A   1      35.273  33.694  31.758  1.00  0.00     0.010 A 
ATOM     74  C   UNL A   1      35.534  34.614  29.127  1.00  0.00     0.020 A 
ATOM     75  C   UNL A   1      34.208  34.363  31.147  1.00  0.00     0.020 A 
ATOM     76  C   UNL A   1      34.350  34.830  29.839  1.00  0.00     0.054 A 
BRANCH  76  77
ATOM     77  S   UNL A   1      32.978  35.686  29.014  1.00  0.00     0.124 S 
ATOM     78  O   UNL A   1      32.184  36.148  30.147  1.00  0.00    -0.237 OA
ATOM     79  O   UNL A   1      33.666  36.728  28.256  1.00  0.00    -0.237 OA
ATOM     80  O   UNL A   1      32.362  34.639  28.200  1.00  0.00    -0.744 OA
ENDBRANCH  76  77
ENDBRANCH  48  71
BRANCH  60  81
ATOM     81  C   UNL A   1      40.047  34.287  36.996  1.00  0.00    -0.014 A 
ATOM     82  C   UNL A   1      40.842  35.443  36.925  1.00  0.00     0.010 A 
ATOM     83  C   UNL A   1      39.128  34.145  38.051  1.00  0.00     0.010 A 
ATOM     84  C   UNL A   1      40.725  36.437  37.901  1.00  0.00     0.020 A 
ATOM     85  C   UNL A   1      38.993  35.146  39.016  1.00  0.00     0.020 A 
ATOM     86  C   UNL A   1      39.798  36.284  38.937  1.00  0.00     0.054 A 
BRANCH  86  87
ATOM     87  S   UNL A   1      39.608  37.622  40.147  1.00  0.00     0.124 S 
ATOM     88  O   UNL A   1      39.821  36.922  41.411  1.00  0.00    -0.237 OA
ATOM     89  O   UNL A   1      40.661  38.557  39.761  1.00  0.00    -0.237 OA
ATOM     90  O   UNL A   1      38.246  38.101  39.922  1.00  0.00    -0.744 OA
ENDBRANCH  86  87
ENDBRANCH  60  81
ENDBRANCH  34  35
ENDBRANCH  26  29
ENDBRANCH  24  25
ENDBRANCH  23  24
ENDBRANCH   1  23
TORSDOF 17
ENDMDL
MODEL 3
REMARK VINA RESULT:     -10.6      1.137      1.737
REMARK SMILES C[C@H](NC(=O)NCCc1ccccc1F)C(=O)NCCCNC(=O)c1ccc(-c2c3nc(c(-c4ccc(S(=O)(=O)[O-])cc4)c4ccc([nH]4)c(-c4ccc(S(=O)(=O)[O-])cc4)c4nc(c(-c5ccc(S(=O)(=O)[O-])cc5)c5ccc2[nH]5)C=C4)C=C3)cc1
REMARK SMILES IDX 19 1 18 2 16 3 17 4 2 6 1 7 3 8 4 9 5 11 6 12 7 14 8 15 9 16
REMARK SMILES IDX 10 17 14 18 11 19 13 20 15 21 12 22 20 23 21 24 22 25 23 26
REMARK SMILES IDX 24 28 25 29 26 30 84 31 27 32 83 33 28 34 29 35 30 36 77 37
REMARK SMILES IDX 31 38 82 39 76 40 78 41 32 42 81 43 75 44 74 45 33 47 63 48
REMARK SMILES IDX 44 49 62 50 45 51 48 52 61 53 79 54 46 55 47 56 60 58 80 59
REMARK SMILES IDX 49 60 34 61 35 62 43 63 36 64 42 65 37 66 38 67 39 68 40 69
REMARK SMILES IDX 41 70 64 71 65 72 73 73 66 74 72 75 67 76 68 77 69 78 70 79
REMARK SMILES IDX 71 80 50 81 51 82 59 83 52 84 58 85 53 86 54 87 55 88 56 89
REMARK SMILES IDX 57 90
REMARK H PARENT 18 5 3 10 6 13 22 27 78 46 48 57
REMARK Flexibility Score: inf
ROOT
ATOM      1  C   UNL A   1      32.314  27.104  25.532  1.00  0.00     0.117 C 
ENDROOT
BRANCH   1   2
ATOM      2  N   UNL A   1      31.038  26.528  25.881  1.00  0.00    -0.354 N 
ATOM      3  C   UNL A   1      30.677  25.224  26.020  1.00  0.00     0.242 C 
ATOM      4  O   UNL A   1      29.595  25.013  26.582  1.00  0.00    -0.273 OA
ATOM      5  H   UNL A   1      30.318  27.178  26.044  1.00  0.00     0.163 HD
BRANCH   3   6
ATOM      6  C   UNL A   1      31.600  24.031  25.663  1.00  0.00     0.170 C 
ATOM      7  C   UNL A   1      32.553  23.696  26.800  1.00  0.00     0.041 C 
BRANCH   6   8
ATOM      8  N   UNL A   1      32.101  23.943  24.287  1.00  0.00    -0.327 N 
ATOM      9  C   UNL A   1      32.799  23.191  23.449  1.00  0.00     0.315 C 
ATOM     10  H   UNL A   1      31.806  24.749  23.803  1.00  0.00     0.166 HD
ATOM     11  O   UNL A   1      32.885  23.615  22.293  1.00  0.00    -0.249 OA
ATOM     12  N   UNL A   1      33.410  22.045  23.713  1.00  0.00    -0.338 N 
ATOM     13  H   UNL A   1      33.781  21.637  22.898  1.00  0.00     0.165 HD
BRANCH  12  14
ATOM     14  C   UNL A   1      33.677  21.234  24.883  1.00  0.00     0.122 C 
BRANCH  14  15
ATOM     15  C   UNL A   1      35.053  20.569  24.829  1.00  0.00     0.060 C 
BRANCH  15  16
ATOM     16  C   UNL A   1      36.135  21.505  25.304  1.00  0.00    -0.010 A 
ATOM     17  C   UNL A   1      35.810  22.780  25.789  1.00  0.00     0.007 A 
ATOM     18  C   UNL A   1      37.485  21.149  25.216  1.00  0.00     0.126 A 
ATOM     19  C   UNL A   1      36.817  23.671  26.163  1.00  0.00     0.000 A 
ATOM     20  C   UNL A   1      38.493  22.034  25.582  1.00  0.00     0.039 A 
ATOM     21  F   UNL A   1      37.826  19.943  24.742  1.00  0.00    -0.207 F 
ATOM     22  C   UNL A   1      38.158  23.301  26.055  1.00  0.00     0.003 A 
ENDBRANCH  15  16
ENDBRANCH  14  15
ENDBRANCH  12  14
ENDBRANCH   6   8
ENDBRANCH   3   6
ENDBRANCH   1   2
BRANCH   1  23
ATOM     23  C   UNL A   1      32.969  27.878  26.663  1.00  0.00     0.042 C 
BRANCH  23  24
ATOM     24  C   UNL A   1      33.943  28.941  26.174  1.00  0.00     0.118 C 
BRANCH  24  25
ATOM     25  N   UNL A   1      33.792  30.213  26.878  1.00  0.00    -0.352 N 
ATOM     26  C   UNL A   1      34.596  30.789  27.832  1.00  0.00     0.251 C 
ATOM     27  H   UNL A   1      32.995  30.735  26.632  1.00  0.00     0.163 HD
ATOM     28  O   UNL A   1      34.217  31.797  28.424  1.00  0.00    -0.269 OA
BRANCH  26  29
ATOM     29  C   UNL A   1      35.901  30.180  28.157  1.00  0.00     0.039 A 
ATOM     30  C   UNL A   1      36.945  30.262  27.230  1.00  0.00     0.014 A 
ATOM     31  C   UNL A   1      36.100  29.548  29.387  1.00  0.00     0.014 A 
ATOM     32  C   UNL A   1      38.214  29.789  27.574  1.00  0.00     0.010 A 
ATOM     33  C   UNL A   1      37.379  29.155  29.758  1.00  0.00     0.010 A 
ATOM     34  C   UNL A   1      38.450  29.275  28.859  1.00  0.00    -0.014 A 
BRANCH  34  35
ATOM     35  C   UNL A   1      39.802  28.856  29.307  1.00  0.00     0.031 A 
ATOM     36  C   UNL A   1      40.686  29.842  30.019  1.00  0.00     0.074 A 
ATOM     37  C   UNL A   1      40.274  27.640  28.968  1.00  0.00     0.049 A 
ATOM     38  N   UNL A   1      41.953  29.742  30.329  1.00  0.00    -0.248 NA
ATOM     39  C   UNL A   1      40.073  31.125  30.402  1.00  0.00     0.031 C 
ATOM     40  C   UNL A   1      39.526  26.607  28.246  1.00  0.00     0.029 A 
ATOM     41  N   UNL A   1      41.508  27.073  29.169  1.00  0.00    -0.354 N 
ATOM     42  C   UNL A   1      42.296  30.959  30.905  1.00  0.00     0.074 A 
ATOM     43  C   UNL A   1      41.116  31.794  30.869  1.00  0.00     0.031 C 
ATOM     44  C   UNL A   1      40.312  25.530  28.078  1.00  0.00     0.029 A 
ATOM     45  C   UNL A   1      41.631  25.812  28.634  1.00  0.00     0.049 A 
ATOM     46  H   UNL A   1      42.237  27.528  29.651  1.00  0.00     0.167 HD
ATOM     47  C   UNL A   1      43.484  31.342  31.428  1.00  0.00     0.031 A 
ATOM     48  C   UNL A   1      42.692  24.983  28.581  1.00  0.00     0.031 A 
ATOM     49  C   UNL A   1      44.646  30.497  31.486  1.00  0.00     0.049 A 
ATOM     50  C   UNL A   1      43.998  25.424  29.181  1.00  0.00     0.074 A 
ATOM     51  C   UNL A   1      45.881  30.770  32.047  1.00  0.00     0.029 A 
ATOM     52  N   UNL A   1      44.712  29.209  30.976  1.00  0.00    -0.354 N 
ATOM     53  N   UNL A   1      44.293  26.564  29.760  1.00  0.00    -0.248 NA
ATOM     54  C   UNL A   1      45.111  24.467  29.130  1.00  0.00     0.031 C 
ATOM     55  C   UNL A   1      46.706  29.659  31.843  1.00  0.00     0.029 A 
ATOM     56  C   UNL A   1      45.969  28.678  31.200  1.00  0.00     0.049 A 
ATOM     57  H   UNL A   1      43.974  28.744  30.521  1.00  0.00     0.167 HD
ATOM     58  C   UNL A   1      45.615  26.448  30.171  1.00  0.00     0.074 A 
ATOM     59  C   UNL A   1      46.063  25.127  29.777  1.00  0.00     0.031 C 
ATOM     60  C   UNL A   1      46.388  27.353  30.820  1.00  0.00     0.031 A 
BRANCH  47  61
ATOM     61  C   UNL A   1      43.584  32.742  31.973  1.00  0.00    -0.014 A 
ATOM     62  C   UNL A   1      43.373  33.005  33.339  1.00  0.00     0.010 A 
ATOM     63  C   UNL A   1      43.920  33.805  31.115  1.00  0.00     0.010 A 
ATOM     64  C   UNL A   1      43.449  34.311  33.827  1.00  0.00     0.020 A 
ATOM     65  C   UNL A   1      44.025  35.109  31.606  1.00  0.00     0.020 A 
ATOM     66  C   UNL A   1      43.768  35.357  32.955  1.00  0.00     0.054 A 
BRANCH  66  67
ATOM     67  S   UNL A   1      43.872  37.042  33.618  1.00  0.00     0.124 S 
ATOM     68  O   UNL A   1      42.554  37.207  34.225  1.00  0.00    -0.237 OA
ATOM     69  O   UNL A   1      44.987  36.952  34.557  1.00  0.00    -0.237 OA
ATOM     70  O   UNL A   1      44.122  37.864  32.436  1.00  0.00    -0.744 OA
ENDBRANCH  66  67
ENDBRANCH  47  61
BRANCH  48  71
ATOM     71  C   UNL A   1      42.554  23.643  27.948  1.00  0.00    -0.014 A 
ATOM     72  C   UNL A   1      42.916  23.456  26.602  1.00  0.00     0.010 A 
ATOM     73  C   UNL A   1      42.084  22.544  28.689  1.00  0.00     0.010 A 
ATOM     74  C   UNL A   1      42.794  22.200  26.003  1.00  0.00     0.020 A 
ATOM     75  C   UNL A   1      41.984  21.279  28.099  1.00  0.00     0.020 A 
ATOM     76  C   UNL A   1      42.328  21.118  26.756  1.00  0.00     0.054 A 
BRANCH  76  77
ATOM     77  S   UNL A   1      42.227  19.485  25.969  1.00  0.00     0.124 S 
ATOM     78  O   UNL A   1      42.704  18.607  27.032  1.00  0.00    -0.237 OA
ATOM     79  O   UNL A   1      40.806  19.376  25.648  1.00  0.00    -0.237 OA
ATOM     80  O   UNL A   1      43.112  19.608  24.812  1.00  0.00    -0.744 OA
ENDBRANCH  76  77
ENDBRANCH  48  71
BRANCH  60  81
ATOM     81  C   UNL A   1      47.782  26.935  31.201  1.00  0.00    -0.014 A 
ATOM     82  C   UNL A   1      48.022  26.159  32.347  1.00  0.00     0.010 A 
ATOM     83  C   UNL A   1      48.852  27.250  30.343  1.00  0.00     0.010 A 
ATOM     84  C   UNL A   1      49.316  25.713  32.633  1.00  0.00     0.020 A 
ATOM     85  C   UNL A   1      50.141  26.788  30.615  1.00  0.00     0.020 A 
ATOM     86  C   UNL A   1      50.365  26.026  31.764  1.00  0.00     0.054 A 
BRANCH  86  87
ATOM     87  S   UNL A   1      52.020  25.369  32.114  1.00  0.00     0.124 S 
ATOM     88  O   UNL A   1      51.744  23.951  32.328  1.00  0.00    -0.237 OA
ATOM     89  O   UNL A   1      52.758  25.689  30.895  1.00  0.00    -0.237 OA
ATOM     90  O   UNL A   1      52.442  26.108  33.301  1.00  0.00    -0.744 OA
ENDBRANCH  86  87
ENDBRANCH  60  81
ENDBRANCH  34  35
ENDBRANCH  26  29
ENDBRANCH  24  25
ENDBRANCH  23  24
ENDBRANCH   1  23
TORSDOF 17
ENDMDL
