MODEL 1
REMARK VINA RESULT:     -10.8      0.000      0.000
REMARK SMILES CC(C)(C)[C@H](CCC(=O)NCCCNC(=O)c1ccc(-c2c3nc(c(-c4ccc(S(=O)(=O)[O-])cc4)c4ccc([nH]4)c(-c4ccc(S(=O)(=O)[O-])cc4)c4nc(c(-c5ccc(S(=O)(=O)[O-])cc5)c5ccc2[nH]5)C=C4)C=C3)cc1)CC[NH+]1CCOCC1
REMARK SMILES IDX 11 1 10 2 8 3 9 4 7 6 6 7 5 8 2 9 1 10 3 11 4 12 77 13 78 14
REMARK SMILES IDX 79 15 80 16 84 17 81 19 83 20 82 21 12 22 13 23 14 24 15 25
REMARK SMILES IDX 16 27 17 28 18 29 76 30 19 31 75 32 20 33 21 34 22 35 69 36
REMARK SMILES IDX 23 37 74 38 68 39 70 40 24 41 73 42 67 43 66 44 25 46 55 47
REMARK SMILES IDX 36 48 54 49 37 50 40 51 53 52 71 53 38 54 39 55 52 57 72 58
REMARK SMILES IDX 41 59 26 60 27 61 35 62 28 63 34 64 29 65 30 66 31 67 32 68
REMARK SMILES IDX 33 69 56 70 57 71 65 72 58 73 64 74 59 75 60 76 61 77 62 78
REMARK SMILES IDX 63 79 42 80 43 81 51 82 44 83 50 84 45 85 46 86 47 87 48 88
REMARK SMILES IDX 49 89
REMARK H PARENT 10 5 79 18 14 26 70 45 40 56
REMARK Flexibility Score: inf
ROOT
ATOM      1  C   UNL A   1      33.424  30.359  27.020  1.00  0.00     0.117 C 
ENDROOT
BRANCH   1   2
ATOM      2  N   UNL A   1      32.348  29.505  27.472  1.00  0.00    -0.356 N 
ATOM      3  C   UNL A   1      31.931  28.244  27.204  1.00  0.00     0.220 C 
ATOM      4  O   UNL A   1      31.065  27.847  28.006  1.00  0.00    -0.275 OA
ATOM      5  H   UNL A   1      31.775  29.951  28.138  1.00  0.00     0.163 HD
BRANCH   3   6
ATOM      6  C   UNL A   1      32.404  27.201  26.161  1.00  0.00     0.100 C 
BRANCH   6   7
ATOM      7  C   UNL A   1      32.787  27.345  24.674  1.00  0.00     0.014 C 
BRANCH   7   8
ATOM      8  C   UNL A   1      31.733  26.928  23.654  1.00  0.00     0.000 C 
BRANCH   8   9
ATOM      9  C   UNL A   1      31.944  25.555  22.853  1.00  0.00    -0.035 C 
ATOM     10  C   UNL A   1      30.860  24.515  23.159  1.00  0.00     0.011 C 
ATOM     11  C   UNL A   1      33.312  24.893  23.163  1.00  0.00     0.011 C 
ATOM     12  C   UNL A   1      31.939  25.786  21.314  1.00  0.00     0.011 C 
ENDBRANCH   8   9
BRANCH   8  13
ATOM     13  C   UNL A   1      30.269  27.346  24.009  1.00  0.00     0.065 C 
BRANCH  13  14
ATOM     14  C   UNL A   1      29.479  28.554  23.369  1.00  0.00     0.262 C 
BRANCH  14  15
ATOM     15  N   UNL A   1      29.907  29.902  22.912  1.00  0.00    -0.331 N 
ATOM     16  C   UNL A   1      29.292  30.963  23.780  1.00  0.00     0.291 C 
ATOM     17  C   UNL A   1      29.665  30.394  21.553  1.00  0.00     0.291 C 
ATOM     18  H   UNL A   1      30.914  29.745  22.962  1.00  0.00     0.348 HD
ATOM     19  C   UNL A   1      27.807  31.266  23.436  1.00  0.00     0.221 C 
ATOM     20  C   UNL A   1      28.182  30.540  21.206  1.00  0.00     0.221 C 
ATOM     21  O   UNL A   1      27.587  31.537  22.043  1.00  0.00    -0.370 OA
ENDBRANCH  14  15
ENDBRANCH  13  14
ENDBRANCH   8  13
ENDBRANCH   7   8
ENDBRANCH   6   7
ENDBRANCH   3   6
ENDBRANCH   1   2
BRANCH   1  22
ATOM     22  C   UNL A   1      34.840  29.911  27.303  1.00  0.00     0.042 C 
BRANCH  22  23
ATOM     23  C   UNL A   1      35.566  30.958  28.138  1.00  0.00     0.118 C 
BRANCH  23  24
ATOM     24  N   UNL A   1      35.492  30.710  29.574  1.00  0.00    -0.352 N 
ATOM     25  C   UNL A   1      36.399  30.201  30.484  1.00  0.00     0.251 C 
ATOM     26  H   UNL A   1      34.625  30.953  29.973  1.00  0.00     0.163 HD
ATOM     27  O   UNL A   1      36.050  30.089  31.651  1.00  0.00    -0.269 OA
BRANCH  25  28
ATOM     28  C   UNL A   1      37.746  29.718  30.067  1.00  0.00     0.039 A 
ATOM     29  C   UNL A   1      38.143  29.895  28.733  1.00  0.00     0.014 A 
ATOM     30  C   UNL A   1      38.632  29.114  30.951  1.00  0.00     0.014 A 
ATOM     31  C   UNL A   1      39.428  29.513  28.319  1.00  0.00     0.010 A 
ATOM     32  C   UNL A   1      39.946  28.864  30.578  1.00  0.00     0.010 A 
ATOM     33  C   UNL A   1      40.355  29.025  29.249  1.00  0.00    -0.014 A 
BRANCH  33  34
ATOM     34  C   UNL A   1      41.739  28.614  28.887  1.00  0.00     0.031 A 
ATOM     35  C   UNL A   1      42.830  29.658  28.829  1.00  0.00     0.074 A 
ATOM     36  C   UNL A   1      41.996  27.349  28.499  1.00  0.00     0.049 A 
ATOM     37  N   UNL A   1      44.040  29.566  28.341  1.00  0.00    -0.248 NA
ATOM     38  C   UNL A   1      42.496  31.000  29.341  1.00  0.00     0.031 C 
ATOM     39  C   UNL A   1      41.026  26.254  28.467  1.00  0.00     0.029 A 
ATOM     40  N   UNL A   1      43.154  26.776  28.032  1.00  0.00    -0.354 N 
ATOM     41  C   UNL A   1      44.586  30.842  28.442  1.00  0.00     0.074 A 
ATOM     42  C   UNL A   1      43.557  31.702  28.981  1.00  0.00     0.031 C 
ATOM     43  C   UNL A   1      41.632  25.139  28.031  1.00  0.00     0.029 A 
ATOM     44  C   UNL A   1      43.018  25.449  27.696  1.00  0.00     0.049 A 
ATOM     45  H   UNL A   1      44.002  27.270  27.946  1.00  0.00     0.167 HD
ATOM     46  C   UNL A   1      45.839  31.259  28.138  1.00  0.00     0.031 A 
ATOM     47  C   UNL A   1      43.901  24.584  27.158  1.00  0.00     0.031 A 
ATOM     48  C   UNL A   1      46.872  30.387  27.650  1.00  0.00     0.049 A 
ATOM     49  C   UNL A   1      45.292  25.064  26.840  1.00  0.00     0.074 A 
ATOM     50  C   UNL A   1      48.195  30.688  27.382  1.00  0.00     0.029 A 
ATOM     51  N   UNL A   1      46.701  29.040  27.370  1.00  0.00    -0.354 N 
ATOM     52  N   UNL A   1      45.805  26.263  26.988  1.00  0.00    -0.248 NA
ATOM     53  C   UNL A   1      46.229  24.073  26.291  1.00  0.00     0.031 C 
ATOM     54  C   UNL A   1      48.812  29.535  26.891  1.00  0.00     0.029 A 
ATOM     55  C   UNL A   1      47.891  28.499  26.917  1.00  0.00     0.049 A 
ATOM     56  H   UNL A   1      45.859  28.542  27.477  1.00  0.00     0.167 HD
ATOM     57  C   UNL A   1      47.132  26.160  26.586  1.00  0.00     0.074 A 
ATOM     58  C   UNL A   1      47.346  24.782  26.193  1.00  0.00     0.031 C 
ATOM     59  C   UNL A   1      48.089  27.119  26.551  1.00  0.00     0.031 A 
BRANCH  46  60
ATOM     60  C   UNL A   1      46.162  32.719  28.332  1.00  0.00    -0.014 A 
ATOM     61  C   UNL A   1      46.678  33.199  29.550  1.00  0.00     0.010 A 
ATOM     62  C   UNL A   1      45.982  33.622  27.267  1.00  0.00     0.010 A 
ATOM     63  C   UNL A   1      46.960  34.557  29.716  1.00  0.00     0.020 A 
ATOM     64  C   UNL A   1      46.296  34.976  27.418  1.00  0.00     0.020 A 
ATOM     65  C   UNL A   1      46.765  35.438  28.649  1.00  0.00     0.054 A 
BRANCH  65  66
ATOM     66  S   UNL A   1      47.160  37.191  28.889  1.00  0.00     0.124 S 
ATOM     67  O   UNL A   1      47.635  37.206  30.270  1.00  0.00    -0.237 OA
ATOM     68  O   UNL A   1      48.180  37.432  27.872  1.00  0.00    -0.237 OA
ATOM     69  O   UNL A   1      45.885  37.870  28.662  1.00  0.00    -0.744 OA
ENDBRANCH  65  66
ENDBRANCH  46  60
BRANCH  47  70
ATOM     70  C   UNL A   1      43.498  23.173  26.902  1.00  0.00    -0.014 A 
ATOM     71  C   UNL A   1      43.729  22.584  25.646  1.00  0.00     0.010 A 
ATOM     72  C   UNL A   1      42.903  22.401  27.917  1.00  0.00     0.010 A 
ATOM     73  C   UNL A   1      43.355  21.259  25.403  1.00  0.00     0.020 A 
ATOM     74  C   UNL A   1      42.556  21.067  27.688  1.00  0.00     0.020 A 
ATOM     75  C   UNL A   1      42.774  20.507  26.428  1.00  0.00     0.054 A 
BRANCH  75  76
ATOM     76  S   UNL A   1      42.349  18.772  26.106  1.00  0.00     0.124 S 
ATOM     77  O   UNL A   1      42.628  18.147  27.394  1.00  0.00    -0.237 OA
ATOM     78  O   UNL A   1      40.939  18.856  25.734  1.00  0.00    -0.237 OA
ATOM     79  O   UNL A   1      43.250  18.396  25.018  1.00  0.00    -0.744 OA
ENDBRANCH  75  76
ENDBRANCH  47  70
BRANCH  59  80
ATOM     80  C   UNL A   1      49.477  26.714  26.134  1.00  0.00    -0.014 A 
ATOM     81  C   UNL A   1      49.975  27.011  24.854  1.00  0.00     0.010 A 
ATOM     82  C   UNL A   1      50.329  26.114  27.081  1.00  0.00     0.010 A 
ATOM     83  C   UNL A   1      51.298  26.703  24.525  1.00  0.00     0.020 A 
ATOM     84  C   UNL A   1      51.659  25.833  26.765  1.00  0.00     0.020 A 
ATOM     85  C   UNL A   1      52.135  26.124  25.486  1.00  0.00     0.054 A 
BRANCH  85  86
ATOM     86  S   UNL A   1      53.869  25.813  25.058  1.00  0.00     0.124 S 
ATOM     87  O   UNL A   1      54.067  24.454  25.557  1.00  0.00    -0.237 OA
ATOM     88  O   UNL A   1      53.871  25.957  23.605  1.00  0.00    -0.237 OA
ATOM     89  O   UNL A   1      54.597  26.853  25.782  1.00  0.00    -0.744 OA
ENDBRANCH  85  86
ENDBRANCH  59  80
ENDBRANCH  33  34
ENDBRANCH  25  28
ENDBRANCH  23  24
ENDBRANCH  22  23
ENDBRANCH   1  22
TORSDOF 19
ENDMDL
MODEL 2
REMARK VINA RESULT:     -10.7      0.787      8.371
REMARK SMILES CC(C)(C)[C@H](CCC(=O)NCCCNC(=O)c1ccc(-c2c3nc(c(-c4ccc(S(=O)(=O)[O-])cc4)c4ccc([nH]4)c(-c4ccc(S(=O)(=O)[O-])cc4)c4nc(c(-c5ccc(S(=O)(=O)[O-])cc5)c5ccc2[nH]5)C=C4)C=C3)cc1)CC[NH+]1CCOCC1
REMARK SMILES IDX 11 1 10 2 8 3 9 4 7 6 6 7 5 8 2 9 1 10 3 11 4 12 77 13 78 14
REMARK SMILES IDX 79 15 80 16 84 17 81 19 83 20 82 21 12 22 13 23 14 24 15 25
REMARK SMILES IDX 16 27 17 28 18 29 76 30 19 31 75 32 20 33 21 34 22 35 69 36
REMARK SMILES IDX 23 37 74 38 68 39 70 40 24 41 73 42 67 43 66 44 25 46 55 47
REMARK SMILES IDX 36 48 54 49 37 50 40 51 53 52 71 53 38 54 39 55 52 57 72 58
REMARK SMILES IDX 41 59 26 60 27 61 35 62 28 63 34 64 29 65 30 66 31 67 32 68
REMARK SMILES IDX 33 69 56 70 57 71 65 72 58 73 64 74 59 75 60 76 61 77 62 78
REMARK SMILES IDX 63 79 42 80 43 81 51 82 44 83 50 84 45 85 46 86 47 87 48 88
REMARK SMILES IDX 49 89
REMARK H PARENT 10 5 79 18 14 26 70 45 40 56
REMARK Flexibility Score: inf
ROOT
ATOM      1  C   UNL A   1      34.826  30.880  27.648  1.00  0.00     0.117 C 
ENDROOT
BRANCH   1   2
ATOM      2  N   UNL A   1      33.490  30.326  27.649  1.00  0.00    -0.356 N 
ATOM      3  C   UNL A   1      32.821  29.403  26.917  1.00  0.00     0.220 C 
ATOM      4  O   UNL A   1      31.728  29.091  27.425  1.00  0.00    -0.275 OA
ATOM      5  H   UNL A   1      32.926  30.717  28.356  1.00  0.00     0.163 HD
BRANCH   3   6
ATOM      6  C   UNL A   1      33.213  28.616  25.641  1.00  0.00     0.100 C 
BRANCH   6   7
ATOM      7  C   UNL A   1      32.810  27.214  25.141  1.00  0.00     0.014 C 
BRANCH   7   8
ATOM      8  C   UNL A   1      31.815  27.161  23.988  1.00  0.00     0.000 C 
BRANCH   8   9
ATOM      9  C   UNL A   1      31.703  25.807  23.135  1.00  0.00    -0.035 C 
ATOM     10  C   UNL A   1      30.442  24.999  23.465  1.00  0.00     0.011 C 
ATOM     11  C   UNL A   1      32.917  24.868  23.354  1.00  0.00     0.011 C 
ATOM     12  C   UNL A   1      31.678  26.096  21.606  1.00  0.00     0.011 C 
ENDBRANCH   8   9
BRANCH   8  13
ATOM     13  C   UNL A   1      30.511  27.997  24.201  1.00  0.00     0.065 C 
BRANCH  13  14
ATOM     14  C   UNL A   1      30.040  29.207  23.302  1.00  0.00     0.262 C 
BRANCH  14  15
ATOM     15  N   UNL A   1      28.847  29.410  22.439  1.00  0.00    -0.331 N 
ATOM     16  C   UNL A   1      29.101  30.516  21.456  1.00  0.00     0.291 C 
ATOM     17  C   UNL A   1      27.523  29.734  22.979  1.00  0.00     0.291 C 
ATOM     18  H   UNL A   1      28.768  28.452  22.097  1.00  0.00     0.348 HD
ATOM     19  C   UNL A   1      28.960  31.938  22.066  1.00  0.00     0.221 C 
ATOM     20  C   UNL A   1      27.465  31.081  23.700  1.00  0.00     0.221 C 
ATOM     21  O   UNL A   1      27.725  32.138  22.770  1.00  0.00    -0.370 OA
ENDBRANCH  14  15
ENDBRANCH  13  14
ENDBRANCH   8  13
ENDBRANCH   7   8
ENDBRANCH   6   7
ENDBRANCH   3   6
ENDBRANCH   1   2
BRANCH   1  22
ATOM     22  C   UNL A   1      35.019  32.248  28.261  1.00  0.00     0.042 C 
BRANCH  22  23
ATOM     23  C   UNL A   1      36.137  32.208  29.294  1.00  0.00     0.118 C 
BRANCH  23  24
ATOM     24  N   UNL A   1      35.920  31.225  30.350  1.00  0.00    -0.352 N 
ATOM     25  C   UNL A   1      36.693  30.188  30.836  1.00  0.00     0.251 C 
ATOM     26  H   UNL A   1      35.052  31.319  30.806  1.00  0.00     0.163 HD
ATOM     27  O   UNL A   1      36.239  29.499  31.740  1.00  0.00    -0.269 OA
BRANCH  25  28
ATOM     28  C   UNL A   1      38.014  29.842  30.238  1.00  0.00     0.039 A 
ATOM     29  C   UNL A   1      38.136  29.819  28.841  1.00  0.00     0.014 A 
ATOM     30  C   UNL A   1      39.134  29.559  31.010  1.00  0.00     0.014 A 
ATOM     31  C   UNL A   1      39.379  29.563  28.242  1.00  0.00     0.010 A 
ATOM     32  C   UNL A   1      40.388  29.442  30.424  1.00  0.00     0.010 A 
ATOM     33  C   UNL A   1      40.526  29.407  29.032  1.00  0.00    -0.014 A 
BRANCH  33  34
ATOM     34  C   UNL A   1      41.879  29.147  28.468  1.00  0.00     0.031 A 
ATOM     35  C   UNL A   1      42.228  27.754  27.996  1.00  0.00     0.074 A 
ATOM     36  C   UNL A   1      42.823  30.108  28.484  1.00  0.00     0.049 A 
ATOM     37  N   UNL A   1      43.393  27.256  27.671  1.00  0.00    -0.248 NA
ATOM     38  C   UNL A   1      41.126  26.776  27.935  1.00  0.00     0.031 C 
ATOM     39  C   UNL A   1      42.631  31.482  28.950  1.00  0.00     0.029 A 
ATOM     40  N   UNL A   1      44.146  30.067  28.116  1.00  0.00    -0.354 N 
ATOM     41  C   UNL A   1      43.171  25.906  27.418  1.00  0.00     0.074 A 
ATOM     42  C   UNL A   1      41.774  25.649  27.685  1.00  0.00     0.031 C 
ATOM     43  C   UNL A   1      43.782  32.158  28.817  1.00  0.00     0.029 A 
ATOM     44  C   UNL A   1      44.811  31.255  28.313  1.00  0.00     0.049 A 
ATOM     45  H   UNL A   1      44.577  29.263  27.746  1.00  0.00     0.167 HD
ATOM     46  C   UNL A   1      44.043  24.967  26.978  1.00  0.00     0.031 A 
ATOM     47  C   UNL A   1      46.108  31.577  28.130  1.00  0.00     0.031 A 
ATOM     48  C   UNL A   1      45.419  25.242  26.666  1.00  0.00     0.049 A 
ATOM     49  C   UNL A   1      47.058  30.522  27.628  1.00  0.00     0.074 A 
ATOM     50  C   UNL A   1      46.369  24.384  26.143  1.00  0.00     0.029 A 
ATOM     51  N   UNL A   1      46.037  26.472  26.836  1.00  0.00    -0.354 N 
ATOM     52  N   UNL A   1      46.818  29.262  27.347  1.00  0.00    -0.248 NA
ATOM     53  C   UNL A   1      48.452  30.932  27.408  1.00  0.00     0.031 C 
ATOM     54  C   UNL A   1      47.576  25.081  26.045  1.00  0.00     0.029 A 
ATOM     55  C   UNL A   1      47.361  26.391  26.443  1.00  0.00     0.049 A 
ATOM     56  H   UNL A   1      45.599  27.282  27.185  1.00  0.00     0.167 HD
ATOM     57  C   UNL A   1      48.021  28.742  26.883  1.00  0.00     0.074 A 
ATOM     58  C   UNL A   1      48.985  29.823  26.915  1.00  0.00     0.031 C 
ATOM     59  C   UNL A   1      48.300  27.484  26.462  1.00  0.00     0.031 A 
BRANCH  46  60
ATOM     60  C   UNL A   1      43.533  23.560  26.802  1.00  0.00    -0.014 A 
ATOM     61  C   UNL A   1      43.331  23.009  25.522  1.00  0.00     0.010 A 
ATOM     62  C   UNL A   1      43.285  22.759  27.933  1.00  0.00     0.010 A 
ATOM     63  C   UNL A   1      42.845  21.707  25.377  1.00  0.00     0.020 A 
ATOM     64  C   UNL A   1      42.832  21.444  27.792  1.00  0.00     0.020 A 
ATOM     65  C   UNL A   1      42.597  20.933  26.514  1.00  0.00     0.054 A 
BRANCH  65  66
ATOM     66  S   UNL A   1      41.987  19.240  26.293  1.00  0.00     0.124 S 
ATOM     67  O   UNL A   1      42.873  18.735  25.247  1.00  0.00    -0.237 OA
ATOM     68  O   UNL A   1      42.183  18.654  27.617  1.00  0.00    -0.237 OA
ATOM     69  O   UNL A   1      40.593  19.420  25.894  1.00  0.00    -0.744 OA
ENDBRANCH  65  66
ENDBRANCH  46  60
BRANCH  47  70
ATOM     70  C   UNL A   1      46.577  32.963  28.408  1.00  0.00    -0.014 A 
ATOM     71  C   UNL A   1      47.082  33.301  29.677  1.00  0.00     0.010 A 
ATOM     72  C   UNL A   1      46.544  33.947  27.404  1.00  0.00     0.010 A 
ATOM     73  C   UNL A   1      47.526  34.600  29.941  1.00  0.00     0.020 A 
ATOM     74  C   UNL A   1      47.016  35.239  27.655  1.00  0.00     0.020 A 
ATOM     75  C   UNL A   1      47.493  35.561  28.926  1.00  0.00     0.054 A 
BRANCH  75  76
ATOM     76  S   UNL A   1      48.128  37.224  29.276  1.00  0.00     0.124 S 
ATOM     77  O   UNL A   1      48.757  37.042  30.580  1.00  0.00    -0.237 OA
ATOM     78  O   UNL A   1      49.041  37.456  28.159  1.00  0.00    -0.237 OA
ATOM     79  O   UNL A   1      46.927  38.057  29.270  1.00  0.00    -0.744 OA
ENDBRANCH  75  76
ENDBRANCH  47  70
BRANCH  59  80
ATOM     80  C   UNL A   1      49.684  27.207  25.940  1.00  0.00    -0.014 A 
ATOM     81  C   UNL A   1      50.665  26.603  26.745  1.00  0.00     0.010 A 
ATOM     82  C   UNL A   1      49.969  27.467  24.586  1.00  0.00     0.010 A 
ATOM     83  C   UNL A   1      51.912  26.274  26.206  1.00  0.00     0.020 A 
ATOM     84  C   UNL A   1      51.203  27.114  24.038  1.00  0.00     0.020 A 
ATOM     85  C   UNL A   1      52.170  26.524  24.853  1.00  0.00     0.054 A 
BRANCH  85  86
ATOM     86  S   UNL A   1      53.766  26.012  24.162  1.00  0.00     0.124 S 
ATOM     87  O   UNL A   1      53.495  26.026  22.727  1.00  0.00    -0.237 OA
ATOM     88  O   UNL A   1      54.672  27.052  24.642  1.00  0.00    -0.237 OA
ATOM     89  O   UNL A   1      53.986  24.687  24.741  1.00  0.00    -0.744 OA
ENDBRANCH  85  86
ENDBRANCH  59  80
ENDBRANCH  33  34
ENDBRANCH  25  28
ENDBRANCH  23  24
ENDBRANCH  22  23
ENDBRANCH   1  22
TORSDOF 19
ENDMDL
MODEL 3
REMARK VINA RESULT:     -10.6      6.563     12.143
REMARK SMILES CC(C)(C)[C@H](CCC(=O)NCCCNC(=O)c1ccc(-c2c3nc(c(-c4ccc(S(=O)(=O)[O-])cc4)c4ccc([nH]4)c(-c4ccc(S(=O)(=O)[O-])cc4)c4nc(c(-c5ccc(S(=O)(=O)[O-])cc5)c5ccc2[nH]5)C=C4)C=C3)cc1)CC[NH+]1CCOCC1
REMARK SMILES IDX 11 1 10 2 8 3 9 4 7 6 6 7 5 8 2 9 1 10 3 11 4 12 77 13 78 14
REMARK SMILES IDX 79 15 80 16 84 17 81 19 83 20 82 21 12 22 13 23 14 24 15 25
REMARK SMILES IDX 16 27 17 28 18 29 76 30 19 31 75 32 20 33 21 34 22 35 69 36
REMARK SMILES IDX 23 37 74 38 68 39 70 40 24 41 73 42 67 43 66 44 25 46 55 47
REMARK SMILES IDX 36 48 54 49 37 50 40 51 53 52 71 53 38 54 39 55 52 57 72 58
REMARK SMILES IDX 41 59 26 60 27 61 35 62 28 63 34 64 29 65 30 66 31 67 32 68
REMARK SMILES IDX 33 69 56 70 57 71 65 72 58 73 64 74 59 75 60 76 61 77 62 78
REMARK SMILES IDX 63 79 42 80 43 81 51 82 44 83 50 84 45 85 46 86 47 87 48 88
REMARK SMILES IDX 49 89
REMARK H PARENT 10 5 79 18 14 26 70 45 40 56
REMARK Flexibility Score: inf
ROOT
ATOM      1  C   UNL A   1      36.939  23.251  24.445  1.00  0.00     0.117 C 
ENDROOT
BRANCH   1   2
ATOM      2  N   UNL A   1      35.598  22.875  24.050  1.00  0.00    -0.356 N 
ATOM      3  C   UNL A   1      34.529  23.513  23.517  1.00  0.00     0.220 C 
ATOM      4  O   UNL A   1      33.640  22.725  23.142  1.00  0.00    -0.275 OA
ATOM      5  H   UNL A   1      35.419  21.920  24.209  1.00  0.00     0.163 HD
BRANCH   3   6
ATOM      6  C   UNL A   1      34.267  25.009  23.211  1.00  0.00     0.100 C 
BRANCH   6   7
ATOM      7  C   UNL A   1      33.619  26.126  24.055  1.00  0.00     0.014 C 
BRANCH   7   8
ATOM      8  C   UNL A   1      32.985  27.281  23.289  1.00  0.00     0.000 C 
BRANCH   8   9
ATOM      9  C   UNL A   1      31.459  27.141  22.816  1.00  0.00    -0.035 C 
ATOM     10  C   UNL A   1      31.308  26.322  21.528  1.00  0.00     0.011 C 
ATOM     11  C   UNL A   1      30.791  28.517  22.561  1.00  0.00     0.011 C 
ATOM     12  C   UNL A   1      30.584  26.454  23.903  1.00  0.00     0.011 C 
ENDBRANCH   8   9
BRANCH   8  13
ATOM     13  C   UNL A   1      33.493  28.702  23.697  1.00  0.00     0.065 C 
BRANCH  13  14
ATOM     14  C   UNL A   1      32.950  29.556  24.909  1.00  0.00     0.262 C 
BRANCH  14  15
ATOM     15  N   UNL A   1      32.714  29.230  26.340  1.00  0.00    -0.331 N 
ATOM     16  C   UNL A   1      32.445  30.484  27.120  1.00  0.00     0.291 C 
ATOM     17  C   UNL A   1      33.697  28.522  27.165  1.00  0.00     0.291 C 
ATOM     18  H   UNL A   1      31.955  28.562  26.199  1.00  0.00     0.348 HD
ATOM     19  C   UNL A   1      33.727  31.290  27.468  1.00  0.00     0.221 C 
ATOM     20  C   UNL A   1      35.004  29.290  27.361  1.00  0.00     0.221 C 
ATOM     21  O   UNL A   1      34.749  30.496  28.089  1.00  0.00    -0.370 OA
ENDBRANCH  14  15
ENDBRANCH  13  14
ENDBRANCH   8  13
ENDBRANCH   7   8
ENDBRANCH   6   7
ENDBRANCH   3   6
ENDBRANCH   1   2
BRANCH   1  22
ATOM     22  C   UNL A   1      37.354  22.972  25.870  1.00  0.00     0.042 C 
BRANCH  22  23
ATOM     23  C   UNL A   1      38.167  24.138  26.419  1.00  0.00     0.118 C 
BRANCH  23  24
ATOM     24  N   UNL A   1      39.586  24.064  26.090  1.00  0.00    -0.352 N 
ATOM     25  C   UNL A   1      40.692  24.746  26.560  1.00  0.00     0.251 C 
ATOM     26  H   UNL A   1      39.797  23.397  25.397  1.00  0.00     0.163 HD
ATOM     27  O   UNL A   1      41.785  24.480  26.079  1.00  0.00    -0.269 OA
BRANCH  25  28
ATOM     28  C   UNL A   1      40.575  25.838  27.566  1.00  0.00     0.039 A 
ATOM     29  C   UNL A   1      39.655  25.693  28.615  1.00  0.00     0.014 A 
ATOM     30  C   UNL A   1      41.355  26.988  27.518  1.00  0.00     0.014 A 
ATOM     31  C   UNL A   1      39.563  26.670  29.618  1.00  0.00     0.010 A 
ATOM     32  C   UNL A   1      41.362  27.885  28.579  1.00  0.00     0.010 A 
ATOM     33  C   UNL A   1      40.444  27.760  29.628  1.00  0.00    -0.014 A 
BRANCH  33  34
ATOM     34  C   UNL A   1      40.415  28.826  30.666  1.00  0.00     0.031 A 
ATOM     35  C   UNL A   1      41.327  28.715  31.866  1.00  0.00     0.074 A 
ATOM     36  C   UNL A   1      39.506  29.819  30.601  1.00  0.00     0.049 A 
ATOM     37  N   UNL A   1      41.322  29.405  32.978  1.00  0.00    -0.248 NA
ATOM     38  C   UNL A   1      42.347  27.650  31.831  1.00  0.00     0.031 C 
ATOM     39  C   UNL A   1      38.539  30.019  29.520  1.00  0.00     0.029 A 
ATOM     40  N   UNL A   1      39.231  30.837  31.481  1.00  0.00    -0.354 N 
ATOM     41  C   UNL A   1      42.296  28.826  33.786  1.00  0.00     0.074 A 
ATOM     42  C   UNL A   1      42.829  27.694  33.063  1.00  0.00     0.031 C 
ATOM     43  C   UNL A   1      37.798  31.105  29.787  1.00  0.00     0.029 A 
ATOM     44  C   UNL A   1      38.192  31.646  31.083  1.00  0.00     0.049 A 
ATOM     45  H   UNL A   1      39.732  30.975  32.317  1.00  0.00     0.167 HD
ATOM     46  C   UNL A   1      42.728  29.214  35.010  1.00  0.00     0.031 A 
ATOM     47  C   UNL A   1      37.606  32.692  31.701  1.00  0.00     0.031 A 
ATOM     48  C   UNL A   1      42.228  30.371  35.701  1.00  0.00     0.049 A 
ATOM     49  C   UNL A   1      38.110  33.115  33.054  1.00  0.00     0.074 A 
ATOM     50  C   UNL A   1      42.646  30.898  36.909  1.00  0.00     0.029 A 
ATOM     51  N   UNL A   1      41.207  31.188  35.238  1.00  0.00    -0.354 N 
ATOM     52  N   UNL A   1      39.065  32.585  33.782  1.00  0.00    -0.248 NA
ATOM     53  C   UNL A   1      37.464  34.284  33.669  1.00  0.00     0.031 C 
ATOM     54  C   UNL A   1      41.845  32.004  37.201  1.00  0.00     0.029 A 
ATOM     55  C   UNL A   1      40.971  32.206  36.144  1.00  0.00     0.049 A 
ATOM     56  H   UNL A   1      40.722  31.062  34.390  1.00  0.00     0.167 HD
ATOM     57  C   UNL A   1      39.159  33.378  34.920  1.00  0.00     0.074 A 
ATOM     58  C   UNL A   1      38.168  34.426  34.784  1.00  0.00     0.031 C 
ATOM     59  C   UNL A   1      39.995  33.252  35.980  1.00  0.00     0.031 A 
BRANCH  46  60
ATOM     60  C   UNL A   1      43.797  28.386  35.675  1.00  0.00    -0.014 A 
ATOM     61  C   UNL A   1      45.157  28.739  35.587  1.00  0.00     0.010 A 
ATOM     62  C   UNL A   1      43.437  27.256  36.432  1.00  0.00     0.010 A 
ATOM     63  C   UNL A   1      46.137  27.952  36.198  1.00  0.00     0.020 A 
ATOM     64  C   UNL A   1      44.410  26.485  37.075  1.00  0.00     0.020 A 
ATOM     65  C   UNL A   1      45.757  26.829  36.937  1.00  0.00     0.054 A 
BRANCH  65  66
ATOM     66  S   UNL A   1      47.049  25.840  37.737  1.00  0.00     0.124 S 
ATOM     67  O   UNL A   1      47.332  26.627  38.934  1.00  0.00    -0.237 OA
ATOM     68  O   UNL A   1      46.378  24.564  37.971  1.00  0.00    -0.237 OA
ATOM     69  O   UNL A   1      48.124  25.804  36.748  1.00  0.00    -0.744 OA
ENDBRANCH  65  66
ENDBRANCH  46  60
BRANCH  47  70
ATOM     70  C   UNL A   1      36.489  33.418  31.035  1.00  0.00    -0.014 A 
ATOM     71  C   UNL A   1      36.682  34.025  29.781  1.00  0.00     0.010 A 
ATOM     72  C   UNL A   1      35.219  33.489  31.637  1.00  0.00     0.010 A 
ATOM     73  C   UNL A   1      35.635  34.704  29.152  1.00  0.00     0.020 A 
ATOM     74  C   UNL A   1      34.161  34.140  30.998  1.00  0.00     0.020 A 
ATOM     75  C   UNL A   1      34.378  34.754  29.764  1.00  0.00     0.054 A 
BRANCH  75  76
ATOM     76  S   UNL A   1      33.019  35.593  28.901  1.00  0.00     0.124 S 
ATOM     77  O   UNL A   1      32.210  36.082  30.012  1.00  0.00    -0.237 OA
ATOM     78  O   UNL A   1      33.719  36.615  28.127  1.00  0.00    -0.237 OA
ATOM     79  O   UNL A   1      32.412  34.528  28.104  1.00  0.00    -0.744 OA
ENDBRANCH  75  76
ENDBRANCH  47  70
BRANCH  59  80
ATOM     80  C   UNL A   1      39.929  34.303  37.056  1.00  0.00    -0.014 A 
ATOM     81  C   UNL A   1      40.559  35.550  36.904  1.00  0.00     0.010 A 
ATOM     82  C   UNL A   1      39.135  34.067  38.195  1.00  0.00     0.010 A 
ATOM     83  C   UNL A   1      40.405  36.539  37.879  1.00  0.00     0.020 A 
ATOM     84  C   UNL A   1      38.956  35.064  39.156  1.00  0.00     0.020 A 
ATOM     85  C   UNL A   1      39.597  36.293  38.995  1.00  0.00     0.054 A 
BRANCH  85  86
ATOM     86  S   UNL A   1      39.349  37.623  40.202  1.00  0.00     0.124 S 
ATOM     87  O   UNL A   1      38.270  38.393  39.589  1.00  0.00    -0.237 OA
ATOM     88  O   UNL A   1      38.991  36.893  41.415  1.00  0.00    -0.237 OA
ATOM     89  O   UNL A   1      40.645  38.297  40.248  1.00  0.00    -0.744 OA
ENDBRANCH  85  86
ENDBRANCH  59  80
ENDBRANCH  33  34
ENDBRANCH  25  28
ENDBRANCH  23  24
ENDBRANCH  22  23
ENDBRANCH   1  22
TORSDOF 19
ENDMDL
