MODEL 1
REMARK VINA RESULT:     -11.6      0.000      0.000
REMARK SMILES Cc1cc(C)c2c(c1)C=C(C(=O)NCCCNC(=O)c1ccc(-c3c4nc(c(-c5ccc(S(=O)(=O)[O-])cc5)c5ccc([nH]5)c(-c5ccc(S(=O)(=O)[O-])cc5)c5nc(c(-c6ccc(S(=O)(=O)[O-])cc6)c6ccc3[nH]6)C=C5)C=C4)cc1)[C@@H](C(F)(F)F)O2
REMARK SMILES IDX 16 1 15 2 14 3 13 4 11 5 12 6 10 8 1 9 2 10 3 11 8 12 4 13
REMARK SMILES IDX 7 14 5 15 6 16 9 17 85 18 80 19 81 20 82 21 83 22 84 23
REMARK SMILES IDX 17 24 18 25 19 27 20 28 21 29 79 30 22 31 78 32 23 33 24 34
REMARK SMILES IDX 25 35 72 36 26 37 77 38 71 39 73 40 27 41 76 42 70 43 69 44
REMARK SMILES IDX 28 46 58 47 39 48 57 49 40 50 43 51 56 52 74 53 41 54 42 55
REMARK SMILES IDX 55 57 75 58 44 59 29 60 30 61 38 62 31 63 37 64 32 65 33 66
REMARK SMILES IDX 34 67 35 68 36 69 59 70 60 71 68 72 61 73 67 74 62 75 63 76
REMARK SMILES IDX 64 77 65 78 66 79 45 80 46 81 54 82 47 83 53 84 48 85 49 86
REMARK SMILES IDX 50 87 51 88 52 89
REMARK H PARENT 13 7 17 26 73 45 43 56
REMARK Flexibility Score: inf
ROOT
ATOM      1  C   UNL A   1      33.915  28.125  26.365  1.00  0.00     0.118 C 
ENDROOT
BRANCH   1   2
ATOM      2  C   UNL A   1      33.953  27.946  24.853  1.00  0.00     0.042 C 
BRANCH   2   3
ATOM      3  C   UNL A   1      32.685  27.297  24.322  1.00  0.00     0.118 C 
BRANCH   3   4
ATOM      4  N   UNL A   1      31.882  26.711  25.386  1.00  0.00    -0.352 N 
ATOM      5  C   UNL A   1      31.792  25.520  26.020  1.00  0.00     0.251 C 
ATOM      6  O   UNL A   1      30.946  25.462  26.918  1.00  0.00    -0.270 OA
ATOM      7  H   UNL A   1      31.227  27.356  25.738  1.00  0.00     0.163 HD
BRANCH   5   8
ATOM      8  C   UNL A   1      32.626  24.321  25.712  1.00  0.00     0.067 C 
ATOM      9  C   UNL A   1      38.487  22.327  25.877  1.00  0.00     0.044 C 
ATOM     10  C   UNL A   1      37.002  22.251  25.680  1.00  0.00    -0.050 A 
ATOM     11  C   UNL A   1      36.418  21.040  25.280  1.00  0.00     0.010 A 
ATOM     12  C   UNL A   1      36.183  23.362  25.924  1.00  0.00     0.015 A 
ATOM     13  C   UNL A   1      35.032  20.930  25.121  1.00  0.00    -0.008 A 
ATOM     14  C   UNL A   1      34.798  23.268  25.764  1.00  0.00     0.018 A 
ATOM     15  C   UNL A   1      34.407  19.631  24.698  1.00  0.00     0.048 C 
ATOM     16  C   UNL A   1      34.235  22.054  25.365  1.00  0.00     0.130 A 
ATOM     17  C   UNL A   1      33.925  24.402  26.051  1.00  0.00     0.025 C 
ATOM     18  O   UNL A   1      32.884  21.887  25.243  1.00  0.00    -0.475 OA
ATOM     19  C   UNL A   1      32.099  23.087  25.039  1.00  0.00     0.314 C 
BRANCH  19  20
ATOM     20  C   UNL A   1      31.869  23.287  23.529  1.00  0.00     0.429 C 
ATOM     21  F   UNL A   1      30.621  23.767  23.299  1.00  0.00    -0.167 F 
ATOM     22  F   UNL A   1      32.727  24.184  22.984  1.00  0.00    -0.167 F 
ATOM     23  F   UNL A   1      32.001  22.144  22.820  1.00  0.00    -0.167 F 
ENDBRANCH  19  20
ENDBRANCH   5   8
ENDBRANCH   3   4
ENDBRANCH   2   3
ENDBRANCH   1   2
BRANCH   1  24
ATOM     24  N   UNL A   1      33.637  29.511  26.739  1.00  0.00    -0.352 N 
ATOM     25  C   UNL A   1      34.311  30.348  27.590  1.00  0.00     0.251 C 
ATOM     26  H   UNL A   1      32.841  29.904  26.314  1.00  0.00     0.163 HD
ATOM     27  O   UNL A   1      33.763  31.371  27.998  1.00  0.00    -0.269 OA
BRANCH  25  28
ATOM     28  C   UNL A   1      35.685  30.021  28.014  1.00  0.00     0.039 A 
ATOM     29  C   UNL A   1      35.919  29.589  29.322  1.00  0.00     0.014 A 
ATOM     30  C   UNL A   1      36.748  30.162  27.119  1.00  0.00     0.014 A 
ATOM     31  C   UNL A   1      37.214  29.239  29.709  1.00  0.00     0.010 A 
ATOM     32  C   UNL A   1      38.013  29.718  27.473  1.00  0.00     0.010 A 
ATOM     33  C   UNL A   1      38.264  29.267  28.776  1.00  0.00    -0.014 A 
BRANCH  33  34
ATOM     34  C   UNL A   1      39.640  28.861  29.146  1.00  0.00     0.031 A 
ATOM     35  C   UNL A   1      40.533  29.830  29.875  1.00  0.00     0.074 A 
ATOM     36  C   UNL A   1      40.097  27.647  28.781  1.00  0.00     0.049 A 
ATOM     37  N   UNL A   1      41.780  29.684  30.236  1.00  0.00    -0.248 NA
ATOM     38  C   UNL A   1      39.959  31.143  30.219  1.00  0.00     0.031 C 
ATOM     39  C   UNL A   1      39.334  26.641  28.036  1.00  0.00     0.029 A 
ATOM     40  N   UNL A   1      41.316  27.051  28.987  1.00  0.00    -0.354 N 
ATOM     41  C   UNL A   1      42.141  30.884  30.837  1.00  0.00     0.074 A 
ATOM     42  C   UNL A   1      41.005  31.770  30.737  1.00  0.00     0.031 C 
ATOM     43  C   UNL A   1      40.088  25.540  27.887  1.00  0.00     0.029 A 
ATOM     44  C   UNL A   1      41.399  25.773  28.483  1.00  0.00     0.049 A 
ATOM     45  H   UNL A   1      42.061  27.495  29.452  1.00  0.00     0.167 HD
ATOM     46  C   UNL A   1      43.304  31.208  31.448  1.00  0.00     0.031 A 
ATOM     47  C   UNL A   1      42.416  24.891  28.502  1.00  0.00     0.031 A 
ATOM     48  C   UNL A   1      44.420  30.311  31.567  1.00  0.00     0.049 A 
ATOM     49  C   UNL A   1      43.706  25.283  29.171  1.00  0.00     0.074 A 
ATOM     50  C   UNL A   1      45.627  30.524  32.209  1.00  0.00     0.029 A 
ATOM     51  N   UNL A   1      44.465  29.030  31.040  1.00  0.00    -0.354 N 
ATOM     52  N   UNL A   1      44.007  26.405  29.782  1.00  0.00    -0.248 NA
ATOM     53  C   UNL A   1      44.790  24.291  29.159  1.00  0.00     0.031 C 
ATOM     54  C   UNL A   1      46.421  29.390  32.027  1.00  0.00     0.029 A 
ATOM     55  C   UNL A   1      45.687  28.448  31.322  1.00  0.00     0.049 A 
ATOM     56  H   UNL A   1      43.736  28.599  30.538  1.00  0.00     0.167 HD
ATOM     57  C   UNL A   1      45.307  26.243  30.248  1.00  0.00     0.074 A 
ATOM     58  C   UNL A   1      45.728  24.912  29.863  1.00  0.00     0.031 C 
ATOM     59  C   UNL A   1      46.083  27.119  30.933  1.00  0.00     0.031 A 
BRANCH  46  60
ATOM     60  C   UNL A   1      43.422  32.580  32.053  1.00  0.00    -0.014 A 
ATOM     61  C   UNL A   1      43.807  33.683  31.268  1.00  0.00     0.010 A 
ATOM     62  C   UNL A   1      43.078  32.786  33.401  1.00  0.00     0.010 A 
ATOM     63  C   UNL A   1      43.867  34.962  31.825  1.00  0.00     0.020 A 
ATOM     64  C   UNL A   1      43.110  34.070  33.955  1.00  0.00     0.020 A 
ATOM     65  C   UNL A   1      43.513  35.148  33.163  1.00  0.00     0.054 A 
BRANCH  65  66
ATOM     66  S   UNL A   1      43.548  36.831  33.840  1.00  0.00     0.124 S 
ATOM     67  O   UNL A   1      42.259  36.907  34.524  1.00  0.00    -0.237 OA
ATOM     68  O   UNL A   1      44.719  36.799  34.711  1.00  0.00    -0.237 OA
ATOM     69  O   UNL A   1      43.674  37.679  32.658  1.00  0.00    -0.744 OA
ENDBRANCH  65  66
ENDBRANCH  46  60
BRANCH  47  70
ATOM     70  C   UNL A   1      42.247  23.545  27.888  1.00  0.00    -0.014 A 
ATOM     71  C   UNL A   1      42.669  23.307  26.569  1.00  0.00     0.010 A 
ATOM     72  C   UNL A   1      41.677  22.490  28.624  1.00  0.00     0.010 A 
ATOM     73  C   UNL A   1      42.508  22.045  25.989  1.00  0.00     0.020 A 
ATOM     74  C   UNL A   1      41.540  21.218  28.057  1.00  0.00     0.020 A 
ATOM     75  C   UNL A   1      41.947  21.008  26.739  1.00  0.00     0.054 A 
BRANCH  75  76
ATOM     76  S   UNL A   1      41.788  19.369  25.977  1.00  0.00     0.124 S 
ATOM     77  O   UNL A   1      42.669  19.484  24.819  1.00  0.00    -0.237 OA
ATOM     78  O   UNL A   1      42.251  18.482  27.041  1.00  0.00    -0.237 OA
ATOM     79  O   UNL A   1      40.362  19.270  25.671  1.00  0.00    -0.744 OA
ENDBRANCH  75  76
ENDBRANCH  47  70
BRANCH  59  80
ATOM     80  C   UNL A   1      47.462  26.668  31.330  1.00  0.00    -0.014 A 
ATOM     81  C   UNL A   1      47.688  26.043  32.568  1.00  0.00     0.010 A 
ATOM     82  C   UNL A   1      48.521  26.781  30.410  1.00  0.00     0.010 A 
ATOM     83  C   UNL A   1      48.956  25.551  32.885  1.00  0.00     0.020 A 
ATOM     84  C   UNL A   1      49.782  26.264  30.713  1.00  0.00     0.020 A 
ATOM     85  C   UNL A   1      49.993  25.658  31.953  1.00  0.00     0.054 A 
BRANCH  85  86
ATOM     86  S   UNL A   1      51.608  24.942  32.363  1.00  0.00     0.124 S 
ATOM     87  O   UNL A   1      51.372  23.517  32.147  1.00  0.00    -0.237 OA
ATOM     88  O   UNL A   1      52.496  25.586  31.398  1.00  0.00    -0.237 OA
ATOM     89  O   UNL A   1      51.819  25.335  33.755  1.00  0.00    -0.744 OA
ENDBRANCH  85  86
ENDBRANCH  59  80
ENDBRANCH  33  34
ENDBRANCH  25  28
ENDBRANCH   1  24
TORSDOF 14
ENDMDL
MODEL 2
REMARK VINA RESULT:     -11.3      1.988      3.877
REMARK SMILES Cc1cc(C)c2c(c1)C=C(C(=O)NCCCNC(=O)c1ccc(-c3c4nc(c(-c5ccc(S(=O)(=O)[O-])cc5)c5ccc([nH]5)c(-c5ccc(S(=O)(=O)[O-])cc5)c5nc(c(-c6ccc(S(=O)(=O)[O-])cc6)c6ccc3[nH]6)C=C5)C=C4)cc1)[C@@H](C(F)(F)F)O2
REMARK SMILES IDX 16 1 15 2 14 3 13 4 11 5 12 6 10 8 1 9 2 10 3 11 8 12 4 13
REMARK SMILES IDX 7 14 5 15 6 16 9 17 85 18 80 19 81 20 82 21 83 22 84 23
REMARK SMILES IDX 17 24 18 25 19 27 20 28 21 29 79 30 22 31 78 32 23 33 24 34
REMARK SMILES IDX 25 35 72 36 26 37 77 38 71 39 73 40 27 41 76 42 70 43 69 44
REMARK SMILES IDX 28 46 58 47 39 48 57 49 40 50 43 51 56 52 74 53 41 54 42 55
REMARK SMILES IDX 55 57 75 58 44 59 29 60 30 61 38 62 31 63 37 64 32 65 33 66
REMARK SMILES IDX 34 67 35 68 36 69 59 70 60 71 68 72 61 73 67 74 62 75 63 76
REMARK SMILES IDX 64 77 65 78 66 79 45 80 46 81 54 82 47 83 53 84 48 85 49 86
REMARK SMILES IDX 50 87 51 88 52 89
REMARK H PARENT 13 7 17 26 73 45 43 56
REMARK Flexibility Score: inf
ROOT
ATOM      1  C   UNL A   1      33.476  28.304  27.110  1.00  0.00     0.118 C 
ENDROOT
BRANCH   1   2
ATOM      2  C   UNL A   1      33.721  27.881  25.668  1.00  0.00     0.042 C 
BRANCH   2   3
ATOM      3  C   UNL A   1      33.720  26.368  25.507  1.00  0.00     0.118 C 
BRANCH   3   4
ATOM      4  N   UNL A   1      33.594  25.966  24.113  1.00  0.00    -0.352 N 
ATOM      5  C   UNL A   1      32.676  26.081  23.126  1.00  0.00     0.251 C 
ATOM      6  O   UNL A   1      33.003  25.588  22.041  1.00  0.00    -0.270 OA
ATOM      7  H   UNL A   1      34.392  25.478  23.807  1.00  0.00     0.163 HD
BRANCH   5   8
ATOM      8  C   UNL A   1      31.347  26.745  23.266  1.00  0.00     0.067 C 
ATOM      9  C   UNL A   1      28.600  32.260  22.638  1.00  0.00     0.044 C 
ATOM     10  C   UNL A   1      28.706  30.785  22.888  1.00  0.00    -0.050 A 
ATOM     11  C   UNL A   1      27.550  30.047  23.178  1.00  0.00     0.010 A 
ATOM     12  C   UNL A   1      29.940  30.124  22.801  1.00  0.00     0.015 A 
ATOM     13  C   UNL A   1      27.613  28.664  23.383  1.00  0.00    -0.008 A 
ATOM     14  C   UNL A   1      30.019  28.745  23.008  1.00  0.00     0.018 A 
ATOM     15  C   UNL A   1      26.373  27.873  23.688  1.00  0.00     0.048 C 
ATOM     16  C   UNL A   1      28.856  28.027  23.297  1.00  0.00     0.130 A 
ATOM     17  C   UNL A   1      31.288  28.033  22.884  1.00  0.00     0.025 C 
ATOM     18  O   UNL A   1      28.864  26.670  23.456  1.00  0.00    -0.475 OA
ATOM     19  C   UNL A   1      30.129  26.068  23.822  1.00  0.00     0.314 C 
BRANCH  19  20
ATOM     20  C   UNL A   1      30.186  25.908  25.353  1.00  0.00     0.429 C 
ATOM     21  F   UNL A   1      30.636  27.050  25.933  1.00  0.00    -0.167 F 
ATOM     22  F   UNL A   1      28.970  25.659  25.899  1.00  0.00    -0.167 F 
ATOM     23  F   UNL A   1      31.001  24.905  25.748  1.00  0.00    -0.167 F 
ENDBRANCH  19  20
ENDBRANCH   5   8
ENDBRANCH   3   4
ENDBRANCH   2   3
ENDBRANCH   1   2
BRANCH   1  24
ATOM     24  N   UNL A   1      33.461  29.758  27.252  1.00  0.00    -0.352 N 
ATOM     25  C   UNL A   1      34.366  30.597  27.850  1.00  0.00     0.251 C 
ATOM     26  H   UNL A   1      32.679  30.206  26.858  1.00  0.00     0.163 HD
ATOM     27  O   UNL A   1      34.038  31.751  28.124  1.00  0.00    -0.269 OA
BRANCH  25  28
ATOM     28  C   UNL A   1      35.725  30.115  28.163  1.00  0.00     0.039 A 
ATOM     29  C   UNL A   1      36.701  30.109  27.164  1.00  0.00     0.014 A 
ATOM     30  C   UNL A   1      36.025  29.646  29.443  1.00  0.00     0.014 A 
ATOM     31  C   UNL A   1      37.997  29.693  27.472  1.00  0.00     0.010 A 
ATOM     32  C   UNL A   1      37.335  29.330  29.774  1.00  0.00     0.010 A 
ATOM     33  C   UNL A   1      38.331  29.334  28.789  1.00  0.00    -0.014 A 
BRANCH  33  34
ATOM     34  C   UNL A   1      39.709  28.927  29.155  1.00  0.00     0.031 A 
ATOM     35  C   UNL A   1      40.606  29.897  29.876  1.00  0.00     0.074 A 
ATOM     36  C   UNL A   1      40.163  27.711  28.791  1.00  0.00     0.049 A 
ATOM     37  N   UNL A   1      41.855  29.751  30.232  1.00  0.00    -0.248 NA
ATOM     38  C   UNL A   1      40.036  31.212  30.218  1.00  0.00     0.031 C 
ATOM     39  C   UNL A   1      39.395  26.704  28.053  1.00  0.00     0.029 A 
ATOM     40  N   UNL A   1      41.381  27.114  28.993  1.00  0.00    -0.354 N 
ATOM     41  C   UNL A   1      42.220  30.952  30.827  1.00  0.00     0.074 A 
ATOM     42  C   UNL A   1      41.085  31.840  30.729  1.00  0.00     0.031 C 
ATOM     43  C   UNL A   1      40.146  25.601  27.904  1.00  0.00     0.029 A 
ATOM     44  C   UNL A   1      41.460  25.835  28.493  1.00  0.00     0.049 A 
ATOM     45  H   UNL A   1      42.129  27.559  29.453  1.00  0.00     0.167 HD
ATOM     46  C   UNL A   1      43.387  31.277  31.431  1.00  0.00     0.031 A 
ATOM     47  C   UNL A   1      42.476  24.952  28.510  1.00  0.00     0.031 A 
ATOM     48  C   UNL A   1      44.502  30.379  31.548  1.00  0.00     0.049 A 
ATOM     49  C   UNL A   1      43.770  25.344  29.171  1.00  0.00     0.074 A 
ATOM     50  C   UNL A   1      45.712  30.592  32.184  1.00  0.00     0.029 A 
ATOM     51  N   UNL A   1      44.543  29.096  31.025  1.00  0.00    -0.354 N 
ATOM     52  N   UNL A   1      44.076  26.467  29.778  1.00  0.00    -0.248 NA
ATOM     53  C   UNL A   1      44.853  24.351  29.158  1.00  0.00     0.031 C 
ATOM     54  C   UNL A   1      46.504  29.457  32.002  1.00  0.00     0.029 A 
ATOM     55  C   UNL A   1      45.766  28.513  31.304  1.00  0.00     0.049 A 
ATOM     56  H   UNL A   1      43.811  28.664  30.528  1.00  0.00     0.167 HD
ATOM     57  C   UNL A   1      45.378  26.306  30.239  1.00  0.00     0.074 A 
ATOM     58  C   UNL A   1      45.795  24.972  29.856  1.00  0.00     0.031 C 
ATOM     59  C   UNL A   1      46.158  27.182  30.916  1.00  0.00     0.031 A 
BRANCH  46  60
ATOM     60  C   UNL A   1      43.510  32.651  32.031  1.00  0.00    -0.014 A 
ATOM     61  C   UNL A   1      43.966  33.736  31.260  1.00  0.00     0.010 A 
ATOM     62  C   UNL A   1      43.099  32.879  33.357  1.00  0.00     0.010 A 
ATOM     63  C   UNL A   1      44.031  35.018  31.810  1.00  0.00     0.020 A 
ATOM     64  C   UNL A   1      43.136  34.166  33.902  1.00  0.00     0.020 A 
ATOM     65  C   UNL A   1      43.610  35.225  33.126  1.00  0.00     0.054 A 
BRANCH  65  66
ATOM     66  S   UNL A   1      43.654  36.912  33.790  1.00  0.00     0.124 S 
ATOM     67  O   UNL A   1      43.801  37.711  32.576  1.00  0.00    -0.237 OA
ATOM     68  O   UNL A   1      42.363  37.023  34.463  1.00  0.00    -0.237 OA
ATOM     69  O   UNL A   1      44.817  36.909  34.674  1.00  0.00    -0.744 OA
ENDBRANCH  65  66
ENDBRANCH  46  60
BRANCH  47  70
ATOM     70  C   UNL A   1      42.303  23.604  27.901  1.00  0.00    -0.014 A 
ATOM     71  C   UNL A   1      42.792  23.338  26.611  1.00  0.00     0.010 A 
ATOM     72  C   UNL A   1      41.662  22.574  28.614  1.00  0.00     0.010 A 
ATOM     73  C   UNL A   1      42.627  22.074  26.035  1.00  0.00     0.020 A 
ATOM     74  C   UNL A   1      41.520  21.301  28.054  1.00  0.00     0.020 A 
ATOM     75  C   UNL A   1      41.994  21.063  26.763  1.00  0.00     0.054 A 
BRANCH  75  76
ATOM     76  S   UNL A   1      41.830  19.420  26.010  1.00  0.00     0.124 S 
ATOM     77  O   UNL A   1      42.308  18.547  27.078  1.00  0.00    -0.237 OA
ATOM     78  O   UNL A   1      40.400  19.347  25.725  1.00  0.00    -0.237 OA
ATOM     79  O   UNL A   1      42.690  19.496  24.831  1.00  0.00    -0.744 OA
ENDBRANCH  75  76
ENDBRANCH  47  70
BRANCH  59  80
ATOM     80  C   UNL A   1      47.538  26.731  31.309  1.00  0.00    -0.014 A 
ATOM     81  C   UNL A   1      47.759  26.053  32.520  1.00  0.00     0.010 A 
ATOM     82  C   UNL A   1      48.605  26.900  30.407  1.00  0.00     0.010 A 
ATOM     83  C   UNL A   1      49.029  25.562  32.828  1.00  0.00     0.020 A 
ATOM     84  C   UNL A   1      49.870  26.385  30.701  1.00  0.00     0.020 A 
ATOM     85  C   UNL A   1      50.075  25.725  31.914  1.00  0.00     0.054 A 
BRANCH  85  86
ATOM     86  S   UNL A   1      51.694  25.012  32.310  1.00  0.00     0.124 S 
ATOM     87  O   UNL A   1      51.446  23.583  32.141  1.00  0.00    -0.237 OA
ATOM     88  O   UNL A   1      52.565  25.621  31.307  1.00  0.00    -0.237 OA
ATOM     89  O   UNL A   1      51.938  25.443  33.685  1.00  0.00    -0.744 OA
ENDBRANCH  85  86
ENDBRANCH  59  80
ENDBRANCH  33  34
ENDBRANCH  25  28
ENDBRANCH   1  24
TORSDOF 14
ENDMDL
MODEL 3
REMARK VINA RESULT:     -11.3      4.277     10.113
REMARK SMILES Cc1cc(C)c2c(c1)C=C(C(=O)NCCCNC(=O)c1ccc(-c3c4nc(c(-c5ccc(S(=O)(=O)[O-])cc5)c5ccc([nH]5)c(-c5ccc(S(=O)(=O)[O-])cc5)c5nc(c(-c6ccc(S(=O)(=O)[O-])cc6)c6ccc3[nH]6)C=C5)C=C4)cc1)[C@@H](C(F)(F)F)O2
REMARK SMILES IDX 16 1 15 2 14 3 13 4 11 5 12 6 10 8 1 9 2 10 3 11 8 12 4 13
REMARK SMILES IDX 7 14 5 15 6 16 9 17 85 18 80 19 81 20 82 21 83 22 84 23
REMARK SMILES IDX 17 24 18 25 19 27 20 28 21 29 79 30 22 31 78 32 23 33 24 34
REMARK SMILES IDX 25 35 72 36 26 37 77 38 71 39 73 40 27 41 76 42 70 43 69 44
REMARK SMILES IDX 28 46 58 47 39 48 57 49 40 50 43 51 56 52 74 53 41 54 42 55
REMARK SMILES IDX 55 57 75 58 44 59 29 60 30 61 38 62 31 63 37 64 32 65 33 66
REMARK SMILES IDX 34 67 35 68 36 69 59 70 60 71 68 72 61 73 67 74 62 75 63 76
REMARK SMILES IDX 64 77 65 78 66 79 45 80 46 81 54 82 47 83 53 84 48 85 49 86
REMARK SMILES IDX 50 87 51 88 52 89
REMARK H PARENT 13 7 17 26 73 45 43 56
REMARK Flexibility Score: inf
ROOT
ATOM      1  C   UNL A   1      39.564  23.562  26.959  1.00  0.00     0.118 C 
ENDROOT
BRANCH   1   2
ATOM      2  C   UNL A   1      38.199  23.620  26.285  1.00  0.00     0.042 C 
BRANCH   2   3
ATOM      3  C   UNL A   1      37.831  22.301  25.625  1.00  0.00     0.118 C 
BRANCH   3   4
ATOM      4  N   UNL A   1      37.365  22.484  24.257  1.00  0.00    -0.352 N 
ATOM      5  C   UNL A   1      36.251  22.939  23.642  1.00  0.00     0.251 C 
ATOM      6  O   UNL A   1      36.292  22.938  22.407  1.00  0.00    -0.270 OA
ATOM      7  H   UNL A   1      38.045  22.198  23.606  1.00  0.00     0.163 HD
BRANCH   5   8
ATOM      8  C   UNL A   1      35.025  23.427  24.340  1.00  0.00     0.067 C 
ATOM      9  C   UNL A   1      32.648  28.504  26.971  1.00  0.00     0.044 C 
ATOM     10  C   UNL A   1      32.683  27.094  26.461  1.00  0.00    -0.050 A 
ATOM     11  C   UNL A   1      31.544  26.285  26.586  1.00  0.00     0.010 A 
ATOM     12  C   UNL A   1      33.825  26.582  25.829  1.00  0.00     0.015 A 
ATOM     13  C   UNL A   1      31.536  24.977  26.090  1.00  0.00    -0.008 A 
ATOM     14  C   UNL A   1      33.832  25.276  25.333  1.00  0.00     0.018 A 
ATOM     15  C   UNL A   1      30.314  24.113  26.218  1.00  0.00     0.048 C 
ATOM     16  C   UNL A   1      32.689  24.485  25.467  1.00  0.00     0.130 A 
ATOM     17  C   UNL A   1      34.997  24.738  24.638  1.00  0.00     0.025 C 
ATOM     18  O   UNL A   1      32.620  23.220  24.955  1.00  0.00    -0.475 OA
ATOM     19  C   UNL A   1      33.879  22.541  24.733  1.00  0.00     0.314 C 
BRANCH  19  20
ATOM     20  C   UNL A   1      34.201  21.664  25.958  1.00  0.00     0.429 C 
ATOM     21  F   UNL A   1      34.949  20.593  25.591  1.00  0.00    -0.167 F 
ATOM     22  F   UNL A   1      34.918  22.324  26.900  1.00  0.00    -0.167 F 
ATOM     23  F   UNL A   1      33.094  21.193  26.573  1.00  0.00    -0.167 F 
ENDBRANCH  19  20
ENDBRANCH   5   8
ENDBRANCH   3   4
ENDBRANCH   2   3
ENDBRANCH   1   2
BRANCH   1  24
ATOM     24  N   UNL A   1      40.618  24.088  26.093  1.00  0.00    -0.352 N 
ATOM     25  C   UNL A   1      41.166  25.343  26.030  1.00  0.00     0.251 C 
ATOM     26  H   UNL A   1      40.992  23.439  25.454  1.00  0.00     0.163 HD
ATOM     27  O   UNL A   1      41.829  25.669  25.047  1.00  0.00    -0.269 OA
BRANCH  25  28
ATOM     28  C   UNL A   1      40.958  26.295  27.137  1.00  0.00     0.039 A 
ATOM     29  C   UNL A   1      40.071  25.970  28.168  1.00  0.00     0.014 A 
ATOM     30  C   UNL A   1      41.625  27.522  27.144  1.00  0.00     0.014 A 
ATOM     31  C   UNL A   1      39.908  26.854  29.236  1.00  0.00     0.010 A 
ATOM     32  C   UNL A   1      41.540  28.350  28.253  1.00  0.00     0.010 A 
ATOM     33  C   UNL A   1      40.668  28.033  29.303  1.00  0.00    -0.014 A 
BRANCH  33  34
ATOM     34  C   UNL A   1      40.546  28.969  30.446  1.00  0.00     0.031 A 
ATOM     35  C   UNL A   1      41.465  28.825  31.629  1.00  0.00     0.074 A 
ATOM     36  C   UNL A   1      39.577  29.907  30.438  1.00  0.00     0.049 A 
ATOM     37  N   UNL A   1      41.480  29.507  32.745  1.00  0.00    -0.248 NA
ATOM     38  C   UNL A   1      42.483  27.761  31.564  1.00  0.00     0.031 C 
ATOM     39  C   UNL A   1      38.603  30.111  29.363  1.00  0.00     0.029 A 
ATOM     40  N   UNL A   1      39.253  30.865  31.365  1.00  0.00    -0.354 N 
ATOM     41  C   UNL A   1      42.495  28.949  33.513  1.00  0.00     0.074 A 
ATOM     42  C   UNL A   1      43.032  27.834  32.768  1.00  0.00     0.031 C 
ATOM     43  C   UNL A   1      37.820  31.158  29.673  1.00  0.00     0.029 A 
ATOM     44  C   UNL A   1      38.204  31.669  30.984  1.00  0.00     0.049 A 
ATOM     45  H   UNL A   1      39.726  30.967  32.222  1.00  0.00     0.167 HD
ATOM     46  C   UNL A   1      42.961  29.350  34.718  1.00  0.00     0.031 A 
ATOM     47  C   UNL A   1      37.621  32.703  31.620  1.00  0.00     0.031 A 
ATOM     48  C   UNL A   1      42.440  30.476  35.441  1.00  0.00     0.049 A 
ATOM     49  C   UNL A   1      38.146  33.117  32.968  1.00  0.00     0.074 A 
ATOM     50  C   UNL A   1      42.874  30.997  36.648  1.00  0.00     0.029 A 
ATOM     51  N   UNL A   1      41.376  31.261  35.024  1.00  0.00    -0.354 N 
ATOM     52  N   UNL A   1      39.144  32.611  33.653  1.00  0.00    -0.248 NA
ATOM     53  C   UNL A   1      37.473  34.246  33.627  1.00  0.00     0.031 C 
ATOM     54  C   UNL A   1      42.039  32.065  36.984  1.00  0.00     0.029 A 
ATOM     55  C   UNL A   1      41.124  32.248  35.959  1.00  0.00     0.049 A 
ATOM     56  H   UNL A   1      40.874  31.134  34.186  1.00  0.00     0.167 HD
ATOM     57  C   UNL A   1      39.233  33.373  34.812  1.00  0.00     0.074 A 
ATOM     58  C   UNL A   1      38.199  34.385  34.728  1.00  0.00     0.031 C 
ATOM     59  C   UNL A   1      40.092  33.247  35.852  1.00  0.00     0.031 A 
BRANCH  46  60
ATOM     60  C   UNL A   1      44.106  28.581  35.321  1.00  0.00    -0.014 A 
ATOM     61  C   UNL A   1      45.435  28.998  35.126  1.00  0.00     0.010 A 
ATOM     62  C   UNL A   1      43.849  27.473  36.149  1.00  0.00     0.010 A 
ATOM     63  C   UNL A   1      46.489  28.307  35.729  1.00  0.00     0.020 A 
ATOM     64  C   UNL A   1      44.900  26.797  36.777  1.00  0.00     0.020 A 
ATOM     65  C   UNL A   1      46.214  27.215  36.555  1.00  0.00     0.054 A 
BRANCH  65  66
ATOM     66  S   UNL A   1      47.602  26.376  37.368  1.00  0.00     0.124 S 
ATOM     67  O   UNL A   1      48.599  27.441  37.438  1.00  0.00    -0.237 OA
ATOM     68  O   UNL A   1      47.024  25.971  38.646  1.00  0.00    -0.237 OA
ATOM     69  O   UNL A   1      47.928  25.280  36.458  1.00  0.00    -0.744 OA
ENDBRANCH  65  66
ENDBRANCH  46  60
BRANCH  47  70
ATOM     70  C   UNL A   1      36.491  33.431  30.979  1.00  0.00    -0.014 A 
ATOM     71  C   UNL A   1      35.315  33.698  31.702  1.00  0.00     0.010 A 
ATOM     72  C   UNL A   1      36.589  33.875  29.647  1.00  0.00     0.010 A 
ATOM     73  C   UNL A   1      34.251  34.378  31.101  1.00  0.00     0.020 A 
ATOM     74  C   UNL A   1      35.538  34.580  29.051  1.00  0.00     0.020 A 
ATOM     75  C   UNL A   1      34.372  34.817  29.780  1.00  0.00     0.054 A 
BRANCH  75  76
ATOM     76  S   UNL A   1      32.993  35.734  29.037  1.00  0.00     0.124 S 
ATOM     77  O   UNL A   1      33.682  36.843  28.384  1.00  0.00    -0.237 OA
ATOM     78  O   UNL A   1      32.401  34.741  28.144  1.00  0.00    -0.237 OA
ATOM     79  O   UNL A   1      32.167  36.099  30.185  1.00  0.00    -0.744 OA
ENDBRANCH  75  76
ENDBRANCH  47  70
BRANCH  59  80
ATOM     80  C   UNL A   1      39.971  34.234  36.982  1.00  0.00    -0.014 A 
ATOM     81  C   UNL A   1      40.533  35.518  36.882  1.00  0.00     0.010 A 
ATOM     82  C   UNL A   1      39.201  33.903  38.112  1.00  0.00     0.010 A 
ATOM     83  C   UNL A   1      40.336  36.451  37.901  1.00  0.00     0.020 A 
ATOM     84  C   UNL A   1      38.979  34.844  39.119  1.00  0.00     0.020 A 
ATOM     85  C   UNL A   1      39.555  36.111  39.010  1.00  0.00     0.054 A 
BRANCH  85  86
ATOM     86  S   UNL A   1      39.256  37.370  40.281  1.00  0.00     0.124 S 
ATOM     87  O   UNL A   1      38.403  38.320  39.573  1.00  0.00    -0.237 OA
ATOM     88  O   UNL A   1      38.600  36.604  41.339  1.00  0.00    -0.237 OA
ATOM     89  O   UNL A   1      40.593  37.858  40.610  1.00  0.00    -0.744 OA
ENDBRANCH  85  86
ENDBRANCH  59  80
ENDBRANCH  33  34
ENDBRANCH  25  28
ENDBRANCH   1  24
TORSDOF 14
ENDMDL
