MODEL 1
REMARK VINA RESULT:     -13.4      0.000      0.000
REMARK SMILES Cc1c(CC(=O)NCCCNC(=O)c2ccc(-c3c4nc(c(-c5ccc(S(=O)(=O)[O-])cc5)c5ccc([nH]5)c(-c5ccc(S(=O)(=O)[O-])cc5)c5nc(c(-c6ccc(S(=O)(=O)[O-])cc6)c6ccc3[nH]6)C=C5)C=C4)cc2)c2cc(O)ccc2n1C(=O)c1ccc(Cl)cc1
REMARK SMILES IDX 9 1 8 2 7 3 5 4 6 5 4 7 3 8 1 9 2 10 81 11 74 12 80 13 75 14
REMARK SMILES IDX 79 15 76 16 78 17 82 18 83 19 84 20 85 21 90 22 86 23 89 24
REMARK SMILES IDX 87 25 88 26 77 27 10 29 11 30 12 31 13 33 14 34 15 35 73 36
REMARK SMILES IDX 16 37 72 38 17 39 18 40 19 41 66 42 20 43 71 44 65 45 67 46
REMARK SMILES IDX 21 47 70 48 64 49 63 50 22 52 52 53 33 54 51 55 34 56 37 57
REMARK SMILES IDX 50 58 68 59 35 60 36 61 49 63 69 64 38 65 23 66 24 67 32 68
REMARK SMILES IDX 25 69 31 70 26 71 27 72 28 73 29 74 30 75 53 76 54 77 62 78
REMARK SMILES IDX 55 79 61 80 56 81 57 82 58 83 59 84 60 85 39 86 40 87 48 88
REMARK SMILES IDX 41 89 47 90 42 91 43 92 44 93 45 94 46 95
REMARK H PARENT 7 6 77 28 11 32 67 51 37 62
REMARK Flexibility Score: inf
ROOT
ATOM      1  C   UNL A   1      37.935  22.366  25.356  1.00  0.00     0.042 C 
ENDROOT
BRANCH   1   2
ATOM      2  C   UNL A   1      37.010  23.579  25.230  1.00  0.00     0.117 C 
BRANCH   2   3
ATOM      3  N   UNL A   1      35.742  23.382  25.915  1.00  0.00    -0.356 N 
ATOM      4  C   UNL A   1      34.540  23.994  25.714  1.00  0.00     0.224 C 
ATOM      5  O   UNL A   1      33.594  23.657  26.430  1.00  0.00    -0.275 OA
ATOM      6  H   UNL A   1      35.754  22.707  26.630  1.00  0.00     0.163 HD
BRANCH   4   7
ATOM      7  C   UNL A   1      34.364  25.004  24.594  1.00  0.00     0.138 C 
BRANCH   7   8
ATOM      8  C   UNL A   1      33.159  25.882  24.762  1.00  0.00    -0.009 A 
ATOM      9  C   UNL A   1      31.461  24.640  23.227  1.00  0.00     0.065 C 
ATOM     10  C   UNL A   1      31.916  25.719  24.166  1.00  0.00     0.028 A 
ATOM     11  N   UNL A   1      31.084  26.785  24.545  1.00  0.00    -0.280 N 
ATOM     12  C   UNL A   1      33.074  27.022  25.610  1.00  0.00     0.008 A 
ATOM     13  C   UNL A   1      31.772  27.528  25.522  1.00  0.00     0.057 A 
ATOM     14  C   UNL A   1      34.005  27.649  26.471  1.00  0.00     0.056 A 
ATOM     15  C   UNL A   1      31.377  28.599  26.354  1.00  0.00     0.031 A 
ATOM     16  C   UNL A   1      33.617  28.754  27.223  1.00  0.00     0.116 A 
ATOM     17  C   UNL A   1      32.318  29.222  27.178  1.00  0.00     0.048 A 
BRANCH  11  18
ATOM     18  C   UNL A   1      29.780  27.038  24.027  1.00  0.00     0.262 C 
ATOM     19  O   UNL A   1      28.873  26.278  24.363  1.00  0.00    -0.268 OA
BRANCH  18  20
ATOM     20  C   UNL A   1      29.410  28.153  23.141  1.00  0.00     0.040 A 
ATOM     21  C   UNL A   1      30.379  28.857  22.416  1.00  0.00     0.015 A 
ATOM     22  C   UNL A   1      28.064  28.529  23.082  1.00  0.00     0.015 A 
ATOM     23  C   UNL A   1      30.012  30.017  21.729  1.00  0.00     0.021 A 
ATOM     24  C   UNL A   1      27.701  29.685  22.390  1.00  0.00     0.021 A 
ATOM     25  C   UNL A   1      28.679  30.438  21.742  1.00  0.00     0.041 A 
ATOM     26  Cl  UNL A   1      28.250  31.923  20.984  1.00  0.00    -0.084 Cl
ENDBRANCH  18  20
ENDBRANCH  11  18
BRANCH  16  27
ATOM     27  O   UNL A   1      34.554  29.346  28.018  1.00  0.00    -0.508 OA
ATOM     28  H   UNL A   1      34.651  29.075  28.910  1.00  0.00     0.293 HD
ENDBRANCH  16  27
ENDBRANCH   7   8
ENDBRANCH   4   7
ENDBRANCH   2   3
ENDBRANCH   1   2
BRANCH   1  29
ATOM     29  C   UNL A   1      38.989  22.520  26.455  1.00  0.00     0.118 C 
BRANCH  29  30
ATOM     30  N   UNL A   1      40.348  22.313  25.993  1.00  0.00    -0.352 N 
ATOM     31  C   UNL A   1      41.529  22.989  26.100  1.00  0.00     0.251 C 
ATOM     32  H   UNL A   1      40.443  21.480  25.478  1.00  0.00     0.163 HD
ATOM     33  O   UNL A   1      42.517  22.409  25.640  1.00  0.00    -0.269 OA
BRANCH  31  34
ATOM     34  C   UNL A   1      41.694  24.363  26.643  1.00  0.00     0.039 A 
ATOM     35  C   UNL A   1      42.277  24.692  27.867  1.00  0.00     0.014 A 
ATOM     36  C   UNL A   1      41.114  25.392  25.875  1.00  0.00     0.014 A 
ATOM     37  C   UNL A   1      42.155  25.982  28.373  1.00  0.00     0.010 A 
ATOM     38  C   UNL A   1      41.009  26.686  26.366  1.00  0.00     0.010 A 
ATOM     39  C   UNL A   1      41.459  26.955  27.651  1.00  0.00    -0.014 A 
BRANCH  39  40
ATOM     40  C   UNL A   1      41.240  28.252  28.283  1.00  0.00     0.031 A 
ATOM     41  C   UNL A   1      42.334  29.243  28.088  1.00  0.00     0.074 A 
ATOM     42  C   UNL A   1      40.104  28.557  28.944  1.00  0.00     0.049 A 
ATOM     43  N   UNL A   1      43.114  29.764  28.978  1.00  0.00    -0.248 NA
ATOM     44  C   UNL A   1      42.679  29.604  26.706  1.00  0.00     0.031 C 
ATOM     45  C   UNL A   1      38.842  27.806  28.976  1.00  0.00     0.029 A 
ATOM     46  N   UNL A   1      39.808  29.674  29.663  1.00  0.00    -0.354 N 
ATOM     47  C   UNL A   1      43.945  30.651  28.294  1.00  0.00     0.074 A 
ATOM     48  C   UNL A   1      43.721  30.415  26.890  1.00  0.00     0.031 C 
ATOM     49  C   UNL A   1      37.860  28.597  29.466  1.00  0.00     0.029 A 
ATOM     50  C   UNL A   1      38.457  29.829  29.946  1.00  0.00     0.049 A 
ATOM     51  H   UNL A   1      40.492  30.318  29.956  1.00  0.00     0.167 HD
ATOM     52  C   UNL A   1      44.631  31.643  28.926  1.00  0.00     0.031 A 
ATOM     53  C   UNL A   1      37.868  30.915  30.504  1.00  0.00     0.031 A 
ATOM     54  C   UNL A   1      44.665  31.445  30.347  1.00  0.00     0.049 A 
ATOM     55  C   UNL A   1      38.928  31.650  31.233  1.00  0.00     0.074 A 
ATOM     56  C   UNL A   1      45.340  30.617  31.213  1.00  0.00     0.029 A 
ATOM     57  N   UNL A   1      43.592  31.962  31.028  1.00  0.00    -0.354 N 
ATOM     58  N   UNL A   1      39.573  31.162  32.258  1.00  0.00    -0.248 NA
ATOM     59  C   UNL A   1      39.541  32.810  30.604  1.00  0.00     0.031 C 
ATOM     60  C   UNL A   1      44.449  30.400  32.303  1.00  0.00     0.029 A 
ATOM     61  C   UNL A   1      43.286  31.145  32.087  1.00  0.00     0.049 A 
ATOM     62  H   UNL A   1      43.116  32.792  30.795  1.00  0.00     0.167 HD
ATOM     63  C   UNL A   1      40.850  31.685  32.152  1.00  0.00     0.074 A 
ATOM     64  C   UNL A   1      40.727  32.796  31.215  1.00  0.00     0.031 C 
ATOM     65  C   UNL A   1      41.938  31.004  32.616  1.00  0.00     0.031 A 
BRANCH  52  66
ATOM     66  C   UNL A   1      44.967  32.977  28.302  1.00  0.00    -0.014 A 
ATOM     67  C   UNL A   1      43.981  33.874  27.842  1.00  0.00     0.010 A 
ATOM     68  C   UNL A   1      46.284  33.477  28.390  1.00  0.00     0.010 A 
ATOM     69  C   UNL A   1      44.284  35.181  27.456  1.00  0.00     0.020 A 
ATOM     70  C   UNL A   1      46.595  34.802  28.040  1.00  0.00     0.020 A 
ATOM     71  C   UNL A   1      45.590  35.643  27.565  1.00  0.00     0.054 A 
BRANCH  71  72
ATOM     72  S   UNL A   1      45.922  37.368  27.130  1.00  0.00     0.124 S 
ATOM     73  O   UNL A   1      46.629  37.845  28.317  1.00  0.00    -0.237 OA
ATOM     74  O   UNL A   1      46.734  37.238  25.925  1.00  0.00    -0.237 OA
ATOM     75  O   UNL A   1      44.591  37.935  26.928  1.00  0.00    -0.744 OA
ENDBRANCH  71  72
ENDBRANCH  52  66
BRANCH  53  76
ATOM     76  C   UNL A   1      36.636  31.592  30.015  1.00  0.00    -0.014 A 
ATOM     77  C   UNL A   1      36.633  32.181  28.734  1.00  0.00     0.010 A 
ATOM     78  C   UNL A   1      35.603  31.948  30.905  1.00  0.00     0.010 A 
ATOM     79  C   UNL A   1      35.688  33.150  28.380  1.00  0.00     0.020 A 
ATOM     80  C   UNL A   1      34.647  32.919  30.553  1.00  0.00     0.020 A 
ATOM     81  C   UNL A   1      34.721  33.539  29.304  1.00  0.00     0.054 A 
BRANCH  81  82
ATOM     82  S   UNL A   1      33.629  34.926  28.872  1.00  0.00     0.124 S 
ATOM     83  O   UNL A   1      34.504  35.759  28.052  1.00  0.00    -0.237 OA
ATOM     84  O   UNL A   1      32.543  34.262  28.156  1.00  0.00    -0.237 OA
ATOM     85  O   UNL A   1      33.259  35.494  30.167  1.00  0.00    -0.744 OA
ENDBRANCH  81  82
ENDBRANCH  53  76
BRANCH  65  86
ATOM     86  C   UNL A   1      41.729  29.887  33.615  1.00  0.00    -0.014 A 
ATOM     87  C   UNL A   1      41.960  30.201  34.967  1.00  0.00     0.010 A 
ATOM     88  C   UNL A   1      41.503  28.540  33.268  1.00  0.00     0.010 A 
ATOM     89  C   UNL A   1      42.021  29.204  35.940  1.00  0.00     0.020 A 
ATOM     90  C   UNL A   1      41.536  27.532  34.250  1.00  0.00     0.020 A 
ATOM     91  C   UNL A   1      41.824  27.872  35.575  1.00  0.00     0.054 A 
BRANCH  91  92
ATOM     92  S   UNL A   1      41.975  26.613  36.875  1.00  0.00     0.124 S 
ATOM     93  O   UNL A   1      42.237  25.399  36.102  1.00  0.00    -0.237 OA
ATOM     94  O   UNL A   1      43.109  27.098  37.661  1.00  0.00    -0.237 OA
ATOM     95  O   UNL A   1      40.688  26.658  37.563  1.00  0.00    -0.744 OA
ENDBRANCH  91  92
ENDBRANCH  65  86
ENDBRANCH  39  40
ENDBRANCH  31  34
ENDBRANCH  29  30
ENDBRANCH   1  29
TORSDOF 17
ENDMDL
MODEL 2
REMARK VINA RESULT:     -13.4      1.814      2.906
REMARK SMILES Cc1c(CC(=O)NCCCNC(=O)c2ccc(-c3c4nc(c(-c5ccc(S(=O)(=O)[O-])cc5)c5ccc([nH]5)c(-c5ccc(S(=O)(=O)[O-])cc5)c5nc(c(-c6ccc(S(=O)(=O)[O-])cc6)c6ccc3[nH]6)C=C5)C=C4)cc2)c2cc(O)ccc2n1C(=O)c1ccc(Cl)cc1
REMARK SMILES IDX 9 1 8 2 7 3 5 4 6 5 4 7 3 8 1 9 2 10 81 11 74 12 80 13 75 14
REMARK SMILES IDX 79 15 76 16 78 17 82 18 83 19 84 20 85 21 90 22 86 23 89 24
REMARK SMILES IDX 87 25 88 26 77 27 10 29 11 30 12 31 13 33 14 34 15 35 73 36
REMARK SMILES IDX 16 37 72 38 17 39 18 40 19 41 66 42 20 43 71 44 65 45 67 46
REMARK SMILES IDX 21 47 70 48 64 49 63 50 22 52 52 53 33 54 51 55 34 56 37 57
REMARK SMILES IDX 50 58 68 59 35 60 36 61 49 63 69 64 38 65 23 66 24 67 32 68
REMARK SMILES IDX 25 69 31 70 26 71 27 72 28 73 29 74 30 75 53 76 54 77 62 78
REMARK SMILES IDX 55 79 61 80 56 81 57 82 58 83 59 84 60 85 39 86 40 87 48 88
REMARK SMILES IDX 41 89 47 90 42 91 43 92 44 93 45 94 46 95
REMARK H PARENT 7 6 77 28 11 32 67 51 37 62
REMARK Flexibility Score: inf
ROOT
ATOM      1  C   UNL A   1      38.675  23.404  26.445  1.00  0.00     0.042 C 
ENDROOT
BRANCH   1   2
ATOM      2  C   UNL A   1      37.486  22.698  25.788  1.00  0.00     0.117 C 
BRANCH   2   3
ATOM      3  N   UNL A   1      37.460  22.882  24.346  1.00  0.00    -0.356 N 
ATOM      4  C   UNL A   1      36.438  22.697  23.464  1.00  0.00     0.224 C 
ATOM      5  O   UNL A   1      36.657  22.918  22.270  1.00  0.00    -0.275 OA
ATOM      6  H   UNL A   1      38.307  23.187  23.948  1.00  0.00     0.163 HD
BRANCH   4   7
ATOM      7  C   UNL A   1      35.057  22.299  23.953  1.00  0.00     0.138 C 
BRANCH   7   8
ATOM      8  C   UNL A   1      34.151  23.467  24.210  1.00  0.00    -0.009 A 
ATOM      9  C   UNL A   1      34.229  23.553  26.811  1.00  0.00     0.065 C 
ATOM     10  C   UNL A   1      33.799  23.997  25.443  1.00  0.00     0.028 A 
ATOM     11  N   UNL A   1      32.892  25.051  25.246  1.00  0.00    -0.280 N 
ATOM     12  C   UNL A   1      33.528  24.270  23.212  1.00  0.00     0.008 A 
ATOM     13  C   UNL A   1      32.813  25.284  23.861  1.00  0.00     0.057 A 
ATOM     14  C   UNL A   1      33.541  24.226  21.799  1.00  0.00     0.056 A 
ATOM     15  C   UNL A   1      32.188  26.297  23.102  1.00  0.00     0.031 A 
ATOM     16  C   UNL A   1      32.850  25.189  21.070  1.00  0.00     0.116 A 
ATOM     17  C   UNL A   1      32.188  26.221  21.707  1.00  0.00     0.048 A 
BRANCH  11  18
ATOM     18  C   UNL A   1      32.202  25.749  26.280  1.00  0.00     0.262 C 
ATOM     19  O   UNL A   1      31.326  25.141  26.895  1.00  0.00    -0.268 OA
BRANCH  18  20
ATOM     20  C   UNL A   1      32.463  27.133  26.705  1.00  0.00     0.040 A 
ATOM     21  C   UNL A   1      31.435  27.947  27.199  1.00  0.00     0.015 A 
ATOM     22  C   UNL A   1      33.758  27.637  26.553  1.00  0.00     0.015 A 
ATOM     23  C   UNL A   1      31.684  29.303  27.423  1.00  0.00     0.021 A 
ATOM     24  C   UNL A   1      34.003  28.990  26.782  1.00  0.00     0.021 A 
ATOM     25  C   UNL A   1      32.960  29.822  27.187  1.00  0.00     0.041 A 
ATOM     26  Cl  UNL A   1      33.236  31.513  27.362  1.00  0.00    -0.084 Cl
ENDBRANCH  18  20
ENDBRANCH  11  18
BRANCH  16  27
ATOM     27  O   UNL A   1      32.864  25.092  19.710  1.00  0.00    -0.508 OA
ATOM     28  H   UNL A   1      32.061  24.984  19.239  1.00  0.00     0.293 HD
ENDBRANCH  16  27
ENDBRANCH   7   8
ENDBRANCH   4   7
ENDBRANCH   2   3
ENDBRANCH   1   2
BRANCH   1  29
ATOM     29  C   UNL A   1      39.809  22.451  26.828  1.00  0.00     0.118 C 
BRANCH  29  30
ATOM     30  N   UNL A   1      40.969  22.545  25.961  1.00  0.00    -0.352 N 
ATOM     31  C   UNL A   1      42.000  23.424  25.802  1.00  0.00     0.251 C 
ATOM     32  H   UNL A   1      41.026  21.788  25.335  1.00  0.00     0.163 HD
ATOM     33  O   UNL A   1      42.871  23.082  24.997  1.00  0.00    -0.269 OA
BRANCH  31  34
ATOM     34  C   UNL A   1      42.109  24.759  26.451  1.00  0.00     0.039 A 
ATOM     35  C   UNL A   1      42.740  25.026  27.665  1.00  0.00     0.014 A 
ATOM     36  C   UNL A   1      41.421  25.804  25.803  1.00  0.00     0.014 A 
ATOM     37  C   UNL A   1      42.565  26.260  28.285  1.00  0.00     0.010 A 
ATOM     38  C   UNL A   1      41.261  27.043  26.407  1.00  0.00     0.010 A 
ATOM     39  C   UNL A   1      41.768  27.239  27.684  1.00  0.00    -0.014 A 
BRANCH  39  40
ATOM     40  C   UNL A   1      41.504  28.462  28.435  1.00  0.00     0.031 A 
ATOM     41  C   UNL A   1      42.598  29.470  28.405  1.00  0.00     0.074 A 
ATOM     42  C   UNL A   1      40.330  28.694  29.059  1.00  0.00     0.049 A 
ATOM     43  N   UNL A   1      43.324  29.898  29.386  1.00  0.00    -0.248 NA
ATOM     44  C   UNL A   1      43.017  29.974  27.089  1.00  0.00     0.031 C 
ATOM     45  C   UNL A   1      39.075  27.941  28.943  1.00  0.00     0.029 A 
ATOM     46  N   UNL A   1      39.986  29.730  29.872  1.00  0.00    -0.354 N 
ATOM     47  C   UNL A   1      44.185  30.853  28.845  1.00  0.00     0.074 A 
ATOM     48  C   UNL A   1      44.040  30.764  27.414  1.00  0.00     0.031 C 
ATOM     49  C   UNL A   1      38.061  28.674  29.456  1.00  0.00     0.029 A 
ATOM     50  C   UNL A   1      38.620  29.851  30.095  1.00  0.00     0.049 A 
ATOM     51  H   UNL A   1      40.648  30.341  30.268  1.00  0.00     0.167 HD
ATOM     52  C   UNL A   1      44.827  31.775  29.614  1.00  0.00     0.031 A 
ATOM     53  C   UNL A   1      37.992  30.872  30.729  1.00  0.00     0.031 A 
ATOM     54  C   UNL A   1      44.783  31.431  31.007  1.00  0.00     0.049 A 
ATOM     55  C   UNL A   1      39.005  31.529  31.587  1.00  0.00     0.074 A 
ATOM     56  C   UNL A   1      45.417  30.519  31.818  1.00  0.00     0.029 A 
ATOM     57  N   UNL A   1      43.670  31.872  31.677  1.00  0.00    -0.354 N 
ATOM     58  N   UNL A   1      39.596  30.939  32.590  1.00  0.00    -0.248 NA
ATOM     59  C   UNL A   1      39.642  32.749  31.117  1.00  0.00     0.031 C 
ATOM     60  C   UNL A   1      44.468  30.187  32.828  1.00  0.00     0.029 A 
ATOM     61  C   UNL A   1      43.313  30.948  32.626  1.00  0.00     0.049 A 
ATOM     62  H   UNL A   1      43.201  32.720  31.504  1.00  0.00     0.167 HD
ATOM     63  C   UNL A   1      40.873  31.472  32.611  1.00  0.00     0.074 A 
ATOM     64  C   UNL A   1      40.793  32.675  31.789  1.00  0.00     0.031 C 
ATOM     65  C   UNL A   1      41.939  30.750  33.062  1.00  0.00     0.031 A 
BRANCH  52  66
ATOM     66  C   UNL A   1      45.186  33.168  29.151  1.00  0.00    -0.014 A 
ATOM     67  C   UNL A   1      46.512  33.561  28.876  1.00  0.00     0.010 A 
ATOM     68  C   UNL A   1      44.165  34.051  28.736  1.00  0.00     0.010 A 
ATOM     69  C   UNL A   1      46.815  34.777  28.258  1.00  0.00     0.020 A 
ATOM     70  C   UNL A   1      44.457  35.259  28.081  1.00  0.00     0.020 A 
ATOM     71  C   UNL A   1      45.784  35.618  27.856  1.00  0.00     0.054 A 
BRANCH  71  72
ATOM     72  S   UNL A   1      46.221  37.144  26.987  1.00  0.00     0.124 S 
ATOM     73  O   UNL A   1      44.922  37.800  26.863  1.00  0.00    -0.237 OA
ATOM     74  O   UNL A   1      47.157  37.775  27.912  1.00  0.00    -0.237 OA
ATOM     75  O   UNL A   1      46.805  36.673  25.734  1.00  0.00    -0.744 OA
ENDBRANCH  71  72
ENDBRANCH  52  66
BRANCH  53  76
ATOM     76  C   UNL A   1      36.784  31.593  30.244  1.00  0.00    -0.014 A 
ATOM     77  C   UNL A   1      36.862  32.352  29.058  1.00  0.00     0.010 A 
ATOM     78  C   UNL A   1      35.681  31.809  31.094  1.00  0.00     0.010 A 
ATOM     79  C   UNL A   1      35.922  33.349  28.770  1.00  0.00     0.020 A 
ATOM     80  C   UNL A   1      34.730  32.806  30.806  1.00  0.00     0.020 A 
ATOM     81  C   UNL A   1      34.880  33.594  29.663  1.00  0.00     0.054 A 
BRANCH  81  82
ATOM     82  S   UNL A   1      33.791  35.013  29.342  1.00  0.00     0.124 S 
ATOM     83  O   UNL A   1      32.555  34.359  28.920  1.00  0.00    -0.237 OA
ATOM     84  O   UNL A   1      33.738  35.671  30.645  1.00  0.00    -0.237 OA
ATOM     85  O   UNL A   1      34.490  35.760  28.299  1.00  0.00    -0.744 OA
ENDBRANCH  81  82
ENDBRANCH  53  76
BRANCH  65  86
ATOM     86  C   UNL A   1      41.684  29.534  33.926  1.00  0.00    -0.014 A 
ATOM     87  C   UNL A   1      41.633  29.751  35.315  1.00  0.00     0.010 A 
ATOM     88  C   UNL A   1      41.680  28.207  33.453  1.00  0.00     0.010 A 
ATOM     89  C   UNL A   1      41.632  28.684  36.213  1.00  0.00     0.020 A 
ATOM     90  C   UNL A   1      41.652  27.126  34.353  1.00  0.00     0.020 A 
ATOM     91  C   UNL A   1      41.657  27.376  35.729  1.00  0.00     0.054 A 
BRANCH  91  92
ATOM     92  S   UNL A   1      41.717  26.029  36.945  1.00  0.00     0.124 S 
ATOM     93  O   UNL A   1      41.984  24.862  36.105  1.00  0.00    -0.237 OA
ATOM     94  O   UNL A   1      42.824  26.430  37.812  1.00  0.00    -0.237 OA
ATOM     95  O   UNL A   1      40.401  26.064  37.577  1.00  0.00    -0.744 OA
ENDBRANCH  91  92
ENDBRANCH  65  86
ENDBRANCH  39  40
ENDBRANCH  31  34
ENDBRANCH  29  30
ENDBRANCH   1  29
TORSDOF 17
ENDMDL
MODEL 3
REMARK VINA RESULT:     -13.2      1.238      2.319
REMARK SMILES Cc1c(CC(=O)NCCCNC(=O)c2ccc(-c3c4nc(c(-c5ccc(S(=O)(=O)[O-])cc5)c5ccc([nH]5)c(-c5ccc(S(=O)(=O)[O-])cc5)c5nc(c(-c6ccc(S(=O)(=O)[O-])cc6)c6ccc3[nH]6)C=C5)C=C4)cc2)c2cc(O)ccc2n1C(=O)c1ccc(Cl)cc1
REMARK SMILES IDX 9 1 8 2 7 3 5 4 6 5 4 7 3 8 1 9 2 10 81 11 74 12 80 13 75 14
REMARK SMILES IDX 79 15 76 16 78 17 82 18 83 19 84 20 85 21 90 22 86 23 89 24
REMARK SMILES IDX 87 25 88 26 77 27 10 29 11 30 12 31 13 33 14 34 15 35 73 36
REMARK SMILES IDX 16 37 72 38 17 39 18 40 19 41 66 42 20 43 71 44 65 45 67 46
REMARK SMILES IDX 21 47 70 48 64 49 63 50 22 52 52 53 33 54 51 55 34 56 37 57
REMARK SMILES IDX 50 58 68 59 35 60 36 61 49 63 69 64 38 65 23 66 24 67 32 68
REMARK SMILES IDX 25 69 31 70 26 71 27 72 28 73 29 74 30 75 53 76 54 77 62 78
REMARK SMILES IDX 55 79 61 80 56 81 57 82 58 83 59 84 60 85 39 86 40 87 48 88
REMARK SMILES IDX 41 89 47 90 42 91 43 92 44 93 45 94 46 95
REMARK H PARENT 7 6 77 28 11 32 67 51 37 62
REMARK Flexibility Score: inf
ROOT
ATOM      1  C   UNL A   1      38.747  22.787  26.161  1.00  0.00     0.042 C 
ENDROOT
BRANCH   1   2
ATOM      2  C   UNL A   1      37.766  21.809  25.509  1.00  0.00     0.117 C 
BRANCH   2   3
ATOM      3  N   UNL A   1      37.107  22.379  24.345  1.00  0.00    -0.356 N 
ATOM      4  C   UNL A   1      36.200  23.394  24.269  1.00  0.00     0.224 C 
ATOM      5  O   UNL A   1      35.774  23.705  23.154  1.00  0.00    -0.275 OA
ATOM      6  H   UNL A   1      37.353  21.971  23.484  1.00  0.00     0.163 HD
BRANCH   4   7
ATOM      7  C   UNL A   1      35.788  24.158  25.514  1.00  0.00     0.138 C 
BRANCH   7   8
ATOM      8  C   UNL A   1      34.316  24.437  25.588  1.00  0.00    -0.009 A 
ATOM      9  C   UNL A   1      34.329  27.039  25.526  1.00  0.00     0.065 C 
ATOM     10  C   UNL A   1      33.698  25.679  25.596  1.00  0.00     0.028 A 
ATOM     11  N   UNL A   1      32.311  25.500  25.727  1.00  0.00    -0.280 N 
ATOM     12  C   UNL A   1      33.285  23.454  25.616  1.00  0.00     0.008 A 
ATOM     13  C   UNL A   1      32.055  24.121  25.631  1.00  0.00     0.057 A 
ATOM     14  C   UNL A   1      33.308  22.039  25.603  1.00  0.00     0.056 A 
ATOM     15  C   UNL A   1      30.855  23.381  25.545  1.00  0.00     0.031 A 
ATOM     16  C   UNL A   1      32.112  21.329  25.600  1.00  0.00     0.116 A 
ATOM     17  C   UNL A   1      30.897  21.985  25.560  1.00  0.00     0.048 A 
BRANCH  11  18
ATOM     18  C   UNL A   1      31.359  26.546  25.912  1.00  0.00     0.262 C 
ATOM     19  O   UNL A   1      31.119  26.904  27.064  1.00  0.00    -0.268 OA
BRANCH  18  20
ATOM     20  C   UNL A   1      30.652  27.263  24.838  1.00  0.00     0.040 A 
ATOM     21  C   UNL A   1      31.082  28.523  24.402  1.00  0.00     0.015 A 
ATOM     22  C   UNL A   1      29.503  26.676  24.299  1.00  0.00     0.015 A 
ATOM     23  C   UNL A   1      30.285  29.246  23.511  1.00  0.00     0.021 A 
ATOM     24  C   UNL A   1      28.714  27.401  23.406  1.00  0.00     0.021 A 
ATOM     25  C   UNL A   1      29.092  28.692  23.040  1.00  0.00     0.041 A 
ATOM     26  Cl  UNL A   1      28.061  29.628  22.027  1.00  0.00    -0.084 Cl
ENDBRANCH  18  20
ENDBRANCH  11  18
BRANCH  16  27
ATOM     27  O   UNL A   1      32.179  19.966  25.618  1.00  0.00    -0.508 OA
ATOM     28  H   UNL A   1      32.129  19.484  24.815  1.00  0.00     0.293 HD
ENDBRANCH  16  27
ENDBRANCH   7   8
ENDBRANCH   4   7
ENDBRANCH   2   3
ENDBRANCH   1   2
BRANCH   1  29
ATOM     29  C   UNL A   1      39.984  22.104  26.748  1.00  0.00     0.118 C 
BRANCH  29  30
ATOM     30  N   UNL A   1      41.166  22.221  25.914  1.00  0.00    -0.352 N 
ATOM     31  C   UNL A   1      42.176  23.127  25.774  1.00  0.00     0.251 C 
ATOM     32  H   UNL A   1      41.263  21.458  25.300  1.00  0.00     0.163 HD
ATOM     33  O   UNL A   1      43.080  22.800  25.000  1.00  0.00    -0.269 OA
BRANCH  31  34
ATOM     34  C   UNL A   1      42.228  24.472  26.408  1.00  0.00     0.039 A 
ATOM     35  C   UNL A   1      42.688  24.749  27.695  1.00  0.00     0.014 A 
ATOM     36  C   UNL A   1      41.668  25.519  25.651  1.00  0.00     0.014 A 
ATOM     37  C   UNL A   1      42.460  25.999  28.262  1.00  0.00     0.010 A 
ATOM     38  C   UNL A   1      41.459  26.775  26.204  1.00  0.00     0.010 A 
ATOM     39  C   UNL A   1      41.784  26.985  27.537  1.00  0.00    -0.014 A 
BRANCH  39  40
ATOM     40  C   UNL A   1      41.450  28.230  28.221  1.00  0.00     0.031 A 
ATOM     41  C   UNL A   1      42.470  29.307  28.106  1.00  0.00     0.074 A 
ATOM     42  C   UNL A   1      40.275  28.417  28.859  1.00  0.00     0.049 A 
ATOM     43  N   UNL A   1      43.183  29.842  29.043  1.00  0.00    -0.248 NA
ATOM     44  C   UNL A   1      42.825  29.759  26.753  1.00  0.00     0.031 C 
ATOM     45  C   UNL A   1      39.074  27.574  28.817  1.00  0.00     0.029 A 
ATOM     46  N   UNL A   1      39.875  29.474  29.619  1.00  0.00    -0.354 N 
ATOM     47  C   UNL A   1      43.963  30.820  28.426  1.00  0.00     0.074 A 
ATOM     48  C   UNL A   1      43.797  30.636  27.007  1.00  0.00     0.031 C 
ATOM     49  C   UNL A   1      38.022  28.265  29.311  1.00  0.00     0.029 A 
ATOM     50  C   UNL A   1      38.509  29.514  29.866  1.00  0.00     0.049 A 
ATOM     51  H   UNL A   1      40.501  30.152  29.962  1.00  0.00     0.167 HD
ATOM     52  C   UNL A   1      44.555  31.829  29.124  1.00  0.00     0.031 A 
ATOM     53  C   UNL A   1      37.824  30.525  30.454  1.00  0.00     0.031 A 
ATOM     54  C   UNL A   1      44.563  31.567  30.535  1.00  0.00     0.049 A 
ATOM     55  C   UNL A   1      38.805  31.301  31.248  1.00  0.00     0.074 A 
ATOM     56  C   UNL A   1      45.275  30.751  31.383  1.00  0.00     0.029 A 
ATOM     57  N   UNL A   1      43.436  31.969  31.205  1.00  0.00    -0.354 N 
ATOM     58  N   UNL A   1      39.456  30.814  32.270  1.00  0.00    -0.248 NA
ATOM     59  C   UNL A   1      39.345  32.532  30.692  1.00  0.00     0.031 C 
ATOM     60  C   UNL A   1      44.372  30.416  32.433  1.00  0.00     0.029 A 
ATOM     61  C   UNL A   1      43.163  31.082  32.215  1.00  0.00     0.049 A 
ATOM     62  H   UNL A   1      42.905  32.771  30.995  1.00  0.00     0.167 HD
ATOM     63  C   UNL A   1      40.693  31.435  32.228  1.00  0.00     0.074 A 
ATOM     64  C   UNL A   1      40.512  32.577  31.339  1.00  0.00     0.031 C 
ATOM     65  C   UNL A   1      41.815  30.815  32.695  1.00  0.00     0.031 A 
BRANCH  52  66
ATOM     66  C   UNL A   1      44.806  33.213  28.572  1.00  0.00    -0.014 A 
ATOM     67  C   UNL A   1      43.769  34.045  28.101  1.00  0.00     0.010 A 
ATOM     68  C   UNL A   1      46.070  33.815  28.746  1.00  0.00     0.010 A 
ATOM     69  C   UNL A   1      43.979  35.389  27.785  1.00  0.00     0.020 A 
ATOM     70  C   UNL A   1      46.284  35.175  28.467  1.00  0.00     0.020 A 
ATOM     71  C   UNL A   1      45.236  35.951  27.976  1.00  0.00     0.054 A 
BRANCH  71  72
ATOM     72  S   UNL A   1      45.441  37.715  27.629  1.00  0.00     0.124 S 
ATOM     73  O   UNL A   1      44.083  38.107  27.257  1.00  0.00    -0.237 OA
ATOM     74  O   UNL A   1      45.916  38.233  28.908  1.00  0.00    -0.237 OA
ATOM     75  O   UNL A   1      46.417  37.742  26.544  1.00  0.00    -0.744 OA
ENDBRANCH  71  72
ENDBRANCH  52  66
BRANCH  53  76
ATOM     76  C   UNL A   1      36.559  31.131  29.958  1.00  0.00    -0.014 A 
ATOM     77  C   UNL A   1      36.445  31.474  28.595  1.00  0.00     0.010 A 
ATOM     78  C   UNL A   1      35.614  31.669  30.854  1.00  0.00     0.010 A 
ATOM     79  C   UNL A   1      35.479  32.385  28.152  1.00  0.00     0.020 A 
ATOM     80  C   UNL A   1      34.638  32.582  30.413  1.00  0.00     0.020 A 
ATOM     81  C   UNL A   1      34.603  32.961  29.069  1.00  0.00     0.054 A 
BRANCH  81  82
ATOM     82  S   UNL A   1      33.488  34.272  28.485  1.00  0.00     0.124 S 
ATOM     83  O   UNL A   1      32.910  34.760  29.734  1.00  0.00    -0.237 OA
ATOM     84  O   UNL A   1      34.405  35.192  27.818  1.00  0.00    -0.237 OA
ATOM     85  O   UNL A   1      32.561  33.571  27.599  1.00  0.00    -0.744 OA
ENDBRANCH  81  82
ENDBRANCH  53  76
BRANCH  65  86
ATOM     86  C   UNL A   1      41.664  29.639  33.635  1.00  0.00    -0.014 A 
ATOM     87  C   UNL A   1      41.655  29.932  35.011  1.00  0.00     0.010 A 
ATOM     88  C   UNL A   1      41.716  28.289  33.235  1.00  0.00     0.010 A 
ATOM     89  C   UNL A   1      41.751  28.919  35.965  1.00  0.00     0.020 A 
ATOM     90  C   UNL A   1      41.785  27.261  34.194  1.00  0.00     0.020 A 
ATOM     91  C   UNL A   1      41.830  27.589  35.553  1.00  0.00     0.054 A 
BRANCH  91  92
ATOM     92  S   UNL A   1      42.014  26.319  36.837  1.00  0.00     0.124 S 
ATOM     93  O   UNL A   1      42.469  25.162  36.068  1.00  0.00    -0.237 OA
ATOM     94  O   UNL A   1      43.020  26.903  37.723  1.00  0.00    -0.237 OA
ATOM     95  O   UNL A   1      40.678  26.206  37.417  1.00  0.00    -0.744 OA
ENDBRANCH  91  92
ENDBRANCH  65  86
ENDBRANCH  39  40
ENDBRANCH  31  34
ENDBRANCH  29  30
ENDBRANCH   1  29
TORSDOF 17
ENDMDL
