MODEL 1
REMARK VINA RESULT:     -10.4      0.000      0.000
REMARK SMILES CC(C)Cc1ccc([C@H](CF)C(=O)NCCCNC(=O)c2ccc(-c3c4nc(c(-c5ccc(S(=O)(=O)[O-])cc5)c5ccc([nH]5)c(-c5ccc(S(=O)(=O)[O-])cc5)c5nc(c(-c6ccc(S(=O)(=O)[O-])cc6)c6ccc3[nH]6)C=C5)C=C4)cc2)cc1
REMARK SMILES IDX 16 1 15 2 14 3 12 4 13 5 9 7 8 8 5 9 6 10 82 11 7 12 81 13
REMARK SMILES IDX 4 14 2 15 1 16 3 17 10 18 11 19 17 20 18 21 19 22 20 24
REMARK SMILES IDX 21 25 22 26 80 27 23 28 79 29 24 30 25 31 26 32 73 33 27 34
REMARK SMILES IDX 78 35 72 36 74 37 28 38 77 39 71 40 70 41 29 43 59 44 40 45
REMARK SMILES IDX 58 46 41 47 44 48 57 49 75 50 42 51 43 52 56 54 76 55 45 56
REMARK SMILES IDX 30 57 31 58 39 59 32 60 38 61 33 62 34 63 35 64 36 65 37 66
REMARK SMILES IDX 60 67 61 68 69 69 62 70 68 71 63 72 64 73 65 74 66 75 67 76
REMARK SMILES IDX 46 77 47 78 55 79 48 80 54 81 49 82 50 83 51 84 52 85 53 86
REMARK H PARENT 14 6 18 23 74 42 44 53
REMARK Flexibility Score: inf
ROOT
ATOM      1  C   UNL A   1      32.988  28.192  27.003  1.00  0.00     0.042 C 
ENDROOT
BRANCH   1   2
ATOM      2  C   UNL A   1      32.919  26.800  26.393  1.00  0.00     0.117 C 
BRANCH   2   3
ATOM      3  N   UNL A   1      31.640  26.155  26.643  1.00  0.00    -0.355 N 
ATOM      4  C   UNL A   1      30.651  25.797  25.778  1.00  0.00     0.230 C 
ATOM      5  O   UNL A   1      29.674  25.203  26.246  1.00  0.00    -0.274 OA
ATOM      6  H   UNL A   1      31.462  25.945  27.588  1.00  0.00     0.163 HD
BRANCH   4   7
ATOM      7  C   UNL A   1      30.717  26.139  24.296  1.00  0.00     0.139 C 
BRANCH   7   8
ATOM      8  C   UNL A   1      29.886  27.357  23.897  1.00  0.00    -0.033 A 
ATOM      9  C   UNL A   1      28.415  29.609  23.013  1.00  0.00    -0.048 A 
ATOM     10  C   UNL A   1      27.797  28.363  23.160  1.00  0.00     0.004 A 
ATOM     11  C   UNL A   1      29.763  29.736  23.354  1.00  0.00     0.004 A 
ATOM     12  C   UNL A   1      28.528  27.248  23.573  1.00  0.00     0.005 A 
ATOM     13  C   UNL A   1      30.491  28.623  23.785  1.00  0.00     0.005 A 
BRANCH   9  14
ATOM     14  C   UNL A   1      27.651  30.771  22.425  1.00  0.00     0.038 C 
BRANCH  14  15
ATOM     15  C   UNL A   1      28.565  31.849  21.799  1.00  0.00    -0.013 C 
ATOM     16  C   UNL A   1      28.014  32.413  20.485  1.00  0.00     0.008 C 
ATOM     17  C   UNL A   1      28.767  32.997  22.790  1.00  0.00     0.008 C 
ENDBRANCH  14  15
ENDBRANCH   9  14
ENDBRANCH   7   8
BRANCH   7  18
ATOM     18  C   UNL A   1      30.483  24.846  23.515  1.00  0.00     0.232 C 
ATOM     19  F   UNL A   1      31.682  24.255  23.241  1.00  0.00    -0.250 F 
ENDBRANCH   7  18
ENDBRANCH   4   7
ENDBRANCH   2   3
ENDBRANCH   1   2
BRANCH   1  20
ATOM     20  C   UNL A   1      33.909  29.153  26.261  1.00  0.00     0.118 C 
BRANCH  20  21
ATOM     21  N   UNL A   1      33.745  30.534  26.689  1.00  0.00    -0.352 N 
ATOM     22  C   UNL A   1      34.444  31.260  27.620  1.00  0.00     0.251 C 
ATOM     23  H   UNL A   1      33.018  31.024  26.241  1.00  0.00     0.163 HD
ATOM     24  O   UNL A   1      34.019  32.366  27.961  1.00  0.00    -0.269 OA
BRANCH  22  25
ATOM     25  C   UNL A   1      35.680  30.724  28.230  1.00  0.00     0.039 A 
ATOM     26  C   UNL A   1      36.912  31.231  27.808  1.00  0.00     0.014 A 
ATOM     27  C   UNL A   1      35.636  29.714  29.197  1.00  0.00     0.014 A 
ATOM     28  C   UNL A   1      38.090  30.773  28.400  1.00  0.00     0.010 A 
ATOM     29  C   UNL A   1      36.805  29.320  29.845  1.00  0.00     0.010 A 
ATOM     30  C   UNL A   1      38.045  29.841  29.451  1.00  0.00    -0.014 A 
BRANCH  30  31
ATOM     31  C   UNL A   1      39.287  29.421  30.151  1.00  0.00     0.031 A 
ATOM     32  C   UNL A   1      39.736  30.124  31.404  1.00  0.00     0.074 A 
ATOM     33  C   UNL A   1      40.038  28.430  29.626  1.00  0.00     0.049 A 
ATOM     34  N   UNL A   1      40.793  29.895  32.141  1.00  0.00    -0.248 NA
ATOM     35  C   UNL A   1      38.906  31.242  31.880  1.00  0.00     0.031 C 
ATOM     36  C   UNL A   1      39.740  27.709  28.387  1.00  0.00     0.029 A 
ATOM     37  N   UNL A   1      41.204  27.859  30.070  1.00  0.00    -0.354 N 
ATOM     38  C   UNL A   1      40.762  30.844  33.157  1.00  0.00     0.074 A 
ATOM     39  C   UNL A   1      39.609  31.684  32.913  1.00  0.00     0.031 C 
ATOM     40  C   UNL A   1      40.677  26.767  28.190  1.00  0.00     0.029 A 
ATOM     41  C   UNL A   1      41.661  26.843  29.264  1.00  0.00     0.049 A 
ATOM     42  H   UNL A   1      41.669  28.149  30.888  1.00  0.00     0.167 HD
ATOM     43  C   UNL A   1      41.603  30.991  34.208  1.00  0.00     0.031 A 
ATOM     44  C   UNL A   1      42.751  26.059  29.374  1.00  0.00     0.031 A 
ATOM     45  C   UNL A   1      42.743  30.147  34.456  1.00  0.00     0.049 A 
ATOM     46  C   UNL A   1      43.665  26.238  30.555  1.00  0.00     0.074 A 
ATOM     47  C   UNL A   1      43.619  30.177  35.527  1.00  0.00     0.029 A 
ATOM     48  N   UNL A   1      43.168  29.125  33.620  1.00  0.00    -0.354 N 
ATOM     49  N   UNL A   1      43.573  27.093  31.546  1.00  0.00    -0.248 NA
ATOM     50  C   UNL A   1      44.822  25.337  30.639  1.00  0.00     0.031 C 
ATOM     51  C   UNL A   1      44.605  29.207  35.312  1.00  0.00     0.029 A 
ATOM     52  C   UNL A   1      44.309  28.535  34.138  1.00  0.00     0.049 A 
ATOM     53  H   UNL A   1      42.724  28.859  32.783  1.00  0.00     0.167 HD
ATOM     54  C   UNL A   1      44.649  26.818  32.382  1.00  0.00     0.074 A 
ATOM     55  C   UNL A   1      45.361  25.703  31.793  1.00  0.00     0.031 C 
ATOM     56  C   UNL A   1      45.016  27.434  33.533  1.00  0.00     0.031 A 
BRANCH  43  57
ATOM     57  C   UNL A   1      41.321  32.112  35.177  1.00  0.00    -0.014 A 
ATOM     58  C   UNL A   1      41.925  33.374  35.023  1.00  0.00     0.010 A 
ATOM     59  C   UNL A   1      40.401  31.918  36.223  1.00  0.00     0.010 A 
ATOM     60  C   UNL A   1      41.643  34.407  35.920  1.00  0.00     0.020 A 
ATOM     61  C   UNL A   1      40.096  32.958  37.106  1.00  0.00     0.020 A 
ATOM     62  C   UNL A   1      40.730  34.193  36.957  1.00  0.00     0.054 A 
BRANCH  62  63
ATOM     63  S   UNL A   1      40.360  35.563  38.087  1.00  0.00     0.124 S 
ATOM     64  O   UNL A   1      41.698  36.012  38.464  1.00  0.00    -0.237 OA
ATOM     65  O   UNL A   1      39.606  36.483  37.238  1.00  0.00    -0.237 OA
ATOM     66  O   UNL A   1      39.590  34.934  39.156  1.00  0.00    -0.744 OA
ENDBRANCH  62  63
ENDBRANCH  43  57
BRANCH  44  67
ATOM     67  C   UNL A   1      43.028  25.020  28.344  1.00  0.00    -0.014 A 
ATOM     68  C   UNL A   1      42.481  23.730  28.463  1.00  0.00     0.010 A 
ATOM     69  C   UNL A   1      43.836  25.321  27.232  1.00  0.00     0.010 A 
ATOM     70  C   UNL A   1      42.753  22.754  27.500  1.00  0.00     0.020 A 
ATOM     71  C   UNL A   1      44.087  24.356  26.253  1.00  0.00     0.020 A 
ATOM     72  C   UNL A   1      43.554  23.073  26.401  1.00  0.00     0.054 A 
BRANCH  72  73
ATOM     73  S   UNL A   1      43.857  21.805  25.139  1.00  0.00     0.124 S 
ATOM     74  O   UNL A   1      42.752  20.879  25.369  1.00  0.00    -0.237 OA
ATOM     75  O   UNL A   1      43.794  22.572  23.898  1.00  0.00    -0.237 OA
ATOM     76  O   UNL A   1      45.183  21.295  25.480  1.00  0.00    -0.744 OA
ENDBRANCH  72  73
ENDBRANCH  44  67
BRANCH  56  77
ATOM     77  C   UNL A   1      46.233  26.898  34.241  1.00  0.00    -0.014 A 
ATOM     78  C   UNL A   1      47.514  27.411  33.973  1.00  0.00     0.010 A 
ATOM     79  C   UNL A   1      46.087  25.885  35.205  1.00  0.00     0.010 A 
ATOM     80  C   UNL A   1      48.635  26.884  34.621  1.00  0.00     0.020 A 
ATOM     81  C   UNL A   1      47.201  25.378  35.878  1.00  0.00     0.020 A 
ATOM     82  C   UNL A   1      48.471  25.866  35.567  1.00  0.00     0.054 A 
BRANCH  82  83
ATOM     83  S   UNL A   1      49.938  25.210  36.407  1.00  0.00     0.124 S 
ATOM     84  O   UNL A   1      49.526  23.843  36.711  1.00  0.00    -0.237 OA
ATOM     85  O   UNL A   1      50.977  25.341  35.389  1.00  0.00    -0.237 OA
ATOM     86  O   UNL A   1      50.095  26.087  37.565  1.00  0.00    -0.744 OA
ENDBRANCH  82  83
ENDBRANCH  56  77
ENDBRANCH  30  31
ENDBRANCH  22  25
ENDBRANCH  20  21
ENDBRANCH   1  20
TORSDOF 17
ENDMDL
MODEL 2
REMARK VINA RESULT:     -10.2      0.815      8.421
REMARK SMILES CC(C)Cc1ccc([C@H](CF)C(=O)NCCCNC(=O)c2ccc(-c3c4nc(c(-c5ccc(S(=O)(=O)[O-])cc5)c5ccc([nH]5)c(-c5ccc(S(=O)(=O)[O-])cc5)c5nc(c(-c6ccc(S(=O)(=O)[O-])cc6)c6ccc3[nH]6)C=C5)C=C4)cc2)cc1
REMARK SMILES IDX 16 1 15 2 14 3 12 4 13 5 9 7 8 8 5 9 6 10 82 11 7 12 81 13
REMARK SMILES IDX 4 14 2 15 1 16 3 17 10 18 11 19 17 20 18 21 19 22 20 24
REMARK SMILES IDX 21 25 22 26 80 27 23 28 79 29 24 30 25 31 26 32 73 33 27 34
REMARK SMILES IDX 78 35 72 36 74 37 28 38 77 39 71 40 70 41 29 43 59 44 40 45
REMARK SMILES IDX 58 46 41 47 44 48 57 49 75 50 42 51 43 52 56 54 76 55 45 56
REMARK SMILES IDX 30 57 31 58 39 59 32 60 38 61 33 62 34 63 35 64 36 65 37 66
REMARK SMILES IDX 60 67 61 68 69 69 62 70 68 71 63 72 64 73 65 74 66 75 67 76
REMARK SMILES IDX 46 77 47 78 55 79 48 80 54 81 49 82 50 83 51 84 52 85 53 86
REMARK H PARENT 14 6 18 23 74 42 44 53
REMARK Flexibility Score: inf
ROOT
ATOM      1  C   UNL A   1      33.293  27.666  26.159  1.00  0.00     0.042 C 
ENDROOT
BRANCH   1   2
ATOM      2  C   UNL A   1      31.938  28.084  26.709  1.00  0.00     0.117 C 
BRANCH   2   3
ATOM      3  N   UNL A   1      31.048  26.950  26.895  1.00  0.00    -0.355 N 
ATOM      4  C   UNL A   1      30.530  26.079  25.985  1.00  0.00     0.230 C 
ATOM      5  O   UNL A   1      29.834  25.154  26.414  1.00  0.00    -0.274 OA
ATOM      6  H   UNL A   1      30.776  26.786  27.827  1.00  0.00     0.163 HD
BRANCH   4   7
ATOM      7  C   UNL A   1      30.764  26.247  24.489  1.00  0.00     0.139 C 
BRANCH   7   8
ATOM      8  C   UNL A   1      29.983  27.398  23.859  1.00  0.00    -0.033 A 
ATOM      9  C   UNL A   1      28.476  29.565  22.835  1.00  0.00    -0.048 A 
ATOM     10  C   UNL A   1      29.861  29.670  22.999  1.00  0.00     0.004 A 
ATOM     11  C   UNL A   1      27.852  28.354  23.143  1.00  0.00     0.004 A 
ATOM     12  C   UNL A   1      30.600  28.611  23.526  1.00  0.00     0.005 A 
ATOM     13  C   UNL A   1      28.596  27.286  23.653  1.00  0.00     0.005 A 
BRANCH   9  14
ATOM     14  C   UNL A   1      27.668  30.766  22.405  1.00  0.00     0.038 C 
BRANCH  14  15
ATOM     15  C   UNL A   1      28.523  31.872  21.746  1.00  0.00    -0.013 C 
ATOM     16  C   UNL A   1      27.909  32.414  20.450  1.00  0.00     0.008 C 
ATOM     17  C   UNL A   1      28.720  33.030  22.727  1.00  0.00     0.008 C 
ENDBRANCH  14  15
ENDBRANCH   9  14
ENDBRANCH   7   8
BRANCH   7  18
ATOM     18  C   UNL A   1      30.624  24.868  23.845  1.00  0.00     0.232 C 
ATOM     19  F   UNL A   1      31.254  24.863  22.635  1.00  0.00    -0.250 F 
ENDBRANCH   7  18
ENDBRANCH   4   7
ENDBRANCH   2   3
ENDBRANCH   1   2
BRANCH   1  20
ATOM     20  C   UNL A   1      34.231  28.830  25.863  1.00  0.00     0.118 C 
BRANCH  20  21
ATOM     21  N   UNL A   1      33.777  30.082  26.448  1.00  0.00    -0.352 N 
ATOM     22  C   UNL A   1      34.259  30.781  27.525  1.00  0.00     0.251 C 
ATOM     23  H   UNL A   1      33.001  30.493  26.001  1.00  0.00     0.163 HD
ATOM     24  O   UNL A   1      33.607  31.731  27.965  1.00  0.00    -0.269 OA
BRANCH  22  25
ATOM     25  C   UNL A   1      35.530  30.395  28.175  1.00  0.00     0.039 A 
ATOM     26  C   UNL A   1      36.723  30.935  27.688  1.00  0.00     0.014 A 
ATOM     27  C   UNL A   1      35.559  29.492  29.241  1.00  0.00     0.014 A 
ATOM     28  C   UNL A   1      37.932  30.621  28.311  1.00  0.00     0.010 A 
ATOM     29  C   UNL A   1      36.754  29.246  29.914  1.00  0.00     0.010 A 
ATOM     30  C   UNL A   1      37.954  29.803  29.454  1.00  0.00    -0.014 A 
BRANCH  30  31
ATOM     31  C   UNL A   1      39.225  29.542  30.180  1.00  0.00     0.031 A 
ATOM     32  C   UNL A   1      40.169  28.468  29.711  1.00  0.00     0.074 A 
ATOM     33  C   UNL A   1      39.505  30.248  31.295  1.00  0.00     0.049 A 
ATOM     34  N   UNL A   1      41.316  28.100  30.224  1.00  0.00    -0.248 NA
ATOM     35  C   UNL A   1      39.766  27.689  28.529  1.00  0.00     0.031 C 
ATOM     36  C   UNL A   1      38.645  31.277  31.883  1.00  0.00     0.029 A 
ATOM     37  N   UNL A   1      40.592  30.208  32.131  1.00  0.00    -0.354 N 
ATOM     38  C   UNL A   1      41.764  27.044  29.438  1.00  0.00     0.074 A 
ATOM     39  C   UNL A   1      40.742  26.796  28.445  1.00  0.00     0.031 C 
ATOM     40  C   UNL A   1      39.253  31.796  32.962  1.00  0.00     0.029 A 
ATOM     41  C   UNL A   1      40.526  31.112  33.165  1.00  0.00     0.049 A 
ATOM     42  H   UNL A   1      41.348  29.591  32.003  1.00  0.00     0.167 HD
ATOM     43  C   UNL A   1      42.928  26.357  29.521  1.00  0.00     0.031 A 
ATOM     44  C   UNL A   1      41.390  31.364  34.167  1.00  0.00     0.031 A 
ATOM     45  C   UNL A   1      43.949  26.613  30.504  1.00  0.00     0.049 A 
ATOM     46  C   UNL A   1      42.679  30.591  34.233  1.00  0.00     0.074 A 
ATOM     47  C   UNL A   1      45.190  26.013  30.632  1.00  0.00     0.029 A 
ATOM     48  N   UNL A   1      43.847  27.542  31.529  1.00  0.00    -0.354 N 
ATOM     49  N   UNL A   1      43.116  29.649  33.432  1.00  0.00    -0.248 NA
ATOM     50  C   UNL A   1      43.596  30.927  35.330  1.00  0.00     0.031 C 
ATOM     51  C   UNL A   1      45.816  26.541  31.766  1.00  0.00     0.029 A 
ATOM     52  C   UNL A   1      44.991  27.512  32.310  1.00  0.00     0.049 A 
ATOM     53  H   UNL A   1      43.075  28.134  31.680  1.00  0.00     0.167 HD
ATOM     54  C   UNL A   1      44.370  29.294  33.917  1.00  0.00     0.074 A 
ATOM     55  C   UNL A   1      44.629  30.140  35.064  1.00  0.00     0.031 C 
ATOM     56  C   UNL A   1      45.229  28.351  33.457  1.00  0.00     0.031 A 
BRANCH  43  57
ATOM     57  C   UNL A   1      43.162  25.256  28.519  1.00  0.00    -0.014 A 
ATOM     58  C   UNL A   1      43.846  25.503  27.313  1.00  0.00     0.010 A 
ATOM     59  C   UNL A   1      42.741  23.945  28.808  1.00  0.00     0.010 A 
ATOM     60  C   UNL A   1      44.068  24.469  26.401  1.00  0.00     0.020 A 
ATOM     61  C   UNL A   1      42.986  22.902  27.909  1.00  0.00     0.020 A 
ATOM     62  C   UNL A   1      43.637  23.175  26.704  1.00  0.00     0.054 A 
BRANCH  62  63
ATOM     63  S   UNL A   1      43.968  21.847  25.513  1.00  0.00     0.124 S 
ATOM     64  O   UNL A   1      45.409  21.662  25.662  1.00  0.00    -0.237 OA
ATOM     65  O   UNL A   1      43.140  20.753  26.017  1.00  0.00    -0.237 OA
ATOM     66  O   UNL A   1      43.541  22.410  24.235  1.00  0.00    -0.744 OA
ENDBRANCH  62  63
ENDBRANCH  43  57
BRANCH  44  67
ATOM     67  C   UNL A   1      41.071  32.407  35.181  1.00  0.00    -0.014 A 
ATOM     68  C   UNL A   1      40.420  32.065  36.379  1.00  0.00     0.010 A 
ATOM     69  C   UNL A   1      41.427  33.749  34.954  1.00  0.00     0.010 A 
ATOM     70  C   UNL A   1      40.112  33.049  37.323  1.00  0.00     0.020 A 
ATOM     71  C   UNL A   1      41.146  34.731  35.908  1.00  0.00     0.020 A 
ATOM     72  C   UNL A   1      40.477  34.376  37.082  1.00  0.00     0.054 A 
BRANCH  72  73
ATOM     73  S   UNL A   1      40.109  35.630  38.341  1.00  0.00     0.124 S 
ATOM     74  O   UNL A   1      39.897  36.823  37.528  1.00  0.00    -0.237 OA
ATOM     75  O   UNL A   1      38.920  35.085  38.991  1.00  0.00    -0.237 OA
ATOM     76  O   UNL A   1      41.313  35.642  39.170  1.00  0.00    -0.744 OA
ENDBRANCH  72  73
ENDBRANCH  44  67
BRANCH  56  77
ATOM     77  C   UNL A   1      46.539  28.202  34.184  1.00  0.00    -0.014 A 
ATOM     78  C   UNL A   1      47.663  28.966  33.824  1.00  0.00     0.010 A 
ATOM     79  C   UNL A   1      46.639  27.300  35.259  1.00  0.00     0.010 A 
ATOM     80  C   UNL A   1      48.877  28.796  34.495  1.00  0.00     0.020 A 
ATOM     81  C   UNL A   1      47.843  27.150  35.952  1.00  0.00     0.020 A 
ATOM     82  C   UNL A   1      48.961  27.884  35.552  1.00  0.00     0.054 A 
BRANCH  82  83
ATOM     83  S   UNL A   1      50.542  27.692  36.417  1.00  0.00     0.124 S 
ATOM     84  O   UNL A   1      50.126  27.720  37.817  1.00  0.00    -0.237 OA
ATOM     85  O   UNL A   1      51.021  26.402  35.929  1.00  0.00    -0.237 OA
ATOM     86  O   UNL A   1      51.322  28.846  35.975  1.00  0.00    -0.744 OA
ENDBRANCH  82  83
ENDBRANCH  56  77
ENDBRANCH  30  31
ENDBRANCH  22  25
ENDBRANCH  20  21
ENDBRANCH   1  20
TORSDOF 17
ENDMDL
MODEL 3
REMARK VINA RESULT:     -10.0      3.708      6.569
REMARK SMILES CC(C)Cc1ccc([C@H](CF)C(=O)NCCCNC(=O)c2ccc(-c3c4nc(c(-c5ccc(S(=O)(=O)[O-])cc5)c5ccc([nH]5)c(-c5ccc(S(=O)(=O)[O-])cc5)c5nc(c(-c6ccc(S(=O)(=O)[O-])cc6)c6ccc3[nH]6)C=C5)C=C4)cc2)cc1
REMARK SMILES IDX 16 1 15 2 14 3 12 4 13 5 9 7 8 8 5 9 6 10 82 11 7 12 81 13
REMARK SMILES IDX 4 14 2 15 1 16 3 17 10 18 11 19 17 20 18 21 19 22 20 24
REMARK SMILES IDX 21 25 22 26 80 27 23 28 79 29 24 30 25 31 26 32 73 33 27 34
REMARK SMILES IDX 78 35 72 36 74 37 28 38 77 39 71 40 70 41 29 43 59 44 40 45
REMARK SMILES IDX 58 46 41 47 44 48 57 49 75 50 42 51 43 52 56 54 76 55 45 56
REMARK SMILES IDX 30 57 31 58 39 59 32 60 38 61 33 62 34 63 35 64 36 65 37 66
REMARK SMILES IDX 60 67 61 68 69 69 62 70 68 71 63 72 64 73 65 74 66 75 67 76
REMARK SMILES IDX 46 77 47 78 55 79 48 80 54 81 49 82 50 83 51 84 52 85 53 86
REMARK H PARENT 14 6 18 23 74 42 44 53
REMARK Flexibility Score: inf
ROOT
ATOM      1  C   UNL A   1      33.641  33.573  28.564  1.00  0.00     0.042 C 
ENDROOT
BRANCH   1   2
ATOM      2  C   UNL A   1      34.124  34.082  29.915  1.00  0.00     0.117 C 
BRANCH   2   3
ATOM      3  N   UNL A   1      34.546  33.000  30.789  1.00  0.00    -0.355 N 
ATOM      4  C   UNL A   1      35.315  33.024  31.912  1.00  0.00     0.230 C 
ATOM      5  O   UNL A   1      35.482  31.957  32.511  1.00  0.00    -0.274 OA
ATOM      6  H   UNL A   1      34.225  32.107  30.525  1.00  0.00     0.163 HD
BRANCH   4   7
ATOM      7  C   UNL A   1      35.977  34.305  32.405  1.00  0.00     0.139 C 
BRANCH   7   8
ATOM      8  C   UNL A   1      37.477  34.380  32.127  1.00  0.00    -0.033 A 
ATOM      9  C   UNL A   1      40.272  34.372  31.673  1.00  0.00    -0.048 A 
ATOM     10  C   UNL A   1      39.374  34.212  30.613  1.00  0.00     0.004 A 
ATOM     11  C   UNL A   1      39.765  34.581  32.958  1.00  0.00     0.004 A 
ATOM     12  C   UNL A   1      37.997  34.192  30.839  1.00  0.00     0.005 A 
ATOM     13  C   UNL A   1      38.385  34.580  33.182  1.00  0.00     0.005 A 
BRANCH   9  14
ATOM     14  C   UNL A   1      41.757  34.243  31.436  1.00  0.00     0.038 C 
BRANCH  14  15
ATOM     15  C   UNL A   1      42.105  33.557  30.096  1.00  0.00    -0.013 C 
ATOM     16  C   UNL A   1      43.008  34.412  29.200  1.00  0.00     0.008 C 
ATOM     17  C   UNL A   1      42.790  32.215  30.361  1.00  0.00     0.008 C 
ENDBRANCH  14  15
ENDBRANCH   9  14
ENDBRANCH   7   8
BRANCH   7  18
ATOM     18  C   UNL A   1      35.518  34.535  33.844  1.00  0.00     0.232 C 
ATOM     19  F   UNL A   1      34.403  35.320  33.848  1.00  0.00    -0.250 F 
ENDBRANCH   7  18
ENDBRANCH   4   7
ENDBRANCH   2   3
ENDBRANCH   1   2
BRANCH   1  20
ATOM     20  C   UNL A   1      34.674  32.752  27.803  1.00  0.00     0.118 C 
BRANCH  20  21
ATOM     21  N   UNL A   1      34.141  31.487  27.319  1.00  0.00    -0.352 N 
ATOM     22  C   UNL A   1      34.707  30.237  27.304  1.00  0.00     0.251 C 
ATOM     23  H   UNL A   1      33.232  31.535  26.944  1.00  0.00     0.163 HD
ATOM     24  O   UNL A   1      34.150  29.333  26.678  1.00  0.00    -0.269 OA
BRANCH  22  25
ATOM     25  C   UNL A   1      35.981  29.971  28.006  1.00  0.00     0.039 A 
ATOM     26  C   UNL A   1      35.942  29.624  29.359  1.00  0.00     0.014 A 
ATOM     27  C   UNL A   1      37.211  30.081  27.351  1.00  0.00     0.014 A 
ATOM     28  C   UNL A   1      37.128  29.326  30.033  1.00  0.00     0.010 A 
ATOM     29  C   UNL A   1      38.384  29.702  28.001  1.00  0.00     0.010 A 
ATOM     30  C   UNL A   1      38.356  29.325  29.351  1.00  0.00    -0.014 A 
BRANCH  30  31
ATOM     31  C   UNL A   1      39.609  28.914  30.037  1.00  0.00     0.031 A 
ATOM     32  C   UNL A   1      40.057  29.608  31.295  1.00  0.00     0.074 A 
ATOM     33  C   UNL A   1      40.370  27.941  29.495  1.00  0.00     0.049 A 
ATOM     34  N   UNL A   1      41.123  29.386  32.022  1.00  0.00    -0.248 NA
ATOM     35  C   UNL A   1      39.214  30.708  31.791  1.00  0.00     0.031 C 
ATOM     36  C   UNL A   1      40.074  27.230  28.249  1.00  0.00     0.029 A 
ATOM     37  N   UNL A   1      41.547  27.382  29.923  1.00  0.00    -0.354 N 
ATOM     38  C   UNL A   1      41.084  30.322  33.050  1.00  0.00     0.074 A 
ATOM     39  C   UNL A   1      39.918  31.147  32.824  1.00  0.00     0.031 C 
ATOM     40  C   UNL A   1      41.023  26.306  28.033  1.00  0.00     0.029 A 
ATOM     41  C   UNL A   1      42.014  26.382  29.101  1.00  0.00     0.049 A 
ATOM     42  H   UNL A   1      42.014  27.668  30.741  1.00  0.00     0.167 HD
ATOM     43  C   UNL A   1      41.931  30.468  34.097  1.00  0.00     0.031 A 
ATOM     44  C   UNL A   1      43.115  25.613  29.194  1.00  0.00     0.031 A 
ATOM     45  C   UNL A   1      43.085  29.638  34.325  1.00  0.00     0.049 A 
ATOM     46  C   UNL A   1      44.035  25.791  30.370  1.00  0.00     0.074 A 
ATOM     47  C   UNL A   1      43.968  29.667  35.390  1.00  0.00     0.029 A 
ATOM     48  N   UNL A   1      43.518  28.632  33.474  1.00  0.00    -0.354 N 
ATOM     49  N   UNL A   1      43.938  26.632  31.372  1.00  0.00    -0.248 NA
ATOM     50  C   UNL A   1      45.205  24.905  30.435  1.00  0.00     0.031 C 
ATOM     51  C   UNL A   1      44.966  28.715  35.157  1.00  0.00     0.029 A 
ATOM     52  C   UNL A   1      44.672  28.052  33.977  1.00  0.00     0.049 A 
ATOM     53  H   UNL A   1      43.072  28.370  32.637  1.00  0.00     0.167 HD
ATOM     54  C   UNL A   1      45.023  26.362  32.198  1.00  0.00     0.074 A 
ATOM     55  C   UNL A   1      45.748  25.265  31.590  1.00  0.00     0.031 C 
ATOM     56  C   UNL A   1      45.390  26.969  33.354  1.00  0.00     0.031 A 
BRANCH  43  57
ATOM     57  C   UNL A   1      41.640  31.573  35.081  1.00  0.00    -0.014 A 
ATOM     58  C   UNL A   1      40.775  31.366  36.172  1.00  0.00     0.010 A 
ATOM     59  C   UNL A   1      42.280  32.818  34.944  1.00  0.00     0.010 A 
ATOM     60  C   UNL A   1      40.526  32.394  37.083  1.00  0.00     0.020 A 
ATOM     61  C   UNL A   1      42.055  33.841  35.871  1.00  0.00     0.020 A 
ATOM     62  C   UNL A   1      41.167  33.626  36.927  1.00  0.00     0.054 A 
BRANCH  62  63
ATOM     63  S   UNL A   1      40.850  34.933  38.145  1.00  0.00     0.124 S 
ATOM     64  O   UNL A   1      39.847  34.307  39.003  1.00  0.00    -0.237 OA
ATOM     65  O   UNL A   1      42.163  35.128  38.754  1.00  0.00    -0.237 OA
ATOM     66  O   UNL A   1      40.368  36.051  37.338  1.00  0.00    -0.744 OA
ENDBRANCH  62  63
ENDBRANCH  43  57
BRANCH  44  67
ATOM     67  C   UNL A   1      43.400  24.591  28.149  1.00  0.00    -0.014 A 
ATOM     68  C   UNL A   1      44.235  24.895  27.060  1.00  0.00     0.010 A 
ATOM     69  C   UNL A   1      42.841  23.303  28.245  1.00  0.00     0.010 A 
ATOM     70  C   UNL A   1      44.490  23.937  26.074  1.00  0.00     0.020 A 
ATOM     71  C   UNL A   1      43.116  22.334  27.276  1.00  0.00     0.020 A 
ATOM     72  C   UNL A   1      43.930  22.662  26.189  1.00  0.00     0.054 A 
BRANCH  72  73
ATOM     73  S   UNL A   1      44.311  21.419  24.923  1.00  0.00     0.124 S 
ATOM     74  O   UNL A   1      44.153  22.183  23.690  1.00  0.00    -0.237 OA
ATOM     75  O   UNL A   1      45.679  21.034  25.260  1.00  0.00    -0.237 OA
ATOM     76  O   UNL A   1      43.306  20.382  25.151  1.00  0.00    -0.744 OA
ENDBRANCH  72  73
ENDBRANCH  44  67
BRANCH  56  77
ATOM     77  C   UNL A   1      46.620  26.443  34.046  1.00  0.00    -0.014 A 
ATOM     78  C   UNL A   1      47.889  26.991  33.791  1.00  0.00     0.010 A 
ATOM     79  C   UNL A   1      46.498  25.401  34.982  1.00  0.00     0.010 A 
ATOM     80  C   UNL A   1      49.022  26.473  34.425  1.00  0.00     0.020 A 
ATOM     81  C   UNL A   1      47.624  24.901  35.641  1.00  0.00     0.020 A 
ATOM     82  C   UNL A   1      48.883  25.427  35.342  1.00  0.00     0.054 A 
BRANCH  82  83
ATOM     83  S   UNL A   1      50.365  24.782  36.164  1.00  0.00     0.124 S 
ATOM     84  O   UNL A   1      50.041  24.983  37.573  1.00  0.00    -0.237 OA
ATOM     85  O   UNL A   1      50.399  23.392  35.719  1.00  0.00    -0.237 OA
ATOM     86  O   UNL A   1      51.442  25.622  35.645  1.00  0.00    -0.744 OA
ENDBRANCH  82  83
ENDBRANCH  56  77
ENDBRANCH  30  31
ENDBRANCH  22  25
ENDBRANCH  20  21
ENDBRANCH   1  20
TORSDOF 17
ENDMDL
