MODEL 1
REMARK VINA RESULT:      -9.5      0.000      0.000
REMARK SMILES COc1cc(Cl)ccc1-c1ccc(CC(=O)NCCCNC(=O)c2ccc(-c3c4nc(c(-c5ccc(S(=O)(=O)[O-])cc5)c5ccc([nH]5)c(-c5ccc(S(=O)(=O)[O-])cc5)c5nc(c(-c6ccc(S(=O)(=O)[O-])cc6)c6ccc3[nH]6)C=C5)C=C4)cc2)cc1
REMARK SMILES IDX 19 1 18 2 17 3 15 4 16 5 14 7 13 8 10 9 11 10 85 11 12 12
REMARK SMILES IDX 84 13 9 14 3 15 4 16 5 17 8 18 6 19 7 20 2 21 1 22 20 23
REMARK SMILES IDX 21 24 22 25 23 27 24 28 25 29 83 30 26 31 82 32 27 33 28 34
REMARK SMILES IDX 29 35 76 36 30 37 81 38 75 39 77 40 31 41 80 42 74 43 73 44
REMARK SMILES IDX 32 46 62 47 43 48 61 49 44 50 47 51 60 52 78 53 45 54 46 55
REMARK SMILES IDX 59 57 79 58 48 59 33 60 34 61 42 62 35 63 41 64 36 65 37 66
REMARK SMILES IDX 38 67 39 68 40 69 63 70 64 71 72 72 65 73 71 74 66 75 67 76
REMARK SMILES IDX 68 77 69 78 70 79 49 80 50 81 58 82 51 83 57 84 52 85 53 86
REMARK SMILES IDX 54 87 55 88 56 89
REMARK H PARENT 17 6 21 26 77 45 47 56
REMARK Flexibility Score: inf
ROOT
ATOM      1  C   UNL A   1      41.677  21.818  26.171  1.00  0.00     0.042 C 
ENDROOT
BRANCH   1   2
ATOM      2  C   UNL A   1      42.695  20.688  26.314  1.00  0.00     0.117 C 
BRANCH   2   3
ATOM      3  N   UNL A   1      43.299  20.323  25.045  1.00  0.00    -0.356 N 
ATOM      4  C   UNL A   1      44.569  20.552  24.599  1.00  0.00     0.224 C 
ATOM      5  O   UNL A   1      44.862  20.192  23.456  1.00  0.00    -0.275 OA
ATOM      6  H   UNL A   1      42.710  19.843  24.420  1.00  0.00     0.163 HD
BRANCH   4   7
ATOM      7  C   UNL A   1      45.598  21.189  25.515  1.00  0.00     0.135 C 
BRANCH   7   8
ATOM      8  C   UNL A   1      45.344  22.646  25.809  1.00  0.00    -0.039 A 
ATOM      9  C   UNL A   1      44.936  25.398  26.352  1.00  0.00    -0.015 A 
ATOM     10  C   UNL A   1      44.943  24.450  27.387  1.00  0.00     0.009 A 
ATOM     11  C   UNL A   1      45.119  24.937  25.039  1.00  0.00     0.009 A 
ATOM     12  C   UNL A   1      45.144  23.091  27.122  1.00  0.00     0.005 A 
ATOM     13  C   UNL A   1      45.303  23.581  24.768  1.00  0.00     0.005 A 
BRANCH   9  14
ATOM     14  C   UNL A   1      44.768  26.837  26.631  1.00  0.00     0.024 A 
ATOM     15  C   UNL A   1      45.730  27.593  27.337  1.00  0.00     0.128 A 
ATOM     16  C   UNL A   1      45.531  28.957  27.581  1.00  0.00     0.067 A 
ATOM     17  C   UNL A   1      44.359  29.575  27.153  1.00  0.00     0.044 A 
ATOM     18  C   UNL A   1      43.592  27.492  26.213  1.00  0.00     0.014 A 
ATOM     19  Cl  UNL A   1      44.126  31.253  27.443  1.00  0.00    -0.084 Cl
ATOM     20  C   UNL A   1      43.386  28.849  26.476  1.00  0.00     0.021 A 
BRANCH  15  21
ATOM     21  O   UNL A   1      46.906  26.978  27.698  1.00  0.00    -0.496 OA
ATOM     22  C   UNL A   1      48.005  27.332  26.861  1.00  0.00     0.278 C 
ENDBRANCH  15  21
ENDBRANCH   9  14
ENDBRANCH   7   8
ENDBRANCH   4   7
ENDBRANCH   2   3
ENDBRANCH   1   2
BRANCH   1  23
ATOM     23  C   UNL A   1      40.303  21.499  26.754  1.00  0.00     0.118 C 
BRANCH  23  24
ATOM     24  N   UNL A   1      39.213  22.001  25.929  1.00  0.00    -0.352 N 
ATOM     25  C   UNL A   1      38.577  23.217  25.937  1.00  0.00     0.251 C 
ATOM     26  H   UNL A   1      38.877  21.364  25.256  1.00  0.00     0.163 HD
ATOM     27  O   UNL A   1      37.551  23.358  25.271  1.00  0.00    -0.269 OA
BRANCH  25  28
ATOM     28  C   UNL A   1      39.097  24.347  26.738  1.00  0.00     0.039 A 
ATOM     29  C   UNL A   1      39.968  25.256  26.129  1.00  0.00     0.014 A 
ATOM     30  C   UNL A   1      38.773  24.493  28.089  1.00  0.00     0.014 A 
ATOM     31  C   UNL A   1      40.463  26.342  26.856  1.00  0.00     0.010 A 
ATOM     32  C   UNL A   1      39.214  25.614  28.794  1.00  0.00     0.010 A 
ATOM     33  C   UNL A   1      40.063  26.550  28.186  1.00  0.00    -0.014 A 
BRANCH  33  34
ATOM     34  C   UNL A   1      40.512  27.744  28.948  1.00  0.00     0.031 A 
ATOM     35  C   UNL A   1      41.848  27.747  29.644  1.00  0.00     0.074 A 
ATOM     36  C   UNL A   1      39.687  28.804  29.068  1.00  0.00     0.049 A 
ATOM     37  N   UNL A   1      42.376  28.669  30.409  1.00  0.00    -0.248 NA
ATOM     38  C   UNL A   1      42.689  26.551  29.478  1.00  0.00     0.031 C 
ATOM     39  C   UNL A   1      38.353  28.911  28.473  1.00  0.00     0.029 A 
ATOM     40  N   UNL A   1      39.844  29.991  29.740  1.00  0.00    -0.354 N 
ATOM     41  C   UNL A   1      43.599  28.159  30.830  1.00  0.00     0.074 A 
ATOM     42  C   UNL A   1      43.716  26.830  30.269  1.00  0.00     0.031 C 
ATOM     43  C   UNL A   1      37.823  30.104  28.790  1.00  0.00     0.029 A 
ATOM     44  C   UNL A   1      38.759  30.829  29.642  1.00  0.00     0.049 A 
ATOM     45  H   UNL A   1      40.659  30.220  30.245  1.00  0.00     0.167 HD
ATOM     46  C   UNL A   1      44.544  28.747  31.602  1.00  0.00     0.031 A 
ATOM     47  C   UNL A   1      38.534  32.042  30.185  1.00  0.00     0.031 A 
ATOM     48  C   UNL A   1      44.431  30.074  32.147  1.00  0.00     0.049 A 
ATOM     49  C   UNL A   1      39.599  32.673  31.041  1.00  0.00     0.074 A 
ATOM     50  C   UNL A   1      45.361  30.780  32.891  1.00  0.00     0.029 A 
ATOM     51  N   UNL A   1      43.323  30.897  32.010  1.00  0.00    -0.354 N 
ATOM     52  N   UNL A   1      40.776  32.199  31.373  1.00  0.00    -0.248 NA
ATOM     53  C   UNL A   1      39.310  34.007  31.585  1.00  0.00     0.031 C 
ATOM     54  C   UNL A   1      44.796  32.008  33.246  1.00  0.00     0.029 A 
ATOM     55  C   UNL A   1      43.536  32.093  32.674  1.00  0.00     0.049 A 
ATOM     56  H   UNL A   1      42.506  30.665  31.513  1.00  0.00     0.167 HD
ATOM     57  C   UNL A   1      41.378  33.188  32.142  1.00  0.00     0.074 A 
ATOM     58  C   UNL A   1      40.442  34.292  32.213  1.00  0.00     0.031 C 
ATOM     59  C   UNL A   1      42.597  33.183  32.735  1.00  0.00     0.031 A 
BRANCH  46  60
ATOM     60  C   UNL A   1      45.789  27.957  31.908  1.00  0.00    -0.014 A 
ATOM     61  C   UNL A   1      46.914  28.016  31.065  1.00  0.00     0.010 A 
ATOM     62  C   UNL A   1      45.857  27.187  33.084  1.00  0.00     0.010 A 
ATOM     63  C   UNL A   1      48.070  27.292  31.374  1.00  0.00     0.020 A 
ATOM     64  C   UNL A   1      47.020  26.483  33.410  1.00  0.00     0.020 A 
ATOM     65  C   UNL A   1      48.114  26.528  32.544  1.00  0.00     0.054 A 
BRANCH  65  66
ATOM     66  S   UNL A   1      49.637  25.625  32.934  1.00  0.00     0.124 S 
ATOM     67  O   UNL A   1      50.385  26.615  33.705  1.00  0.00    -0.237 OA
ATOM     68  O   UNL A   1      49.146  24.478  33.695  1.00  0.00    -0.237 OA
ATOM     69  O   UNL A   1      50.197  25.304  31.622  1.00  0.00    -0.744 OA
ENDBRANCH  65  66
ENDBRANCH  46  60
BRANCH  47  70
ATOM     70  C   UNL A   1      37.248  32.746  29.927  1.00  0.00    -0.014 A 
ATOM     71  C   UNL A   1      37.104  33.579  28.803  1.00  0.00     0.010 A 
ATOM     72  C   UNL A   1      36.157  32.583  30.800  1.00  0.00     0.010 A 
ATOM     73  C   UNL A   1      35.903  34.254  28.571  1.00  0.00     0.020 A 
ATOM     74  C   UNL A   1      34.944  33.233  30.555  1.00  0.00     0.020 A 
ATOM     75  C   UNL A   1      34.829  34.076  29.448  1.00  0.00     0.054 A 
BRANCH  75  76
ATOM     76  S   UNL A   1      33.265  34.927  29.099  1.00  0.00     0.124 S 
ATOM     77  O   UNL A   1      32.606  34.893  30.401  1.00  0.00    -0.237 OA
ATOM     78  O   UNL A   1      33.713  36.242  28.650  1.00  0.00    -0.237 OA
ATOM     79  O   UNL A   1      32.651  34.100  28.063  1.00  0.00    -0.744 OA
ENDBRANCH  75  76
ENDBRANCH  47  70
BRANCH  59  80
ATOM     80  C   UNL A   1      43.009  34.422  33.485  1.00  0.00    -0.014 A 
ATOM     81  C   UNL A   1      42.858  34.516  34.879  1.00  0.00     0.010 A 
ATOM     82  C   UNL A   1      43.607  35.488  32.787  1.00  0.00     0.010 A 
ATOM     83  C   UNL A   1      43.270  35.667  35.558  1.00  0.00     0.020 A 
ATOM     84  C   UNL A   1      44.045  36.628  33.466  1.00  0.00     0.020 A 
ATOM     85  C   UNL A   1      43.861  36.715  34.847  1.00  0.00     0.054 A 
BRANCH  85  86
ATOM     86  S   UNL A   1      44.427  38.178  35.757  1.00  0.00     0.124 S 
ATOM     87  O   UNL A   1      43.704  38.051  37.019  1.00  0.00    -0.237 OA
ATOM     88  O   UNL A   1      45.871  37.968  35.837  1.00  0.00    -0.237 OA
ATOM     89  O   UNL A   1      44.012  39.295  34.910  1.00  0.00    -0.744 OA
ENDBRANCH  85  86
ENDBRANCH  59  80
ENDBRANCH  33  34
ENDBRANCH  25  28
ENDBRANCH  23  24
ENDBRANCH   1  23
TORSDOF 16
ENDMDL
MODEL 2
REMARK VINA RESULT:      -9.4      3.040     11.217
REMARK SMILES COc1cc(Cl)ccc1-c1ccc(CC(=O)NCCCNC(=O)c2ccc(-c3c4nc(c(-c5ccc(S(=O)(=O)[O-])cc5)c5ccc([nH]5)c(-c5ccc(S(=O)(=O)[O-])cc5)c5nc(c(-c6ccc(S(=O)(=O)[O-])cc6)c6ccc3[nH]6)C=C5)C=C4)cc2)cc1
REMARK SMILES IDX 19 1 18 2 17 3 15 4 16 5 14 7 13 8 10 9 11 10 85 11 12 12
REMARK SMILES IDX 84 13 9 14 3 15 4 16 5 17 8 18 6 19 7 20 2 21 1 22 20 23
REMARK SMILES IDX 21 24 22 25 23 27 24 28 25 29 83 30 26 31 82 32 27 33 28 34
REMARK SMILES IDX 29 35 76 36 30 37 81 38 75 39 77 40 31 41 80 42 74 43 73 44
REMARK SMILES IDX 32 46 62 47 43 48 61 49 44 50 47 51 60 52 78 53 45 54 46 55
REMARK SMILES IDX 59 57 79 58 48 59 33 60 34 61 42 62 35 63 41 64 36 65 37 66
REMARK SMILES IDX 38 67 39 68 40 69 63 70 64 71 72 72 65 73 71 74 66 75 67 76
REMARK SMILES IDX 68 77 69 78 70 79 49 80 50 81 58 82 51 83 57 84 52 85 53 86
REMARK SMILES IDX 54 87 55 88 56 89
REMARK H PARENT 17 6 21 26 77 45 47 56
REMARK Flexibility Score: inf
ROOT
ATOM      1  C   UNL A   1      34.046  34.260  28.399  1.00  0.00     0.042 C 
ENDROOT
BRANCH   1   2
ATOM      2  C   UNL A   1      34.465  34.884  29.729  1.00  0.00     0.117 C 
BRANCH   2   3
ATOM      3  N   UNL A   1      33.449  34.736  30.754  1.00  0.00    -0.356 N 
ATOM      4  C   UNL A   1      33.548  34.940  32.101  1.00  0.00     0.224 C 
ATOM      5  O   UNL A   1      32.562  34.710  32.803  1.00  0.00    -0.275 OA
ATOM      6  H   UNL A   1      32.564  34.449  30.434  1.00  0.00     0.163 HD
BRANCH   4   7
ATOM      7  C   UNL A   1      34.833  35.486  32.698  1.00  0.00     0.135 C 
BRANCH   7   8
ATOM      8  C   UNL A   1      35.901  34.445  32.920  1.00  0.00    -0.039 A 
ATOM      9  C   UNL A   1      37.889  32.456  33.277  1.00  0.00    -0.015 A 
ATOM     10  C   UNL A   1      36.716  32.454  34.048  1.00  0.00     0.009 A 
ATOM     11  C   UNL A   1      38.054  33.485  32.338  1.00  0.00     0.009 A 
ATOM     12  C   UNL A   1      35.734  33.434  33.874  1.00  0.00     0.005 A 
ATOM     13  C   UNL A   1      37.085  34.475  32.172  1.00  0.00     0.005 A 
BRANCH   9  14
ATOM     14  C   UNL A   1      38.908  31.399  33.427  1.00  0.00     0.024 A 
ATOM     15  C   UNL A   1      40.180  31.641  33.990  1.00  0.00     0.128 A 
ATOM     16  C   UNL A   1      41.118  30.609  34.113  1.00  0.00     0.067 A 
ATOM     17  C   UNL A   1      40.810  29.334  33.646  1.00  0.00     0.044 A 
ATOM     18  C   UNL A   1      38.629  30.098  32.962  1.00  0.00     0.014 A 
ATOM     19  Cl  UNL A   1      41.961  28.067  33.811  1.00  0.00    -0.084 Cl
ATOM     20  C   UNL A   1      39.575  29.074  33.066  1.00  0.00     0.021 A 
BRANCH  15  21
ATOM     21  O   UNL A   1      40.441  32.892  34.499  1.00  0.00    -0.496 OA
ATOM     22  C   UNL A   1      40.397  32.940  35.923  1.00  0.00     0.278 C 
ENDBRANCH  15  21
ENDBRANCH   9  14
ENDBRANCH   7   8
ENDBRANCH   4   7
ENDBRANCH   2   3
ENDBRANCH   1   2
BRANCH   1  23
ATOM     23  C   UNL A   1      34.852  33.024  28.006  1.00  0.00     0.118 C 
BRANCH  23  24
ATOM     24  N   UNL A   1      34.021  31.836  27.861  1.00  0.00    -0.352 N 
ATOM     25  C   UNL A   1      34.365  30.508  27.829  1.00  0.00     0.251 C 
ATOM     26  H   UNL A   1      33.057  32.015  27.770  1.00  0.00     0.163 HD
ATOM     27  O   UNL A   1      33.513  29.679  27.508  1.00  0.00    -0.269 OA
BRANCH  25  28
ATOM     28  C   UNL A   1      35.737  30.065  28.160  1.00  0.00     0.039 A 
ATOM     29  C   UNL A   1      36.699  30.047  27.146  1.00  0.00     0.014 A 
ATOM     30  C   UNL A   1      36.071  29.624  29.443  1.00  0.00     0.014 A 
ATOM     31  C   UNL A   1      38.008  29.648  27.431  1.00  0.00     0.010 A 
ATOM     32  C   UNL A   1      37.393  29.290  29.742  1.00  0.00     0.010 A 
ATOM     33  C   UNL A   1      38.374  29.298  28.741  1.00  0.00    -0.014 A 
BRANCH  33  34
ATOM     34  C   UNL A   1      39.779  28.952  29.081  1.00  0.00     0.031 A 
ATOM     35  C   UNL A   1      40.689  29.978  29.703  1.00  0.00     0.074 A 
ATOM     36  C   UNL A   1      40.255  27.729  28.770  1.00  0.00     0.049 A 
ATOM     37  N   UNL A   1      41.958  29.878  30.006  1.00  0.00    -0.248 NA
ATOM     38  C   UNL A   1      40.102  31.293  30.005  1.00  0.00     0.031 C 
ATOM     39  C   UNL A   1      39.488  26.658  28.131  1.00  0.00     0.029 A 
ATOM     40  N   UNL A   1      41.505  27.184  28.937  1.00  0.00    -0.354 N 
ATOM     41  C   UNL A   1      42.327  31.118  30.513  1.00  0.00     0.074 A 
ATOM     42  C   UNL A   1      41.158  31.967  30.441  1.00  0.00     0.031 C 
ATOM     43  C   UNL A   1      40.275  25.580  27.980  1.00  0.00     0.029 A 
ATOM     44  C   UNL A   1      41.612  25.895  28.471  1.00  0.00     0.049 A 
ATOM     45  H   UNL A   1      42.253  27.671  29.353  1.00  0.00     0.167 HD
ATOM     46  C   UNL A   1      43.526  31.511  31.008  1.00  0.00     0.031 A 
ATOM     47  C   UNL A   1      42.670  25.061  28.432  1.00  0.00     0.031 A 
ATOM     48  C   UNL A   1      44.684  30.661  31.092  1.00  0.00     0.049 A 
ATOM     49  C   UNL A   1      43.991  25.523  28.985  1.00  0.00     0.074 A 
ATOM     50  C   UNL A   1      45.925  30.950  31.632  1.00  0.00     0.029 A 
ATOM     51  N   UNL A   1      44.746  29.357  30.625  1.00  0.00    -0.354 N 
ATOM     52  N   UNL A   1      44.300  26.679  29.520  1.00  0.00    -0.248 NA
ATOM     53  C   UNL A   1      45.102  24.562  28.939  1.00  0.00     0.031 C 
ATOM     54  C   UNL A   1      46.753  29.838  31.445  1.00  0.00     0.029 A 
ATOM     55  C   UNL A   1      46.010  28.835  30.842  1.00  0.00     0.049 A 
ATOM     56  H   UNL A   1      44.001  28.872  30.201  1.00  0.00     0.167 HD
ATOM     57  C   UNL A   1      45.633  26.576  29.899  1.00  0.00     0.074 A 
ATOM     58  C   UNL A   1      46.067  25.238  29.546  1.00  0.00     0.031 C 
ATOM     59  C   UNL A   1      46.428  27.503  30.488  1.00  0.00     0.031 A 
BRANCH  46  60
ATOM     60  C   UNL A   1      43.650  32.931  31.496  1.00  0.00    -0.014 A 
ATOM     61  C   UNL A   1      43.325  33.276  32.821  1.00  0.00     0.010 A 
ATOM     62  C   UNL A   1      44.151  33.925  30.635  1.00  0.00     0.010 A 
ATOM     63  C   UNL A   1      43.465  34.594  33.265  1.00  0.00     0.020 A 
ATOM     64  C   UNL A   1      44.318  35.239  31.084  1.00  0.00     0.020 A 
ATOM     65  C   UNL A   1      43.959  35.568  32.392  1.00  0.00     0.054 A 
BRANCH  65  66
ATOM     66  S   UNL A   1      44.158  37.263  33.005  1.00  0.00     0.124 S 
ATOM     67  O   UNL A   1      43.235  37.284  34.137  1.00  0.00    -0.237 OA
ATOM     68  O   UNL A   1      45.577  37.315  33.351  1.00  0.00    -0.237 OA
ATOM     69  O   UNL A   1      43.767  38.093  31.867  1.00  0.00    -0.744 OA
ENDBRANCH  65  66
ENDBRANCH  46  60
BRANCH  47  70
ATOM     70  C   UNL A   1      42.520  23.696  27.855  1.00  0.00    -0.014 A 
ATOM     71  C   UNL A   1      42.208  22.603  28.682  1.00  0.00     0.010 A 
ATOM     72  C   UNL A   1      42.683  23.483  26.474  1.00  0.00     0.010 A 
ATOM     73  C   UNL A   1      42.085  21.320  28.144  1.00  0.00     0.020 A 
ATOM     74  C   UNL A   1      42.532  22.206  25.927  1.00  0.00     0.020 A 
ATOM     75  C   UNL A   1      42.247  21.128  26.768  1.00  0.00     0.054 A 
BRANCH  75  76
ATOM     76  S   UNL A   1      42.037  19.460  26.086  1.00  0.00     0.124 S 
ATOM     77  O   UNL A   1      40.612  19.438  25.776  1.00  0.00    -0.237 OA
ATOM     78  O   UNL A   1      42.936  19.473  24.935  1.00  0.00    -0.237 OA
ATOM     79  O   UNL A   1      42.456  18.589  27.182  1.00  0.00    -0.744 OA
ENDBRANCH  75  76
ENDBRANCH  47  70
BRANCH  59  80
ATOM     80  C   UNL A   1      47.838  27.098  30.823  1.00  0.00    -0.014 A 
ATOM     81  C   UNL A   1      48.151  26.489  32.050  1.00  0.00     0.010 A 
ATOM     82  C   UNL A   1      48.856  27.281  29.869  1.00  0.00     0.010 A 
ATOM     83  C   UNL A   1      49.464  26.098  32.331  1.00  0.00     0.020 A 
ATOM     84  C   UNL A   1      50.164  26.866  30.134  1.00  0.00     0.020 A 
ATOM     85  C   UNL A   1      50.462  26.289  31.370  1.00  0.00     0.054 A 
BRANCH  85  86
ATOM     86  S   UNL A   1      52.148  25.733  31.740  1.00  0.00     0.124 S 
ATOM     87  O   UNL A   1      52.836  25.986  30.478  1.00  0.00    -0.237 OA
ATOM     88  O   UNL A   1      52.536  26.600  32.850  1.00  0.00    -0.237 OA
ATOM     89  O   UNL A   1      51.980  24.324  32.087  1.00  0.00    -0.744 OA
ENDBRANCH  85  86
ENDBRANCH  59  80
ENDBRANCH  33  34
ENDBRANCH  25  28
ENDBRANCH  23  24
ENDBRANCH   1  23
TORSDOF 16
ENDMDL
MODEL 3
REMARK VINA RESULT:      -9.2      3.922      6.695
REMARK SMILES COc1cc(Cl)ccc1-c1ccc(CC(=O)NCCCNC(=O)c2ccc(-c3c4nc(c(-c5ccc(S(=O)(=O)[O-])cc5)c5ccc([nH]5)c(-c5ccc(S(=O)(=O)[O-])cc5)c5nc(c(-c6ccc(S(=O)(=O)[O-])cc6)c6ccc3[nH]6)C=C5)C=C4)cc2)cc1
REMARK SMILES IDX 19 1 18 2 17 3 15 4 16 5 14 7 13 8 10 9 11 10 85 11 12 12
REMARK SMILES IDX 84 13 9 14 3 15 4 16 5 17 8 18 6 19 7 20 2 21 1 22 20 23
REMARK SMILES IDX 21 24 22 25 23 27 24 28 25 29 83 30 26 31 82 32 27 33 28 34
REMARK SMILES IDX 29 35 76 36 30 37 81 38 75 39 77 40 31 41 80 42 74 43 73 44
REMARK SMILES IDX 32 46 62 47 43 48 61 49 44 50 47 51 60 52 78 53 45 54 46 55
REMARK SMILES IDX 59 57 79 58 48 59 33 60 34 61 42 62 35 63 41 64 36 65 37 66
REMARK SMILES IDX 38 67 39 68 40 69 63 70 64 71 72 72 65 73 71 74 66 75 67 76
REMARK SMILES IDX 68 77 69 78 70 79 49 80 50 81 58 82 51 83 57 84 52 85 53 86
REMARK SMILES IDX 54 87 55 88 56 89
REMARK H PARENT 17 6 21 26 77 45 47 56
REMARK Flexibility Score: inf
ROOT
ATOM      1  C   UNL A   1      35.199  23.013  25.461  1.00  0.00     0.042 C 
ENDROOT
BRANCH   1   2
ATOM      2  C   UNL A   1      35.327  21.582  24.942  1.00  0.00     0.117 C 
BRANCH   2   3
ATOM      3  N   UNL A   1      34.197  20.753  25.319  1.00  0.00    -0.356 N 
ATOM      4  C   UNL A   1      33.005  20.578  24.678  1.00  0.00     0.224 C 
ATOM      5  O   UNL A   1      32.156  19.854  25.204  1.00  0.00    -0.275 OA
ATOM      6  H   UNL A   1      34.307  20.245  26.156  1.00  0.00     0.163 HD
BRANCH   4   7
ATOM      7  C   UNL A   1      32.762  21.226  23.326  1.00  0.00     0.135 C 
BRANCH   7   8
ATOM      8  C   UNL A   1      32.262  22.646  23.403  1.00  0.00    -0.039 A 
ATOM      9  C   UNL A   1      31.384  25.336  23.575  1.00  0.00    -0.015 A 
ATOM     10  C   UNL A   1      30.946  24.371  24.496  1.00  0.00     0.009 A 
ATOM     11  C   UNL A   1      32.255  24.921  22.557  1.00  0.00     0.009 A 
ATOM     12  C   UNL A   1      31.377  23.043  24.413  1.00  0.00     0.005 A 
ATOM     13  C   UNL A   1      32.676  23.594  22.460  1.00  0.00     0.005 A 
BRANCH   9  14
ATOM     14  C   UNL A   1      30.966  26.747  23.684  1.00  0.00     0.024 A 
ATOM     15  C   UNL A   1      31.694  27.701  24.429  1.00  0.00     0.128 A 
ATOM     16  C   UNL A   1      31.263  29.030  24.507  1.00  0.00     0.067 A 
ATOM     17  C   UNL A   1      30.085  29.415  23.872  1.00  0.00     0.044 A 
ATOM     18  C   UNL A   1      29.777  27.169  23.056  1.00  0.00     0.014 A 
ATOM     19  Cl  UNL A   1      29.566  31.052  23.961  1.00  0.00    -0.084 Cl
ATOM     20  C   UNL A   1      29.337  28.491  23.153  1.00  0.00     0.021 A 
BRANCH  15  21
ATOM     21  O   UNL A   1      32.886  27.314  24.996  1.00  0.00    -0.496 OA
ATOM     22  C   UNL A   1      32.850  27.295  26.422  1.00  0.00     0.278 C 
ENDBRANCH  15  21
ENDBRANCH   9  14
ENDBRANCH   7   8
ENDBRANCH   4   7
ENDBRANCH   2   3
ENDBRANCH   1   2
BRANCH   1  23
ATOM     23  C   UNL A   1      36.535  23.722  25.673  1.00  0.00     0.118 C 
BRANCH  23  24
ATOM     24  N   UNL A   1      37.645  22.792  25.830  1.00  0.00    -0.352 N 
ATOM     25  C   UNL A   1      38.918  22.996  26.299  1.00  0.00     0.251 C 
ATOM     26  H   UNL A   1      37.451  21.867  25.554  1.00  0.00     0.163 HD
ATOM     27  O   UNL A   1      39.753  22.101  26.168  1.00  0.00    -0.269 OA
BRANCH  25  28
ATOM     28  C   UNL A   1      39.300  24.271  26.944  1.00  0.00     0.039 A 
ATOM     29  C   UNL A   1      38.883  24.510  28.257  1.00  0.00     0.014 A 
ATOM     30  C   UNL A   1      40.024  25.249  26.256  1.00  0.00     0.014 A 
ATOM     31  C   UNL A   1      39.242  25.699  28.899  1.00  0.00     0.010 A 
ATOM     32  C   UNL A   1      40.438  26.404  26.919  1.00  0.00     0.010 A 
ATOM     33  C   UNL A   1      40.052  26.643  28.246  1.00  0.00    -0.014 A 
BRANCH  33  34
ATOM     34  C   UNL A   1      40.514  27.873  28.939  1.00  0.00     0.031 A 
ATOM     35  C   UNL A   1      41.875  27.922  29.582  1.00  0.00     0.074 A 
ATOM     36  C   UNL A   1      39.680  28.927  29.047  1.00  0.00     0.049 A 
ATOM     37  N   UNL A   1      42.420  28.882  30.286  1.00  0.00    -0.248 NA
ATOM     38  C   UNL A   1      42.725  26.730  29.433  1.00  0.00     0.031 C 
ATOM     39  C   UNL A   1      38.322  28.993  28.501  1.00  0.00     0.029 A 
ATOM     40  N   UNL A   1      39.846  30.144  29.662  1.00  0.00    -0.354 N 
ATOM     41  C   UNL A   1      43.665  28.405  30.679  1.00  0.00     0.074 A 
ATOM     42  C   UNL A   1      43.779  27.056  30.171  1.00  0.00     0.031 C 
ATOM     43  C   UNL A   1      37.789  30.192  28.788  1.00  0.00     0.029 A 
ATOM     44  C   UNL A   1      38.747  30.964  29.572  1.00  0.00     0.049 A 
ATOM     45  H   UNL A   1      40.677  30.404  30.125  1.00  0.00     0.167 HD
ATOM     46  C   UNL A   1      44.632  29.037  31.388  1.00  0.00     0.031 A 
ATOM     47  C   UNL A   1      38.526  32.196  30.072  1.00  0.00     0.031 A 
ATOM     48  C   UNL A   1      44.521  30.385  31.881  1.00  0.00     0.049 A 
ATOM     49  C   UNL A   1      39.615  32.875  30.858  1.00  0.00     0.074 A 
ATOM     50  C   UNL A   1      45.470  31.132  32.558  1.00  0.00     0.029 A 
ATOM     51  N   UNL A   1      43.398  31.187  31.754  1.00  0.00    -0.354 N 
ATOM     52  N   UNL A   1      40.810  32.430  31.163  1.00  0.00    -0.248 NA
ATOM     53  C   UNL A   1      39.328  34.227  31.357  1.00  0.00     0.031 C 
ATOM     54  C   UNL A   1      44.901  32.368  32.883  1.00  0.00     0.029 A 
ATOM     55  C   UNL A   1      43.620  32.413  32.358  1.00  0.00     0.049 A 
ATOM     56  H   UNL A   1      42.565  30.925  31.299  1.00  0.00     0.167 HD
ATOM     57  C   UNL A   1      41.428  33.458  31.866  1.00  0.00     0.074 A 
ATOM     58  C   UNL A   1      40.480  34.552  31.927  1.00  0.00     0.031 C 
ATOM     59  C   UNL A   1      42.669  33.494  32.410  1.00  0.00     0.031 A 
BRANCH  46  60
ATOM     60  C   UNL A   1      45.898  28.275  31.678  1.00  0.00    -0.014 A 
ATOM     61  C   UNL A   1      46.008  27.452  32.813  1.00  0.00     0.010 A 
ATOM     62  C   UNL A   1      46.975  28.339  30.774  1.00  0.00     0.010 A 
ATOM     63  C   UNL A   1      47.183  26.735  33.058  1.00  0.00     0.020 A 
ATOM     64  C   UNL A   1      48.141  27.602  31.001  1.00  0.00     0.020 A 
ATOM     65  C   UNL A   1      48.243  26.817  32.151  1.00  0.00     0.054 A 
BRANCH  65  66
ATOM     66  S   UNL A   1      49.743  25.852  32.478  1.00  0.00     0.124 S 
ATOM     67  O   UNL A   1      49.833  25.020  31.281  1.00  0.00    -0.237 OA
ATOM     68  O   UNL A   1      50.769  26.884  32.604  1.00  0.00    -0.237 OA
ATOM     69  O   UNL A   1      49.431  25.133  33.713  1.00  0.00    -0.744 OA
ENDBRANCH  65  66
ENDBRANCH  46  60
BRANCH  47  70
ATOM     70  C   UNL A   1      37.222  32.873  29.835  1.00  0.00    -0.014 A 
ATOM     71  C   UNL A   1      36.186  32.776  30.780  1.00  0.00     0.010 A 
ATOM     72  C   UNL A   1      37.010  33.623  28.664  1.00  0.00     0.010 A 
ATOM     73  C   UNL A   1      34.956  33.397  30.549  1.00  0.00     0.020 A 
ATOM     74  C   UNL A   1      35.790  34.270  28.442  1.00  0.00     0.020 A 
ATOM     75  C   UNL A   1      34.765  34.141  29.381  1.00  0.00     0.054 A 
BRANCH  75  76
ATOM     76  S   UNL A   1      33.174  34.976  29.125  1.00  0.00     0.124 S 
ATOM     77  O   UNL A   1      32.555  34.139  28.103  1.00  0.00    -0.237 OA
ATOM     78  O   UNL A   1      32.566  34.910  30.452  1.00  0.00    -0.237 OA
ATOM     79  O   UNL A   1      33.560  36.317  28.692  1.00  0.00    -0.744 OA
ENDBRANCH  75  76
ENDBRANCH  47  70
BRANCH  59  80
ATOM     80  C   UNL A   1      43.092  34.768  33.091  1.00  0.00    -0.014 A 
ATOM     81  C   UNL A   1      42.924  34.948  34.474  1.00  0.00     0.010 A 
ATOM     82  C   UNL A   1      43.718  35.779  32.339  1.00  0.00     0.010 A 
ATOM     83  C   UNL A   1      43.346  36.130  35.090  1.00  0.00     0.020 A 
ATOM     84  C   UNL A   1      44.168  36.950  32.955  1.00  0.00     0.020 A 
ATOM     85  C   UNL A   1      43.966  37.123  34.325  1.00  0.00     0.054 A 
BRANCH  85  86
ATOM     86  S   UNL A   1      44.546  38.629  35.154  1.00  0.00     0.124 S 
ATOM     87  O   UNL A   1      44.109  38.407  36.530  1.00  0.00    -0.237 OA
ATOM     88  O   UNL A   1      45.990  38.578  34.939  1.00  0.00    -0.237 OA
ATOM     89  O   UNL A   1      43.853  39.703  34.446  1.00  0.00    -0.744 OA
ENDBRANCH  85  86
ENDBRANCH  59  80
ENDBRANCH  33  34
ENDBRANCH  25  28
ENDBRANCH  23  24
ENDBRANCH   1  23
TORSDOF 16
ENDMDL
