MODEL 1
REMARK VINA RESULT:     -10.2      0.000      0.000
REMARK SMILES CC[N@@H+]1CC[C@H](C[NH2+]Cc2cc(C(=O)NCCCNC(=O)c3ccc(-c4c5nc(c(-c6ccc(S(=O)(=O)[O-])cc6)c6ccc([nH]6)c(-c6ccc(S(=O)(=O)[O-])cc6)c6nc(c(-c7ccc(S(=O)(=O)[O-])cc7)c7ccc4[nH]7)C=C6)C=C5)cc3)cs2)C1
REMARK SMILES IDX 16 1 15 2 13 3 14 4 12 6 10 7 11 8 83 9 82 10 9 11 8 12 7 15
REMARK SMILES IDX 6 16 3 17 4 18 84 19 5 21 2 22 1 23 17 24 18 25 19 26 20 27
REMARK SMILES IDX 21 29 22 30 23 31 81 32 24 33 80 34 25 35 26 36 27 37 74 38
REMARK SMILES IDX 28 39 79 40 73 41 75 42 29 43 78 44 72 45 71 46 30 48 60 49
REMARK SMILES IDX 41 50 59 51 42 52 45 53 58 54 76 55 43 56 44 57 57 59 77 60
REMARK SMILES IDX 46 61 31 62 32 63 40 64 33 65 39 66 34 67 35 68 36 69 37 70
REMARK SMILES IDX 38 71 61 72 62 73 70 74 63 75 69 76 64 77 65 78 66 79 67 80
REMARK SMILES IDX 68 81 47 82 48 83 56 84 49 85 55 86 50 87 51 88 52 89 53 90
REMARK SMILES IDX 54 91
REMARK H PARENT 15 5 8 13 8 14 3 20 19 28 75 47 45 58
REMARK Flexibility Score: inf
ROOT
ATOM      1  C   UNL A   1      32.702  29.298  23.970  1.00  0.00     0.118 C 
ENDROOT
BRANCH   1   2
ATOM      2  N   UNL A   1      31.505  29.315  23.144  1.00  0.00    -0.352 N 
ATOM      3  C   UNL A   1      30.778  28.321  22.538  1.00  0.00     0.252 C 
ATOM      4  O   UNL A   1      29.856  28.675  21.796  1.00  0.00    -0.269 OA
ATOM      5  H   UNL A   1      31.146  30.218  22.989  1.00  0.00     0.163 HD
BRANCH   3   6
ATOM      6  C   UNL A   1      31.103  26.905  22.707  1.00  0.00     0.051 A 
ATOM      7  C   UNL A   1      32.185  24.817  22.546  1.00  0.00     0.059 A 
ATOM      8  C   UNL A   1      32.296  26.186  22.367  1.00  0.00     0.035 A 
ATOM      9  S   UNL A   1      30.738  24.424  23.368  1.00  0.00    -0.142 S 
ATOM     10  C   UNL A   1      30.229  26.052  23.363  1.00  0.00     0.079 A 
BRANCH   7  11
ATOM     11  C   UNL A   1      33.134  23.732  22.113  1.00  0.00     0.308 C 
BRANCH  11  12
ATOM     12  N   UNL A   1      32.835  22.447  22.765  1.00  0.00    -0.341 N 
ATOM     13  H   UNL A   1      31.840  22.412  22.988  1.00  0.00     0.346 HD
ATOM     14  H   UNL A   1      33.091  21.696  22.124  1.00  0.00     0.346 HD
BRANCH  12  15
ATOM     15  C   UNL A   1      33.602  22.274  23.996  1.00  0.00     0.270 C 
BRANCH  15  16
ATOM     16  C   UNL A   1      34.864  23.132  24.086  1.00  0.00     0.105 C 
ATOM     17  N   UNL A   1      37.205  22.888  24.532  1.00  0.00    -0.335 N 
ATOM     18  C   UNL A   1      36.670  23.927  25.424  1.00  0.00     0.262 C 
ATOM     19  C   UNL A   1      36.080  22.241  23.859  1.00  0.00     0.271 C 
ATOM     20  H   UNL A   1      37.804  23.313  23.824  1.00  0.00     0.348 HD
ATOM     21  C   UNL A   1      35.161  23.720  25.457  1.00  0.00     0.076 C 
BRANCH  17  22
ATOM     22  C   UNL A   1      38.096  21.956  25.227  1.00  0.00     0.258 C 
ATOM     23  C   UNL A   1      37.634  20.504  25.134  1.00  0.00     0.071 C 
ENDBRANCH  17  22
ENDBRANCH  15  16
ENDBRANCH  12  15
ENDBRANCH  11  12
ENDBRANCH   7  11
ENDBRANCH   3   6
ENDBRANCH   1   2
BRANCH   1  24
ATOM     24  C   UNL A   1      32.513  28.604  25.316  1.00  0.00     0.042 C 
BRANCH  24  25
ATOM     25  C   UNL A   1      33.657  28.777  26.316  1.00  0.00     0.118 C 
BRANCH  25  26
ATOM     26  N   UNL A   1      33.637  30.057  27.013  1.00  0.00    -0.352 N 
ATOM     27  C   UNL A   1      34.525  30.712  27.832  1.00  0.00     0.251 C 
ATOM     28  H   UNL A   1      32.806  30.563  26.863  1.00  0.00     0.163 HD
ATOM     29  O   UNL A   1      34.138  31.758  28.355  1.00  0.00    -0.269 OA
BRANCH  27  30
ATOM     30  C   UNL A   1      35.894  30.217  28.147  1.00  0.00     0.039 A 
ATOM     31  C   UNL A   1      36.126  29.711  29.438  1.00  0.00     0.014 A 
ATOM     32  C   UNL A   1      36.967  30.296  27.261  1.00  0.00     0.014 A 
ATOM     33  C   UNL A   1      37.380  29.205  29.804  1.00  0.00     0.010 A 
ATOM     34  C   UNL A   1      38.212  29.760  27.610  1.00  0.00     0.010 A 
ATOM     35  C   UNL A   1      38.432  29.211  28.885  1.00  0.00    -0.014 A 
BRANCH  35  36
ATOM     36  C   UNL A   1      39.798  28.769  29.267  1.00  0.00     0.031 A 
ATOM     37  C   UNL A   1      40.709  29.738  29.971  1.00  0.00     0.074 A 
ATOM     38  C   UNL A   1      40.249  27.542  28.945  1.00  0.00     0.049 A 
ATOM     39  N   UNL A   1      41.972  29.608  30.286  1.00  0.00    -0.248 NA
ATOM     40  C   UNL A   1      40.121  31.033  30.350  1.00  0.00     0.031 C 
ATOM     41  C   UNL A   1      39.475  26.500  28.266  1.00  0.00     0.029 A 
ATOM     42  N   UNL A   1      41.484  26.968  29.131  1.00  0.00    -0.354 N 
ATOM     43  C   UNL A   1      42.338  30.815  30.872  1.00  0.00     0.074 A 
ATOM     44  C   UNL A   1      41.172  31.671  30.843  1.00  0.00     0.031 C 
ATOM     45  C   UNL A   1      40.257  25.421  28.084  1.00  0.00     0.029 A 
ATOM     46  C   UNL A   1      41.591  25.701  28.610  1.00  0.00     0.049 A 
ATOM     47  H   UNL A   1      42.223  27.423  29.596  1.00  0.00     0.167 HD
ATOM     48  C   UNL A   1      43.534  31.177  31.395  1.00  0.00     0.031 A 
ATOM     49  C   UNL A   1      42.647  24.864  28.552  1.00  0.00     0.031 A 
ATOM     50  C   UNL A   1      44.689  30.325  31.449  1.00  0.00     0.049 A 
ATOM     51  C   UNL A   1      43.966  25.289  29.143  1.00  0.00     0.074 A 
ATOM     52  C   UNL A   1      45.931  30.593  31.998  1.00  0.00     0.029 A 
ATOM     53  N   UNL A   1      44.744  29.037  30.941  1.00  0.00    -0.354 N 
ATOM     54  N   UNL A   1      44.284  26.421  29.723  1.00  0.00    -0.248 NA
ATOM     55  C   UNL A   1      45.066  24.314  29.082  1.00  0.00     0.031 C 
ATOM     56  C   UNL A   1      46.748  29.475  31.796  1.00  0.00     0.029 A 
ATOM     57  C   UNL A   1      46.001  28.499  31.156  1.00  0.00     0.049 A 
ATOM     58  H   UNL A   1      43.999  28.573  30.494  1.00  0.00     0.167 HD
ATOM     59  C   UNL A   1      45.609  26.281  30.125  1.00  0.00     0.074 A 
ATOM     60  C   UNL A   1      46.031  24.955  29.728  1.00  0.00     0.031 C 
ATOM     61  C   UNL A   1      46.403  27.172  30.768  1.00  0.00     0.031 A 
BRANCH  48  62
ATOM     62  C   UNL A   1      43.646  32.576  31.936  1.00  0.00    -0.014 A 
ATOM     63  C   UNL A   1      43.369  32.855  33.287  1.00  0.00     0.010 A 
ATOM     64  C   UNL A   1      44.041  33.622  31.084  1.00  0.00     0.010 A 
ATOM     65  C   UNL A   1      43.437  34.166  33.763  1.00  0.00     0.020 A 
ATOM     66  C   UNL A   1      44.133  34.931  31.564  1.00  0.00     0.020 A 
ATOM     67  C   UNL A   1      43.809  35.196  32.896  1.00  0.00     0.054 A 
BRANCH  67  68
ATOM     68  S   UNL A   1      43.892  36.891  33.537  1.00  0.00     0.124 S 
ATOM     69  O   UNL A   1      45.016  36.803  34.467  1.00  0.00    -0.237 OA
ATOM     70  O   UNL A   1      44.134  37.681  32.334  1.00  0.00    -0.237 OA
ATOM     71  O   UNL A   1      42.585  37.090  34.157  1.00  0.00    -0.744 OA
ENDBRANCH  67  68
ENDBRANCH  48  62
BRANCH  49  72
ATOM     72  C   UNL A   1      42.510  23.528  27.909  1.00  0.00    -0.014 A 
ATOM     73  C   UNL A   1      42.009  22.436  28.639  1.00  0.00     0.010 A 
ATOM     74  C   UNL A   1      42.906  23.337  26.574  1.00  0.00     0.010 A 
ATOM     75  C   UNL A   1      41.930  21.170  28.053  1.00  0.00     0.020 A 
ATOM     76  C   UNL A   1      42.808  22.076  25.978  1.00  0.00     0.020 A 
ATOM     77  C   UNL A   1      42.335  20.997  26.727  1.00  0.00     0.054 A 
BRANCH  77  78
ATOM     78  S   UNL A   1      42.197  19.351  25.972  1.00  0.00     0.124 S 
ATOM     79  O   UNL A   1      42.717  18.490  27.028  1.00  0.00    -0.237 OA
ATOM     80  O   UNL A   1      40.763  19.238  25.712  1.00  0.00    -0.237 OA
ATOM     81  O   UNL A   1      43.031  19.456  24.777  1.00  0.00    -0.744 OA
ENDBRANCH  77  78
ENDBRANCH  49  72
BRANCH  61  82
ATOM     82  C   UNL A   1      47.795  26.727  31.130  1.00  0.00    -0.014 A 
ATOM     83  C   UNL A   1      48.097  26.246  32.415  1.00  0.00     0.010 A 
ATOM     84  C   UNL A   1      48.803  26.744  30.148  1.00  0.00     0.010 A 
ATOM     85  C   UNL A   1      49.391  25.817  32.722  1.00  0.00     0.020 A 
ATOM     86  C   UNL A   1      50.092  26.294  30.443  1.00  0.00     0.020 A 
ATOM     87  C   UNL A   1      50.382  25.846  31.734  1.00  0.00     0.054 A 
BRANCH  87  88
ATOM     88  S   UNL A   1      52.045  25.244  32.137  1.00  0.00     0.124 S 
ATOM     89  O   UNL A   1      52.831  25.751  31.016  1.00  0.00    -0.237 OA
ATOM     90  O   UNL A   1      52.314  25.874  33.428  1.00  0.00    -0.237 OA
ATOM     91  O   UNL A   1      51.884  23.792  32.182  1.00  0.00    -0.744 OA
ENDBRANCH  87  88
ENDBRANCH  61  82
ENDBRANCH  35  36
ENDBRANCH  27  30
ENDBRANCH  25  26
ENDBRANCH  24  25
ENDBRANCH   1  24
TORSDOF 18
ENDMDL
MODEL 2
REMARK VINA RESULT:     -10.2      3.104      3.766
REMARK SMILES CC[N@@H+]1CC[C@H](C[NH2+]Cc2cc(C(=O)NCCCNC(=O)c3ccc(-c4c5nc(c(-c6ccc(S(=O)(=O)[O-])cc6)c6ccc([nH]6)c(-c6ccc(S(=O)(=O)[O-])cc6)c6nc(c(-c7ccc(S(=O)(=O)[O-])cc7)c7ccc4[nH]7)C=C6)C=C5)cc3)cs2)C1
REMARK SMILES IDX 16 1 15 2 13 3 14 4 12 6 10 7 11 8 83 9 82 10 9 11 8 12 7 15
REMARK SMILES IDX 6 16 3 17 4 18 84 19 5 21 2 22 1 23 17 24 18 25 19 26 20 27
REMARK SMILES IDX 21 29 22 30 23 31 81 32 24 33 80 34 25 35 26 36 27 37 74 38
REMARK SMILES IDX 28 39 79 40 73 41 75 42 29 43 78 44 72 45 71 46 30 48 60 49
REMARK SMILES IDX 41 50 59 51 42 52 45 53 58 54 76 55 43 56 44 57 57 59 77 60
REMARK SMILES IDX 46 61 31 62 32 63 40 64 33 65 39 66 34 67 35 68 36 69 37 70
REMARK SMILES IDX 38 71 61 72 62 73 70 74 63 75 69 76 64 77 65 78 66 79 67 80
REMARK SMILES IDX 68 81 47 82 48 83 56 84 49 85 55 86 50 87 51 88 52 89 53 90
REMARK SMILES IDX 54 91
REMARK H PARENT 15 5 8 13 8 14 3 20 19 28 75 47 45 58
REMARK Flexibility Score: inf
ROOT
ATOM      1  C   UNL A   1      32.650  29.916  26.149  1.00  0.00     0.118 C 
ENDROOT
BRANCH   1   2
ATOM      2  N   UNL A   1      33.304  29.813  24.854  1.00  0.00    -0.352 N 
ATOM      3  C   UNL A   1      33.093  29.003  23.766  1.00  0.00     0.252 C 
ATOM      4  O   UNL A   1      33.907  29.088  22.840  1.00  0.00    -0.269 OA
ATOM      5  H   UNL A   1      34.043  30.451  24.735  1.00  0.00     0.163 HD
BRANCH   3   6
ATOM      6  C   UNL A   1      31.994  28.040  23.713  1.00  0.00     0.051 A 
ATOM      7  C   UNL A   1      30.786  26.017  23.642  1.00  0.00     0.059 A 
ATOM      8  C   UNL A   1      32.003  26.619  23.914  1.00  0.00     0.035 A 
ATOM      9  S   UNL A   1      29.565  27.188  23.398  1.00  0.00    -0.142 S 
ATOM     10  C   UNL A   1      30.687  28.466  23.534  1.00  0.00     0.079 A 
BRANCH   7  11
ATOM     11  C   UNL A   1      30.465  24.550  23.539  1.00  0.00     0.308 C 
BRANCH  11  12
ATOM     12  N   UNL A   1      30.349  23.918  24.863  1.00  0.00    -0.341 N 
ATOM     13  H   UNL A   1      30.411  24.641  25.581  1.00  0.00     0.346 HD
ATOM     14  H   UNL A   1      29.452  23.435  24.908  1.00  0.00     0.346 HD
BRANCH  12  15
ATOM     15  C   UNL A   1      31.406  22.936  25.088  1.00  0.00     0.270 C 
BRANCH  15  16
ATOM     16  C   UNL A   1      32.526  23.405  26.016  1.00  0.00     0.105 C 
ATOM     17  N   UNL A   1      34.919  23.441  26.111  1.00  0.00    -0.335 N 
ATOM     18  C   UNL A   1      34.417  22.824  27.347  1.00  0.00     0.262 C 
ATOM     19  C   UNL A   1      33.793  23.607  25.193  1.00  0.00     0.271 C 
ATOM     20  H   UNL A   1      35.308  24.361  26.316  1.00  0.00     0.348 HD
ATOM     21  C   UNL A   1      32.986  22.391  27.053  1.00  0.00     0.076 C 
BRANCH  17  22
ATOM     22  C   UNL A   1      36.049  22.707  25.536  1.00  0.00     0.258 C 
ATOM     23  C   UNL A   1      37.389  23.405  25.752  1.00  0.00     0.071 C 
ENDBRANCH  17  22
ENDBRANCH  15  16
ENDBRANCH  12  15
ENDBRANCH  11  12
ENDBRANCH   7  11
ENDBRANCH   3   6
ENDBRANCH   1   2
BRANCH   1  24
ATOM     24  C   UNL A   1      33.346  29.126  27.255  1.00  0.00     0.042 C 
BRANCH  24  25
ATOM     25  C   UNL A   1      34.817  29.472  27.490  1.00  0.00     0.118 C 
BRANCH  25  26
ATOM     26  N   UNL A   1      35.053  30.222  28.718  1.00  0.00    -0.352 N 
ATOM     27  C   UNL A   1      36.157  30.435  29.509  1.00  0.00     0.251 C 
ATOM     28  H   UNL A   1      34.245  30.674  29.052  1.00  0.00     0.163 HD
ATOM     29  O   UNL A   1      35.978  31.044  30.565  1.00  0.00    -0.269 OA
BRANCH  27  30
ATOM     30  C   UNL A   1      37.525  29.947  29.184  1.00  0.00     0.039 A 
ATOM     31  C   UNL A   1      38.390  29.659  30.256  1.00  0.00     0.014 A 
ATOM     32  C   UNL A   1      38.016  29.831  27.885  1.00  0.00     0.014 A 
ATOM     33  C   UNL A   1      39.684  29.174  30.033  1.00  0.00     0.010 A 
ATOM     34  C   UNL A   1      39.296  29.313  27.657  1.00  0.00     0.010 A 
ATOM     35  C   UNL A   1      40.144  28.982  28.728  1.00  0.00    -0.014 A 
BRANCH  35  36
ATOM     36  C   UNL A   1      41.541  28.557  28.452  1.00  0.00     0.031 A 
ATOM     37  C   UNL A   1      42.630  29.596  28.438  1.00  0.00     0.074 A 
ATOM     38  C   UNL A   1      41.836  27.276  28.163  1.00  0.00     0.049 A 
ATOM     39  N   UNL A   1      43.889  29.472  28.105  1.00  0.00    -0.248 NA
ATOM     40  C   UNL A   1      42.241  30.960  28.833  1.00  0.00     0.031 C 
ATOM     41  C   UNL A   1      40.882  26.166  28.143  1.00  0.00     0.029 A 
ATOM     42  N   UNL A   1      43.029  26.695  27.808  1.00  0.00    -0.354 N 
ATOM     43  C   UNL A   1      44.434  30.746  28.218  1.00  0.00     0.074 A 
ATOM     44  C   UNL A   1      43.364  31.631  28.626  1.00  0.00     0.031 C 
ATOM     45  C   UNL A   1      41.526  25.041  27.783  1.00  0.00     0.029 A 
ATOM     46  C   UNL A   1      42.930  25.353  27.525  1.00  0.00     0.049 A 
ATOM     47  H   UNL A   1      43.878  27.193  27.761  1.00  0.00     0.167 HD
ATOM     48  C   UNL A   1      45.712  31.145  28.012  1.00  0.00     0.031 A 
ATOM     49  C   UNL A   1      43.861  24.477  27.094  1.00  0.00     0.031 A 
ATOM     50  C   UNL A   1      46.786  30.270  27.630  1.00  0.00     0.049 A 
ATOM     51  C   UNL A   1      45.276  24.944  26.874  1.00  0.00     0.074 A 
ATOM     52  C   UNL A   1      48.121  30.577  27.439  1.00  0.00     0.029 A 
ATOM     53  N   UNL A   1      46.648  28.912  27.388  1.00  0.00    -0.354 N 
ATOM     54  N   UNL A   1      45.781  26.146  27.019  1.00  0.00    -0.248 NA
ATOM     55  C   UNL A   1      46.251  23.930  26.443  1.00  0.00     0.031 C 
ATOM     56  C   UNL A   1      48.788  29.410  27.052  1.00  0.00     0.029 A 
ATOM     57  C   UNL A   1      47.873  28.369  27.041  1.00  0.00     0.049 A 
ATOM     58  H   UNL A   1      45.805  28.408  27.454  1.00  0.00     0.167 HD
ATOM     59  C   UNL A   1      47.137  26.024  26.730  1.00  0.00     0.074 A 
ATOM     60  C   UNL A   1      47.375  24.633  26.408  1.00  0.00     0.031 C 
ATOM     61  C   UNL A   1      48.098  26.980  26.736  1.00  0.00     0.031 A 
BRANCH  48  62
ATOM     62  C   UNL A   1      46.006  32.610  28.181  1.00  0.00    -0.014 A 
ATOM     63  C   UNL A   1      45.892  33.501  27.099  1.00  0.00     0.010 A 
ATOM     64  C   UNL A   1      46.395  33.101  29.440  1.00  0.00     0.010 A 
ATOM     65  C   UNL A   1      46.209  34.852  27.263  1.00  0.00     0.020 A 
ATOM     66  C   UNL A   1      46.689  34.456  29.612  1.00  0.00     0.020 A 
ATOM     67  C   UNL A   1      46.615  35.318  28.516  1.00  0.00     0.054 A 
BRANCH  67  68
ATOM     68  S   UNL A   1      47.021  37.075  28.705  1.00  0.00     0.124 S 
ATOM     69  O   UNL A   1      47.388  37.445  27.340  1.00  0.00    -0.237 OA
ATOM     70  O   UNL A   1      45.769  37.646  29.195  1.00  0.00    -0.237 OA
ATOM     71  O   UNL A   1      48.120  37.074  29.668  1.00  0.00    -0.744 OA
ENDBRANCH  67  68
ENDBRANCH  48  62
BRANCH  49  72
ATOM     72  C   UNL A   1      43.493  23.057  26.840  1.00  0.00    -0.014 A 
ATOM     73  C   UNL A   1      42.983  22.258  27.878  1.00  0.00     0.010 A 
ATOM     74  C   UNL A   1      43.677  22.492  25.566  1.00  0.00     0.010 A 
ATOM     75  C   UNL A   1      42.688  20.911  27.654  1.00  0.00     0.020 A 
ATOM     76  C   UNL A   1      43.362  21.150  25.333  1.00  0.00     0.020 A 
ATOM     77  C   UNL A   1      42.883  20.363  26.383  1.00  0.00     0.054 A 
BRANCH  77  78
ATOM     78  S   UNL A   1      42.466  18.619  26.102  1.00  0.00     0.124 S 
ATOM     79  O   UNL A   1      43.382  18.259  25.026  1.00  0.00    -0.237 OA
ATOM     80  O   UNL A   1      42.744  18.011  27.401  1.00  0.00    -0.237 OA
ATOM     81  O   UNL A   1      41.052  18.665  25.735  1.00  0.00    -0.744 OA
ENDBRANCH  77  78
ENDBRANCH  49  72
BRANCH  61  82
ATOM     82  C   UNL A   1      49.508  26.549  26.431  1.00  0.00    -0.014 A 
ATOM     83  C   UNL A   1      50.308  25.927  27.404  1.00  0.00     0.010 A 
ATOM     84  C   UNL A   1      50.018  26.724  25.131  1.00  0.00     0.010 A 
ATOM     85  C   UNL A   1      51.606  25.513  27.092  1.00  0.00     0.020 A 
ATOM     86  C   UNL A   1      51.307  26.292  24.808  1.00  0.00     0.020 A 
ATOM     87  C   UNL A   1      52.099  25.702  25.796  1.00  0.00     0.054 A 
BRANCH  87  88
ATOM     88  S   UNL A   1      53.770  25.120  25.396  1.00  0.00     0.124 S 
ATOM     89  O   UNL A   1      53.952  25.629  24.039  1.00  0.00    -0.237 OA
ATOM     90  O   UNL A   1      54.590  25.761  26.422  1.00  0.00    -0.237 OA
ATOM     91  O   UNL A   1      53.666  23.667  25.510  1.00  0.00    -0.744 OA
ENDBRANCH  87  88
ENDBRANCH  61  82
ENDBRANCH  35  36
ENDBRANCH  27  30
ENDBRANCH  25  26
ENDBRANCH  24  25
ENDBRANCH   1  24
TORSDOF 18
ENDMDL
MODEL 3
REMARK VINA RESULT:     -10.1      1.532      2.274
REMARK SMILES CC[N@@H+]1CC[C@H](C[NH2+]Cc2cc(C(=O)NCCCNC(=O)c3ccc(-c4c5nc(c(-c6ccc(S(=O)(=O)[O-])cc6)c6ccc([nH]6)c(-c6ccc(S(=O)(=O)[O-])cc6)c6nc(c(-c7ccc(S(=O)(=O)[O-])cc7)c7ccc4[nH]7)C=C6)C=C5)cc3)cs2)C1
REMARK SMILES IDX 16 1 15 2 13 3 14 4 12 6 10 7 11 8 83 9 82 10 9 11 8 12 7 15
REMARK SMILES IDX 6 16 3 17 4 18 84 19 5 21 2 22 1 23 17 24 18 25 19 26 20 27
REMARK SMILES IDX 21 29 22 30 23 31 81 32 24 33 80 34 25 35 26 36 27 37 74 38
REMARK SMILES IDX 28 39 79 40 73 41 75 42 29 43 78 44 72 45 71 46 30 48 60 49
REMARK SMILES IDX 41 50 59 51 42 52 45 53 58 54 76 55 43 56 44 57 57 59 77 60
REMARK SMILES IDX 46 61 31 62 32 63 40 64 33 65 39 66 34 67 35 68 36 69 37 70
REMARK SMILES IDX 38 71 61 72 62 73 70 74 63 75 69 76 64 77 65 78 66 79 67 80
REMARK SMILES IDX 68 81 47 82 48 83 56 84 49 85 55 86 50 87 51 88 52 89 53 90
REMARK SMILES IDX 54 91
REMARK H PARENT 15 5 8 13 8 14 3 20 19 28 75 47 45 58
REMARK Flexibility Score: inf
ROOT
ATOM      1  C   UNL A   1      32.940  28.691  24.109  1.00  0.00     0.118 C 
ENDROOT
BRANCH   1   2
ATOM      2  N   UNL A   1      33.222  27.889  22.929  1.00  0.00    -0.352 N 
ATOM      3  C   UNL A   1      33.398  26.541  22.739  1.00  0.00     0.252 C 
ATOM      4  O   UNL A   1      33.742  26.175  21.610  1.00  0.00    -0.269 OA
ATOM      5  H   UNL A   1      33.304  28.418  22.103  1.00  0.00     0.163 HD
BRANCH   3   6
ATOM      6  C   UNL A   1      33.243  25.575  23.826  1.00  0.00     0.051 A 
ATOM      7  C   UNL A   1      33.670  23.839  25.362  1.00  0.00     0.059 A 
ATOM      8  C   UNL A   1      34.218  24.735  24.459  1.00  0.00     0.035 A 
ATOM      9  S   UNL A   1      32.020  24.184  25.641  1.00  0.00    -0.142 S 
ATOM     10  C   UNL A   1      32.027  25.430  24.475  1.00  0.00     0.079 A 
BRANCH   7  11
ATOM     11  C   UNL A   1      34.334  22.680  26.057  1.00  0.00     0.308 C 
BRANCH  11  12
ATOM     12  N   UNL A   1      34.361  21.475  25.212  1.00  0.00    -0.341 N 
ATOM     13  H   UNL A   1      35.274  21.408  24.761  1.00  0.00     0.346 HD
ATOM     14  H   UNL A   1      34.187  20.665  25.807  1.00  0.00     0.346 HD
BRANCH  12  15
ATOM     15  C   UNL A   1      33.325  21.514  24.183  1.00  0.00     0.270 C 
BRANCH  15  16
ATOM     16  C   UNL A   1      32.554  20.207  24.005  1.00  0.00     0.105 C 
ATOM     17  N   UNL A   1      32.967  17.851  23.866  1.00  0.00    -0.335 N 
ATOM     18  C   UNL A   1      32.175  18.252  22.693  1.00  0.00     0.262 C 
ATOM     19  C   UNL A   1      33.391  19.062  24.566  1.00  0.00     0.271 C 
ATOM     20  H   UNL A   1      32.393  17.296  24.499  1.00  0.00     0.348 HD
ATOM     21  C   UNL A   1      32.342  19.761  22.566  1.00  0.00     0.076 C 
BRANCH  17  22
ATOM     22  C   UNL A   1      34.069  16.952  23.516  1.00  0.00     0.258 C 
ATOM     23  C   UNL A   1      34.927  16.560  24.717  1.00  0.00     0.071 C 
ENDBRANCH  17  22
ENDBRANCH  15  16
ENDBRANCH  12  15
ENDBRANCH  11  12
ENDBRANCH   7  11
ENDBRANCH   3   6
ENDBRANCH   1   2
BRANCH   1  24
ATOM     24  C   UNL A   1      34.004  28.580  25.198  1.00  0.00     0.042 C 
BRANCH  24  25
ATOM     25  C   UNL A   1      33.481  28.561  26.635  1.00  0.00     0.118 C 
BRANCH  25  26
ATOM     26  N   UNL A   1      33.481  29.871  27.275  1.00  0.00    -0.352 N 
ATOM     27  C   UNL A   1      34.408  30.579  28.001  1.00  0.00     0.251 C 
ATOM     28  H   UNL A   1      32.630  30.353  27.162  1.00  0.00     0.163 HD
ATOM     29  O   UNL A   1      34.034  31.640  28.503  1.00  0.00    -0.269 OA
BRANCH  27  30
ATOM     30  C   UNL A   1      35.806  30.126  28.239  1.00  0.00     0.039 A 
ATOM     31  C   UNL A   1      36.133  29.658  29.525  1.00  0.00     0.014 A 
ATOM     32  C   UNL A   1      36.820  30.209  27.286  1.00  0.00     0.014 A 
ATOM     33  C   UNL A   1      37.419  29.192  29.822  1.00  0.00     0.010 A 
ATOM     34  C   UNL A   1      38.097  29.712  27.567  1.00  0.00     0.010 A 
ATOM     35  C   UNL A   1      38.411  29.202  28.838  1.00  0.00    -0.014 A 
BRANCH  35  36
ATOM     36  C   UNL A   1      39.809  28.802  29.142  1.00  0.00     0.031 A 
ATOM     37  C   UNL A   1      40.740  29.813  29.757  1.00  0.00     0.074 A 
ATOM     38  C   UNL A   1      40.269  27.576  28.828  1.00  0.00     0.049 A 
ATOM     39  N   UNL A   1      42.023  29.722  29.993  1.00  0.00    -0.248 NA
ATOM     40  C   UNL A   1      40.146  31.106  30.135  1.00  0.00     0.031 C 
ATOM     41  C   UNL A   1      39.478  26.497  28.233  1.00  0.00     0.029 A 
ATOM     42  N   UNL A   1      41.527  27.037  28.950  1.00  0.00    -0.354 N 
ATOM     43  C   UNL A   1      42.397  30.955  30.517  1.00  0.00     0.074 A 
ATOM     44  C   UNL A   1      41.210  31.783  30.539  1.00  0.00     0.031 C 
ATOM     45  C   UNL A   1      40.274  25.431  28.031  1.00  0.00     0.029 A 
ATOM     46  C   UNL A   1      41.631  25.757  28.461  1.00  0.00     0.049 A 
ATOM     47  H   UNL A   1      42.283  27.523  29.352  1.00  0.00     0.167 HD
ATOM     48  C   UNL A   1      43.614  31.360  30.950  1.00  0.00     0.031 A 
ATOM     49  C   UNL A   1      42.702  24.943  28.358  1.00  0.00     0.031 A 
ATOM     50  C   UNL A   1      44.792  30.537  30.953  1.00  0.00     0.049 A 
ATOM     51  C   UNL A   1      44.046  25.416  28.849  1.00  0.00     0.074 A 
ATOM     52  C   UNL A   1      46.060  30.849  31.412  1.00  0.00     0.029 A 
ATOM     53  N   UNL A   1      44.845  29.235  30.481  1.00  0.00    -0.354 N 
ATOM     54  N   UNL A   1      44.372  26.573  29.373  1.00  0.00    -0.248 NA
ATOM     55  C   UNL A   1      45.163  24.465  28.745  1.00  0.00     0.031 C 
ATOM     56  C   UNL A   1      46.889  29.745  31.190  1.00  0.00     0.029 A 
ATOM     57  C   UNL A   1      46.126  28.732  30.630  1.00  0.00     0.049 A 
ATOM     58  H   UNL A   1      44.085  28.741  30.098  1.00  0.00     0.167 HD
ATOM     59  C   UNL A   1      45.724  26.476  29.692  1.00  0.00     0.074 A 
ATOM     60  C   UNL A   1      46.152  25.147  29.307  1.00  0.00     0.031 C 
ATOM     61  C   UNL A   1      46.535  27.404  30.256  1.00  0.00     0.031 A 
BRANCH  48  62
ATOM     62  C   UNL A   1      43.727  32.777  31.441  1.00  0.00    -0.014 A 
ATOM     63  C   UNL A   1      43.466  33.101  32.785  1.00  0.00     0.010 A 
ATOM     64  C   UNL A   1      44.105  33.795  30.548  1.00  0.00     0.010 A 
ATOM     65  C   UNL A   1      43.534  34.428  33.215  1.00  0.00     0.020 A 
ATOM     66  C   UNL A   1      44.198  35.120  30.982  1.00  0.00     0.020 A 
ATOM     67  C   UNL A   1      43.889  35.430  32.308  1.00  0.00     0.054 A 
BRANCH  67  68
ATOM     68  S   UNL A   1      43.973  37.146  32.889  1.00  0.00     0.124 S 
ATOM     69  O   UNL A   1      43.841  37.891  31.639  1.00  0.00    -0.237 OA
ATOM     70  O   UNL A   1      42.832  37.236  33.797  1.00  0.00    -0.237 OA
ATOM     71  O   UNL A   1      45.282  37.230  33.530  1.00  0.00    -0.744 OA
ENDBRANCH  67  68
ENDBRANCH  48  62
BRANCH  49  72
ATOM     72  C   UNL A   1      42.557  23.585  27.766  1.00  0.00    -0.014 A 
ATOM     73  C   UNL A   1      42.227  22.486  28.578  1.00  0.00     0.010 A 
ATOM     74  C   UNL A   1      42.775  23.381  26.392  1.00  0.00     0.010 A 
ATOM     75  C   UNL A   1      42.143  21.203  28.033  1.00  0.00     0.020 A 
ATOM     76  C   UNL A   1      42.670  22.101  25.839  1.00  0.00     0.020 A 
ATOM     77  C   UNL A   1      42.370  21.017  26.666  1.00  0.00     0.054 A 
BRANCH  77  78
ATOM     78  S   UNL A   1      42.227  19.348  25.969  1.00  0.00     0.124 S 
ATOM     79  O   UNL A   1      40.787  19.229  25.762  1.00  0.00    -0.237 OA
ATOM     80  O   UNL A   1      43.035  19.438  24.755  1.00  0.00    -0.237 OA
ATOM     81  O   UNL A   1      42.784  18.494  27.016  1.00  0.00    -0.744 OA
ENDBRANCH  77  78
ENDBRANCH  49  72
BRANCH  61  82
ATOM     82  C   UNL A   1      47.958  27.002  30.539  1.00  0.00    -0.014 A 
ATOM     83  C   UNL A   1      49.006  27.370  29.678  1.00  0.00     0.010 A 
ATOM     84  C   UNL A   1      48.253  26.290  31.717  1.00  0.00     0.010 A 
ATOM     85  C   UNL A   1      50.323  27.006  29.974  1.00  0.00     0.020 A 
ATOM     86  C   UNL A   1      49.570  25.944  32.027  1.00  0.00     0.020 A 
ATOM     87  C   UNL A   1      50.596  26.292  31.146  1.00  0.00     0.054 A 
BRANCH  87  88
ATOM     88  S   UNL A   1      52.316  25.865  31.536  1.00  0.00     0.124 S 
ATOM     89  O   UNL A   1      52.658  26.869  32.540  1.00  0.00    -0.237 OA
ATOM     90  O   UNL A   1      52.206  24.495  32.030  1.00  0.00    -0.237 OA
ATOM     91  O   UNL A   1      53.004  26.004  30.254  1.00  0.00    -0.744 OA
ENDBRANCH  87  88
ENDBRANCH  61  82
ENDBRANCH  35  36
ENDBRANCH  27  30
ENDBRANCH  25  26
ENDBRANCH  24  25
ENDBRANCH   1  24
TORSDOF 18
ENDMDL
