MODEL 1
REMARK VINA RESULT:     -12.2      0.000      0.000
REMARK SMILES CCCCc1ncc(C[N@H+]2C[C@@H]3c4ccccc4OC[C@]3(C(=O)NCCCNC(=O)c3ccc(-c4c5nc(c(-c6ccc(S(=O)(=O)[O-])cc6)c6ccc([nH]6)c(-c6ccc(S(=O)(=O)[O-])cc6)c6nc(c(-c7ccc(S(=O)(=O)[O-])cc7)c7ccc4[nH]7)C=C6)C=C5)cc3)C2)[nH]1
REMARK SMILES IDX 25 1 24 2 22 3 23 4 21 6 10 7 11 8 91 9 12 11 13 12 20 13
REMARK SMILES IDX 14 14 18 15 19 16 15 17 17 18 16 19 9 20 8 21 5 22 6 23
REMARK SMILES IDX 92 24 7 25 4 27 3 28 2 29 1 30 26 31 27 32 28 33 29 34 30 36
REMARK SMILES IDX 31 37 32 38 90 39 33 40 89 41 34 42 35 43 36 44 83 45 37 46
REMARK SMILES IDX 88 47 82 48 84 49 38 50 87 51 81 52 80 53 39 55 69 56 50 57
REMARK SMILES IDX 68 58 51 59 54 60 67 61 85 62 52 63 53 64 66 66 86 67 55 68
REMARK SMILES IDX 40 69 41 70 49 71 42 72 48 73 43 74 44 75 45 76 46 77 47 78
REMARK SMILES IDX 70 79 71 80 79 81 72 82 78 83 73 84 74 85 75 86 76 87 77 88
REMARK SMILES IDX 56 89 57 90 65 91 58 92 64 93 59 94 60 95 61 96 62 97 63 98
REMARK H PARENT 24 5 10 10 92 26 28 35 84 54 54 65
REMARK Flexibility Score: inf
ROOT
ATOM      1  C   UNL A   1      33.567  26.779  26.049  1.00  0.00     0.117 C 
ENDROOT
BRANCH   1   2
ATOM      2  N   UNL A   1      32.236  26.215  26.286  1.00  0.00    -0.355 N 
ATOM      3  C   UNL A   1      31.868  24.880  26.183  1.00  0.00     0.236 C 
ATOM      4  O   UNL A   1      30.943  24.475  26.892  1.00  0.00    -0.274 OA
ATOM      5  H   UNL A   1      31.529  26.849  26.548  1.00  0.00     0.163 HD
BRANCH   3   6
ATOM      6  C   UNL A   1      32.655  23.997  25.132  1.00  0.00     0.144 C 
ATOM      7  N   UNL A   1      32.262  24.650  22.858  1.00  0.00    -0.328 N 
ATOM      8  C   UNL A   1      33.571  24.029  22.815  1.00  0.00     0.272 C 
ATOM      9  C   UNL A   1      32.179  25.209  24.202  1.00  0.00     0.284 C 
ATOM     10  H   UNL A   1      31.523  23.966  22.695  1.00  0.00     0.348 HD
ATOM     11  C   UNL A   1      34.026  24.043  24.294  1.00  0.00     0.103 C 
ATOM     12  C   UNL A   1      35.088  22.988  24.492  1.00  0.00     0.004 A 
ATOM     13  C   UNL A   1      33.313  23.404  26.455  1.00  0.00     0.253 C 
ATOM     14  C   UNL A   1      36.252  22.954  23.708  1.00  0.00     0.008 A 
ATOM     15  C   UNL A   1      34.949  22.069  25.518  1.00  0.00     0.123 A 
ATOM     16  O   UNL A   1      33.824  22.065  26.280  1.00  0.00    -0.492 OA
ATOM     17  C   UNL A   1      37.251  22.012  23.960  1.00  0.00     0.001 A 
ATOM     18  C   UNL A   1      35.942  21.127  25.783  1.00  0.00     0.047 A 
ATOM     19  C   UNL A   1      37.102  21.106  25.008  1.00  0.00     0.004 A 
BRANCH   7  20
ATOM     20  C   UNL A   1      31.923  25.545  21.753  1.00  0.00     0.319 C 
BRANCH  20  21
ATOM     21  C   UNL A   1      31.845  26.973  22.146  1.00  0.00     0.090 A 
ATOM     22  C   UNL A   1      30.953  28.776  23.054  1.00  0.00     0.106 A 
ATOM     23  N   UNL A   1      32.242  29.035  22.981  1.00  0.00    -0.241 NA
ATOM     24  N   UNL A   1      30.657  27.628  22.367  1.00  0.00    -0.341 N 
ATOM     25  C   UNL A   1      32.806  27.919  22.417  1.00  0.00     0.140 A 
ATOM     26  H   UNL A   1      29.762  27.328  22.084  1.00  0.00     0.168 HD
BRANCH  22  27
ATOM     27  C   UNL A   1      29.928  29.506  23.849  1.00  0.00     0.075 C 
BRANCH  27  28
ATOM     28  C   UNL A   1      28.870  30.166  22.951  1.00  0.00     0.008 C 
BRANCH  28  29
ATOM     29  C   UNL A   1      28.165  31.395  23.542  1.00  0.00    -0.003 C 
ATOM     30  C   UNL A   1      28.675  32.716  22.986  1.00  0.00     0.004 C 
ENDBRANCH  28  29
ENDBRANCH  27  28
ENDBRANCH  22  27
ENDBRANCH  20  21
ENDBRANCH   7  20
ENDBRANCH   3   6
ENDBRANCH   1   2
BRANCH   1  31
ATOM     31  C   UNL A   1      33.663  28.286  26.159  1.00  0.00     0.042 C 
BRANCH  31  32
ATOM     32  C   UNL A   1      33.079  28.857  27.439  1.00  0.00     0.118 C 
BRANCH  32  33
ATOM     33  N   UNL A   1      33.311  30.290  27.609  1.00  0.00    -0.352 N 
ATOM     34  C   UNL A   1      34.427  30.998  27.995  1.00  0.00     0.251 C 
ATOM     35  H   UNL A   1      32.527  30.852  27.412  1.00  0.00     0.163 HD
ATOM     36  O   UNL A   1      34.331  32.211  28.179  1.00  0.00    -0.269 OA
BRANCH  34  37
ATOM     37  C   UNL A   1      35.715  30.314  28.243  1.00  0.00     0.039 A 
ATOM     38  C   UNL A   1      35.953  29.651  29.442  1.00  0.00     0.014 A 
ATOM     39  C   UNL A   1      36.715  30.347  27.266  1.00  0.00     0.014 A 
ATOM     40  C   UNL A   1      37.245  29.269  29.773  1.00  0.00     0.010 A 
ATOM     41  C   UNL A   1      37.984  29.825  27.547  1.00  0.00     0.010 A 
ATOM     42  C   UNL A   1      38.282  29.345  28.831  1.00  0.00    -0.014 A 
BRANCH  42  43
ATOM     43  C   UNL A   1      39.654  28.924  29.227  1.00  0.00     0.031 A 
ATOM     44  C   UNL A   1      40.466  29.748  30.194  1.00  0.00     0.074 A 
ATOM     45  C   UNL A   1      40.130  27.739  28.789  1.00  0.00     0.049 A 
ATOM     46  N   UNL A   1      41.662  29.509  30.671  1.00  0.00    -0.248 NA
ATOM     47  C   UNL A   1      39.867  30.997  30.694  1.00  0.00     0.031 C 
ATOM     48  C   UNL A   1      39.420  26.833  27.881  1.00  0.00     0.029 A 
ATOM     49  N   UNL A   1      41.287  27.063  29.087  1.00  0.00    -0.354 N 
ATOM     50  C   UNL A   1      41.965  30.583  31.501  1.00  0.00     0.074 A 
ATOM     51  C   UNL A   1      40.842  31.492  31.444  1.00  0.00     0.031 C 
ATOM     52  C   UNL A   1      40.101  25.685  27.782  1.00  0.00     0.029 A 
ATOM     53  C   UNL A   1      41.347  25.805  28.531  1.00  0.00     0.049 A 
ATOM     54  H   UNL A   1      42.004  27.442  29.645  1.00  0.00     0.167 HD
ATOM     55  C   UNL A   1      43.073  30.784  32.254  1.00  0.00     0.031 A 
ATOM     56  C   UNL A   1      42.297  24.851  28.601  1.00  0.00     0.031 A 
ATOM     57  C   UNL A   1      44.177  29.863  32.323  1.00  0.00     0.049 A 
ATOM     58  C   UNL A   1      43.540  25.123  29.395  1.00  0.00     0.074 A 
ATOM     59  C   UNL A   1      45.352  29.988  33.044  1.00  0.00     0.029 A 
ATOM     60  N   UNL A   1      44.239  28.645  31.664  1.00  0.00    -0.354 N 
ATOM     61  N   UNL A   1      43.827  26.168  30.132  1.00  0.00    -0.248 NA
ATOM     62  C   UNL A   1      44.593  24.100  29.356  1.00  0.00     0.031 C 
ATOM     63  C   UNL A   1      46.147  28.872  32.778  1.00  0.00     0.029 A 
ATOM     64  C   UNL A   1      45.441  28.017  31.946  1.00  0.00     0.049 A 
ATOM     65  H   UNL A   1      43.534  28.279  31.082  1.00  0.00     0.167 HD
ATOM     66  C   UNL A   1      45.094  25.931  30.647  1.00  0.00     0.074 A 
ATOM     67  C   UNL A   1      45.509  24.632  30.157  1.00  0.00     0.031 C 
ATOM     68  C   UNL A   1      45.846  26.726  31.446  1.00  0.00     0.031 A 
BRANCH  55  69
ATOM     69  C   UNL A   1      43.165  32.051  33.068  1.00  0.00    -0.014 A 
ATOM     70  C   UNL A   1      42.873  32.019  34.444  1.00  0.00     0.010 A 
ATOM     71  C   UNL A   1      43.436  33.289  32.458  1.00  0.00     0.010 A 
ATOM     72  C   UNL A   1      42.823  33.200  35.190  1.00  0.00     0.020 A 
ATOM     73  C   UNL A   1      43.415  34.470  33.207  1.00  0.00     0.020 A 
ATOM     74  C   UNL A   1      43.088  34.421  34.563  1.00  0.00     0.054 A 
BRANCH  74  75
ATOM     75  S   UNL A   1      43.010  35.946  35.544  1.00  0.00     0.124 S 
ATOM     76  O   UNL A   1      41.923  36.673  34.899  1.00  0.00    -0.237 OA
ATOM     77  O   UNL A   1      42.730  35.447  36.889  1.00  0.00    -0.237 OA
ATOM     78  O   UNL A   1      44.341  36.527  35.373  1.00  0.00    -0.744 OA
ENDBRANCH  74  75
ENDBRANCH  55  69
BRANCH  56  79
ATOM     79  C   UNL A   1      42.075  23.558  27.897  1.00  0.00    -0.014 A 
ATOM     80  C   UNL A   1      41.469  22.478  28.567  1.00  0.00     0.010 A 
ATOM     81  C   UNL A   1      42.573  23.362  26.597  1.00  0.00     0.010 A 
ATOM     82  C   UNL A   1      41.436  21.209  27.985  1.00  0.00     0.020 A 
ATOM     83  C   UNL A   1      42.511  22.100  25.997  1.00  0.00     0.020 A 
ATOM     84  C   UNL A   1      41.977  21.024  26.711  1.00  0.00     0.054 A 
BRANCH  84  85
ATOM     85  S   UNL A   1      41.997  19.351  26.008  1.00  0.00     0.124 S 
ATOM     86  O   UNL A   1      42.513  18.565  27.124  1.00  0.00    -0.237 OA
ATOM     87  O   UNL A   1      40.592  19.126  25.675  1.00  0.00    -0.237 OA
ATOM     88  O   UNL A   1      42.893  19.474  24.861  1.00  0.00    -0.744 OA
ENDBRANCH  84  85
ENDBRANCH  56  79
BRANCH  68  89
ATOM     89  C   UNL A   1      47.210  26.236  31.852  1.00  0.00    -0.014 A 
ATOM     90  C   UNL A   1      48.267  26.269  30.924  1.00  0.00     0.010 A 
ATOM     91  C   UNL A   1      47.406  25.614  33.097  1.00  0.00     0.010 A 
ATOM     92  C   UNL A   1      49.485  25.652  31.218  1.00  0.00     0.020 A 
ATOM     93  C   UNL A   1      48.632  25.020  33.405  1.00  0.00     0.020 A 
ATOM     94  C   UNL A   1      49.654  25.018  32.452  1.00  0.00     0.054 A 
BRANCH  94  95
ATOM     95  S   UNL A   1      51.225  24.180  32.795  1.00  0.00     0.124 S 
ATOM     96  O   UNL A   1      51.114  22.974  31.981  1.00  0.00    -0.237 OA
ATOM     97  O   UNL A   1      52.215  25.155  32.346  1.00  0.00    -0.237 OA
ATOM     98  O   UNL A   1      51.188  23.964  34.240  1.00  0.00    -0.744 OA
ENDBRANCH  94  95
ENDBRANCH  68  89
ENDBRANCH  42  43
ENDBRANCH  34  37
ENDBRANCH  32  33
ENDBRANCH  31  32
ENDBRANCH   1  31
TORSDOF 18
ENDMDL
MODEL 2
REMARK VINA RESULT:     -11.8      1.169      7.956
REMARK SMILES CCCCc1ncc(C[N@H+]2C[C@@H]3c4ccccc4OC[C@]3(C(=O)NCCCNC(=O)c3ccc(-c4c5nc(c(-c6ccc(S(=O)(=O)[O-])cc6)c6ccc([nH]6)c(-c6ccc(S(=O)(=O)[O-])cc6)c6nc(c(-c7ccc(S(=O)(=O)[O-])cc7)c7ccc4[nH]7)C=C6)C=C5)cc3)C2)[nH]1
REMARK SMILES IDX 25 1 24 2 22 3 23 4 21 6 10 7 11 8 91 9 12 11 13 12 20 13
REMARK SMILES IDX 14 14 18 15 19 16 15 17 17 18 16 19 9 20 8 21 5 22 6 23
REMARK SMILES IDX 92 24 7 25 4 27 3 28 2 29 1 30 26 31 27 32 28 33 29 34 30 36
REMARK SMILES IDX 31 37 32 38 90 39 33 40 89 41 34 42 35 43 36 44 83 45 37 46
REMARK SMILES IDX 88 47 82 48 84 49 38 50 87 51 81 52 80 53 39 55 69 56 50 57
REMARK SMILES IDX 68 58 51 59 54 60 67 61 85 62 52 63 53 64 66 66 86 67 55 68
REMARK SMILES IDX 40 69 41 70 49 71 42 72 48 73 43 74 44 75 45 76 46 77 47 78
REMARK SMILES IDX 70 79 71 80 79 81 72 82 78 83 73 84 74 85 75 86 76 87 77 88
REMARK SMILES IDX 56 89 57 90 65 91 58 92 64 93 59 94 60 95 61 96 62 97 63 98
REMARK H PARENT 24 5 10 10 92 26 28 35 84 54 54 65
REMARK Flexibility Score: inf
ROOT
ATOM      1  C   UNL A   1      33.558  26.616  26.005  1.00  0.00     0.117 C 
ENDROOT
BRANCH   1   2
ATOM      2  N   UNL A   1      32.194  26.099  26.129  1.00  0.00    -0.355 N 
ATOM      3  C   UNL A   1      31.782  24.786  25.944  1.00  0.00     0.236 C 
ATOM      4  O   UNL A   1      30.795  24.391  26.571  1.00  0.00    -0.274 OA
ATOM      5  H   UNL A   1      31.495  26.750  26.369  1.00  0.00     0.163 HD
BRANCH   3   6
ATOM      6  C   UNL A   1      32.605  23.913  24.912  1.00  0.00     0.144 C 
ATOM      7  N   UNL A   1      32.387  24.666  22.645  1.00  0.00    -0.328 N 
ATOM      8  C   UNL A   1      33.673  23.997  22.662  1.00  0.00     0.272 C 
ATOM      9  C   UNL A   1      32.235  25.177  24.002  1.00  0.00     0.284 C 
ATOM     10  H   UNL A   1      31.637  24.018  22.407  1.00  0.00     0.348 HD
ATOM     11  C   UNL A   1      34.029  23.939  24.166  1.00  0.00     0.103 C 
ATOM     12  C   UNL A   1      35.038  22.837  24.391  1.00  0.00     0.004 A 
ATOM     13  C   UNL A   1      33.152  23.246  26.249  1.00  0.00     0.253 C 
ATOM     14  C   UNL A   1      36.249  22.788  23.682  1.00  0.00     0.008 A 
ATOM     15  C   UNL A   1      34.799  21.885  25.367  1.00  0.00     0.123 A 
ATOM     16  O   UNL A   1      33.626  21.896  26.055  1.00  0.00    -0.492 OA
ATOM     17  C   UNL A   1      37.195  21.800  23.961  1.00  0.00     0.001 A 
ATOM     18  C   UNL A   1      35.738  20.898  25.659  1.00  0.00     0.047 A 
ATOM     19  C   UNL A   1      36.945  20.862  24.960  1.00  0.00     0.004 A 
BRANCH   7  20
ATOM     20  C   UNL A   1      32.154  25.614  21.558  1.00  0.00     0.319 C 
BRANCH  20  21
ATOM     21  C   UNL A   1      31.915  27.003  22.019  1.00  0.00     0.090 A 
ATOM     22  C   UNL A   1      30.745  28.701  22.805  1.00  0.00     0.106 A 
ATOM     23  N   UNL A   1      31.999  29.001  23.071  1.00  0.00    -0.241 NA
ATOM     24  N   UNL A   1      30.680  27.604  21.986  1.00  0.00    -0.341 N 
ATOM     25  C   UNL A   1      32.736  27.951  22.586  1.00  0.00     0.140 A 
ATOM     26  H   UNL A   1      29.896  27.303  21.471  1.00  0.00     0.168 HD
BRANCH  22  27
ATOM     27  C   UNL A   1      29.524  29.336  23.372  1.00  0.00     0.075 C 
BRANCH  27  28
ATOM     28  C   UNL A   1      29.804  30.756  23.889  1.00  0.00     0.008 C 
BRANCH  28  29
ATOM     29  C   UNL A   1      28.785  31.829  23.479  1.00  0.00    -0.003 C 
ATOM     30  C   UNL A   1      27.340  31.424  23.727  1.00  0.00     0.004 C 
ENDBRANCH  28  29
ENDBRANCH  27  28
ENDBRANCH  22  27
ENDBRANCH  20  21
ENDBRANCH   7  20
ENDBRANCH   3   6
ENDBRANCH   1   2
BRANCH   1  31
ATOM     31  C   UNL A   1      33.710  28.106  26.226  1.00  0.00     0.042 C 
BRANCH  31  32
ATOM     32  C   UNL A   1      33.106  28.611  27.524  1.00  0.00     0.118 C 
BRANCH  32  33
ATOM     33  N   UNL A   1      33.254  30.050  27.728  1.00  0.00    -0.352 N 
ATOM     34  C   UNL A   1      34.328  30.814  28.124  1.00  0.00     0.251 C 
ATOM     35  H   UNL A   1      32.435  30.569  27.550  1.00  0.00     0.163 HD
ATOM     36  O   UNL A   1      34.162  32.015  28.338  1.00  0.00    -0.269 OA
BRANCH  34  37
ATOM     37  C   UNL A   1      35.656  30.203  28.348  1.00  0.00     0.039 A 
ATOM     38  C   UNL A   1      35.994  29.658  29.582  1.00  0.00     0.014 A 
ATOM     39  C   UNL A   1      36.594  30.186  27.309  1.00  0.00     0.014 A 
ATOM     40  C   UNL A   1      37.318  29.354  29.861  1.00  0.00     0.010 A 
ATOM     41  C   UNL A   1      37.899  29.738  27.553  1.00  0.00     0.010 A 
ATOM     42  C   UNL A   1      38.293  29.385  28.852  1.00  0.00    -0.014 A 
BRANCH  42  43
ATOM     43  C   UNL A   1      39.703  29.051  29.194  1.00  0.00     0.031 A 
ATOM     44  C   UNL A   1      40.298  27.722  28.803  1.00  0.00     0.074 A 
ATOM     45  C   UNL A   1      40.480  29.991  29.772  1.00  0.00     0.049 A 
ATOM     46  N   UNL A   1      41.517  27.283  28.993  1.00  0.00    -0.248 NA
ATOM     47  C   UNL A   1      39.423  26.760  28.113  1.00  0.00     0.031 C 
ATOM     48  C   UNL A   1      40.027  31.330  30.161  1.00  0.00     0.029 A 
ATOM     49  N   UNL A   1      41.817  29.995  30.080  1.00  0.00    -0.354 N 
ATOM     50  C   UNL A   1      41.546  25.994  28.470  1.00  0.00     0.074 A 
ATOM     51  C   UNL A   1      40.217  25.707  27.979  1.00  0.00     0.031 C 
ATOM     52  C   UNL A   1      41.082  32.056  30.553  1.00  0.00     0.029 A 
ATOM     53  C   UNL A   1      42.270  31.209  30.546  1.00  0.00     0.049 A 
ATOM     54  H   UNL A   1      42.396  29.206  29.979  1.00  0.00     0.167 HD
ATOM     55  C   UNL A   1      42.590  25.135  28.393  1.00  0.00     0.031 A 
ATOM     56  C   UNL A   1      43.498  31.605  30.936  1.00  0.00     0.031 A 
ATOM     57  C   UNL A   1      43.917  25.437  28.863  1.00  0.00     0.049 A 
ATOM     58  C   UNL A   1      44.625  30.617  30.895  1.00  0.00     0.074 A 
ATOM     59  C   UNL A   1      45.038  24.625  28.845  1.00  0.00     0.029 A 
ATOM     60  N   UNL A   1      44.308  26.646  29.420  1.00  0.00    -0.354 N 
ATOM     61  N   UNL A   1      44.618  29.386  30.443  1.00  0.00    -0.248 NA
ATOM     62  C   UNL A   1      45.921  31.059  31.429  1.00  0.00     0.031 C 
ATOM     63  C   UNL A   1      46.091  25.322  29.440  1.00  0.00     0.029 A 
ATOM     64  C   UNL A   1      45.647  26.594  29.767  1.00  0.00     0.049 A 
ATOM     65  H   UNL A   1      43.721  27.426  29.550  1.00  0.00     0.167 HD
ATOM     66  C   UNL A   1      45.905  28.904  30.636  1.00  0.00     0.074 A 
ATOM     67  C   UNL A   1      46.673  29.983  31.224  1.00  0.00     0.031 C 
ATOM     68  C   UNL A   1      46.399  27.674  30.358  1.00  0.00     0.031 A 
BRANCH  55  69
ATOM     69  C   UNL A   1      42.356  23.775  27.783  1.00  0.00    -0.014 A 
ATOM     70  C   UNL A   1      42.066  22.678  28.614  1.00  0.00     0.010 A 
ATOM     71  C   UNL A   1      42.526  23.559  26.403  1.00  0.00     0.010 A 
ATOM     72  C   UNL A   1      41.976  21.387  28.085  1.00  0.00     0.020 A 
ATOM     73  C   UNL A   1      42.409  22.273  25.866  1.00  0.00     0.020 A 
ATOM     74  C   UNL A   1      42.156  21.192  26.714  1.00  0.00     0.054 A 
BRANCH  74  75
ATOM     75  S   UNL A   1      42.045  19.509  26.044  1.00  0.00     0.124 S 
ATOM     76  O   UNL A   1      42.924  19.580  24.883  1.00  0.00    -0.237 OA
ATOM     77  O   UNL A   1      42.528  18.691  27.156  1.00  0.00    -0.237 OA
ATOM     78  O   UNL A   1      40.622  19.356  25.746  1.00  0.00    -0.744 OA
ENDBRANCH  74  75
ENDBRANCH  55  69
BRANCH  56  79
ATOM     79  C   UNL A   1      43.696  33.011  31.385  1.00  0.00    -0.014 A 
ATOM     80  C   UNL A   1      44.098  34.001  30.467  1.00  0.00     0.010 A 
ATOM     81  C   UNL A   1      43.598  33.343  32.748  1.00  0.00     0.010 A 
ATOM     82  C   UNL A   1      44.475  35.269  30.911  1.00  0.00     0.020 A 
ATOM     83  C   UNL A   1      43.943  34.624  33.191  1.00  0.00     0.020 A 
ATOM     84  C   UNL A   1      44.415  35.567  32.274  1.00  0.00     0.054 A 
BRANCH  84  85
ATOM     85  S   UNL A   1      44.986  37.193  32.838  1.00  0.00     0.124 S 
ATOM     86  O   UNL A   1      43.966  38.077  32.282  1.00  0.00    -0.237 OA
ATOM     87  O   UNL A   1      44.972  37.052  34.292  1.00  0.00    -0.237 OA
ATOM     88  O   UNL A   1      46.313  37.314  32.240  1.00  0.00    -0.744 OA
ENDBRANCH  84  85
ENDBRANCH  56  79
BRANCH  68  89
ATOM     89  C   UNL A   1      47.842  27.399  30.686  1.00  0.00    -0.014 A 
ATOM     90  C   UNL A   1      48.839  27.688  29.736  1.00  0.00     0.010 A 
ATOM     91  C   UNL A   1      48.193  26.729  31.870  1.00  0.00     0.010 A 
ATOM     92  C   UNL A   1      50.157  27.273  29.945  1.00  0.00     0.020 A 
ATOM     93  C   UNL A   1      49.515  26.335  32.094  1.00  0.00     0.020 A 
ATOM     94  C   UNL A   1      50.482  26.586  31.118  1.00  0.00     0.054 A 
BRANCH  94  95
ATOM     95  S   UNL A   1      52.186  26.010  31.349  1.00  0.00     0.124 S 
ATOM     96  O   UNL A   1      51.988  24.684  31.923  1.00  0.00    -0.237 OA
ATOM     97  O   UNL A   1      52.721  26.035  29.990  1.00  0.00    -0.237 OA
ATOM     98  O   UNL A   1      52.763  27.004  32.253  1.00  0.00    -0.744 OA
ENDBRANCH  94  95
ENDBRANCH  68  89
ENDBRANCH  42  43
ENDBRANCH  34  37
ENDBRANCH  32  33
ENDBRANCH  31  32
ENDBRANCH   1  31
TORSDOF 18
ENDMDL
MODEL 3
REMARK VINA RESULT:     -11.8      2.404      9.062
REMARK SMILES CCCCc1ncc(C[N@H+]2C[C@@H]3c4ccccc4OC[C@]3(C(=O)NCCCNC(=O)c3ccc(-c4c5nc(c(-c6ccc(S(=O)(=O)[O-])cc6)c6ccc([nH]6)c(-c6ccc(S(=O)(=O)[O-])cc6)c6nc(c(-c7ccc(S(=O)(=O)[O-])cc7)c7ccc4[nH]7)C=C6)C=C5)cc3)C2)[nH]1
REMARK SMILES IDX 25 1 24 2 22 3 23 4 21 6 10 7 11 8 91 9 12 11 13 12 20 13
REMARK SMILES IDX 14 14 18 15 19 16 15 17 17 18 16 19 9 20 8 21 5 22 6 23
REMARK SMILES IDX 92 24 7 25 4 27 3 28 2 29 1 30 26 31 27 32 28 33 29 34 30 36
REMARK SMILES IDX 31 37 32 38 90 39 33 40 89 41 34 42 35 43 36 44 83 45 37 46
REMARK SMILES IDX 88 47 82 48 84 49 38 50 87 51 81 52 80 53 39 55 69 56 50 57
REMARK SMILES IDX 68 58 51 59 54 60 67 61 85 62 52 63 53 64 66 66 86 67 55 68
REMARK SMILES IDX 40 69 41 70 49 71 42 72 48 73 43 74 44 75 45 76 46 77 47 78
REMARK SMILES IDX 70 79 71 80 79 81 72 82 78 83 73 84 74 85 75 86 76 87 77 88
REMARK SMILES IDX 56 89 57 90 65 91 58 92 64 93 59 94 60 95 61 96 62 97 63 98
REMARK H PARENT 24 5 10 10 92 26 28 35 84 54 54 65
REMARK Flexibility Score: inf
ROOT
ATOM      1  C   UNL A   1      32.967  26.326  25.741  1.00  0.00     0.117 C 
ENDROOT
BRANCH   1   2
ATOM      2  N   UNL A   1      33.045  25.882  24.349  1.00  0.00    -0.355 N 
ATOM      3  C   UNL A   1      33.197  24.576  23.900  1.00  0.00     0.236 C 
ATOM      4  O   UNL A   1      32.724  24.281  22.799  1.00  0.00    -0.274 OA
ATOM      5  H   UNL A   1      32.982  26.581  23.658  1.00  0.00     0.163 HD
BRANCH   3   6
ATOM      6  C   UNL A   1      33.999  23.584  24.835  1.00  0.00     0.144 C 
ATOM      7  N   UNL A   1      32.868  21.501  25.204  1.00  0.00    -0.328 N 
ATOM      8  C   UNL A   1      34.266  21.168  25.387  1.00  0.00     0.272 C 
ATOM      9  C   UNL A   1      32.888  22.597  24.242  1.00  0.00     0.284 C 
ATOM     10  H   UNL A   1      32.438  21.787  26.083  1.00  0.00     0.348 HD
ATOM     11  C   UNL A   1      35.009  22.340  24.701  1.00  0.00     0.103 C 
ATOM     12  C   UNL A   1      36.413  22.422  25.252  1.00  0.00     0.004 A 
ATOM     13  C   UNL A   1      35.123  24.700  24.685  1.00  0.00     0.253 C 
ATOM     14  C   UNL A   1      37.282  21.320  25.230  1.00  0.00     0.008 A 
ATOM     15  C   UNL A   1      36.885  23.632  25.731  1.00  0.00     0.123 A 
ATOM     16  O   UNL A   1      36.059  24.712  25.784  1.00  0.00    -0.492 OA
ATOM     17  C   UNL A   1      38.598  21.444  25.680  1.00  0.00     0.001 A 
ATOM     18  C   UNL A   1      38.198  23.770  26.177  1.00  0.00     0.047 A 
ATOM     19  C   UNL A   1      39.060  22.674  26.141  1.00  0.00     0.004 A 
BRANCH   7  20
ATOM     20  C   UNL A   1      31.961  20.392  24.915  1.00  0.00     0.319 C 
BRANCH  20  21
ATOM     21  C   UNL A   1      32.550  19.353  24.035  1.00  0.00     0.090 A 
ATOM     22  C   UNL A   1      33.746  17.568  23.533  1.00  0.00     0.106 A 
ATOM     23  N   UNL A   1      32.896  17.699  22.536  1.00  0.00    -0.241 NA
ATOM     24  N   UNL A   1      33.701  18.670  24.347  1.00  0.00    -0.341 N 
ATOM     25  C   UNL A   1      32.148  18.808  22.838  1.00  0.00     0.140 A 
ATOM     26  H   UNL A   1      34.367  18.924  25.026  1.00  0.00     0.168 HD
BRANCH  22  27
ATOM     27  C   UNL A   1      34.574  16.376  23.864  1.00  0.00     0.075 C 
BRANCH  27  28
ATOM     28  C   UNL A   1      34.252  15.824  25.262  1.00  0.00     0.008 C 
BRANCH  28  29
ATOM     29  C   UNL A   1      33.068  14.850  25.339  1.00  0.00    -0.003 C 
ATOM     30  C   UNL A   1      31.879  15.395  26.115  1.00  0.00     0.004 C 
ENDBRANCH  28  29
ENDBRANCH  27  28
ENDBRANCH  22  27
ENDBRANCH  20  21
ENDBRANCH   7  20
ENDBRANCH   3   6
ENDBRANCH   1   2
BRANCH   1  31
ATOM     31  C   UNL A   1      33.446  27.739  25.999  1.00  0.00     0.042 C 
BRANCH  31  32
ATOM     32  C   UNL A   1      33.135  28.260  27.391  1.00  0.00     0.118 C 
BRANCH  32  33
ATOM     33  N   UNL A   1      33.259  29.710  27.523  1.00  0.00    -0.352 N 
ATOM     34  C   UNL A   1      34.319  30.511  27.881  1.00  0.00     0.251 C 
ATOM     35  H   UNL A   1      32.432  30.206  27.319  1.00  0.00     0.163 HD
ATOM     36  O   UNL A   1      34.133  31.718  28.036  1.00  0.00    -0.269 OA
BRANCH  34  37
ATOM     37  C   UNL A   1      35.657  29.934  28.136  1.00  0.00     0.039 A 
ATOM     38  C   UNL A   1      35.989  29.422  29.386  1.00  0.00     0.014 A 
ATOM     39  C   UNL A   1      36.610  29.917  27.112  1.00  0.00     0.014 A 
ATOM     40  C   UNL A   1      37.316  29.153  29.690  1.00  0.00     0.010 A 
ATOM     41  C   UNL A   1      37.921  29.503  27.382  1.00  0.00     0.010 A 
ATOM     42  C   UNL A   1      38.304  29.185  28.694  1.00  0.00    -0.014 A 
BRANCH  42  43
ATOM     43  C   UNL A   1      39.716  28.890  29.063  1.00  0.00     0.031 A 
ATOM     44  C   UNL A   1      40.353  27.576  28.686  1.00  0.00     0.074 A 
ATOM     45  C   UNL A   1      40.457  29.852  29.651  1.00  0.00     0.049 A 
ATOM     46  N   UNL A   1      41.579  27.170  28.900  1.00  0.00    -0.248 NA
ATOM     47  C   UNL A   1      39.516  26.590  27.984  1.00  0.00     0.031 C 
ATOM     48  C   UNL A   1      39.962  31.180  30.027  1.00  0.00     0.029 A 
ATOM     49  N   UNL A   1      41.788  29.892  29.983  1.00  0.00    -0.354 N 
ATOM     50  C   UNL A   1      41.652  25.880  28.381  1.00  0.00     0.074 A 
ATOM     51  C   UNL A   1      40.340  25.557  27.868  1.00  0.00     0.031 C 
ATOM     52  C   UNL A   1      40.991  31.934  30.436  1.00  0.00     0.029 A 
ATOM     53  C   UNL A   1      42.201  31.119  30.453  1.00  0.00     0.049 A 
ATOM     54  H   UNL A   1      42.390  29.118  29.895  1.00  0.00     0.167 HD
ATOM     55  C   UNL A   1      42.720  25.050  28.326  1.00  0.00     0.031 A 
ATOM     56  C   UNL A   1      43.410  31.548  30.863  1.00  0.00     0.031 A 
ATOM     57  C   UNL A   1      44.029  25.388  28.819  1.00  0.00     0.049 A 
ATOM     58  C   UNL A   1      44.564  30.590  30.846  1.00  0.00     0.074 A 
ATOM     59  C   UNL A   1      45.171  24.606  28.824  1.00  0.00     0.029 A 
ATOM     60  N   UNL A   1      44.378  26.608  29.379  1.00  0.00    -0.354 N 
ATOM     61  N   UNL A   1      44.597  29.358  30.398  1.00  0.00    -0.248 NA
ATOM     62  C   UNL A   1      45.837  31.068  31.401  1.00  0.00     0.031 C 
ATOM     63  C   UNL A   1      46.195  25.332  29.435  1.00  0.00     0.029 A 
ATOM     64  C   UNL A   1      45.712  26.592  29.749  1.00  0.00     0.049 A 
ATOM     65  H   UNL A   1      43.768  27.373  29.495  1.00  0.00     0.167 HD
ATOM     66  C   UNL A   1      45.893  28.911  30.615  1.00  0.00     0.074 A 
ATOM     67  C   UNL A   1      46.621  30.012  31.213  1.00  0.00     0.031 C 
ATOM     68  C   UNL A   1      46.424  27.694  30.351  1.00  0.00     0.031 A 
BRANCH  55  69
ATOM     69  C   UNL A   1      42.533  23.682  27.716  1.00  0.00    -0.014 A 
ATOM     70  C   UNL A   1      42.129  22.606  28.528  1.00  0.00     0.010 A 
ATOM     71  C   UNL A   1      42.857  23.437  26.370  1.00  0.00     0.010 A 
ATOM     72  C   UNL A   1      42.077  21.307  28.014  1.00  0.00     0.020 A 
ATOM     73  C   UNL A   1      42.778  22.143  25.845  1.00  0.00     0.020 A 
ATOM     74  C   UNL A   1      42.410  21.083  26.676  1.00  0.00     0.054 A 
BRANCH  74  75
ATOM     75  S   UNL A   1      42.346  19.389  26.027  1.00  0.00     0.124 S 
ATOM     76  O   UNL A   1      42.811  18.604  27.165  1.00  0.00    -0.237 OA
ATOM     77  O   UNL A   1      40.934  19.231  25.683  1.00  0.00    -0.237 OA
ATOM     78  O   UNL A   1      43.253  19.430  24.881  1.00  0.00    -0.744 OA
ENDBRANCH  74  75
ENDBRANCH  55  69
BRANCH  56  79
ATOM     79  C   UNL A   1      43.563  32.960  31.311  1.00  0.00    -0.014 A 
ATOM     80  C   UNL A   1      43.928  33.963  30.391  1.00  0.00     0.010 A 
ATOM     81  C   UNL A   1      43.459  33.289  32.674  1.00  0.00     0.010 A 
ATOM     82  C   UNL A   1      44.264  35.243  30.833  1.00  0.00     0.020 A 
ATOM     83  C   UNL A   1      43.763  34.581  33.116  1.00  0.00     0.020 A 
ATOM     84  C   UNL A   1      44.199  35.539  32.196  1.00  0.00     0.054 A 
BRANCH  84  85
ATOM     85  S   UNL A   1      44.719  37.184  32.757  1.00  0.00     0.124 S 
ATOM     86  O   UNL A   1      45.544  36.858  33.916  1.00  0.00    -0.237 OA
ATOM     87  O   UNL A   1      45.440  37.705  31.598  1.00  0.00    -0.237 OA
ATOM     88  O   UNL A   1      43.458  37.857  33.055  1.00  0.00    -0.744 OA
ENDBRANCH  84  85
ENDBRANCH  56  79
BRANCH  68  89
ATOM     89  C   UNL A   1      47.868  27.459  30.705  1.00  0.00    -0.014 A 
ATOM     90  C   UNL A   1      48.864  27.648  29.730  1.00  0.00     0.010 A 
ATOM     91  C   UNL A   1      48.220  26.917  31.953  1.00  0.00     0.010 A 
ATOM     92  C   UNL A   1      50.183  27.260  29.981  1.00  0.00     0.020 A 
ATOM     93  C   UNL A   1      49.543  26.552  32.217  1.00  0.00     0.020 A 
ATOM     94  C   UNL A   1      50.510  26.701  31.220  1.00  0.00     0.054 A 
BRANCH  94  95
ATOM     95  S   UNL A   1      52.215  26.157  31.509  1.00  0.00     0.124 S 
ATOM     96  O   UNL A   1      52.802  26.261  30.177  1.00  0.00    -0.237 OA
ATOM     97  O   UNL A   1      52.699  27.126  32.489  1.00  0.00    -0.237 OA
ATOM     98  O   UNL A   1      52.058  24.796  32.019  1.00  0.00    -0.744 OA
ENDBRANCH  94  95
ENDBRANCH  68  89
ENDBRANCH  42  43
ENDBRANCH  34  37
ENDBRANCH  32  33
ENDBRANCH  31  32
ENDBRANCH   1  31
TORSDOF 18
ENDMDL
