MODEL 1
REMARK VINA RESULT:     -10.1      0.000      0.000
REMARK SMILES CCOc1ccc(Br)cc1/C=C/C(=O)NCCC(=O)NCCCNC(=O)c1ccc(-c2c3nc(c(-c4ccc(S(=O)(=O)[O-])cc4)c4ccc([nH]4)c(-c4ccc(S(=O)(=O)[O-])cc4)c4nc(c(-c5ccc(S(=O)(=O)[O-])cc5)c5ccc2[nH]5)C=C4)C=C3)cc1
REMARK SMILES IDX 18 1 19 2 20 3 17 5 16 6 15 7 13 8 14 9 12 11 11 12 10 13
REMARK SMILES IDX 4 14 5 15 6 16 9 17 7 18 8 19 3 20 2 21 1 22 21 23 22 24
REMARK SMILES IDX 23 25 24 26 25 27 26 29 27 30 28 31 86 32 29 33 85 34 30 35
REMARK SMILES IDX 31 36 32 37 79 38 33 39 84 40 78 41 80 42 34 43 83 44 77 45
REMARK SMILES IDX 76 46 35 48 65 49 46 50 64 51 47 52 50 53 63 54 81 55 48 56
REMARK SMILES IDX 49 57 62 59 82 60 51 61 36 62 37 63 45 64 38 65 44 66 39 67
REMARK SMILES IDX 40 68 41 69 42 70 43 71 66 72 67 73 75 74 68 75 74 76 69 77
REMARK SMILES IDX 70 78 71 79 72 80 73 81 52 82 53 83 61 84 54 85 60 86 55 87
REMARK SMILES IDX 56 88 57 89 58 90 59 91
REMARK H PARENT 20 4 15 10 24 28 80 47 50 58
REMARK Flexibility Score: inf
ROOT
ATOM      1  C   UNL A   1      30.226  25.867  25.892  1.00  0.00     0.221 C 
ATOM      2  O   UNL A   1      29.871  24.899  26.568  1.00  0.00    -0.275 OA
ATOM      3  N   UNL A   1      31.002  26.814  26.484  1.00  0.00    -0.356 N 
ATOM      4  H   UNL A   1      31.228  26.632  27.425  1.00  0.00     0.163 HD
ENDROOT
BRANCH   1   5
ATOM      5  C   UNL A   1      29.789  25.995  24.448  1.00  0.00     0.121 C 
BRANCH   5   6
ATOM      6  C   UNL A   1      30.605  25.078  23.542  1.00  0.00     0.126 C 
BRANCH   6   7
ATOM      7  N   UNL A   1      31.514  25.821  22.690  1.00  0.00    -0.352 N 
ATOM      8  C   UNL A   1      32.859  25.896  22.574  1.00  0.00     0.244 C 
ATOM      9  O   UNL A   1      33.325  26.864  21.969  1.00  0.00    -0.270 OA
ATOM     10  H   UNL A   1      31.044  26.403  22.051  1.00  0.00     0.163 HD
BRANCH   8  11
ATOM     11  C   UNL A   1      33.803  24.852  23.035  1.00  0.00     0.072 C 
ATOM     12  C   UNL A   1      34.552  24.788  24.144  1.00  0.00     0.017 C 
BRANCH  12  13
ATOM     13  C   UNL A   1      35.258  23.577  24.616  1.00  0.00     0.018 A 
ATOM     14  C   UNL A   1      34.656  22.313  24.449  1.00  0.00     0.126 A 
ATOM     15  C   UNL A   1      35.338  21.137  24.774  1.00  0.00     0.048 A 
ATOM     16  C   UNL A   1      36.616  21.202  25.318  1.00  0.00     0.019 A 
ATOM     17  C   UNL A   1      36.538  23.624  25.192  1.00  0.00     0.027 A 
ATOM     18  C   UNL A   1      37.208  22.444  25.529  1.00  0.00     0.018 A 
ATOM     19  Br  UNL A   1      38.959  22.529  26.243  1.00  0.00    -0.051 Br
BRANCH  14  20
ATOM     20  O   UNL A   1      33.440  22.192  23.822  1.00  0.00    -0.493 OA
BRANCH  20  21
ATOM     21  C   UNL A   1      32.588  21.241  24.470  1.00  0.00     0.226 C 
ATOM     22  C   UNL A   1      31.559  21.955  25.328  1.00  0.00     0.049 C 
ENDBRANCH  20  21
ENDBRANCH  14  20
ENDBRANCH  12  13
ENDBRANCH   8  11
ENDBRANCH   6   7
ENDBRANCH   5   6
ENDBRANCH   1   5
BRANCH   3  23
ATOM     23  C   UNL A   1      31.557  28.053  25.954  1.00  0.00     0.117 C 
BRANCH  23  24
ATOM     24  C   UNL A   1      33.031  27.922  25.589  1.00  0.00     0.042 C 
BRANCH  24  25
ATOM     25  C   UNL A   1      34.005  28.319  26.689  1.00  0.00     0.118 C 
BRANCH  25  26
ATOM     26  N   UNL A   1      33.835  29.695  27.119  1.00  0.00    -0.352 N 
ATOM     27  C   UNL A   1      34.641  30.490  27.898  1.00  0.00     0.251 C 
ATOM     28  H   UNL A   1      33.010  30.128  26.801  1.00  0.00     0.163 HD
ATOM     29  O   UNL A   1      34.200  31.564  28.301  1.00  0.00    -0.269 OA
BRANCH  27  30
ATOM     30  C   UNL A   1      36.017  30.073  28.272  1.00  0.00     0.039 A 
ATOM     31  C   UNL A   1      37.033  30.187  27.317  1.00  0.00     0.014 A 
ATOM     32  C   UNL A   1      36.310  29.515  29.518  1.00  0.00     0.014 A 
ATOM     33  C   UNL A   1      38.338  29.791  27.628  1.00  0.00     0.010 A 
ATOM     34  C   UNL A   1      37.627  29.205  29.859  1.00  0.00     0.010 A 
ATOM     35  C   UNL A   1      38.656  29.319  28.911  1.00  0.00    -0.014 A 
BRANCH  35  36
ATOM     36  C   UNL A   1      40.043  28.912  29.267  1.00  0.00     0.031 A 
ATOM     37  C   UNL A   1      40.950  29.865  30.004  1.00  0.00     0.074 A 
ATOM     38  C   UNL A   1      40.509  27.705  28.888  1.00  0.00     0.049 A 
ATOM     39  N   UNL A   1      42.201  29.709  30.357  1.00  0.00    -0.248 NA
ATOM     40  C   UNL A   1      40.387  31.177  30.366  1.00  0.00     0.031 C 
ATOM     41  C   UNL A   1      39.755  26.703  28.131  1.00  0.00     0.029 A 
ATOM     42  N   UNL A   1      41.735  27.116  29.083  1.00  0.00    -0.354 N 
ATOM     43  C   UNL A   1      42.579  30.907  30.956  1.00  0.00     0.074 A 
ATOM     44  C   UNL A   1      41.441  31.795  30.876  1.00  0.00     0.031 C 
ATOM     45  C   UNL A   1      40.522  25.615  27.953  1.00  0.00     0.029 A 
ATOM     46  C   UNL A   1      41.833  25.853  28.549  1.00  0.00     0.049 A 
ATOM     47  H   UNL A   1      42.474  27.558  29.562  1.00  0.00     0.167 HD
ATOM     48  C   UNL A   1      43.759  31.233  31.538  1.00  0.00     0.031 A 
ATOM     49  C   UNL A   1      42.862  24.982  28.536  1.00  0.00     0.031 A 
ATOM     50  C   UNL A   1      44.881  30.341  31.645  1.00  0.00     0.049 A 
ATOM     51  C   UNL A   1      44.155  25.356  29.208  1.00  0.00     0.074 A 
ATOM     52  C   UNL A   1      46.095  30.556  32.276  1.00  0.00     0.029 A 
ATOM     53  N   UNL A   1      44.929  29.062  31.113  1.00  0.00    -0.354 N 
ATOM     54  N   UNL A   1      44.469  26.471  29.825  1.00  0.00    -0.248 NA
ATOM     55  C   UNL A   1      45.226  24.351  29.195  1.00  0.00     0.031 C 
ATOM     56  C   UNL A   1      46.893  29.422  32.087  1.00  0.00     0.029 A 
ATOM     57  C   UNL A   1      46.157  28.482  31.384  1.00  0.00     0.049 A 
ATOM     58  H   UNL A   1      44.198  28.630  30.615  1.00  0.00     0.167 HD
ATOM     59  C   UNL A   1      45.765  26.290  30.295  1.00  0.00     0.074 A 
ATOM     60  C   UNL A   1      46.171  24.956  29.902  1.00  0.00     0.031 C 
ATOM     61  C   UNL A   1      46.547  27.153  30.990  1.00  0.00     0.031 A 
BRANCH  48  62
ATOM     62  C   UNL A   1      43.891  32.623  32.106  1.00  0.00    -0.014 A 
ATOM     63  C   UNL A   1      43.608  32.887  33.458  1.00  0.00     0.010 A 
ATOM     64  C   UNL A   1      44.334  33.675  31.283  1.00  0.00     0.010 A 
ATOM     65  C   UNL A   1      43.714  34.185  33.964  1.00  0.00     0.020 A 
ATOM     66  C   UNL A   1      44.470  34.970  31.792  1.00  0.00     0.020 A 
ATOM     67  C   UNL A   1      44.139  35.220  33.125  1.00  0.00     0.054 A 
BRANCH  67  68
ATOM     68  S   UNL A   1      44.277  36.894  33.809  1.00  0.00     0.124 S 
ATOM     69  O   UNL A   1      43.134  37.566  33.194  1.00  0.00    -0.237 OA
ATOM     70  O   UNL A   1      44.169  36.665  35.248  1.00  0.00    -0.237 OA
ATOM     71  O   UNL A   1      45.588  37.350  33.350  1.00  0.00    -0.744 OA
ENDBRANCH  67  68
ENDBRANCH  48  62
BRANCH  49  72
ATOM     72  C   UNL A   1      42.698  23.654  27.884  1.00  0.00    -0.014 A 
ATOM     73  C   UNL A   1      42.980  23.492  26.516  1.00  0.00     0.010 A 
ATOM     74  C   UNL A   1      42.283  22.538  28.634  1.00  0.00     0.010 A 
ATOM     75  C   UNL A   1      42.834  22.242  25.906  1.00  0.00     0.020 A 
ATOM     76  C   UNL A   1      42.162  21.281  28.032  1.00  0.00     0.020 A 
ATOM     77  C   UNL A   1      42.429  21.144  26.670  1.00  0.00     0.054 A 
BRANCH  77  78
ATOM     78  S   UNL A   1      42.305  19.520  25.869  1.00  0.00     0.124 S 
ATOM     79  O   UNL A   1      42.589  18.613  26.977  1.00  0.00    -0.237 OA
ATOM     80  O   UNL A   1      40.929  19.510  25.380  1.00  0.00    -0.237 OA
ATOM     81  O   UNL A   1      43.328  19.575  24.826  1.00  0.00    -0.744 OA
ENDBRANCH  77  78
ENDBRANCH  49  72
BRANCH  61  82
ATOM     82  C   UNL A   1      47.912  26.672  31.403  1.00  0.00    -0.014 A 
ATOM     83  C   UNL A   1      48.108  25.992  32.618  1.00  0.00     0.010 A 
ATOM     84  C   UNL A   1      49.003  26.852  30.534  1.00  0.00     0.010 A 
ATOM     85  C   UNL A   1      49.377  25.524  32.969  1.00  0.00     0.020 A 
ATOM     86  C   UNL A   1      50.269  26.365  30.869  1.00  0.00     0.020 A 
ATOM     87  C   UNL A   1      50.450  25.715  32.092  1.00  0.00     0.054 A 
BRANCH  87  88
ATOM     88  S   UNL A   1      52.079  25.058  32.545  1.00  0.00     0.124 S 
ATOM     89  O   UNL A   1      52.227  25.534  33.918  1.00  0.00    -0.237 OA
ATOM     90  O   UNL A   1      51.897  23.616  32.396  1.00  0.00    -0.237 OA
ATOM     91  O   UNL A   1      52.982  25.669  31.574  1.00  0.00    -0.744 OA
ENDBRANCH  87  88
ENDBRANCH  61  82
ENDBRANCH  35  36
ENDBRANCH  27  30
ENDBRANCH  25  26
ENDBRANCH  24  25
ENDBRANCH  23  24
ENDBRANCH   3  23
TORSDOF 19
ENDMDL
MODEL 2
REMARK VINA RESULT:     -10.0      2.347      3.040
REMARK SMILES CCOc1ccc(Br)cc1/C=C/C(=O)NCCC(=O)NCCCNC(=O)c1ccc(-c2c3nc(c(-c4ccc(S(=O)(=O)[O-])cc4)c4ccc([nH]4)c(-c4ccc(S(=O)(=O)[O-])cc4)c4nc(c(-c5ccc(S(=O)(=O)[O-])cc5)c5ccc2[nH]5)C=C4)C=C3)cc1
REMARK SMILES IDX 18 1 19 2 20 3 17 5 16 6 15 7 13 8 14 9 12 11 11 12 10 13
REMARK SMILES IDX 4 14 5 15 6 16 9 17 7 18 8 19 3 20 2 21 1 22 21 23 22 24
REMARK SMILES IDX 23 25 24 26 25 27 26 29 27 30 28 31 86 32 29 33 85 34 30 35
REMARK SMILES IDX 31 36 32 37 79 38 33 39 84 40 78 41 80 42 34 43 83 44 77 45
REMARK SMILES IDX 76 46 35 48 65 49 46 50 64 51 47 52 50 53 63 54 81 55 48 56
REMARK SMILES IDX 49 57 62 59 82 60 51 61 36 62 37 63 45 64 38 65 44 66 39 67
REMARK SMILES IDX 40 68 41 69 42 70 43 71 66 72 67 73 75 74 68 75 74 76 69 77
REMARK SMILES IDX 70 78 71 79 72 80 73 81 52 82 53 83 61 84 54 85 60 86 55 87
REMARK SMILES IDX 56 88 57 89 58 90 59 91
REMARK H PARENT 20 4 15 10 24 28 80 47 50 58
REMARK Flexibility Score: inf
ROOT
ATOM      1  C   UNL A   1      30.758  25.881  25.426  1.00  0.00     0.221 C 
ATOM      2  O   UNL A   1      30.543  25.117  26.369  1.00  0.00    -0.275 OA
ATOM      3  N   UNL A   1      31.615  26.919  25.622  1.00  0.00    -0.356 N 
ATOM      4  H   UNL A   1      32.009  26.963  26.523  1.00  0.00     0.163 HD
ENDROOT
BRANCH   1   5
ATOM      5  C   UNL A   1      30.066  25.669  24.096  1.00  0.00     0.121 C 
BRANCH   5   6
ATOM      6  C   UNL A   1      30.764  24.586  23.279  1.00  0.00     0.126 C 
BRANCH   6   7
ATOM      7  N   UNL A   1      31.596  25.144  22.230  1.00  0.00    -0.352 N 
ATOM      8  C   UNL A   1      32.921  25.379  22.093  1.00  0.00     0.244 C 
ATOM      9  O   UNL A   1      33.272  26.161  21.207  1.00  0.00    -0.270 OA
ATOM     10  H   UNL A   1      31.079  25.413  21.438  1.00  0.00     0.163 HD
BRANCH   8  11
ATOM     11  C   UNL A   1      33.982  24.692  22.867  1.00  0.00     0.072 C 
ATOM     12  C   UNL A   1      34.169  24.601  24.190  1.00  0.00     0.017 C 
BRANCH  12  13
ATOM     13  C   UNL A   1      35.117  23.673  24.844  1.00  0.00     0.018 A 
ATOM     14  C   UNL A   1      34.809  22.298  24.912  1.00  0.00     0.126 A 
ATOM     15  C   UNL A   1      35.728  21.373  25.417  1.00  0.00     0.048 A 
ATOM     16  C   UNL A   1      36.954  21.808  25.908  1.00  0.00     0.019 A 
ATOM     17  C   UNL A   1      36.349  24.096  25.369  1.00  0.00     0.027 A 
ATOM     18  C   UNL A   1      37.257  23.167  25.886  1.00  0.00     0.018 A 
ATOM     19  Br  UNL A   1      38.938  23.753  26.528  1.00  0.00    -0.051 Br
BRANCH  14  20
ATOM     20  O   UNL A   1      33.657  21.810  24.348  1.00  0.00    -0.493 OA
BRANCH  20  21
ATOM     21  C   UNL A   1      33.524  20.394  24.525  1.00  0.00     0.226 C 
ATOM     22  C   UNL A   1      32.426  19.852  23.628  1.00  0.00     0.049 C 
ENDBRANCH  20  21
ENDBRANCH  14  20
ENDBRANCH  12  13
ENDBRANCH   8  11
ENDBRANCH   6   7
ENDBRANCH   5   6
ENDBRANCH   1   5
BRANCH   3  23
ATOM     23  C   UNL A   1      32.048  27.975  24.716  1.00  0.00     0.117 C 
BRANCH  23  24
ATOM     24  C   UNL A   1      33.554  28.207  24.769  1.00  0.00     0.042 C 
BRANCH  24  25
ATOM     25  C   UNL A   1      34.099  28.592  26.137  1.00  0.00     0.118 C 
BRANCH  25  26
ATOM     26  N   UNL A   1      33.791  29.963  26.498  1.00  0.00    -0.352 N 
ATOM     27  C   UNL A   1      34.375  30.792  27.427  1.00  0.00     0.251 C 
ATOM     28  H   UNL A   1      33.045  30.365  25.996  1.00  0.00     0.163 HD
ATOM     29  O   UNL A   1      33.820  31.852  27.705  1.00  0.00    -0.269 OA
BRANCH  27  30
ATOM     30  C   UNL A   1      35.645  30.426  28.106  1.00  0.00     0.039 A 
ATOM     31  C   UNL A   1      35.584  29.636  29.258  1.00  0.00     0.014 A 
ATOM     32  C   UNL A   1      36.884  30.898  27.665  1.00  0.00     0.014 A 
ATOM     33  C   UNL A   1      36.758  29.283  29.933  1.00  0.00     0.010 A 
ATOM     34  C   UNL A   1      38.060  30.471  28.283  1.00  0.00     0.010 A 
ATOM     35  C   UNL A   1      38.012  29.676  29.438  1.00  0.00    -0.014 A 
BRANCH  35  36
ATOM     36  C   UNL A   1      39.273  29.293  30.130  1.00  0.00     0.031 A 
ATOM     37  C   UNL A   1      39.709  30.024  31.375  1.00  0.00     0.074 A 
ATOM     38  C   UNL A   1      40.056  28.322  29.617  1.00  0.00     0.049 A 
ATOM     39  N   UNL A   1      40.796  29.867  32.088  1.00  0.00    -0.248 NA
ATOM     40  C   UNL A   1      38.822  31.090  31.868  1.00  0.00     0.031 C 
ATOM     41  C   UNL A   1      39.778  27.566  28.394  1.00  0.00     0.029 A 
ATOM     42  N   UNL A   1      41.251  27.808  30.058  1.00  0.00    -0.354 N 
ATOM     43  C   UNL A   1      40.735  30.828  33.091  1.00  0.00     0.074 A 
ATOM     44  C   UNL A   1      39.528  31.593  32.868  1.00  0.00     0.031 C 
ATOM     45  C   UNL A   1      40.756  26.666  28.200  1.00  0.00     0.029 A 
ATOM     46  C   UNL A   1      41.749  26.804  29.261  1.00  0.00     0.049 A 
ATOM     47  H   UNL A   1      41.708  28.128  30.870  1.00  0.00     0.167 HD
ATOM     48  C   UNL A   1      41.592  31.042  34.119  1.00  0.00     0.031 A 
ATOM     49  C   UNL A   1      42.878  26.077  29.367  1.00  0.00     0.031 A 
ATOM     50  C   UNL A   1      42.777  30.264  34.360  1.00  0.00     0.049 A 
ATOM     51  C   UNL A   1      43.805  26.317  30.528  1.00  0.00     0.074 A 
ATOM     52  C   UNL A   1      43.672  30.361  35.411  1.00  0.00     0.029 A 
ATOM     53  N   UNL A   1      43.231  29.240  33.542  1.00  0.00    -0.354 N 
ATOM     54  N   UNL A   1      43.694  27.189  31.503  1.00  0.00    -0.248 NA
ATOM     55  C   UNL A   1      45.000  25.467  30.611  1.00  0.00     0.031 C 
ATOM     56  C   UNL A   1      44.692  29.424  35.205  1.00  0.00     0.029 A 
ATOM     57  C   UNL A   1      44.402  28.709  34.054  1.00  0.00     0.049 A 
ATOM     58  H   UNL A   1      42.785  28.936  32.719  1.00  0.00     0.167 HD
ATOM     59  C   UNL A   1      44.792  26.974  32.328  1.00  0.00     0.074 A 
ATOM     60  C   UNL A   1      45.547  25.883  31.745  1.00  0.00     0.031 C 
ATOM     61  C   UNL A   1      45.142  27.622  33.466  1.00  0.00     0.031 A 
BRANCH  48  62
ATOM     62  C   UNL A   1      41.275  32.174  35.063  1.00  0.00    -0.014 A 
ATOM     63  C   UNL A   1      41.836  33.452  34.882  1.00  0.00     0.010 A 
ATOM     64  C   UNL A   1      40.380  31.966  36.128  1.00  0.00     0.010 A 
ATOM     65  C   UNL A   1      41.550  34.485  35.778  1.00  0.00     0.020 A 
ATOM     66  C   UNL A   1      40.068  33.005  37.011  1.00  0.00     0.020 A 
ATOM     67  C   UNL A   1      40.672  34.253  36.841  1.00  0.00     0.054 A 
BRANCH  67  68
ATOM     68  S   UNL A   1      40.309  35.613  37.985  1.00  0.00     0.124 S 
ATOM     69  O   UNL A   1      39.324  35.003  38.875  1.00  0.00    -0.237 OA
ATOM     70  O   UNL A   1      41.612  35.886  38.585  1.00  0.00    -0.237 OA
ATOM     71  O   UNL A   1      39.794  36.669  37.116  1.00  0.00    -0.744 OA
ENDBRANCH  67  68
ENDBRANCH  48  62
BRANCH  49  72
ATOM     72  C   UNL A   1      43.181  25.029  28.354  1.00  0.00    -0.014 A 
ATOM     73  C   UNL A   1      42.627  23.742  28.472  1.00  0.00     0.010 A 
ATOM     74  C   UNL A   1      44.008  25.320  27.254  1.00  0.00     0.010 A 
ATOM     75  C   UNL A   1      42.905  22.761  27.516  1.00  0.00     0.020 A 
ATOM     76  C   UNL A   1      44.267  24.348  26.282  1.00  0.00     0.020 A 
ATOM     77  C   UNL A   1      43.722  23.071  26.425  1.00  0.00     0.054 A 
BRANCH  77  78
ATOM     78  S   UNL A   1      44.020  21.799  25.165  1.00  0.00     0.124 S 
ATOM     79  O   UNL A   1      43.674  22.504  23.935  1.00  0.00    -0.237 OA
ATOM     80  O   UNL A   1      45.438  21.499  25.345  1.00  0.00    -0.237 OA
ATOM     81  O   UNL A   1      43.110  20.721  25.547  1.00  0.00    -0.744 OA
ENDBRANCH  77  78
ENDBRANCH  49  72
BRANCH  61  82
ATOM     82  C   UNL A   1      46.379  27.150  34.181  1.00  0.00    -0.014 A 
ATOM     83  C   UNL A   1      47.636  27.720  33.917  1.00  0.00     0.010 A 
ATOM     84  C   UNL A   1      46.269  26.160  35.176  1.00  0.00     0.010 A 
ATOM     85  C   UNL A   1      48.768  27.290  34.616  1.00  0.00     0.020 A 
ATOM     86  C   UNL A   1      47.394  25.744  35.893  1.00  0.00     0.020 A 
ATOM     87  C   UNL A   1      48.639  26.304  35.599  1.00  0.00     0.054 A 
BRANCH  87  88
ATOM     88  S   UNL A   1      50.112  25.794  36.527  1.00  0.00     0.124 S 
ATOM     89  O   UNL A   1      49.719  24.478  37.021  1.00  0.00    -0.237 OA
ATOM     90  O   UNL A   1      51.153  25.794  35.501  1.00  0.00    -0.237 OA
ATOM     91  O   UNL A   1      50.253  26.827  37.549  1.00  0.00    -0.744 OA
ENDBRANCH  87  88
ENDBRANCH  61  82
ENDBRANCH  35  36
ENDBRANCH  27  30
ENDBRANCH  25  26
ENDBRANCH  24  25
ENDBRANCH  23  24
ENDBRANCH   3  23
TORSDOF 19
ENDMDL
MODEL 3
REMARK VINA RESULT:      -9.9      2.667      8.455
REMARK SMILES CCOc1ccc(Br)cc1/C=C/C(=O)NCCC(=O)NCCCNC(=O)c1ccc(-c2c3nc(c(-c4ccc(S(=O)(=O)[O-])cc4)c4ccc([nH]4)c(-c4ccc(S(=O)(=O)[O-])cc4)c4nc(c(-c5ccc(S(=O)(=O)[O-])cc5)c5ccc2[nH]5)C=C4)C=C3)cc1
REMARK SMILES IDX 18 1 19 2 20 3 17 5 16 6 15 7 13 8 14 9 12 11 11 12 10 13
REMARK SMILES IDX 4 14 5 15 6 16 9 17 7 18 8 19 3 20 2 21 1 22 21 23 22 24
REMARK SMILES IDX 23 25 24 26 25 27 26 29 27 30 28 31 86 32 29 33 85 34 30 35
REMARK SMILES IDX 31 36 32 37 79 38 33 39 84 40 78 41 80 42 34 43 83 44 77 45
REMARK SMILES IDX 76 46 35 48 65 49 46 50 64 51 47 52 50 53 63 54 81 55 48 56
REMARK SMILES IDX 49 57 62 59 82 60 51 61 36 62 37 63 45 64 38 65 44 66 39 67
REMARK SMILES IDX 40 68 41 69 42 70 43 71 66 72 67 73 75 74 68 75 74 76 69 77
REMARK SMILES IDX 70 78 71 79 72 80 73 81 52 82 53 83 61 84 54 85 60 86 55 87
REMARK SMILES IDX 56 88 57 89 58 90 59 91
REMARK H PARENT 20 4 15 10 24 28 80 47 50 58
REMARK Flexibility Score: inf
ROOT
ATOM      1  C   UNL A   1      30.485  26.166  26.112  1.00  0.00     0.221 C 
ATOM      2  O   UNL A   1      29.891  25.146  26.469  1.00  0.00    -0.275 OA
ATOM      3  N   UNL A   1      31.085  26.928  27.066  1.00  0.00    -0.356 N 
ATOM      4  H   UNL A   1      30.999  26.581  27.983  1.00  0.00     0.163 HD
ENDROOT
BRANCH   1   5
ATOM      5  C   UNL A   1      30.523  26.559  24.650  1.00  0.00     0.121 C 
BRANCH   5   6
ATOM      6  C   UNL A   1      30.914  25.374  23.772  1.00  0.00     0.126 C 
BRANCH   6   7
ATOM      7  N   UNL A   1      31.824  25.757  22.710  1.00  0.00    -0.352 N 
ATOM      8  C   UNL A   1      33.071  25.383  22.346  1.00  0.00     0.244 C 
ATOM      9  O   UNL A   1      33.692  26.130  21.588  1.00  0.00    -0.270 OA
ATOM     10  H   UNL A   1      31.448  26.449  22.119  1.00  0.00     0.163 HD
BRANCH   8  11
ATOM     11  C   UNL A   1      33.704  24.095  22.716  1.00  0.00     0.072 C 
ATOM     12  C   UNL A   1      34.237  23.692  23.877  1.00  0.00     0.017 C 
BRANCH  12  13
ATOM     13  C   UNL A   1      34.605  22.296  24.196  1.00  0.00     0.018 A 
ATOM     14  C   UNL A   1      35.936  21.991  24.548  1.00  0.00     0.126 A 
ATOM     15  C   UNL A   1      36.299  20.708  24.969  1.00  0.00     0.048 A 
ATOM     16  C   UNL A   1      35.351  19.692  25.000  1.00  0.00     0.019 A 
ATOM     17  C   UNL A   1      33.667  21.250  24.208  1.00  0.00     0.027 A 
ATOM     18  C   UNL A   1      34.041  19.966  24.616  1.00  0.00     0.018 A 
ATOM     19  Br  UNL A   1      32.746  18.589  24.687  1.00  0.00    -0.051 Br
BRANCH  14  20
ATOM     20  O   UNL A   1      36.884  22.981  24.631  1.00  0.00    -0.493 OA
BRANCH  20  21
ATOM     21  C   UNL A   1      37.761  22.800  25.749  1.00  0.00     0.226 C 
ATOM     22  C   UNL A   1      38.239  24.145  26.266  1.00  0.00     0.049 C 
ENDBRANCH  20  21
ENDBRANCH  14  20
ENDBRANCH  12  13
ENDBRANCH   8  11
ENDBRANCH   6   7
ENDBRANCH   5   6
ENDBRANCH   1   5
BRANCH   3  23
ATOM     23  C   UNL A   1      31.836  28.171  26.953  1.00  0.00     0.117 C 
BRANCH  23  24
ATOM     24  C   UNL A   1      33.337  27.936  26.821  1.00  0.00     0.042 C 
BRANCH  24  25
ATOM     25  C   UNL A   1      34.099  29.031  26.088  1.00  0.00     0.118 C 
BRANCH  25  26
ATOM     26  N   UNL A   1      33.703  30.364  26.503  1.00  0.00    -0.352 N 
ATOM     27  C   UNL A   1      34.196  31.167  27.504  1.00  0.00     0.251 C 
ATOM     28  H   UNL A   1      32.964  30.756  25.983  1.00  0.00     0.163 HD
ATOM     29  O   UNL A   1      33.574  32.182  27.807  1.00  0.00    -0.269 OA
BRANCH  27  30
ATOM     30  C   UNL A   1      35.446  30.826  28.230  1.00  0.00     0.039 A 
ATOM     31  C   UNL A   1      36.578  31.620  28.023  1.00  0.00     0.014 A 
ATOM     32  C   UNL A   1      35.540  29.704  29.059  1.00  0.00     0.014 A 
ATOM     33  C   UNL A   1      37.778  31.321  28.678  1.00  0.00     0.010 A 
ATOM     34  C   UNL A   1      36.708  29.460  29.782  1.00  0.00     0.010 A 
ATOM     35  C   UNL A   1      37.849  30.252  29.585  1.00  0.00    -0.014 A 
BRANCH  35  36
ATOM     36  C   UNL A   1      39.110  29.931  30.308  1.00  0.00     0.031 A 
ATOM     37  C   UNL A   1      40.017  28.836  29.804  1.00  0.00     0.074 A 
ATOM     38  C   UNL A   1      39.422  30.586  31.444  1.00  0.00     0.049 A 
ATOM     39  N   UNL A   1      41.130  28.380  30.323  1.00  0.00    -0.248 NA
ATOM     40  C   UNL A   1      39.606  28.142  28.572  1.00  0.00     0.031 C 
ATOM     41  C   UNL A   1      38.612  31.635  32.068  1.00  0.00     0.029 A 
ATOM     42  N   UNL A   1      40.504  30.462  32.282  1.00  0.00    -0.354 N 
ATOM     43  C   UNL A   1      41.533  27.335  29.499  1.00  0.00     0.074 A 
ATOM     44  C   UNL A   1      40.523  27.193  28.473  1.00  0.00     0.031 C 
ATOM     45  C   UNL A   1      39.240  32.079  33.171  1.00  0.00     0.029 A 
ATOM     46  C   UNL A   1      40.475  31.324  33.353  1.00  0.00     0.049 A 
ATOM     47  H   UNL A   1      41.233  29.817  32.128  1.00  0.00     0.167 HD
ATOM     48  C   UNL A   1      42.653  26.575  29.573  1.00  0.00     0.031 A 
ATOM     49  C   UNL A   1      41.342  31.489  34.371  1.00  0.00     0.031 A 
ATOM     50  C   UNL A   1      43.673  26.733  30.573  1.00  0.00     0.049 A 
ATOM     51  C   UNL A   1      42.590  30.649  34.422  1.00  0.00     0.074 A 
ATOM     52  C   UNL A   1      44.875  26.057  30.693  1.00  0.00     0.029 A 
ATOM     53  N   UNL A   1      43.616  27.635  31.625  1.00  0.00    -0.354 N 
ATOM     54  N   UNL A   1      42.984  29.709  33.595  1.00  0.00    -0.248 NA
ATOM     55  C   UNL A   1      43.516  30.901  35.534  1.00  0.00     0.031 C 
ATOM     56  C   UNL A   1      45.525  26.519  31.843  1.00  0.00     0.029 A 
ATOM     57  C   UNL A   1      44.752  27.521  32.409  1.00  0.00     0.049 A 
ATOM     58  H   UNL A   1      42.877  28.264  31.790  1.00  0.00     0.167 HD
ATOM     59  C   UNL A   1      44.215  29.276  34.074  1.00  0.00     0.074 A 
ATOM     60  C   UNL A   1      44.506  30.064  35.254  1.00  0.00     0.031 C 
ATOM     61  C   UNL A   1      45.030  28.312  33.579  1.00  0.00     0.031 A 
BRANCH  48  62
ATOM     62  C   UNL A   1      42.828  25.494  28.536  1.00  0.00    -0.014 A 
ATOM     63  C   UNL A   1      42.289  24.209  28.726  1.00  0.00     0.010 A 
ATOM     64  C   UNL A   1      43.516  25.777  27.342  1.00  0.00     0.010 A 
ATOM     65  C   UNL A   1      42.479  23.212  27.766  1.00  0.00     0.020 A 
ATOM     66  C   UNL A   1      43.684  24.790  26.365  1.00  0.00     0.020 A 
ATOM     67  C   UNL A   1      43.182  23.507  26.594  1.00  0.00     0.054 A 
BRANCH  67  68
ATOM     68  S   UNL A   1      43.406  22.198  25.359  1.00  0.00     0.124 S 
ATOM     69  O   UNL A   1      44.699  21.637  25.749  1.00  0.00    -0.237 OA
ATOM     70  O   UNL A   1      42.252  21.333  25.592  1.00  0.00    -0.237 OA
ATOM     71  O   UNL A   1      43.398  22.915  24.086  1.00  0.00    -0.744 OA
ENDBRANCH  67  68
ENDBRANCH  48  62
BRANCH  49  72
ATOM     72  C   UNL A   1      41.072  32.515  35.415  1.00  0.00    -0.014 A 
ATOM     73  C   UNL A   1      41.747  33.748  35.394  1.00  0.00     0.010 A 
ATOM     74  C   UNL A   1      40.120  32.273  36.422  1.00  0.00     0.010 A 
ATOM     75  C   UNL A   1      41.486  34.715  36.369  1.00  0.00     0.020 A 
ATOM     76  C   UNL A   1      39.838  33.249  37.384  1.00  0.00     0.020 A 
ATOM     77  C   UNL A   1      40.530  34.460  37.357  1.00  0.00     0.054 A 
BRANCH  77  78
ATOM     78  S   UNL A   1      40.166  35.753  38.577  1.00  0.00     0.124 S 
ATOM     79  O   UNL A   1      39.759  36.867  37.726  1.00  0.00    -0.237 OA
ATOM     80  O   UNL A   1      39.104  35.147  39.376  1.00  0.00    -0.237 OA
ATOM     81  O   UNL A   1      41.437  35.930  39.277  1.00  0.00    -0.744 OA
ENDBRANCH  77  78
ENDBRANCH  49  72
BRANCH  61  82
ATOM     82  C   UNL A   1      46.335  28.076  34.290  1.00  0.00    -0.014 A 
ATOM     83  C   UNL A   1      46.447  27.113  35.308  1.00  0.00     0.010 A 
ATOM     84  C   UNL A   1      47.481  28.788  33.890  1.00  0.00     0.010 A 
ATOM     85  C   UNL A   1      47.675  26.885  35.934  1.00  0.00     0.020 A 
ATOM     86  C   UNL A   1      48.717  28.546  34.497  1.00  0.00     0.020 A 
ATOM     87  C   UNL A   1      48.803  27.604  35.524  1.00  0.00     0.054 A 
BRANCH  87  88
ATOM     88  S   UNL A   1      50.398  27.259  36.317  1.00  0.00     0.124 S 
ATOM     89  O   UNL A   1      50.188  25.915  36.847  1.00  0.00    -0.237 OA
ATOM     90  O   UNL A   1      51.338  27.356  35.203  1.00  0.00    -0.237 OA
ATOM     91  O   UNL A   1      50.521  28.313  37.321  1.00  0.00    -0.744 OA
ENDBRANCH  87  88
ENDBRANCH  61  82
ENDBRANCH  35  36
ENDBRANCH  27  30
ENDBRANCH  25  26
ENDBRANCH  24  25
ENDBRANCH  23  24
ENDBRANCH   3  23
TORSDOF 19
ENDMDL
