MODEL 1
REMARK VINA RESULT:     -12.7      0.000      0.000
REMARK SMILES C[N@H+]1CCO[C@H](c2noc(-c3ccccc3C(=O)NCCCNC(=O)c3ccc(-c4c5nc(c(-c6ccc(S(=O)(=O)[O-])cc6)c6ccc([nH]6)c(-c6ccc(S(=O)(=O)[O-])cc6)c6nc(c(-c7ccc(S(=O)(=O)[O-])cc7)c7ccc4[nH]7)C=C6)C=C5)cc3)n2)C1
REMARK SMILES IDX 21 1 20 2 19 3 17 4 18 5 16 7 11 8 12 9 13 10 15 11 14 12
REMARK SMILES IDX 10 13 7 14 8 15 86 16 9 17 6 18 1 19 2 20 3 21 87 22 4 24
REMARK SMILES IDX 5 25 22 26 23 27 24 28 25 30 26 31 27 32 85 33 28 34 84 35
REMARK SMILES IDX 29 36 30 37 31 38 78 39 32 40 83 41 77 42 79 43 33 44 82 45
REMARK SMILES IDX 76 46 75 47 34 49 64 50 45 51 63 52 46 53 49 54 62 55 80 56
REMARK SMILES IDX 47 57 48 58 61 60 81 61 50 62 35 63 36 64 44 65 37 66 43 67
REMARK SMILES IDX 38 68 39 69 40 70 41 71 42 72 65 73 66 74 74 75 67 76 73 77
REMARK SMILES IDX 68 78 69 79 70 80 71 81 72 82 51 83 52 84 60 85 53 86 59 87
REMARK SMILES IDX 54 88 55 89 56 90 57 91 58 92
REMARK H PARENT 19 6 2 23 23 29 79 48 49 59
REMARK Flexibility Score: inf
ROOT
ATOM      1  C   UNL A   1      37.024  22.811  24.217  1.00  0.00     0.042 C 
ENDROOT
BRANCH   1   2
ATOM      2  C   UNL A   1      35.558  22.419  24.081  1.00  0.00     0.118 C 
BRANCH   2   3
ATOM      3  N   UNL A   1      34.808  23.083  23.031  1.00  0.00    -0.352 N 
ATOM      4  C   UNL A   1      33.713  23.911  23.068  1.00  0.00     0.252 C 
ATOM      5  O   UNL A   1      33.446  24.540  22.040  1.00  0.00    -0.269 OA
ATOM      6  H   UNL A   1      35.147  22.908  22.124  1.00  0.00     0.163 HD
BRANCH   4   7
ATOM      7  C   UNL A   1      32.740  23.993  24.195  1.00  0.00     0.052 A 
ATOM      8  C   UNL A   1      31.951  22.962  24.733  1.00  0.00     0.053 A 
ATOM      9  C   UNL A   1      31.092  23.260  25.817  1.00  0.00     0.015 A 
ATOM     10  C   UNL A   1      31.051  24.530  26.394  1.00  0.00     0.001 A 
ATOM     11  C   UNL A   1      32.703  25.267  24.811  1.00  0.00     0.014 A 
ATOM     12  C   UNL A   1      31.871  25.532  25.900  1.00  0.00     0.001 A 
BRANCH   8  13
ATOM     13  C   UNL A   1      31.995  21.586  24.272  1.00  0.00     0.258 A 
ATOM     14  C   UNL A   1      32.271  19.539  23.914  1.00  0.00     0.206 A 
ATOM     15  N   UNL A   1      32.158  20.049  22.679  1.00  0.00    -0.059 NA
ATOM     16  N   UNL A   1      32.130  20.460  24.931  1.00  0.00    -0.189 NA
ATOM     17  O   UNL A   1      31.977  21.411  22.914  1.00  0.00    -0.334 OA
BRANCH  14  18
ATOM     18  C   UNL A   1      32.648  18.111  24.162  1.00  0.00     0.245 C 
ATOM     19  C   UNL A   1      32.263  15.450  25.807  1.00  0.00     0.332 C 
ATOM     20  N   UNL A   1      33.265  16.485  26.047  1.00  0.00    -0.333 N 
ATOM     21  C   UNL A   1      34.498  16.233  25.270  1.00  0.00     0.290 C 
ATOM     22  C   UNL A   1      32.766  17.835  25.685  1.00  0.00     0.303 C 
ATOM     23  H   UNL A   1      33.468  16.453  27.046  1.00  0.00     0.348 HD
ATOM     24  C   UNL A   1      34.311  16.464  23.766  1.00  0.00     0.222 C 
ATOM     25  O   UNL A   1      33.889  17.801  23.489  1.00  0.00    -0.358 OA
ENDBRANCH  14  18
ENDBRANCH   8  13
ENDBRANCH   4   7
ENDBRANCH   2   3
ENDBRANCH   1   2
BRANCH   1  26
ATOM     26  C   UNL A   1      37.620  22.711  25.614  1.00  0.00     0.118 C 
BRANCH  26  27
ATOM     27  N   UNL A   1      39.003  22.270  25.680  1.00  0.00    -0.352 N 
ATOM     28  C   UNL A   1      40.116  22.819  26.261  1.00  0.00     0.251 C 
ATOM     29  H   UNL A   1      39.172  21.415  25.221  1.00  0.00     0.163 HD
ATOM     30  O   UNL A   1      41.156  22.165  26.308  1.00  0.00    -0.269 OA
BRANCH  28  31
ATOM     31  C   UNL A   1      40.123  24.177  26.838  1.00  0.00     0.039 A 
ATOM     32  C   UNL A   1      40.978  25.143  26.277  1.00  0.00     0.014 A 
ATOM     33  C   UNL A   1      39.455  24.447  28.028  1.00  0.00     0.014 A 
ATOM     34  C   UNL A   1      41.178  26.369  26.918  1.00  0.00     0.010 A 
ATOM     35  C   UNL A   1      39.612  25.686  28.639  1.00  0.00     0.010 A 
ATOM     36  C   UNL A   1      40.509  26.634  28.117  1.00  0.00    -0.014 A 
BRANCH  36  37
ATOM     37  C   UNL A   1      40.805  27.804  28.975  1.00  0.00     0.031 A 
ATOM     38  C   UNL A   1      41.928  27.668  29.967  1.00  0.00     0.074 A 
ATOM     39  C   UNL A   1      39.976  28.861  28.993  1.00  0.00     0.049 A 
ATOM     40  N   UNL A   1      42.136  28.311  31.083  1.00  0.00    -0.248 NA
ATOM     41  C   UNL A   1      42.916  26.610  29.685  1.00  0.00     0.031 C 
ATOM     42  C   UNL A   1      38.875  29.091  28.059  1.00  0.00     0.029 A 
ATOM     43  N   UNL A   1      39.898  29.908  29.874  1.00  0.00    -0.354 N 
ATOM     44  C   UNL A   1      43.230  27.687  31.676  1.00  0.00     0.074 A 
ATOM     45  C   UNL A   1      43.641  26.618  30.794  1.00  0.00     0.031 C 
ATOM     46  C   UNL A   1      38.200  30.188  28.442  1.00  0.00     0.029 A 
ATOM     47  C   UNL A   1      38.790  30.699  29.676  1.00  0.00     0.049 A 
ATOM     48  H   UNL A   1      40.566  30.076  30.578  1.00  0.00     0.167 HD
ATOM     49  C   UNL A   1      43.820  27.978  32.861  1.00  0.00     0.031 A 
ATOM     50  C   UNL A   1      38.283  31.687  30.437  1.00  0.00     0.031 A 
ATOM     51  C   UNL A   1      43.396  29.071  33.696  1.00  0.00     0.049 A 
ATOM     52  C   UNL A   1      38.983  32.031  31.723  1.00  0.00     0.074 A 
ATOM     53  C   UNL A   1      43.931  29.507  34.894  1.00  0.00     0.029 A 
ATOM     54  N   UNL A   1      42.333  29.915  33.400  1.00  0.00    -0.354 N 
ATOM     55  N   UNL A   1      40.006  31.431  32.288  1.00  0.00    -0.248 NA
ATOM     56  C   UNL A   1      38.471  33.187  32.468  1.00  0.00     0.031 C 
ATOM     57  C   UNL A   1      43.177  30.601  35.333  1.00  0.00     0.029 A 
ATOM     58  C   UNL A   1      42.200  30.873  34.387  1.00  0.00     0.049 A 
ATOM     59  H   UNL A   1      41.759  29.841  32.603  1.00  0.00     0.167 HD
ATOM     60  C   UNL A   1      40.275  32.150  33.446  1.00  0.00     0.074 A 
ATOM     61  C   UNL A   1      39.313  33.235  33.492  1.00  0.00     0.031 C 
ATOM     62  C   UNL A   1      41.228  31.938  34.388  1.00  0.00     0.031 A 
BRANCH  49  63
ATOM     63  C   UNL A   1      44.950  27.092  33.324  1.00  0.00    -0.014 A 
ATOM     64  C   UNL A   1      46.290  27.382  33.006  1.00  0.00     0.010 A 
ATOM     65  C   UNL A   1      44.671  25.952  34.101  1.00  0.00     0.010 A 
ATOM     66  C   UNL A   1      47.320  26.525  33.412  1.00  0.00     0.020 A 
ATOM     67  C   UNL A   1      45.699  25.109  34.535  1.00  0.00     0.020 A 
ATOM     68  C   UNL A   1      47.017  25.390  34.171  1.00  0.00     0.054 A 
BRANCH  68  69
ATOM     69  S   UNL A   1      48.373  24.304  34.697  1.00  0.00     0.124 S 
ATOM     70  O   UNL A   1      48.457  24.598  36.125  1.00  0.00    -0.237 OA
ATOM     71  O   UNL A   1      47.872  22.975  34.358  1.00  0.00    -0.237 OA
ATOM     72  O   UNL A   1      49.510  24.760  33.900  1.00  0.00    -0.744 OA
ENDBRANCH  68  69
ENDBRANCH  49  63
BRANCH  50  73
ATOM     73  C   UNL A   1      37.060  32.405  29.991  1.00  0.00    -0.014 A 
ATOM     74  C   UNL A   1      35.808  32.064  30.533  1.00  0.00     0.010 A 
ATOM     75  C   UNL A   1      37.142  33.479  29.085  1.00  0.00     0.010 A 
ATOM     76  C   UNL A   1      34.663  32.787  30.185  1.00  0.00     0.020 A 
ATOM     77  C   UNL A   1      36.001  34.219  28.751  1.00  0.00     0.020 A 
ATOM     78  C   UNL A   1      34.768  33.866  29.303  1.00  0.00     0.054 A 
BRANCH  78  79
ATOM     79  S   UNL A   1      33.286  34.854  28.950  1.00  0.00     0.124 S 
ATOM     80  O   UNL A   1      33.860  36.100  28.455  1.00  0.00    -0.237 OA
ATOM     81  O   UNL A   1      32.592  34.038  27.957  1.00  0.00    -0.237 OA
ATOM     82  O   UNL A   1      32.617  34.942  30.247  1.00  0.00    -0.744 OA
ENDBRANCH  78  79
ENDBRANCH  50  73
BRANCH  62  83
ATOM     83  C   UNL A   1      41.295  32.928  35.515  1.00  0.00    -0.014 A 
ATOM     84  C   UNL A   1      40.620  32.697  36.726  1.00  0.00     0.010 A 
ATOM     85  C   UNL A   1      42.084  34.083  35.370  1.00  0.00     0.010 A 
ATOM     86  C   UNL A   1      40.707  33.625  37.764  1.00  0.00     0.020 A 
ATOM     87  C   UNL A   1      42.190  35.003  36.414  1.00  0.00     0.020 A 
ATOM     88  C   UNL A   1      41.487  34.774  37.600  1.00  0.00     0.054 A 
BRANCH  88  89
ATOM     89  S   UNL A   1      41.611  35.952  38.973  1.00  0.00     0.124 S 
ATOM     90  O   UNL A   1      40.307  35.807  39.614  1.00  0.00    -0.237 OA
ATOM     91  O   UNL A   1      42.747  35.440  39.737  1.00  0.00    -0.237 OA
ATOM     92  O   UNL A   1      41.842  37.233  38.310  1.00  0.00    -0.744 OA
ENDBRANCH  88  89
ENDBRANCH  62  83
ENDBRANCH  36  37
ENDBRANCH  28  31
ENDBRANCH  26  27
ENDBRANCH   1  26
TORSDOF 15
ENDMDL
MODEL 2
REMARK VINA RESULT:     -12.3      1.480      3.808
REMARK SMILES C[N@H+]1CCO[C@H](c2noc(-c3ccccc3C(=O)NCCCNC(=O)c3ccc(-c4c5nc(c(-c6ccc(S(=O)(=O)[O-])cc6)c6ccc([nH]6)c(-c6ccc(S(=O)(=O)[O-])cc6)c6nc(c(-c7ccc(S(=O)(=O)[O-])cc7)c7ccc4[nH]7)C=C6)C=C5)cc3)n2)C1
REMARK SMILES IDX 21 1 20 2 19 3 17 4 18 5 16 7 11 8 12 9 13 10 15 11 14 12
REMARK SMILES IDX 10 13 7 14 8 15 86 16 9 17 6 18 1 19 2 20 3 21 87 22 4 24
REMARK SMILES IDX 5 25 22 26 23 27 24 28 25 30 26 31 27 32 85 33 28 34 84 35
REMARK SMILES IDX 29 36 30 37 31 38 78 39 32 40 83 41 77 42 79 43 33 44 82 45
REMARK SMILES IDX 76 46 75 47 34 49 64 50 45 51 63 52 46 53 49 54 62 55 80 56
REMARK SMILES IDX 47 57 48 58 61 60 81 61 50 62 35 63 36 64 44 65 37 66 43 67
REMARK SMILES IDX 38 68 39 69 40 70 41 71 42 72 65 73 66 74 74 75 67 76 73 77
REMARK SMILES IDX 68 78 69 79 70 80 71 81 72 82 51 83 52 84 60 85 53 86 59 87
REMARK SMILES IDX 54 88 55 89 56 90 57 91 58 92
REMARK H PARENT 19 6 2 23 23 29 79 48 49 59
REMARK Flexibility Score: inf
ROOT
ATOM      1  C   UNL A   1      36.973  22.175  24.712  1.00  0.00     0.042 C 
ENDROOT
BRANCH   1   2
ATOM      2  C   UNL A   1      36.421  21.058  25.588  1.00  0.00     0.118 C 
BRANCH   2   3
ATOM      3  N   UNL A   1      35.271  21.393  26.409  1.00  0.00    -0.352 N 
ATOM      4  C   UNL A   1      33.949  21.030  26.331  1.00  0.00     0.252 C 
ATOM      5  O   UNL A   1      33.243  21.255  27.318  1.00  0.00    -0.269 OA
ATOM      6  H   UNL A   1      35.478  21.992  27.163  1.00  0.00     0.163 HD
BRANCH   4   7
ATOM      7  C   UNL A   1      33.271  20.528  25.101  1.00  0.00     0.052 A 
ATOM      8  C   UNL A   1      32.929  21.253  23.946  1.00  0.00     0.053 A 
ATOM      9  C   UNL A   1      32.290  20.572  22.884  1.00  0.00     0.015 A 
ATOM     10  C   UNL A   1      32.045  19.199  22.933  1.00  0.00     0.001 A 
ATOM     11  C   UNL A   1      33.037  19.133  25.120  1.00  0.00     0.014 A 
ATOM     12  C   UNL A   1      32.434  18.475  24.048  1.00  0.00     0.001 A 
BRANCH   8  13
ATOM     13  C   UNL A   1      33.232  22.660  23.756  1.00  0.00     0.258 A 
ATOM     14  C   UNL A   1      33.300  24.745  23.554  1.00  0.00     0.206 A 
ATOM     15  N   UNL A   1      34.255  24.329  22.709  1.00  0.00    -0.059 NA
ATOM     16  N   UNL A   1      32.674  23.737  24.255  1.00  0.00    -0.189 NA
ATOM     17  O   UNL A   1      34.209  22.941  22.840  1.00  0.00    -0.334 OA
BRANCH  14  18
ATOM     18  C   UNL A   1      32.865  26.176  23.631  1.00  0.00     0.245 C 
ATOM     19  C   UNL A   1      30.882  28.459  22.739  1.00  0.00     0.332 C 
ATOM     20  N   UNL A   1      32.187  28.161  22.155  1.00  0.00    -0.333 N 
ATOM     21  C   UNL A   1      33.268  28.896  22.845  1.00  0.00     0.290 C 
ATOM     22  C   UNL A   1      32.505  26.713  22.220  1.00  0.00     0.303 C 
ATOM     23  H   UNL A   1      32.131  28.455  21.179  1.00  0.00     0.348 HD
ATOM     24  C   UNL A   1      33.543  28.363  24.258  1.00  0.00     0.222 C 
ATOM     25  O   UNL A   1      33.902  26.980  24.235  1.00  0.00    -0.358 OA
ENDBRANCH  14  18
ENDBRANCH   8  13
ENDBRANCH   4   7
ENDBRANCH   2   3
ENDBRANCH   1   2
BRANCH   1  26
ATOM     26  C   UNL A   1      37.931  23.147  25.386  1.00  0.00     0.118 C 
BRANCH  26  27
ATOM     27  N   UNL A   1      39.250  22.622  25.695  1.00  0.00    -0.352 N 
ATOM     28  C   UNL A   1      40.272  23.103  26.471  1.00  0.00     0.251 C 
ATOM     29  H   UNL A   1      39.446  21.757  25.266  1.00  0.00     0.163 HD
ATOM     30  O   UNL A   1      41.245  22.385  26.698  1.00  0.00    -0.269 OA
BRANCH  28  31
ATOM     31  C   UNL A   1      40.259  24.458  27.052  1.00  0.00     0.039 A 
ATOM     32  C   UNL A   1      41.182  25.405  26.574  1.00  0.00     0.014 A 
ATOM     33  C   UNL A   1      39.493  24.741  28.178  1.00  0.00     0.014 A 
ATOM     34  C   UNL A   1      41.352  26.625  27.237  1.00  0.00     0.010 A 
ATOM     35  C   UNL A   1      39.622  25.975  28.806  1.00  0.00     0.010 A 
ATOM     36  C   UNL A   1      40.584  26.902  28.371  1.00  0.00    -0.014 A 
BRANCH  36  37
ATOM     37  C   UNL A   1      40.829  28.063  29.258  1.00  0.00     0.031 A 
ATOM     38  C   UNL A   1      41.916  27.930  30.289  1.00  0.00     0.074 A 
ATOM     39  C   UNL A   1      39.982  29.106  29.261  1.00  0.00     0.049 A 
ATOM     40  N   UNL A   1      42.071  28.558  31.421  1.00  0.00    -0.248 NA
ATOM     41  C   UNL A   1      42.931  26.893  30.028  1.00  0.00     0.031 C 
ATOM     42  C   UNL A   1      38.912  29.334  28.290  1.00  0.00     0.029 A 
ATOM     43  N   UNL A   1      39.854  30.137  30.155  1.00  0.00    -0.354 N 
ATOM     44  C   UNL A   1      43.154  27.943  32.045  1.00  0.00     0.074 A 
ATOM     45  C   UNL A   1      43.615  26.895  31.162  1.00  0.00     0.031 C 
ATOM     46  C   UNL A   1      38.206  30.413  28.664  1.00  0.00     0.029 A 
ATOM     47  C   UNL A   1      38.741  30.914  29.928  1.00  0.00     0.049 A 
ATOM     48  H   UNL A   1      40.492  30.305  30.885  1.00  0.00     0.167 HD
ATOM     49  C   UNL A   1      43.694  28.224  33.256  1.00  0.00     0.031 A 
ATOM     50  C   UNL A   1      38.190  31.881  30.684  1.00  0.00     0.031 A 
ATOM     51  C   UNL A   1      43.222  29.296  34.091  1.00  0.00     0.049 A 
ATOM     52  C   UNL A   1      38.835  32.216  32.000  1.00  0.00     0.074 A 
ATOM     53  C   UNL A   1      43.704  29.722  35.315  1.00  0.00     0.029 A 
ATOM     54  N   UNL A   1      42.156  30.128  33.768  1.00  0.00    -0.354 N 
ATOM     55  N   UNL A   1      39.847  31.623  32.594  1.00  0.00    -0.248 NA
ATOM     56  C   UNL A   1      38.277  33.352  32.743  1.00  0.00     0.031 C 
ATOM     57  C   UNL A   1      42.916  30.797  35.742  1.00  0.00     0.029 A 
ATOM     58  C   UNL A   1      41.970  31.068  34.764  1.00  0.00     0.049 A 
ATOM     59  H   UNL A   1      41.614  30.057  32.950  1.00  0.00     0.167 HD
ATOM     60  C   UNL A   1      40.061  32.328  33.772  1.00  0.00     0.074 A 
ATOM     61  C   UNL A   1      39.080  33.397  33.798  1.00  0.00     0.031 C 
ATOM     62  C   UNL A   1      40.981  32.116  34.746  1.00  0.00     0.031 A 
BRANCH  49  63
ATOM     63  C   UNL A   1      44.821  27.349  33.747  1.00  0.00    -0.014 A 
ATOM     64  C   UNL A   1      46.166  27.655  33.467  1.00  0.00     0.010 A 
ATOM     65  C   UNL A   1      44.533  26.203  34.512  1.00  0.00     0.010 A 
ATOM     66  C   UNL A   1      47.193  26.808  33.899  1.00  0.00     0.020 A 
ATOM     67  C   UNL A   1      45.559  25.370  34.972  1.00  0.00     0.020 A 
ATOM     68  C   UNL A   1      46.883  25.667  34.645  1.00  0.00     0.054 A 
BRANCH  68  69
ATOM     69  S   UNL A   1      48.236  24.595  35.205  1.00  0.00     0.124 S 
ATOM     70  O   UNL A   1      48.799  25.371  36.306  1.00  0.00    -0.237 OA
ATOM     71  O   UNL A   1      47.539  23.371  35.591  1.00  0.00    -0.237 OA
ATOM     72  O   UNL A   1      49.092  24.474  34.026  1.00  0.00    -0.744 OA
ENDBRANCH  68  69
ENDBRANCH  49  63
BRANCH  50  73
ATOM     73  C   UNL A   1      36.972  32.586  30.204  1.00  0.00    -0.014 A 
ATOM     74  C   UNL A   1      35.710  32.239  30.717  1.00  0.00     0.010 A 
ATOM     75  C   UNL A   1      37.068  33.655  29.293  1.00  0.00     0.010 A 
ATOM     76  C   UNL A   1      34.568  32.950  30.337  1.00  0.00     0.020 A 
ATOM     77  C   UNL A   1      35.930  34.384  28.927  1.00  0.00     0.020 A 
ATOM     78  C   UNL A   1      34.686  34.025  29.451  1.00  0.00     0.054 A 
BRANCH  78  79
ATOM     79  S   UNL A   1      33.205  34.998  29.055  1.00  0.00     0.124 S 
ATOM     80  O   UNL A   1      32.518  35.045  30.341  1.00  0.00    -0.237 OA
ATOM     81  O   UNL A   1      33.771  36.262  28.593  1.00  0.00    -0.237 OA
ATOM     82  O   UNL A   1      32.544  34.207  28.019  1.00  0.00    -0.744 OA
ENDBRANCH  78  79
ENDBRANCH  50  73
BRANCH  62  83
ATOM     83  C   UNL A   1      40.990  33.090  35.890  1.00  0.00    -0.014 A 
ATOM     84  C   UNL A   1      41.733  34.281  35.823  1.00  0.00     0.010 A 
ATOM     85  C   UNL A   1      40.207  32.823  37.026  1.00  0.00     0.010 A 
ATOM     86  C   UNL A   1      41.718  35.177  36.893  1.00  0.00     0.020 A 
ATOM     87  C   UNL A   1      40.172  33.727  38.089  1.00  0.00     0.020 A 
ATOM     88  C   UNL A   1      40.941  34.892  38.021  1.00  0.00     0.054 A 
BRANCH  88  89
ATOM     89  S   UNL A   1      40.911  36.084  39.386  1.00  0.00     0.124 S 
ATOM     90  O   UNL A   1      39.557  35.913  39.907  1.00  0.00    -0.237 OA
ATOM     91  O   UNL A   1      41.984  35.608  40.255  1.00  0.00    -0.237 OA
ATOM     92  O   UNL A   1      41.170  37.365  38.732  1.00  0.00    -0.744 OA
ENDBRANCH  88  89
ENDBRANCH  62  83
ENDBRANCH  36  37
ENDBRANCH  28  31
ENDBRANCH  26  27
ENDBRANCH   1  26
TORSDOF 15
ENDMDL
MODEL 3
REMARK VINA RESULT:     -12.1      5.520      9.942
REMARK SMILES C[N@H+]1CCO[C@H](c2noc(-c3ccccc3C(=O)NCCCNC(=O)c3ccc(-c4c5nc(c(-c6ccc(S(=O)(=O)[O-])cc6)c6ccc([nH]6)c(-c6ccc(S(=O)(=O)[O-])cc6)c6nc(c(-c7ccc(S(=O)(=O)[O-])cc7)c7ccc4[nH]7)C=C6)C=C5)cc3)n2)C1
REMARK SMILES IDX 21 1 20 2 19 3 17 4 18 5 16 7 11 8 12 9 13 10 15 11 14 12
REMARK SMILES IDX 10 13 7 14 8 15 86 16 9 17 6 18 1 19 2 20 3 21 87 22 4 24
REMARK SMILES IDX 5 25 22 26 23 27 24 28 25 30 26 31 27 32 85 33 28 34 84 35
REMARK SMILES IDX 29 36 30 37 31 38 78 39 32 40 83 41 77 42 79 43 33 44 82 45
REMARK SMILES IDX 76 46 75 47 34 49 64 50 45 51 63 52 46 53 49 54 62 55 80 56
REMARK SMILES IDX 47 57 48 58 61 60 81 61 50 62 35 63 36 64 44 65 37 66 43 67
REMARK SMILES IDX 38 68 39 69 40 70 41 71 42 72 65 73 66 74 74 75 67 76 73 77
REMARK SMILES IDX 68 78 69 79 70 80 71 81 72 82 51 83 52 84 60 85 53 86 59 87
REMARK SMILES IDX 54 88 55 89 56 90 57 91 58 92
REMARK H PARENT 19 6 2 23 23 29 79 48 49 59
REMARK Flexibility Score: inf
ROOT
ATOM      1  C   UNL A   1      37.639  21.701  25.662  1.00  0.00     0.042 C 
ENDROOT
BRANCH   1   2
ATOM      2  C   UNL A   1      37.032  23.005  25.159  1.00  0.00     0.118 C 
BRANCH   2   3
ATOM      3  N   UNL A   1      36.285  22.931  23.916  1.00  0.00    -0.352 N 
ATOM      4  C   UNL A   1      35.064  23.439  23.546  1.00  0.00     0.252 C 
ATOM      5  O   UNL A   1      34.795  23.441  22.341  1.00  0.00    -0.269 OA
ATOM      6  H   UNL A   1      36.738  22.421  23.206  1.00  0.00     0.163 HD
BRANCH   4   7
ATOM      7  C   UNL A   1      33.984  23.844  24.492  1.00  0.00     0.052 A 
ATOM      8  C   UNL A   1      32.867  23.096  24.900  1.00  0.00     0.053 A 
ATOM      9  C   UNL A   1      31.962  23.677  25.819  1.00  0.00     0.015 A 
ATOM     10  C   UNL A   1      32.180  24.941  26.367  1.00  0.00     0.001 A 
ATOM     11  C   UNL A   1      34.201  25.113  25.079  1.00  0.00     0.014 A 
ATOM     12  C   UNL A   1      33.313  25.655  26.008  1.00  0.00     0.001 A 
BRANCH   8  13
ATOM     13  C   UNL A   1      32.603  21.736  24.467  1.00  0.00     0.258 A 
ATOM     14  C   UNL A   1      32.494  19.677  24.090  1.00  0.00     0.206 A 
ATOM     15  N   UNL A   1      32.149  20.218  22.913  1.00  0.00    -0.059 NA
ATOM     16  N   UNL A   1      32.740  20.591  25.093  1.00  0.00    -0.189 NA
ATOM     17  O   UNL A   1      32.223  21.588  23.160  1.00  0.00    -0.334 OA
BRANCH  14  18
ATOM     18  C   UNL A   1      32.719  18.206  24.263  1.00  0.00     0.245 C 
ATOM     19  C   UNL A   1      32.166  15.547  25.862  1.00  0.00     0.332 C 
ATOM     20  N   UNL A   1      33.301  16.449  26.038  1.00  0.00    -0.333 N 
ATOM     21  C   UNL A   1      34.422  16.086  25.145  1.00  0.00     0.290 C 
ATOM     22  C   UNL A   1      32.936  17.860  25.761  1.00  0.00     0.303 C 
ATOM     23  H   UNL A   1      33.586  16.355  27.013  1.00  0.00     0.348 HD
ATOM     24  C   UNL A   1      34.134  16.394  23.671  1.00  0.00     0.222 C 
ATOM     25  O   UNL A   1      33.851  17.780  23.472  1.00  0.00    -0.358 OA
ENDBRANCH  14  18
ENDBRANCH   8  13
ENDBRANCH   4   7
ENDBRANCH   2   3
ENDBRANCH   1   2
BRANCH   1  26
ATOM     26  C   UNL A   1      39.090  21.768  26.117  1.00  0.00     0.118 C 
BRANCH  26  27
ATOM     27  N   UNL A   1      39.892  20.588  25.841  1.00  0.00    -0.352 N 
ATOM     28  C   UNL A   1      41.219  20.310  26.044  1.00  0.00     0.251 C 
ATOM     29  H   UNL A   1      39.386  19.848  25.431  1.00  0.00     0.163 HD
ATOM     30  O   UNL A   1      41.629  19.165  25.863  1.00  0.00    -0.269 OA
BRANCH  28  31
ATOM     31  C   UNL A   1      42.188  21.336  26.474  1.00  0.00     0.039 A 
ATOM     32  C   UNL A   1      42.483  21.451  27.845  1.00  0.00     0.014 A 
ATOM     33  C   UNL A   1      42.650  22.296  25.581  1.00  0.00     0.014 A 
ATOM     34  C   UNL A   1      43.223  22.538  28.321  1.00  0.00     0.010 A 
ATOM     35  C   UNL A   1      43.430  23.349  26.045  1.00  0.00     0.010 A 
ATOM     36  C   UNL A   1      43.680  23.504  27.419  1.00  0.00    -0.014 A 
BRANCH  36  37
ATOM     37  C   UNL A   1      44.287  24.788  27.839  1.00  0.00     0.031 A 
ATOM     38  C   UNL A   1      43.353  25.902  28.224  1.00  0.00     0.074 A 
ATOM     39  C   UNL A   1      45.606  24.996  27.689  1.00  0.00     0.049 A 
ATOM     40  N   UNL A   1      43.548  27.192  28.217  1.00  0.00    -0.248 NA
ATOM     41  C   UNL A   1      41.988  25.498  28.608  1.00  0.00     0.031 C 
ATOM     42  C   UNL A   1      46.593  23.975  27.340  1.00  0.00     0.029 A 
ATOM     43  N   UNL A   1      46.329  26.159  27.751  1.00  0.00    -0.354 N 
ATOM     44  C   UNL A   1      42.312  27.758  28.519  1.00  0.00     0.074 A 
ATOM     45  C   UNL A   1      41.378  26.670  28.705  1.00  0.00     0.031 C 
ATOM     46  C   UNL A   1      47.789  24.563  27.175  1.00  0.00     0.029 A 
ATOM     47  C   UNL A   1      47.636  26.005  27.351  1.00  0.00     0.049 A 
ATOM     48  H   UNL A   1      45.951  27.018  28.050  1.00  0.00     0.167 HD
ATOM     49  C   UNL A   1      41.993  29.072  28.612  1.00  0.00     0.031 A 
ATOM     50  C   UNL A   1      48.582  26.930  27.104  1.00  0.00     0.031 A 
ATOM     51  C   UNL A   1      42.961  30.124  28.448  1.00  0.00     0.049 A 
ATOM     52  C   UNL A   1      48.224  28.381  27.265  1.00  0.00     0.074 A 
ATOM     53  C   UNL A   1      42.787  31.491  28.562  1.00  0.00     0.029 A 
ATOM     54  N   UNL A   1      44.302  29.914  28.149  1.00  0.00    -0.354 N 
ATOM     55  N   UNL A   1      47.053  28.914  27.534  1.00  0.00    -0.248 NA
ATOM     56  C   UNL A   1      49.310  29.355  27.100  1.00  0.00     0.031 C 
ATOM     57  C   UNL A   1      44.018  32.108  28.310  1.00  0.00     0.029 A 
ATOM     58  C   UNL A   1      44.968  31.122  28.082  1.00  0.00     0.049 A 
ATOM     59  H   UNL A   1      44.716  29.032  28.007  1.00  0.00     0.167 HD
ATOM     60  C   UNL A   1      47.265  30.286  27.593  1.00  0.00     0.074 A 
ATOM     61  C   UNL A   1      48.679  30.496  27.342  1.00  0.00     0.031 C 
ATOM     62  C   UNL A   1      46.378  31.283  27.832  1.00  0.00     0.031 A 
BRANCH  49  63
ATOM     63  C   UNL A   1      40.551  29.432  28.873  1.00  0.00    -0.014 A 
ATOM     64  C   UNL A   1      40.111  29.834  30.147  1.00  0.00     0.010 A 
ATOM     65  C   UNL A   1      39.617  29.379  27.821  1.00  0.00     0.010 A 
ATOM     66  C   UNL A   1      38.762  30.125  30.376  1.00  0.00     0.020 A 
ATOM     67  C   UNL A   1      38.272  29.698  28.038  1.00  0.00     0.020 A 
ATOM     68  C   UNL A   1      37.849  30.051  29.320  1.00  0.00     0.054 A 
BRANCH  68  69
ATOM     69  S   UNL A   1      36.107  30.449  29.641  1.00  0.00     0.124 S 
ATOM     70  O   UNL A   1      35.916  29.904  30.983  1.00  0.00    -0.237 OA
ATOM     71  O   UNL A   1      36.086  31.906  29.546  1.00  0.00    -0.237 OA
ATOM     72  O   UNL A   1      35.391  29.748  28.577  1.00  0.00    -0.744 OA
ENDBRANCH  68  69
ENDBRANCH  49  63
BRANCH  50  73
ATOM     73  C   UNL A   1      49.942  26.497  26.685  1.00  0.00    -0.014 A 
ATOM     74  C   UNL A   1      50.888  26.115  27.652  1.00  0.00     0.010 A 
ATOM     75  C   UNL A   1      50.278  26.390  25.322  1.00  0.00     0.010 A 
ATOM     76  C   UNL A   1      52.140  25.626  27.267  1.00  0.00     0.020 A 
ATOM     77  C   UNL A   1      51.522  25.881  24.932  1.00  0.00     0.020 A 
ATOM     78  C   UNL A   1      52.446  25.503  25.909  1.00  0.00     0.054 A 
BRANCH  78  79
ATOM     79  S   UNL A   1      54.037  24.768  25.435  1.00  0.00     0.124 S 
ATOM     80  O   UNL A   1      54.815  24.908  26.661  1.00  0.00    -0.237 OA
ATOM     81  O   UNL A   1      53.661  23.403  25.076  1.00  0.00    -0.237 OA
ATOM     82  O   UNL A   1      54.477  25.598  24.315  1.00  0.00    -0.744 OA
ENDBRANCH  78  79
ENDBRANCH  50  73
BRANCH  62  83
ATOM     83  C   UNL A   1      46.929  32.681  27.876  1.00  0.00    -0.014 A 
ATOM     84  C   UNL A   1      47.396  33.238  29.078  1.00  0.00     0.010 A 
ATOM     85  C   UNL A   1      47.018  33.423  26.685  1.00  0.00     0.010 A 
ATOM     86  C   UNL A   1      47.914  34.534  29.094  1.00  0.00     0.020 A 
ATOM     87  C   UNL A   1      47.556  34.710  26.694  1.00  0.00     0.020 A 
ATOM     88  C   UNL A   1      47.987  35.263  27.902  1.00  0.00     0.054 A 
BRANCH  88  89
ATOM     89  S   UNL A   1      48.693  36.933  27.939  1.00  0.00     0.124 S 
ATOM     90  O   UNL A   1      49.107  37.055  29.334  1.00  0.00    -0.237 OA
ATOM     91  O   UNL A   1      49.780  36.846  26.967  1.00  0.00    -0.237 OA
ATOM     92  O   UNL A   1      47.577  37.788  27.542  1.00  0.00    -0.744 OA
ENDBRANCH  88  89
ENDBRANCH  62  83
ENDBRANCH  36  37
ENDBRANCH  28  31
ENDBRANCH  26  27
ENDBRANCH   1  26
TORSDOF 15
ENDMDL
