MODEL 1
REMARK VINA RESULT:     -10.6      0.000      0.000
REMARK SMILES C[NH2+][C@]1(C(=O)NCCCNC(=O)c2ccc(-c3c4nc(c(-c5ccc(S(=O)(=O)[O-])cc5)c5ccc([nH]5)c(-c5ccc(S(=O)(=O)[O-])cc5)c5nc(c(-c6ccc(S(=O)(=O)[O-])cc6)c6ccc3[nH]6)C=C5)C=C4)cc2)CCC[C@@H]1CCn1nc(C)c(Cl)c1C
REMARK SMILES IDX 8 1 7 2 6 3 4 4 5 5 3 7 73 8 76 9 74 10 75 11 2 12 1 13
REMARK SMILES IDX 77 16 78 17 79 18 80 19 85 20 81 21 83 22 86 23 82 24 84 25
REMARK SMILES IDX 9 26 10 27 11 28 12 30 13 31 14 32 72 33 15 34 71 35 16 36
REMARK SMILES IDX 17 37 18 38 65 39 19 40 70 41 64 42 66 43 20 44 69 45 63 46
REMARK SMILES IDX 62 47 21 49 51 50 32 51 50 52 33 53 36 54 49 55 67 56 34 57
REMARK SMILES IDX 35 58 48 60 68 61 37 62 22 63 23 64 31 65 24 66 30 67 25 68
REMARK SMILES IDX 26 69 27 70 28 71 29 72 52 73 53 74 61 75 54 76 60 77 55 78
REMARK SMILES IDX 56 79 57 80 58 81 59 82 38 83 39 84 47 85 40 86 46 87 41 88
REMARK SMILES IDX 42 89 43 90 44 91 45 92
REMARK H PARENT 6 6 2 14 2 15 10 29 66 48 36 59
REMARK Flexibility Score: inf
ROOT
ATOM      1  C   UNL A   1      36.167  23.300  23.761  1.00  0.00     0.042 C 
ENDROOT
BRANCH   1   2
ATOM      2  C   UNL A   1      34.733  23.793  23.824  1.00  0.00     0.118 C 
BRANCH   2   3
ATOM      3  N   UNL A   1      33.799  22.849  23.232  1.00  0.00    -0.351 N 
ATOM      4  C   UNL A   1      33.048  21.834  23.738  1.00  0.00     0.281 C 
ATOM      5  O   UNL A   1      32.445  21.161  22.891  1.00  0.00    -0.268 OA
ATOM      6  H   UNL A   1      33.686  22.971  22.262  1.00  0.00     0.163 HD
BRANCH   4   7
ATOM      7  C   UNL A   1      32.949  21.501  25.278  1.00  0.00     0.178 C 
ATOM      8  C   UNL A   1      34.354  21.249  25.864  1.00  0.00     0.079 C 
ATOM      9  C   UNL A   1      32.442  22.727  26.080  1.00  0.00     0.062 C 
ATOM     10  C   UNL A   1      34.318  21.741  27.309  1.00  0.00     0.008 C 
ATOM     11  C   UNL A   1      33.042  22.571  27.480  1.00  0.00     0.011 C 
BRANCH   7  12
ATOM     12  N   UNL A   1      32.131  20.267  25.383  1.00  0.00    -0.336 N 
ATOM     13  C   UNL A   1      32.742  18.963  25.454  1.00  0.00     0.331 C 
ATOM     14  H   UNL A   1      31.565  20.367  26.225  1.00  0.00     0.346 HD
ATOM     15  H   UNL A   1      31.658  20.239  24.479  1.00  0.00     0.346 HD
ENDBRANCH   7  12
BRANCH   9  16
ATOM     16  C   UNL A   1      30.933  23.010  26.017  1.00  0.00     0.034 C 
BRANCH  16  17
ATOM     17  C   UNL A   1      30.571  24.502  25.945  1.00  0.00     0.145 C 
BRANCH  17  18
ATOM     18  N   UNL A   1      31.314  25.272  24.959  1.00  0.00    -0.268 N 
ATOM     19  N   UNL A   1      31.130  24.983  23.652  1.00  0.00    -0.176 NA
ATOM     20  C   UNL A   1      32.159  26.340  25.159  1.00  0.00     0.054 A 
ATOM     21  C   UNL A   1      31.887  25.876  22.999  1.00  0.00     0.078 A 
ATOM     22  C   UNL A   1      32.564  26.726  23.898  1.00  0.00     0.084 A 
ATOM     23  C   UNL A   1      32.539  26.904  26.477  1.00  0.00     0.068 C 
ATOM     24  C   UNL A   1      31.912  25.884  21.515  1.00  0.00     0.070 C 
ATOM     25  Cl  UNL A   1      33.647  27.971  23.503  1.00  0.00    -0.080 Cl
ENDBRANCH  17  18
ENDBRANCH  16  17
ENDBRANCH   9  16
ENDBRANCH   4   7
ENDBRANCH   2   3
ENDBRANCH   1   2
BRANCH   1  26
ATOM     26  C   UNL A   1      37.013  23.740  24.943  1.00  0.00     0.118 C 
BRANCH  26  27
ATOM     27  N   UNL A   1      37.990  22.734  25.339  1.00  0.00    -0.352 N 
ATOM     28  C   UNL A   1      39.141  22.863  26.081  1.00  0.00     0.251 C 
ATOM     29  H   UNL A   1      37.796  21.821  25.028  1.00  0.00     0.163 HD
ATOM     30  O   UNL A   1      39.925  21.925  26.155  1.00  0.00    -0.269 OA
BRANCH  28  31
ATOM     31  C   UNL A   1      39.442  24.139  26.766  1.00  0.00     0.039 A 
ATOM     32  C   UNL A   1      38.975  24.335  28.069  1.00  0.00     0.014 A 
ATOM     33  C   UNL A   1      40.177  25.141  26.129  1.00  0.00     0.014 A 
ATOM     34  C   UNL A   1      39.308  25.507  28.752  1.00  0.00     0.010 A 
ATOM     35  C   UNL A   1      40.595  26.256  26.846  1.00  0.00     0.010 A 
ATOM     36  C   UNL A   1      40.154  26.459  28.161  1.00  0.00    -0.014 A 
BRANCH  36  37
ATOM     37  C   UNL A   1      40.576  27.683  28.888  1.00  0.00     0.031 A 
ATOM     38  C   UNL A   1      41.923  27.732  29.561  1.00  0.00     0.074 A 
ATOM     39  C   UNL A   1      39.725  28.722  29.001  1.00  0.00     0.049 A 
ATOM     40  N   UNL A   1      42.445  28.681  30.295  1.00  0.00    -0.248 NA
ATOM     41  C   UNL A   1      42.786  26.547  29.414  1.00  0.00     0.031 C 
ATOM     42  C   UNL A   1      38.377  28.781  28.429  1.00  0.00     0.029 A 
ATOM     43  N   UNL A   1      39.865  29.928  29.639  1.00  0.00    -0.354 N 
ATOM     44  C   UNL A   1      43.680  28.200  30.713  1.00  0.00     0.074 A 
ATOM     45  C   UNL A   1      43.807  26.855  30.200  1.00  0.00     0.031 C 
ATOM     46  C   UNL A   1      37.830  29.973  28.714  1.00  0.00     0.029 A 
ATOM     47  C   UNL A   1      38.764  30.745  29.527  1.00  0.00     0.049 A 
ATOM     48  H   UNL A   1      40.679  30.186  30.131  1.00  0.00     0.167 HD
ATOM     49  C   UNL A   1      44.634  28.828  31.440  1.00  0.00     0.031 A 
ATOM     50  C   UNL A   1      38.528  31.973  30.028  1.00  0.00     0.031 A 
ATOM     51  C   UNL A   1      44.508  30.172  31.939  1.00  0.00     0.049 A 
ATOM     52  C   UNL A   1      39.598  32.646  30.845  1.00  0.00     0.074 A 
ATOM     53  C   UNL A   1      45.440  30.921  32.634  1.00  0.00     0.029 A 
ATOM     54  N   UNL A   1      43.379  30.965  31.798  1.00  0.00    -0.354 N 
ATOM     55  N   UNL A   1      40.788  32.202  31.170  1.00  0.00    -0.248 NA
ATOM     56  C   UNL A   1      39.296  33.991  31.354  1.00  0.00     0.031 C 
ATOM     57  C   UNL A   1      44.852  32.146  32.968  1.00  0.00     0.029 A 
ATOM     58  C   UNL A   1      43.579  32.186  32.419  1.00  0.00     0.049 A 
ATOM     59  H   UNL A   1      42.557  30.700  31.327  1.00  0.00     0.167 HD
ATOM     60  C   UNL A   1      41.389  33.226  31.896  1.00  0.00     0.074 A 
ATOM     61  C   UNL A   1      40.435  34.315  31.947  1.00  0.00     0.031 C 
ATOM     62  C   UNL A   1      42.620  33.261  32.463  1.00  0.00     0.031 A 
BRANCH  49  63
ATOM     63  C   UNL A   1      45.895  28.061  31.750  1.00  0.00    -0.014 A 
ATOM     64  C   UNL A   1      45.998  27.260  32.901  1.00  0.00     0.010 A 
ATOM     65  C   UNL A   1      46.982  28.115  30.857  1.00  0.00     0.010 A 
ATOM     66  C   UNL A   1      47.179  26.567  33.180  1.00  0.00     0.020 A 
ATOM     67  C   UNL A   1      48.153  27.398  31.115  1.00  0.00     0.020 A 
ATOM     68  C   UNL A   1      48.251  26.642  32.285  1.00  0.00     0.054 A 
BRANCH  68  69
ATOM     69  S   UNL A   1      49.764  25.717  32.664  1.00  0.00     0.124 S 
ATOM     70  O   UNL A   1      49.341  24.899  33.798  1.00  0.00    -0.237 OA
ATOM     71  O   UNL A   1      50.011  24.988  31.422  1.00  0.00    -0.237 OA
ATOM     72  O   UNL A   1      50.739  26.759  32.977  1.00  0.00    -0.744 OA
ENDBRANCH  68  69
ENDBRANCH  49  63
BRANCH  50  73
ATOM     73  C   UNL A   1      37.231  32.652  29.755  1.00  0.00    -0.014 A 
ATOM     74  C   UNL A   1      36.151  32.514  30.644  1.00  0.00     0.010 A 
ATOM     75  C   UNL A   1      37.075  33.455  28.610  1.00  0.00     0.010 A 
ATOM     76  C   UNL A   1      34.933  33.150  30.384  1.00  0.00     0.020 A 
ATOM     77  C   UNL A   1      35.869  34.117  28.363  1.00  0.00     0.020 A 
ATOM     78  C   UNL A   1      34.801  33.950  29.245  1.00  0.00     0.054 A 
BRANCH  78  79
ATOM     79  S   UNL A   1      33.228  34.808  28.959  1.00  0.00     0.124 S 
ATOM     80  O   UNL A   1      33.675  36.112  28.480  1.00  0.00    -0.237 OA
ATOM     81  O   UNL A   1      32.581  33.956  27.965  1.00  0.00    -0.237 OA
ATOM     82  O   UNL A   1      32.594  34.808  30.275  1.00  0.00    -0.744 OA
ENDBRANCH  78  79
ENDBRANCH  50  73
BRANCH  62  83
ATOM     83  C   UNL A   1      43.027  34.534  33.158  1.00  0.00    -0.014 A 
ATOM     84  C   UNL A   1      42.835  34.708  34.540  1.00  0.00     0.010 A 
ATOM     85  C   UNL A   1      43.668  35.548  32.422  1.00  0.00     0.010 A 
ATOM     86  C   UNL A   1      43.246  35.888  35.166  1.00  0.00     0.020 A 
ATOM     87  C   UNL A   1      44.110  36.715  33.050  1.00  0.00     0.020 A 
ATOM     88  C   UNL A   1      43.882  36.884  34.417  1.00  0.00     0.054 A 
BRANCH  88  89
ATOM     89  S   UNL A   1      44.446  38.386  35.263  1.00  0.00     0.124 S 
ATOM     90  O   UNL A   1      43.950  38.174  36.620  1.00  0.00    -0.237 OA
ATOM     91  O   UNL A   1      45.897  38.315  35.106  1.00  0.00    -0.237 OA
ATOM     92  O   UNL A   1      43.797  39.466  34.523  1.00  0.00    -0.744 OA
ENDBRANCH  88  89
ENDBRANCH  62  83
ENDBRANCH  36  37
ENDBRANCH  28  31
ENDBRANCH  26  27
ENDBRANCH   1  26
TORSDOF 17
ENDMDL
MODEL 2
REMARK VINA RESULT:     -10.5      2.740      9.195
REMARK SMILES C[NH2+][C@]1(C(=O)NCCCNC(=O)c2ccc(-c3c4nc(c(-c5ccc(S(=O)(=O)[O-])cc5)c5ccc([nH]5)c(-c5ccc(S(=O)(=O)[O-])cc5)c5nc(c(-c6ccc(S(=O)(=O)[O-])cc6)c6ccc3[nH]6)C=C5)C=C4)cc2)CCC[C@@H]1CCn1nc(C)c(Cl)c1C
REMARK SMILES IDX 8 1 7 2 6 3 4 4 5 5 3 7 73 8 76 9 74 10 75 11 2 12 1 13
REMARK SMILES IDX 77 16 78 17 79 18 80 19 85 20 81 21 83 22 86 23 82 24 84 25
REMARK SMILES IDX 9 26 10 27 11 28 12 30 13 31 14 32 72 33 15 34 71 35 16 36
REMARK SMILES IDX 17 37 18 38 65 39 19 40 70 41 64 42 66 43 20 44 69 45 63 46
REMARK SMILES IDX 62 47 21 49 51 50 32 51 50 52 33 53 36 54 49 55 67 56 34 57
REMARK SMILES IDX 35 58 48 60 68 61 37 62 22 63 23 64 31 65 24 66 30 67 25 68
REMARK SMILES IDX 26 69 27 70 28 71 29 72 52 73 53 74 61 75 54 76 60 77 55 78
REMARK SMILES IDX 56 79 57 80 58 81 59 82 38 83 39 84 47 85 40 86 46 87 41 88
REMARK SMILES IDX 42 89 43 90 44 91 45 92
REMARK H PARENT 6 6 2 14 2 15 10 29 66 48 36 59
REMARK Flexibility Score: inf
ROOT
ATOM      1  C   UNL A   1      32.148  27.691  27.435  1.00  0.00     0.042 C 
ENDROOT
BRANCH   1   2
ATOM      2  C   UNL A   1      31.328  27.291  26.222  1.00  0.00     0.118 C 
BRANCH   2   3
ATOM      3  N   UNL A   1      31.826  27.893  24.997  1.00  0.00    -0.351 N 
ATOM      4  C   UNL A   1      32.337  27.383  23.843  1.00  0.00     0.281 C 
ATOM      5  O   UNL A   1      32.771  28.229  23.048  1.00  0.00    -0.268 OA
ATOM      6  H   UNL A   1      31.785  28.877  25.003  1.00  0.00     0.163 HD
BRANCH   4   7
ATOM      7  C   UNL A   1      32.404  25.839  23.523  1.00  0.00     0.178 C 
ATOM      8  C   UNL A   1      32.295  25.601  22.002  1.00  0.00     0.079 C 
ATOM      9  C   UNL A   1      33.797  25.258  23.877  1.00  0.00     0.062 C 
ATOM     10  C   UNL A   1      33.137  24.364  21.694  1.00  0.00     0.008 C 
ATOM     11  C   UNL A   1      33.994  24.072  22.929  1.00  0.00     0.011 C 
BRANCH   7  12
ATOM     12  N   UNL A   1      31.244  25.222  24.213  1.00  0.00    -0.336 N 
ATOM     13  C   UNL A   1      30.527  24.113  23.636  1.00  0.00     0.331 C 
ATOM     14  H   UNL A   1      31.584  24.906  25.121  1.00  0.00     0.346 HD
ATOM     15  H   UNL A   1      30.550  25.970  24.187  1.00  0.00     0.346 HD
ENDBRANCH   7  12
BRANCH   9  16
ATOM     16  C   UNL A   1      34.068  24.989  25.365  1.00  0.00     0.034 C 
BRANCH  16  17
ATOM     17  C   UNL A   1      33.913  23.516  25.781  1.00  0.00     0.145 C 
BRANCH  17  18
ATOM     18  N   UNL A   1      35.106  22.699  25.619  1.00  0.00    -0.268 N 
ATOM     19  N   UNL A   1      36.298  23.231  25.966  1.00  0.00    -0.176 NA
ATOM     20  C   UNL A   1      35.202  21.387  25.213  1.00  0.00     0.054 A 
ATOM     21  C   UNL A   1      37.181  22.244  25.763  1.00  0.00     0.078 A 
ATOM     22  C   UNL A   1      36.546  21.084  25.272  1.00  0.00     0.084 A 
ATOM     23  C   UNL A   1      34.068  20.530  24.789  1.00  0.00     0.068 C 
ATOM     24  C   UNL A   1      38.617  22.457  26.073  1.00  0.00     0.070 C 
ATOM     25  Cl  UNL A   1      37.289  19.618  24.851  1.00  0.00    -0.080 Cl
ENDBRANCH  17  18
ENDBRANCH  16  17
ENDBRANCH   9  16
ENDBRANCH   4   7
ENDBRANCH   2   3
ENDBRANCH   1   2
BRANCH   1  26
ATOM     26  C   UNL A   1      33.442  28.406  27.085  1.00  0.00     0.118 C 
BRANCH  26  27
ATOM     27  N   UNL A   1      33.387  29.834  27.366  1.00  0.00    -0.352 N 
ATOM     28  C   UNL A   1      34.315  30.654  27.964  1.00  0.00     0.251 C 
ATOM     29  H   UNL A   1      32.558  30.282  27.082  1.00  0.00     0.163 HD
ATOM     30  O   UNL A   1      34.007  31.799  28.271  1.00  0.00    -0.269 OA
BRANCH  28  31
ATOM     31  C   UNL A   1      35.672  30.146  28.259  1.00  0.00     0.039 A 
ATOM     32  C   UNL A   1      36.638  30.167  27.248  1.00  0.00     0.014 A 
ATOM     33  C   UNL A   1      35.995  29.647  29.522  1.00  0.00     0.014 A 
ATOM     34  C   UNL A   1      37.942  29.752  27.530  1.00  0.00     0.010 A 
ATOM     35  C   UNL A   1      37.314  29.336  29.829  1.00  0.00     0.010 A 
ATOM     36  C   UNL A   1      38.300  29.372  28.833  1.00  0.00    -0.014 A 
BRANCH  36  37
ATOM     37  C   UNL A   1      39.693  28.988  29.176  1.00  0.00     0.031 A 
ATOM     38  C   UNL A   1      40.605  29.984  29.843  1.00  0.00     0.074 A 
ATOM     39  C   UNL A   1      40.158  27.772  28.828  1.00  0.00     0.049 A 
ATOM     40  N   UNL A   1      41.869  29.861  30.162  1.00  0.00    -0.248 NA
ATOM     41  C   UNL A   1      40.032  31.301  30.168  1.00  0.00     0.031 C 
ATOM     42  C   UNL A   1      39.386  26.733  28.141  1.00  0.00     0.029 A 
ATOM     43  N   UNL A   1      41.395  27.203  29.000  1.00  0.00    -0.354 N 
ATOM     44  C   UNL A   1      42.243  31.087  30.702  1.00  0.00     0.074 A 
ATOM     45  C   UNL A   1      41.093  31.957  30.616  1.00  0.00     0.031 C 
ATOM     46  C   UNL A   1      40.155  25.645  27.982  1.00  0.00     0.029 A 
ATOM     47  C   UNL A   1      41.487  25.922  28.510  1.00  0.00     0.049 A 
ATOM     48  H   UNL A   1      42.145  27.669  29.435  1.00  0.00     0.167 HD
ATOM     49  C   UNL A   1      43.431  31.449  31.242  1.00  0.00     0.031 A 
ATOM     50  C   UNL A   1      42.529  25.067  28.479  1.00  0.00     0.031 A 
ATOM     51  C   UNL A   1      44.569  30.574  31.336  1.00  0.00     0.049 A 
ATOM     52  C   UNL A   1      43.843  25.498  29.072  1.00  0.00     0.074 A 
ATOM     53  C   UNL A   1      45.799  30.825  31.919  1.00  0.00     0.029 A 
ATOM     54  N   UNL A   1      44.619  29.284  30.832  1.00  0.00    -0.354 N 
ATOM     55  N   UNL A   1      44.157  26.636  29.642  1.00  0.00    -0.248 NA
ATOM     56  C   UNL A   1      44.941  24.522  29.029  1.00  0.00     0.031 C 
ATOM     57  C   UNL A   1      46.614  29.707  31.713  1.00  0.00     0.029 A 
ATOM     58  C   UNL A   1      45.869  28.734  31.065  1.00  0.00     0.049 A 
ATOM     59  H   UNL A   1      43.877  28.825  30.377  1.00  0.00     0.167 HD
ATOM     60  C   UNL A   1      45.480  26.503  30.052  1.00  0.00     0.074 A 
ATOM     61  C   UNL A   1      45.899  25.167  29.678  1.00  0.00     0.031 C 
ATOM     62  C   UNL A   1      46.273  27.403  30.685  1.00  0.00     0.031 A 
BRANCH  49  63
ATOM     63  C   UNL A   1      43.560  32.859  31.761  1.00  0.00    -0.014 A 
ATOM     64  C   UNL A   1      43.967  33.912  30.922  1.00  0.00     0.010 A 
ATOM     65  C   UNL A   1      43.239  33.140  33.102  1.00  0.00     0.010 A 
ATOM     66  C   UNL A   1      44.096  35.209  31.423  1.00  0.00     0.020 A 
ATOM     67  C   UNL A   1      43.334  34.443  33.600  1.00  0.00     0.020 A 
ATOM     68  C   UNL A   1      43.780  35.467  32.761  1.00  0.00     0.054 A 
BRANCH  68  69
ATOM     69  S   UNL A   1      43.938  37.164  33.380  1.00  0.00     0.124 S 
ATOM     70  O   UNL A   1      42.745  37.293  34.212  1.00  0.00    -0.237 OA
ATOM     71  O   UNL A   1      45.206  37.124  34.103  1.00  0.00    -0.237 OA
ATOM     72  O   UNL A   1      43.941  37.977  32.166  1.00  0.00    -0.744 OA
ENDBRANCH  68  69
ENDBRANCH  49  63
BRANCH  50  73
ATOM     73  C   UNL A   1      42.364  23.714  27.882  1.00  0.00    -0.014 A 
ATOM     74  C   UNL A   1      42.607  23.502  26.513  1.00  0.00     0.010 A 
ATOM     75  C   UNL A   1      41.978  22.623  28.683  1.00  0.00     0.010 A 
ATOM     76  C   UNL A   1      42.449  22.230  25.953  1.00  0.00     0.020 A 
ATOM     77  C   UNL A   1      41.848  21.345  28.133  1.00  0.00     0.020 A 
ATOM     78  C   UNL A   1      42.073  21.159  26.768  1.00  0.00     0.054 A 
BRANCH  78  79
ATOM     79  S   UNL A   1      41.927  19.508  26.029  1.00  0.00     0.124 S 
ATOM     80  O   UNL A   1      42.776  19.627  24.848  1.00  0.00    -0.237 OA
ATOM     81  O   UNL A   1      42.433  18.642  27.089  1.00  0.00    -0.237 OA
ATOM     82  O   UNL A   1      40.496  19.380  25.761  1.00  0.00    -0.744 OA
ENDBRANCH  78  79
ENDBRANCH  50  73
BRANCH  62  83
ATOM     83  C   UNL A   1      47.666  26.964  31.051  1.00  0.00    -0.014 A 
ATOM     84  C   UNL A   1      47.944  26.375  32.298  1.00  0.00     0.010 A 
ATOM     85  C   UNL A   1      48.702  27.090  30.107  1.00  0.00     0.010 A 
ATOM     86  C   UNL A   1      49.240  25.951  32.604  1.00  0.00     0.020 A 
ATOM     87  C   UNL A   1      49.991  26.638  30.397  1.00  0.00     0.020 A 
ATOM     88  C   UNL A   1      50.255  26.085  31.651  1.00  0.00     0.054 A 
BRANCH  88  89
ATOM     89  S   UNL A   1      51.918  25.485  32.057  1.00  0.00     0.124 S 
ATOM     90  O   UNL A   1      51.692  24.053  32.223  1.00  0.00    -0.237 OA
ATOM     91  O   UNL A   1      52.693  25.867  30.879  1.00  0.00    -0.237 OA
ATOM     92  O   UNL A   1      52.258  26.208  33.280  1.00  0.00    -0.744 OA
ENDBRANCH  88  89
ENDBRANCH  62  83
ENDBRANCH  36  37
ENDBRANCH  28  31
ENDBRANCH  26  27
ENDBRANCH   1  26
TORSDOF 17
ENDMDL
MODEL 3
REMARK VINA RESULT:     -10.4      3.135      9.173
REMARK SMILES C[NH2+][C@]1(C(=O)NCCCNC(=O)c2ccc(-c3c4nc(c(-c5ccc(S(=O)(=O)[O-])cc5)c5ccc([nH]5)c(-c5ccc(S(=O)(=O)[O-])cc5)c5nc(c(-c6ccc(S(=O)(=O)[O-])cc6)c6ccc3[nH]6)C=C5)C=C4)cc2)CCC[C@@H]1CCn1nc(C)c(Cl)c1C
REMARK SMILES IDX 8 1 7 2 6 3 4 4 5 5 3 7 73 8 76 9 74 10 75 11 2 12 1 13
REMARK SMILES IDX 77 16 78 17 79 18 80 19 85 20 81 21 83 22 86 23 82 24 84 25
REMARK SMILES IDX 9 26 10 27 11 28 12 30 13 31 14 32 72 33 15 34 71 35 16 36
REMARK SMILES IDX 17 37 18 38 65 39 19 40 70 41 64 42 66 43 20 44 69 45 63 46
REMARK SMILES IDX 62 47 21 49 51 50 32 51 50 52 33 53 36 54 49 55 67 56 34 57
REMARK SMILES IDX 35 58 48 60 68 61 37 62 22 63 23 64 31 65 24 66 30 67 25 68
REMARK SMILES IDX 26 69 27 70 28 71 29 72 52 73 53 74 61 75 54 76 60 77 55 78
REMARK SMILES IDX 56 79 57 80 58 81 59 82 38 83 39 84 47 85 40 86 46 87 41 88
REMARK SMILES IDX 42 89 43 90 44 91 45 92
REMARK H PARENT 6 6 2 14 2 15 10 29 66 48 36 59
REMARK Flexibility Score: inf
ROOT
ATOM      1  C   UNL A   1      33.427  27.934  26.776  1.00  0.00     0.042 C 
ENDROOT
BRANCH   1   2
ATOM      2  C   UNL A   1      31.949  28.143  27.050  1.00  0.00     0.118 C 
BRANCH   2   3
ATOM      3  N   UNL A   1      31.210  26.891  27.068  1.00  0.00    -0.351 N 
ATOM      4  C   UNL A   1      30.590  26.157  26.104  1.00  0.00     0.281 C 
ATOM      5  O   UNL A   1      29.953  25.181  26.524  1.00  0.00    -0.268 OA
ATOM      6  H   UNL A   1      31.145  26.491  27.964  1.00  0.00     0.163 HD
BRANCH   4   7
ATOM      7  C   UNL A   1      30.644  26.507  24.566  1.00  0.00     0.178 C 
ATOM      8  C   UNL A   1      30.605  28.035  24.362  1.00  0.00     0.079 C 
ATOM      9  C   UNL A   1      32.007  26.098  23.950  1.00  0.00     0.062 C 
ATOM     10  C   UNL A   1      31.436  28.330  23.115  1.00  0.00     0.008 C 
ATOM     11  C   UNL A   1      32.227  27.061  22.780  1.00  0.00     0.011 C 
BRANCH   7  12
ATOM     12  N   UNL A   1      29.440  25.887  23.959  1.00  0.00    -0.336 N 
ATOM     13  C   UNL A   1      28.187  26.596  23.879  1.00  0.00     0.331 C 
ATOM     14  H   UNL A   1      29.694  25.641  23.002  1.00  0.00     0.346 HD
ATOM     15  H   UNL A   1      29.226  25.134  24.614  1.00  0.00     0.346 HD
ENDBRANCH   7  12
BRANCH   9  16
ATOM     16  C   UNL A   1      32.200  24.605  23.645  1.00  0.00     0.034 C 
BRANCH  16  17
ATOM     17  C   UNL A   1      33.649  24.208  23.316  1.00  0.00     0.145 C 
BRANCH  17  18
ATOM     18  N   UNL A   1      34.103  22.966  23.924  1.00  0.00    -0.268 N 
ATOM     19  N   UNL A   1      33.178  22.148  24.472  1.00  0.00    -0.176 NA
ATOM     20  C   UNL A   1      35.375  22.443  23.966  1.00  0.00     0.054 A 
ATOM     21  C   UNL A   1      33.876  21.083  24.892  1.00  0.00     0.078 A 
ATOM     22  C   UNL A   1      35.251  21.234  24.617  1.00  0.00     0.084 A 
ATOM     23  C   UNL A   1      36.594  23.095  23.429  1.00  0.00     0.068 C 
ATOM     24  C   UNL A   1      33.175  19.941  25.529  1.00  0.00     0.070 C 
ATOM     25  Cl  UNL A   1      36.492  20.143  25.005  1.00  0.00    -0.080 Cl
ENDBRANCH  17  18
ENDBRANCH  16  17
ENDBRANCH   9  16
ENDBRANCH   4   7
ENDBRANCH   2   3
ENDBRANCH   1   2
BRANCH   1  26
ATOM     26  C   UNL A   1      34.060  29.055  25.968  1.00  0.00     0.118 C 
BRANCH  26  27
ATOM     27  N   UNL A   1      33.761  30.374  26.510  1.00  0.00    -0.352 N 
ATOM     28  C   UNL A   1      34.355  31.060  27.543  1.00  0.00     0.251 C 
ATOM     29  H   UNL A   1      33.021  30.847  26.067  1.00  0.00     0.163 HD
ATOM     30  O   UNL A   1      33.841  32.090  27.965  1.00  0.00    -0.269 OA
BRANCH  28  31
ATOM     31  C   UNL A   1      35.596  30.544  28.159  1.00  0.00     0.039 A 
ATOM     32  C   UNL A   1      36.829  30.949  27.641  1.00  0.00     0.014 A 
ATOM     33  C   UNL A   1      35.549  29.661  29.241  1.00  0.00     0.014 A 
ATOM     34  C   UNL A   1      38.010  30.522  28.254  1.00  0.00     0.010 A 
ATOM     35  C   UNL A   1      36.718  29.325  29.913  1.00  0.00     0.010 A 
ATOM     36  C   UNL A   1      37.963  29.739  29.419  1.00  0.00    -0.014 A 
BRANCH  36  37
ATOM     37  C   UNL A   1      39.200  29.325  30.129  1.00  0.00     0.031 A 
ATOM     38  C   UNL A   1      39.628  30.048  31.379  1.00  0.00     0.074 A 
ATOM     39  C   UNL A   1      39.972  28.347  29.614  1.00  0.00     0.049 A 
ATOM     40  N   UNL A   1      40.705  29.878  32.102  1.00  0.00    -0.248 NA
ATOM     41  C   UNL A   1      38.745  31.122  31.865  1.00  0.00     0.031 C 
ATOM     42  C   UNL A   1      39.687  27.599  28.387  1.00  0.00     0.029 A 
ATOM     43  N   UNL A   1      41.157  27.817  30.056  1.00  0.00    -0.354 N 
ATOM     44  C   UNL A   1      40.639  30.834  33.109  1.00  0.00     0.074 A 
ATOM     45  C   UNL A   1      39.448  31.618  32.873  1.00  0.00     0.031 C 
ATOM     46  C   UNL A   1      40.651  26.686  28.194  1.00  0.00     0.029 A 
ATOM     47  C   UNL A   1      41.647  26.813  29.253  1.00  0.00     0.049 A 
ATOM     48  H   UNL A   1      41.614  28.126  30.872  1.00  0.00     0.167 HD
ATOM     49  C   UNL A   1      41.482  31.029  34.151  1.00  0.00     0.031 A 
ATOM     50  C   UNL A   1      42.776  26.083  29.352  1.00  0.00     0.031 A 
ATOM     51  C   UNL A   1      42.660  30.239  34.389  1.00  0.00     0.049 A 
ATOM     52  C   UNL A   1      43.704  26.328  30.511  1.00  0.00     0.074 A 
ATOM     53  C   UNL A   1      43.548  30.316  35.448  1.00  0.00     0.029 A 
ATOM     54  N   UNL A   1      43.117  29.229  33.555  1.00  0.00    -0.354 N 
ATOM     55  N   UNL A   1      43.588  27.189  31.492  1.00  0.00    -0.248 NA
ATOM     56  C   UNL A   1      44.911  25.492  30.581  1.00  0.00     0.031 C 
ATOM     57  C   UNL A   1      44.576  29.395  35.223  1.00  0.00     0.029 A 
ATOM     58  C   UNL A   1      44.290  28.694  34.060  1.00  0.00     0.049 A 
ATOM     59  H   UNL A   1      42.674  28.935  32.727  1.00  0.00     0.167 HD
ATOM     60  C   UNL A   1      44.691  26.979  32.314  1.00  0.00     0.074 A 
ATOM     61  C   UNL A   1      45.452  25.898  31.720  1.00  0.00     0.031 C 
ATOM     62  C   UNL A   1      45.039  27.620  33.457  1.00  0.00     0.031 A 
BRANCH  49  63
ATOM     63  C   UNL A   1      41.163  32.152  35.106  1.00  0.00    -0.014 A 
ATOM     64  C   UNL A   1      41.642  33.456  34.886  1.00  0.00     0.010 A 
ATOM     65  C   UNL A   1      40.344  31.906  36.223  1.00  0.00     0.010 A 
ATOM     66  C   UNL A   1      41.350  34.482  35.788  1.00  0.00     0.020 A 
ATOM     67  C   UNL A   1      40.021  32.936  37.111  1.00  0.00     0.020 A 
ATOM     68  C   UNL A   1      40.541  34.214  36.898  1.00  0.00     0.054 A 
BRANCH  68  69
ATOM     69  S   UNL A   1      40.162  35.569  38.042  1.00  0.00     0.124 S 
ATOM     70  O   UNL A   1      39.985  36.694  37.128  1.00  0.00    -0.237 OA
ATOM     71  O   UNL A   1      38.946  35.099  38.701  1.00  0.00    -0.237 OA
ATOM     72  O   UNL A   1      41.344  35.642  38.898  1.00  0.00    -0.744 OA
ENDBRANCH  68  69
ENDBRANCH  49  63
BRANCH  50  73
ATOM     73  C   UNL A   1      43.078  25.039  28.335  1.00  0.00    -0.014 A 
ATOM     74  C   UNL A   1      43.854  25.347  27.203  1.00  0.00     0.010 A 
ATOM     75  C   UNL A   1      42.605  23.724  28.500  1.00  0.00     0.010 A 
ATOM     76  C   UNL A   1      44.134  24.367  26.247  1.00  0.00     0.020 A 
ATOM     77  C   UNL A   1      42.909  22.734  27.562  1.00  0.00     0.020 A 
ATOM     78  C   UNL A   1      43.662  23.064  26.434  1.00  0.00     0.054 A 
BRANCH  78  79
ATOM     79  S   UNL A   1      44.085  21.797  25.207  1.00  0.00     0.124 S 
ATOM     80  O   UNL A   1      43.901  22.516  23.951  1.00  0.00    -0.237 OA
ATOM     81  O   UNL A   1      45.464  21.469  25.554  1.00  0.00    -0.237 OA
ATOM     82  O   UNL A   1      43.117  20.733  25.467  1.00  0.00    -0.744 OA
ENDBRANCH  78  79
ENDBRANCH  50  73
BRANCH  62  83
ATOM     83  C   UNL A   1      46.278  27.145  34.169  1.00  0.00    -0.014 A 
ATOM     84  C   UNL A   1      47.536  27.717  33.909  1.00  0.00     0.010 A 
ATOM     85  C   UNL A   1      46.169  26.150  35.158  1.00  0.00     0.010 A 
ATOM     86  C   UNL A   1      48.667  27.278  34.603  1.00  0.00     0.020 A 
ATOM     87  C   UNL A   1      47.291  25.731  35.876  1.00  0.00     0.020 A 
ATOM     88  C   UNL A   1      48.537  26.287  35.583  1.00  0.00     0.054 A 
BRANCH  88  89
ATOM     89  S   UNL A   1      50.013  25.768  36.499  1.00  0.00     0.124 S 
ATOM     90  O   UNL A   1      49.470  24.753  37.398  1.00  0.00    -0.237 OA
ATOM     91  O   UNL A   1      50.887  25.267  35.441  1.00  0.00    -0.237 OA
ATOM     92  O   UNL A   1      50.469  26.995  37.148  1.00  0.00    -0.744 OA
ENDBRANCH  88  89
ENDBRANCH  62  83
ENDBRANCH  36  37
ENDBRANCH  28  31
ENDBRANCH  26  27
ENDBRANCH   1  26
TORSDOF 17
ENDMDL
