MODEL 1
REMARK VINA RESULT:     -13.1      0.000      0.000
REMARK SMILES O=C(Nc1cccc(C(=O)NCCCNC(=O)c2ccc(-c3c4nc(c(-c5ccc(S(=O)(=O)[O-])cc5)c5ccc([nH]5)c(-c5ccc(S(=O)(=O)[O-])cc5)c5nc(c(-c6ccc(S(=O)(=O)[O-])cc6)c6ccc3[nH]6)C=C5)C=C4)cc2)c1)Nc1cc(Cl)c(Cl)cc1Cl
REMARK SMILES IDX 13 1 12 2 11 3 9 4 10 5 8 7 4 8 5 9 78 10 6 11 7 12 3 13
REMARK SMILES IDX 1 14 2 15 79 16 80 19 81 20 87 21 82 22 86 23 88 24 83 25
REMARK SMILES IDX 84 26 85 27 14 28 15 29 16 30 17 32 18 33 19 34 77 35 20 36
REMARK SMILES IDX 76 37 21 38 22 39 23 40 70 41 24 42 75 43 69 44 71 45 25 46
REMARK SMILES IDX 74 47 68 48 67 49 26 51 56 52 37 53 55 54 38 55 41 56 54 57
REMARK SMILES IDX 72 58 39 59 40 60 53 62 73 63 42 64 27 65 28 66 36 67 29 68
REMARK SMILES IDX 35 69 30 70 31 71 32 72 33 73 34 74 57 75 58 76 66 77 59 78
REMARK SMILES IDX 65 79 60 80 61 81 62 82 63 83 64 84 43 85 44 86 52 87 45 88
REMARK SMILES IDX 51 89 46 90 47 91 48 92 49 93 50 94
REMARK H PARENT 11 6 3 17 79 18 15 31 71 50 41 61
REMARK Flexibility Score: inf
ROOT
ATOM      1  C   UNL A   1      37.459  23.714  25.487  1.00  0.00     0.042 C 
ENDROOT
BRANCH   1   2
ATOM      2  C   UNL A   1      37.095  22.229  25.536  1.00  0.00     0.118 C 
BRANCH   2   3
ATOM      3  N   UNL A   1      36.019  21.970  26.475  1.00  0.00    -0.352 N 
ATOM      4  C   UNL A   1      34.672  21.761  26.333  1.00  0.00     0.251 C 
ATOM      5  O   UNL A   1      34.042  21.494  27.359  1.00  0.00    -0.269 OA
ATOM      6  H   UNL A   1      36.320  21.937  27.412  1.00  0.00     0.163 HD
BRANCH   4   7
ATOM      7  C   UNL A   1      33.937  21.795  25.032  1.00  0.00     0.041 A 
ATOM      8  C   UNL A   1      33.326  22.745  22.872  1.00  0.00     0.043 A 
ATOM      9  C   UNL A   1      32.423  21.707  22.655  1.00  0.00     0.026 A 
ATOM     10  C   UNL A   1      34.026  22.816  24.084  1.00  0.00     0.040 A 
ATOM     11  C   UNL A   1      32.297  20.691  23.600  1.00  0.00     0.003 A 
ATOM     12  C   UNL A   1      33.062  20.727  24.768  1.00  0.00     0.014 A 
BRANCH   8  13
ATOM     13  N   UNL A   1      33.494  23.704  21.859  1.00  0.00    -0.308 N 
ATOM     14  O   UNL A   1      33.074  25.576  20.687  1.00  0.00    -0.248 OA
ATOM     15  C   UNL A   1      32.938  24.956  21.736  1.00  0.00     0.323 C 
ATOM     16  N   UNL A   1      32.437  25.489  22.902  1.00  0.00    -0.306 N 
ATOM     17  H   UNL A   1      34.100  23.441  21.129  1.00  0.00     0.171 HD
ATOM     18  H   UNL A   1      32.555  24.956  23.722  1.00  0.00     0.171 HD
BRANCH  16  19
ATOM     19  C   UNL A   1      31.769  26.727  23.033  1.00  0.00     0.063 A 
ATOM     20  C   UNL A   1      30.372  26.651  23.140  1.00  0.00     0.049 A 
ATOM     21  C   UNL A   1      32.382  27.991  23.034  1.00  0.00     0.066 A 
ATOM     22  C   UNL A   1      29.604  27.805  23.335  1.00  0.00     0.061 A 
ATOM     23  C   UNL A   1      31.610  29.145  23.223  1.00  0.00     0.044 A 
ATOM     24  Cl  UNL A   1      34.042  28.236  22.619  1.00  0.00    -0.082 Cl
ATOM     25  Cl  UNL A   1      27.896  27.608  23.507  1.00  0.00    -0.083 Cl
ATOM     26  C   UNL A   1      30.226  29.054  23.391  1.00  0.00     0.061 A 
ATOM     27  Cl  UNL A   1      29.341  30.516  23.639  1.00  0.00    -0.083 Cl
ENDBRANCH  16  19
ENDBRANCH   8  13
ENDBRANCH   4   7
ENDBRANCH   2   3
ENDBRANCH   1   2
BRANCH   1  28
ATOM     28  C   UNL A   1      38.432  24.138  26.586  1.00  0.00     0.118 C 
BRANCH  28  29
ATOM     29  N   UNL A   1      39.803  24.176  26.101  1.00  0.00    -0.352 N 
ATOM     30  C   UNL A   1      40.821  25.056  26.372  1.00  0.00     0.251 C 
ATOM     31  H   UNL A   1      40.041  23.453  25.476  1.00  0.00     0.163 HD
ATOM     32  O   UNL A   1      41.817  25.038  25.654  1.00  0.00    -0.269 OA
BRANCH  30  33
ATOM     33  C   UNL A   1      40.740  26.012  27.502  1.00  0.00     0.039 A 
ATOM     34  C   UNL A   1      39.787  25.779  28.500  1.00  0.00     0.014 A 
ATOM     35  C   UNL A   1      41.521  27.170  27.547  1.00  0.00     0.014 A 
ATOM     36  C   UNL A   1      39.641  26.686  29.552  1.00  0.00     0.010 A 
ATOM     37  C   UNL A   1      41.418  28.043  28.632  1.00  0.00     0.010 A 
ATOM     38  C   UNL A   1      40.466  27.819  29.637  1.00  0.00    -0.014 A 
BRANCH  38  39
ATOM     39  C   UNL A   1      40.332  28.771  30.769  1.00  0.00     0.031 A 
ATOM     40  C   UNL A   1      41.215  28.647  31.982  1.00  0.00     0.074 A 
ATOM     41  C   UNL A   1      39.390  29.732  30.717  1.00  0.00     0.049 A 
ATOM     42  N   UNL A   1      41.241  29.388  33.062  1.00  0.00    -0.248 NA
ATOM     43  C   UNL A   1      42.180  27.536  31.996  1.00  0.00     0.031 C 
ATOM     44  C   UNL A   1      38.440  29.927  29.618  1.00  0.00     0.029 A 
ATOM     45  N   UNL A   1      39.076  30.727  31.607  1.00  0.00    -0.354 N 
ATOM     46  C   UNL A   1      42.209  28.825  33.887  1.00  0.00     0.074 A 
ATOM     47  C   UNL A   1      42.717  27.656  33.201  1.00  0.00     0.031 C 
ATOM     48  C   UNL A   1      37.673  30.996  29.885  1.00  0.00     0.029 A 
ATOM     49  C   UNL A   1      38.055  31.544  31.183  1.00  0.00     0.049 A 
ATOM     50  H   UNL A   1      39.537  30.845  32.469  1.00  0.00     0.167 HD
ATOM     51  C   UNL A   1      42.648  29.250  35.097  1.00  0.00     0.031 A 
ATOM     52  C   UNL A   1      37.493  32.619  31.767  1.00  0.00     0.031 A 
ATOM     53  C   UNL A   1      42.152  30.422  35.771  1.00  0.00     0.049 A 
ATOM     54  C   UNL A   1      38.018  33.090  33.094  1.00  0.00     0.074 A 
ATOM     55  C   UNL A   1      42.567  30.964  36.974  1.00  0.00     0.029 A 
ATOM     56  N   UNL A   1      41.133  31.234  35.297  1.00  0.00    -0.354 N 
ATOM     57  N   UNL A   1      38.974  32.577  33.832  1.00  0.00    -0.248 NA
ATOM     58  C   UNL A   1      37.400  34.297  33.659  1.00  0.00     0.031 C 
ATOM     59  C   UNL A   1      41.774  32.087  37.245  1.00  0.00     0.029 A 
ATOM     60  C   UNL A   1      40.896  32.267  36.189  1.00  0.00     0.049 A 
ATOM     61  H   UNL A   1      40.648  31.096  34.451  1.00  0.00     0.167 HD
ATOM     62  C   UNL A   1      39.085  33.410  34.938  1.00  0.00     0.074 A 
ATOM     63  C   UNL A   1      38.114  34.470  34.763  1.00  0.00     0.031 C 
ATOM     64  C   UNL A   1      39.918  33.308  36.004  1.00  0.00     0.031 A 
BRANCH  51  65
ATOM     65  C   UNL A   1      43.723  28.436  35.769  1.00  0.00    -0.014 A 
ATOM     66  C   UNL A   1      43.393  27.374  36.632  1.00  0.00     0.010 A 
ATOM     67  C   UNL A   1      45.078  28.716  35.517  1.00  0.00     0.010 A 
ATOM     68  C   UNL A   1      44.399  26.637  37.264  1.00  0.00     0.020 A 
ATOM     69  C   UNL A   1      46.087  27.965  36.128  1.00  0.00     0.020 A 
ATOM     70  C   UNL A   1      45.741  26.943  37.015  1.00  0.00     0.054 A 
BRANCH  70  71
ATOM     71  S   UNL A   1      47.027  25.968  37.841  1.00  0.00     0.124 S 
ATOM     72  O   UNL A   1      48.172  26.874  37.788  1.00  0.00    -0.237 OA
ATOM     73  O   UNL A   1      46.463  25.750  39.171  1.00  0.00    -0.237 OA
ATOM     74  O   UNL A   1      47.141  24.771  37.013  1.00  0.00    -0.744 OA
ENDBRANCH  70  71
ENDBRANCH  51  65
BRANCH  52  75
ATOM     75  C   UNL A   1      36.393  33.345  31.078  1.00  0.00    -0.014 A 
ATOM     76  C   UNL A   1      35.161  33.550  31.726  1.00  0.00     0.010 A 
ATOM     77  C   UNL A   1      36.578  33.852  29.779  1.00  0.00     0.010 A 
ATOM     78  C   UNL A   1      34.128  34.234  31.081  1.00  0.00     0.020 A 
ATOM     79  C   UNL A   1      35.555  34.560  29.141  1.00  0.00     0.020 A 
ATOM     80  C   UNL A   1      34.332  34.736  29.792  1.00  0.00     0.054 A 
BRANCH  80  81
ATOM     81  S   UNL A   1      32.998  35.671  28.994  1.00  0.00     0.124 S 
ATOM     82  O   UNL A   1      32.394  34.660  28.131  1.00  0.00    -0.237 OA
ATOM     83  O   UNL A   1      32.186  36.102  30.130  1.00  0.00    -0.237 OA
ATOM     84  O   UNL A   1      33.704  36.746  28.301  1.00  0.00    -0.744 OA
ENDBRANCH  80  81
ENDBRANCH  52  75
BRANCH  64  85
ATOM     85  C   UNL A   1      39.825  34.386  37.048  1.00  0.00    -0.014 A 
ATOM     86  C   UNL A   1      40.506  35.607  36.895  1.00  0.00     0.010 A 
ATOM     87  C   UNL A   1      39.033  34.180  38.192  1.00  0.00     0.010 A 
ATOM     88  C   UNL A   1      40.432  36.585  37.891  1.00  0.00     0.020 A 
ATOM     89  C   UNL A   1      38.937  35.165  39.177  1.00  0.00     0.020 A 
ATOM     90  C   UNL A   1      39.655  36.354  39.030  1.00  0.00     0.054 A 
BRANCH  90  91
ATOM     91  S   UNL A   1      39.562  37.641  40.305  1.00  0.00     0.124 S 
ATOM     92  O   UNL A   1      38.710  38.639  39.666  1.00  0.00    -0.237 OA
ATOM     93  O   UNL A   1      38.965  36.935  41.436  1.00  0.00    -0.237 OA
ATOM     94  O   UNL A   1      40.956  38.039  40.494  1.00  0.00    -0.744 OA
ENDBRANCH  90  91
ENDBRANCH  64  85
ENDBRANCH  38  39
ENDBRANCH  30  33
ENDBRANCH  28  29
ENDBRANCH   1  28
TORSDOF 15
ENDMDL
MODEL 2
REMARK VINA RESULT:     -12.9      6.643     12.301
REMARK SMILES O=C(Nc1cccc(C(=O)NCCCNC(=O)c2ccc(-c3c4nc(c(-c5ccc(S(=O)(=O)[O-])cc5)c5ccc([nH]5)c(-c5ccc(S(=O)(=O)[O-])cc5)c5nc(c(-c6ccc(S(=O)(=O)[O-])cc6)c6ccc3[nH]6)C=C5)C=C4)cc2)c1)Nc1cc(Cl)c(Cl)cc1Cl
REMARK SMILES IDX 13 1 12 2 11 3 9 4 10 5 8 7 4 8 5 9 78 10 6 11 7 12 3 13
REMARK SMILES IDX 1 14 2 15 79 16 80 19 81 20 87 21 82 22 86 23 88 24 83 25
REMARK SMILES IDX 84 26 85 27 14 28 15 29 16 30 17 32 18 33 19 34 77 35 20 36
REMARK SMILES IDX 76 37 21 38 22 39 23 40 70 41 24 42 75 43 69 44 71 45 25 46
REMARK SMILES IDX 74 47 68 48 67 49 26 51 56 52 37 53 55 54 38 55 41 56 54 57
REMARK SMILES IDX 72 58 39 59 40 60 53 62 73 63 42 64 27 65 28 66 36 67 29 68
REMARK SMILES IDX 35 69 30 70 31 71 32 72 33 73 34 74 57 75 58 76 66 77 59 78
REMARK SMILES IDX 65 79 60 80 61 81 62 82 63 83 64 84 43 85 44 86 52 87 45 88
REMARK SMILES IDX 51 89 46 90 47 91 48 92 49 93 50 94
REMARK H PARENT 11 6 3 17 79 18 15 31 71 50 41 61
REMARK Flexibility Score: inf
ROOT
ATOM      1  C   UNL A   1      35.072  29.459  27.167  1.00  0.00     0.042 C 
ENDROOT
BRANCH   1   2
ATOM      2  C   UNL A   1      33.592  29.562  26.796  1.00  0.00     0.118 C 
BRANCH   2   3
ATOM      3  N   UNL A   1      33.403  29.677  25.362  1.00  0.00    -0.352 N 
ATOM      4  C   UNL A   1      32.632  28.998  24.454  1.00  0.00     0.251 C 
ATOM      5  O   UNL A   1      32.657  29.408  23.292  1.00  0.00    -0.269 OA
ATOM      6  H   UNL A   1      33.943  30.393  24.955  1.00  0.00     0.163 HD
BRANCH   4   7
ATOM      7  C   UNL A   1      31.747  27.840  24.785  1.00  0.00     0.041 A 
ATOM      8  C   UNL A   1      31.152  25.786  25.955  1.00  0.00     0.043 A 
ATOM      9  C   UNL A   1      29.963  25.703  25.236  1.00  0.00     0.026 A 
ATOM     10  C   UNL A   1      32.062  26.815  25.678  1.00  0.00     0.040 A 
ATOM     11  C   UNL A   1      29.639  26.701  24.319  1.00  0.00     0.003 A 
ATOM     12  C   UNL A   1      30.516  27.769  24.111  1.00  0.00     0.014 A 
BRANCH   8  13
ATOM     13  N   UNL A   1      31.406  24.813  26.936  1.00  0.00    -0.308 N 
ATOM     14  O   UNL A   1      32.179  22.881  27.788  1.00  0.00    -0.248 OA
ATOM     15  C   UNL A   1      32.226  23.709  26.885  1.00  0.00     0.323 C 
ATOM     16  N   UNL A   1      33.185  23.739  25.898  1.00  0.00    -0.306 N 
ATOM     17  H   UNL A   1      30.927  24.940  27.787  1.00  0.00     0.171 HD
ATOM     18  H   UNL A   1      33.232  24.555  25.348  1.00  0.00     0.171 HD
BRANCH  16  19
ATOM     19  C   UNL A   1      34.106  22.711  25.600  1.00  0.00     0.063 A 
ATOM     20  C   UNL A   1      35.458  23.041  25.778  1.00  0.00     0.049 A 
ATOM     21  C   UNL A   1      33.778  21.432  25.123  1.00  0.00     0.066 A 
ATOM     22  C   UNL A   1      36.462  22.089  25.573  1.00  0.00     0.061 A 
ATOM     23  C   UNL A   1      34.785  20.481  24.912  1.00  0.00     0.044 A 
ATOM     24  Cl  UNL A   1      32.192  21.001  24.587  1.00  0.00    -0.082 Cl
ATOM     25  Cl  UNL A   1      38.095  22.572  25.867  1.00  0.00    -0.083 Cl
ATOM     26  C   UNL A   1      36.124  20.801  25.152  1.00  0.00     0.061 A 
ATOM     27  Cl  UNL A   1      37.310  19.574  24.891  1.00  0.00    -0.083 Cl
ENDBRANCH  16  19
ENDBRANCH   8  13
ENDBRANCH   4   7
ENDBRANCH   2   3
ENDBRANCH   1   2
BRANCH   1  28
ATOM     28  C   UNL A   1      35.620  30.715  27.841  1.00  0.00     0.118 C 
BRANCH  28  29
ATOM     29  N   UNL A   1      35.557  30.615  29.292  1.00  0.00    -0.352 N 
ATOM     30  C   UNL A   1      36.446  30.076  30.188  1.00  0.00     0.251 C 
ATOM     31  H   UNL A   1      34.743  30.995  29.697  1.00  0.00     0.163 HD
ATOM     32  O   UNL A   1      36.068  29.877  31.339  1.00  0.00    -0.269 OA
BRANCH  30  33
ATOM     33  C   UNL A   1      37.834  29.740  29.796  1.00  0.00     0.039 A 
ATOM     34  C   UNL A   1      38.145  29.688  28.433  1.00  0.00     0.014 A 
ATOM     35  C   UNL A   1      38.805  29.392  30.740  1.00  0.00     0.014 A 
ATOM     36  C   UNL A   1      39.428  29.320  28.021  1.00  0.00     0.010 A 
ATOM     37  C   UNL A   1      40.104  29.086  30.331  1.00  0.00     0.010 A 
ATOM     38  C   UNL A   1      40.425  29.031  28.967  1.00  0.00    -0.014 A 
BRANCH  38  39
ATOM     39  C   UNL A   1      41.798  28.666  28.533  1.00  0.00     0.031 A 
ATOM     40  C   UNL A   1      42.889  29.702  28.494  1.00  0.00     0.074 A 
ATOM     41  C   UNL A   1      42.054  27.403  28.143  1.00  0.00     0.049 A 
ATOM     42  N   UNL A   1      44.144  29.565  28.145  1.00  0.00    -0.248 NA
ATOM     43  C   UNL A   1      42.521  31.075  28.875  1.00  0.00     0.031 C 
ATOM     44  C   UNL A   1      41.070  26.317  28.090  1.00  0.00     0.029 A 
ATOM     45  N   UNL A   1      43.219  26.815  27.720  1.00  0.00    -0.354 N 
ATOM     46  C   UNL A   1      44.709  30.832  28.249  1.00  0.00     0.074 A 
ATOM     47  C   UNL A   1      43.650  31.732  28.651  1.00  0.00     0.031 C 
ATOM     48  C   UNL A   1      41.681  25.190  27.691  1.00  0.00     0.029 A 
ATOM     49  C   UNL A   1      43.089  25.477  27.432  1.00  0.00     0.049 A 
ATOM     50  H   UNL A   1      44.068  27.305  27.629  1.00  0.00     0.167 HD
ATOM     51  C   UNL A   1      45.995  31.209  28.045  1.00  0.00     0.031 A 
ATOM     52  C   UNL A   1      44.000  24.578  27.016  1.00  0.00     0.031 A 
ATOM     53  C   UNL A   1      47.050  30.309  27.658  1.00  0.00     0.049 A 
ATOM     54  C   UNL A   1      45.426  25.013  26.826  1.00  0.00     0.074 A 
ATOM     55  C   UNL A   1      48.394  30.585  27.476  1.00  0.00     0.029 A 
ATOM     56  N   UNL A   1      46.880  28.958  27.398  1.00  0.00    -0.354 N 
ATOM     57  N   UNL A   1      45.952  26.205  26.985  1.00  0.00    -0.248 NA
ATOM     58  C   UNL A   1      46.385  23.978  26.418  1.00  0.00     0.031 C 
ATOM     59  C   UNL A   1      49.032  29.405  27.072  1.00  0.00     0.029 A 
ATOM     60  C   UNL A   1      48.092  28.387  27.046  1.00  0.00     0.049 A 
ATOM     61  H   UNL A   1      46.024  28.475  27.455  1.00  0.00     0.167 HD
ATOM     62  C   UNL A   1      47.307  26.058  26.716  1.00  0.00     0.074 A 
ATOM     63  C   UNL A   1      47.522  24.660  26.404  1.00  0.00     0.031 C 
ATOM     64  C   UNL A   1      48.287  26.996  26.728  1.00  0.00     0.031 A 
BRANCH  51  65
ATOM     65  C   UNL A   1      46.327  32.666  28.236  1.00  0.00    -0.014 A 
ATOM     66  C   UNL A   1      46.167  33.590  27.186  1.00  0.00     0.010 A 
ATOM     67  C   UNL A   1      46.780  33.125  29.486  1.00  0.00     0.010 A 
ATOM     68  C   UNL A   1      46.497  34.935  27.370  1.00  0.00     0.020 A 
ATOM     69  C   UNL A   1      47.086  34.475  29.682  1.00  0.00     0.020 A 
ATOM     70  C   UNL A   1      46.963  35.369  28.615  1.00  0.00     0.054 A 
BRANCH  70  71
ATOM     71  S   UNL A   1      47.376  37.122  28.831  1.00  0.00     0.124 S 
ATOM     72  O   UNL A   1      46.645  37.454  30.051  1.00  0.00    -0.237 OA
ATOM     73  O   UNL A   1      48.831  37.097  28.960  1.00  0.00    -0.237 OA
ATOM     74  O   UNL A   1      46.872  37.749  27.613  1.00  0.00    -0.744 OA
ENDBRANCH  70  71
ENDBRANCH  51  65
BRANCH  52  75
ATOM     75  C   UNL A   1      43.595  23.166  26.786  1.00  0.00    -0.014 A 
ATOM     76  C   UNL A   1      43.885  22.532  25.564  1.00  0.00     0.010 A 
ATOM     77  C   UNL A   1      42.934  22.441  27.794  1.00  0.00     0.010 A 
ATOM     78  C   UNL A   1      43.507  21.204  25.348  1.00  0.00     0.020 A 
ATOM     79  C   UNL A   1      42.578  21.105  27.591  1.00  0.00     0.020 A 
ATOM     80  C   UNL A   1      42.857  20.498  26.364  1.00  0.00     0.054 A 
BRANCH  80  81
ATOM     81  S   UNL A   1      42.425  18.759  26.085  1.00  0.00     0.124 S 
ATOM     82  O   UNL A   1      42.657  18.175  27.403  1.00  0.00    -0.237 OA
ATOM     83  O   UNL A   1      41.029  18.840  25.665  1.00  0.00    -0.237 OA
ATOM     84  O   UNL A   1      43.357  18.339  25.041  1.00  0.00    -0.744 OA
ENDBRANCH  80  81
ENDBRANCH  52  75
BRANCH  64  85
ATOM     85  C   UNL A   1      49.682  26.529  26.414  1.00  0.00    -0.014 A 
ATOM     86  C   UNL A   1      50.461  25.866  27.380  1.00  0.00     0.010 A 
ATOM     87  C   UNL A   1      50.215  26.744  25.131  1.00  0.00     0.010 A 
ATOM     88  C   UNL A   1      51.766  25.467  27.080  1.00  0.00     0.020 A 
ATOM     89  C   UNL A   1      51.510  26.324  24.820  1.00  0.00     0.020 A 
ATOM     90  C   UNL A   1      52.285  25.707  25.804  1.00  0.00     0.054 A 
BRANCH  90  91
ATOM     91  S   UNL A   1      53.978  25.171  25.431  1.00  0.00     0.124 S 
ATOM     92  O   UNL A   1      54.150  25.645  24.061  1.00  0.00    -0.237 OA
ATOM     93  O   UNL A   1      54.769  25.867  26.442  1.00  0.00    -0.237 OA
ATOM     94  O   UNL A   1      53.921  23.719  25.586  1.00  0.00    -0.744 OA
ENDBRANCH  90  91
ENDBRANCH  64  85
ENDBRANCH  38  39
ENDBRANCH  30  33
ENDBRANCH  28  29
ENDBRANCH   1  28
TORSDOF 15
ENDMDL
MODEL 3
REMARK VINA RESULT:     -12.9      2.733      9.203
REMARK SMILES O=C(Nc1cccc(C(=O)NCCCNC(=O)c2ccc(-c3c4nc(c(-c5ccc(S(=O)(=O)[O-])cc5)c5ccc([nH]5)c(-c5ccc(S(=O)(=O)[O-])cc5)c5nc(c(-c6ccc(S(=O)(=O)[O-])cc6)c6ccc3[nH]6)C=C5)C=C4)cc2)c1)Nc1cc(Cl)c(Cl)cc1Cl
REMARK SMILES IDX 13 1 12 2 11 3 9 4 10 5 8 7 4 8 5 9 78 10 6 11 7 12 3 13
REMARK SMILES IDX 1 14 2 15 79 16 80 19 81 20 87 21 82 22 86 23 88 24 83 25
REMARK SMILES IDX 84 26 85 27 14 28 15 29 16 30 17 32 18 33 19 34 77 35 20 36
REMARK SMILES IDX 76 37 21 38 22 39 23 40 70 41 24 42 75 43 69 44 71 45 25 46
REMARK SMILES IDX 74 47 68 48 67 49 26 51 56 52 37 53 55 54 38 55 41 56 54 57
REMARK SMILES IDX 72 58 39 59 40 60 53 62 73 63 42 64 27 65 28 66 36 67 29 68
REMARK SMILES IDX 35 69 30 70 31 71 32 72 33 73 34 74 57 75 58 76 66 77 59 78
REMARK SMILES IDX 65 79 60 80 61 81 62 82 63 83 64 84 43 85 44 86 52 87 45 88
REMARK SMILES IDX 51 89 46 90 47 91 48 92 49 93 50 94
REMARK H PARENT 11 6 3 17 79 18 15 31 71 50 41 61
REMARK Flexibility Score: inf
ROOT
ATOM      1  C   UNL A   1      31.694  31.919  26.631  1.00  0.00     0.042 C 
ENDROOT
BRANCH   1   2
ATOM      2  C   UNL A   1      31.704  30.408  26.394  1.00  0.00     0.118 C 
BRANCH   2   3
ATOM      3  N   UNL A   1      32.307  30.067  25.119  1.00  0.00    -0.352 N 
ATOM      4  C   UNL A   1      32.247  28.960  24.312  1.00  0.00     0.251 C 
ATOM      5  O   UNL A   1      32.842  29.028  23.234  1.00  0.00    -0.269 OA
ATOM      6  H   UNL A   1      32.881  30.780  24.757  1.00  0.00     0.163 HD
BRANCH   4   7
ATOM      7  C   UNL A   1      31.486  27.714  24.630  1.00  0.00     0.041 A 
ATOM      8  C   UNL A   1      31.064  25.638  25.837  1.00  0.00     0.043 A 
ATOM      9  C   UNL A   1      29.943  25.391  25.049  1.00  0.00     0.026 A 
ATOM     10  C   UNL A   1      31.861  26.761  25.579  1.00  0.00     0.040 A 
ATOM     11  C   UNL A   1      29.564  26.314  24.077  1.00  0.00     0.003 A 
ATOM     12  C   UNL A   1      30.320  27.474  23.884  1.00  0.00     0.014 A 
BRANCH   8  13
ATOM     13  N   UNL A   1      31.367  24.732  26.868  1.00  0.00    -0.308 N 
ATOM     14  O   UNL A   1      32.203  22.872  27.813  1.00  0.00    -0.248 OA
ATOM     15  C   UNL A   1      32.206  23.643  26.859  1.00  0.00     0.323 C 
ATOM     16  N   UNL A   1      33.135  23.630  25.844  1.00  0.00    -0.306 N 
ATOM     17  H   UNL A   1      30.910  24.903  27.723  1.00  0.00     0.171 HD
ATOM     18  H   UNL A   1      33.149  24.411  25.243  1.00  0.00     0.171 HD
BRANCH  16  19
ATOM     19  C   UNL A   1      34.068  22.603  25.581  1.00  0.00     0.063 A 
ATOM     20  C   UNL A   1      35.418  22.967  25.702  1.00  0.00     0.049 A 
ATOM     21  C   UNL A   1      33.752  21.291  25.189  1.00  0.00     0.066 A 
ATOM     22  C   UNL A   1      36.434  22.021  25.525  1.00  0.00     0.061 A 
ATOM     23  C   UNL A   1      34.772  20.348  25.007  1.00  0.00     0.044 A 
ATOM     24  Cl  UNL A   1      32.161  20.802  24.723  1.00  0.00    -0.082 Cl
ATOM     25  Cl  UNL A   1      38.065  22.551  25.746  1.00  0.00    -0.083 Cl
ATOM     26  C   UNL A   1      36.110  20.705  25.191  1.00  0.00     0.061 A 
ATOM     27  Cl  UNL A   1      37.313  19.486  24.969  1.00  0.00    -0.083 Cl
ENDBRANCH  16  19
ENDBRANCH   8  13
ENDBRANCH   4   7
ENDBRANCH   2   3
ENDBRANCH   1   2
BRANCH   1  28
ATOM     28  C   UNL A   1      33.005  32.453  27.204  1.00  0.00     0.118 C 
BRANCH  28  29
ATOM     29  N   UNL A   1      32.852  33.806  27.717  1.00  0.00    -0.352 N 
ATOM     30  C   UNL A   1      33.454  34.430  28.781  1.00  0.00     0.251 C 
ATOM     31  H   UNL A   1      32.213  34.367  27.220  1.00  0.00     0.163 HD
ATOM     32  O   UNL A   1      32.985  35.493  29.178  1.00  0.00    -0.269 OA
BRANCH  30  33
ATOM     33  C   UNL A   1      34.646  33.853  29.445  1.00  0.00     0.039 A 
ATOM     34  C   UNL A   1      34.449  32.903  30.453  1.00  0.00     0.014 A 
ATOM     35  C   UNL A   1      35.940  34.293  29.154  1.00  0.00     0.014 A 
ATOM     36  C   UNL A   1      35.543  32.376  31.142  1.00  0.00     0.010 A 
ATOM     37  C   UNL A   1      37.038  33.720  29.799  1.00  0.00     0.010 A 
ATOM     38  C   UNL A   1      36.851  32.768  30.811  1.00  0.00    -0.014 A 
BRANCH  38  39
ATOM     39  C   UNL A   1      38.018  32.189  31.523  1.00  0.00     0.031 A 
ATOM     40  C   UNL A   1      38.439  32.726  32.866  1.00  0.00     0.074 A 
ATOM     41  C   UNL A   1      38.722  31.198  30.943  1.00  0.00     0.049 A 
ATOM     42  N   UNL A   1      39.429  32.343  33.632  1.00  0.00    -0.248 NA
ATOM     43  C   UNL A   1      37.661  33.851  33.409  1.00  0.00     0.031 C 
ATOM     44  C   UNL A   1      38.445  30.623  29.624  1.00  0.00     0.029 A 
ATOM     45  N   UNL A   1      39.812  30.495  31.389  1.00  0.00    -0.354 N 
ATOM     46  C   UNL A   1      39.403  33.188  34.738  1.00  0.00     0.074 A 
ATOM     47  C   UNL A   1      38.327  34.130  34.520  1.00  0.00     0.031 C 
ATOM     48  C   UNL A   1      39.320  29.634  29.383  1.00  0.00     0.029 A 
ATOM     49  C   UNL A   1      40.237  29.523  30.514  1.00  0.00     0.049 A 
ATOM     50  H   UNL A   1      40.249  30.668  32.254  1.00  0.00     0.167 HD
ATOM     51  C   UNL A   1      40.191  33.171  35.840  1.00  0.00     0.031 A 
ATOM     52  C   UNL A   1      41.245  28.637  30.612  1.00  0.00     0.031 A 
ATOM     53  C   UNL A   1      41.253  32.224  36.061  1.00  0.00     0.049 A 
ATOM     54  C   UNL A   1      42.086  28.617  31.857  1.00  0.00     0.074 A 
ATOM     55  C   UNL A   1      42.074  32.092  37.167  1.00  0.00     0.029 A 
ATOM     56  N   UNL A   1      41.637  31.243  35.159  1.00  0.00    -0.354 N 
ATOM     57  N   UNL A   1      42.009  29.388  32.916  1.00  0.00    -0.248 NA
ATOM     58  C   UNL A   1      43.139  27.595  31.928  1.00  0.00     0.031 C 
ATOM     59  C   UNL A   1      42.979  31.052  36.919  1.00  0.00     0.029 A 
ATOM     60  C   UNL A   1      42.691  30.509  35.677  1.00  0.00     0.049 A 
ATOM     61  H   UNL A   1      41.221  31.091  34.280  1.00  0.00     0.167 HD
ATOM     62  C   UNL A   1      42.989  28.930  33.788  1.00  0.00     0.074 A 
ATOM     63  C   UNL A   1      43.632  27.805  33.141  1.00  0.00     0.031 C 
ATOM     64  C   UNL A   1      43.327  29.399  35.015  1.00  0.00     0.031 A 
BRANCH  51  65
ATOM     65  C   UNL A   1      39.931  34.217  36.893  1.00  0.00    -0.014 A 
ATOM     66  C   UNL A   1      39.102  33.943  37.997  1.00  0.00     0.010 A 
ATOM     67  C   UNL A   1      40.543  35.480  36.795  1.00  0.00     0.010 A 
ATOM     68  C   UNL A   1      38.854  34.928  38.957  1.00  0.00     0.020 A 
ATOM     69  C   UNL A   1      40.317  36.459  37.767  1.00  0.00     0.020 A 
ATOM     70  C   UNL A   1      39.456  36.183  38.832  1.00  0.00     0.054 A 
BRANCH  70  71
ATOM     71  S   UNL A   1      39.125  37.442  40.096  1.00  0.00     0.124 S 
ATOM     72  O   UNL A   1      38.143  38.290  39.424  1.00  0.00    -0.237 OA
ATOM     73  O   UNL A   1      38.609  36.651  41.211  1.00  0.00    -0.237 OA
ATOM     74  O   UNL A   1      40.429  38.057  40.323  1.00  0.00    -0.744 OA
ENDBRANCH  70  71
ENDBRANCH  51  65
BRANCH  52  75
ATOM     75  C   UNL A   1      41.489  27.669  29.509  1.00  0.00    -0.014 A 
ATOM     76  C   UNL A   1      42.528  27.888  28.587  1.00  0.00     0.010 A 
ATOM     77  C   UNL A   1      40.696  26.513  29.387  1.00  0.00     0.010 A 
ATOM     78  C   UNL A   1      42.760  26.978  27.552  1.00  0.00     0.020 A 
ATOM     79  C   UNL A   1      40.942  25.588  28.369  1.00  0.00     0.020 A 
ATOM     80  C   UNL A   1      41.966  25.833  27.450  1.00  0.00     0.054 A 
BRANCH  80  81
ATOM     81  S   UNL A   1      42.318  24.635  26.134  1.00  0.00     0.124 S 
ATOM     82  O   UNL A   1      42.233  25.466  24.937  1.00  0.00    -0.237 OA
ATOM     83  O   UNL A   1      43.656  24.163  26.484  1.00  0.00    -0.237 OA
ATOM     84  O   UNL A   1      41.258  23.641  26.285  1.00  0.00    -0.744 OA
ENDBRANCH  80  81
ENDBRANCH  52  75
BRANCH  64  85
ATOM     85  C   UNL A   1      44.428  28.677  35.742  1.00  0.00    -0.014 A 
ATOM     86  C   UNL A   1      44.140  27.683  36.695  1.00  0.00     0.010 A 
ATOM     87  C   UNL A   1      45.769  28.987  35.456  1.00  0.00     0.010 A 
ATOM     88  C   UNL A   1      45.176  27.045  37.382  1.00  0.00     0.020 A 
ATOM     89  C   UNL A   1      46.807  28.333  36.123  1.00  0.00     0.020 A 
ATOM     90  C   UNL A   1      46.503  27.380  37.098  1.00  0.00     0.054 A 
BRANCH  90  91
ATOM     91  S   UNL A   1      47.833  26.531  37.993  1.00  0.00     0.124 S 
ATOM     92  O   UNL A   1      47.333  26.548  39.365  1.00  0.00    -0.237 OA
ATOM     93  O   UNL A   1      47.869  25.219  37.353  1.00  0.00    -0.237 OA
ATOM     94  O   UNL A   1      49.004  27.369  37.745  1.00  0.00    -0.744 OA
ENDBRANCH  90  91
ENDBRANCH  64  85
ENDBRANCH  38  39
ENDBRANCH  30  33
ENDBRANCH  28  29
ENDBRANCH   1  28
TORSDOF 15
ENDMDL
