MODEL 1
REMARK VINA RESULT:     -12.2      0.000      0.000
REMARK SMILES NC(=O)C[C@@H](NC(=O)Cn1cnc2ccccc21)C(=O)NCCCNC(=O)c1ccc(-c2c3nc(c(-c4ccc(S(=O)(=O)[O-])cc4)c4ccc([nH]4)c(-c4ccc(S(=O)(=O)[O-])cc4)c4nc(c(-c5ccc(S(=O)(=O)[O-])cc5)c5ccc2[nH]5)C=C4)C=C3)cc1
REMARK SMILES IDX 23 1 22 2 21 3 19 4 20 5 5 7 4 8 2 9 1 10 3 13 6 14 7 15
REMARK SMILES IDX 8 17 9 18 10 19 11 20 18 21 12 22 13 23 17 24 14 25 16 26
REMARK SMILES IDX 15 27 24 28 25 29 26 30 27 32 28 33 29 34 87 35 30 36 86 37
REMARK SMILES IDX 31 38 32 39 33 40 80 41 34 42 85 43 79 44 81 45 35 46 84 47
REMARK SMILES IDX 78 48 77 49 36 51 66 52 47 53 65 54 48 55 51 56 64 57 82 58
REMARK SMILES IDX 49 59 50 60 63 62 83 63 52 64 37 65 38 66 46 67 39 68 45 69
REMARK SMILES IDX 40 70 41 71 42 72 43 73 44 74 67 75 68 76 76 77 69 78 75 79
REMARK SMILES IDX 70 80 71 81 72 82 73 83 74 84 53 85 54 86 62 87 55 88 61 89
REMARK SMILES IDX 56 90 57 91 58 92 59 93 60 94
REMARK H PARENT 21 6 1 11 1 12 6 16 25 31 81 50 51 61
REMARK Flexibility Score: inf
ROOT
ATOM      1  C   UNL A   1      36.490  21.858  25.846  1.00  0.00     0.042 C 
ENDROOT
BRANCH   1   2
ATOM      2  C   UNL A   1      35.544  22.968  26.266  1.00  0.00     0.117 C 
BRANCH   2   3
ATOM      3  N   UNL A   1      34.665  22.608  27.377  1.00  0.00    -0.354 N 
ATOM      4  C   UNL A   1      33.295  22.605  27.434  1.00  0.00     0.243 C 
ATOM      5  O   UNL A   1      32.727  22.257  28.470  1.00  0.00    -0.273 OA
ATOM      6  H   UNL A   1      35.121  22.326  28.202  1.00  0.00     0.163 HD
BRANCH   4   7
ATOM      7  C   UNL A   1      32.477  23.213  26.288  1.00  0.00     0.180 C 
BRANCH   7   8
ATOM      8  C   UNL A   1      31.812  21.965  25.674  1.00  0.00     0.134 C 
BRANCH   8   9
ATOM      9  C   UNL A   1      32.667  21.010  24.891  1.00  0.00     0.220 C 
ATOM     10  N   UNL A   1      32.614  19.707  25.291  1.00  0.00    -0.370 N 
ATOM     11  H   UNL A   1      33.149  19.026  24.823  1.00  0.00     0.159 HD
ATOM     12  H   UNL A   1      32.040  19.448  26.048  1.00  0.00     0.159 HD
ATOM     13  O   UNL A   1      33.417  21.374  24.004  1.00  0.00    -0.275 OA
ENDBRANCH   8   9
ENDBRANCH   7   8
BRANCH   7  14
ATOM     14  N   UNL A   1      31.596  24.286  26.773  1.00  0.00    -0.342 N 
ATOM     15  C   UNL A   1      31.124  25.398  26.121  1.00  0.00     0.240 C 
ATOM     16  H   UNL A   1      31.298  24.192  27.707  1.00  0.00     0.164 HD
ATOM     17  O   UNL A   1      30.271  26.070  26.710  1.00  0.00    -0.273 OA
BRANCH  15  18
ATOM     18  C   UNL A   1      31.621  25.841  24.742  1.00  0.00     0.223 C 
BRANCH  18  19
ATOM     19  N   UNL A   1      31.827  27.277  24.612  1.00  0.00    -0.321 N 
ATOM     20  C   UNL A   1      31.031  28.131  23.905  1.00  0.00     0.201 A 
ATOM     21  C   UNL A   1      32.735  28.046  25.313  1.00  0.00     0.068 A 
ATOM     22  N   UNL A   1      31.187  29.366  24.326  1.00  0.00    -0.237 NA
ATOM     23  C   UNL A   1      32.207  29.330  25.237  1.00  0.00     0.088 A 
ATOM     24  C   UNL A   1      33.869  27.755  26.077  1.00  0.00     0.028 A 
ATOM     25  C   UNL A   1      32.693  30.340  26.082  1.00  0.00     0.030 A 
ATOM     26  C   UNL A   1      34.368  28.784  26.888  1.00  0.00     0.002 A 
ATOM     27  C   UNL A   1      33.762  30.042  26.931  1.00  0.00     0.002 A 
ENDBRANCH  18  19
ENDBRANCH  15  18
ENDBRANCH   7  14
ENDBRANCH   4   7
ENDBRANCH   2   3
ENDBRANCH   1   2
BRANCH   1  28
ATOM     28  C   UNL A   1      37.796  22.286  25.186  1.00  0.00     0.118 C 
BRANCH  28  29
ATOM     29  N   UNL A   1      39.036  21.842  25.813  1.00  0.00    -0.352 N 
ATOM     30  C   UNL A   1      39.787  22.307  26.870  1.00  0.00     0.251 C 
ATOM     31  H   UNL A   1      39.416  21.037  25.391  1.00  0.00     0.163 HD
ATOM     32  O   UNL A   1      40.374  21.510  27.600  1.00  0.00    -0.269 OA
BRANCH  30  33
ATOM     33  C   UNL A   1      40.100  23.736  27.019  1.00  0.00     0.039 A 
ATOM     34  C   UNL A   1      41.247  24.176  27.646  1.00  0.00     0.014 A 
ATOM     35  C   UNL A   1      39.106  24.662  26.648  1.00  0.00     0.014 A 
ATOM     36  C   UNL A   1      41.262  25.438  28.184  1.00  0.00     0.010 A 
ATOM     37  C   UNL A   1      39.184  25.984  27.070  1.00  0.00     0.010 A 
ATOM     38  C   UNL A   1      40.220  26.343  27.920  1.00  0.00    -0.014 A 
BRANCH  38  39
ATOM     39  C   UNL A   1      40.416  27.681  28.463  1.00  0.00     0.031 A 
ATOM     40  C   UNL A   1      41.704  28.284  28.028  1.00  0.00     0.074 A 
ATOM     41  C   UNL A   1      39.601  28.341  29.302  1.00  0.00     0.049 A 
ATOM     42  N   UNL A   1      42.763  28.439  28.753  1.00  0.00    -0.248 NA
ATOM     43  C   UNL A   1      41.911  28.492  26.588  1.00  0.00     0.031 C 
ATOM     44  C   UNL A   1      38.221  28.053  29.687  1.00  0.00     0.029 A 
ATOM     45  N   UNL A   1      39.867  29.503  29.960  1.00  0.00    -0.354 N 
ATOM     46  C   UNL A   1      43.740  28.918  27.893  1.00  0.00     0.074 A 
ATOM     47  C   UNL A   1      43.212  28.782  26.559  1.00  0.00     0.031 C 
ATOM     48  C   UNL A   1      37.701  29.136  30.314  1.00  0.00     0.029 A 
ATOM     49  C   UNL A   1      38.758  30.113  30.522  1.00  0.00     0.049 A 
ATOM     50  H   UNL A   1      40.775  29.878  30.029  1.00  0.00     0.167 HD
ATOM     51  C   UNL A   1      44.844  29.562  28.356  1.00  0.00     0.031 A 
ATOM     52  C   UNL A   1      38.720  31.353  31.070  1.00  0.00     0.031 A 
ATOM     53  C   UNL A   1      45.087  29.285  29.747  1.00  0.00     0.049 A 
ATOM     54  C   UNL A   1      40.107  31.691  31.481  1.00  0.00     0.074 A 
ATOM     55  C   UNL A   1      45.397  28.145  30.461  1.00  0.00     0.029 A 
ATOM     56  N   UNL A   1      44.627  30.198  30.665  1.00  0.00    -0.354 N 
ATOM     57  N   UNL A   1      40.740  31.085  32.446  1.00  0.00    -0.248 NA
ATOM     58  C   UNL A   1      40.947  32.416  30.540  1.00  0.00     0.031 C 
ATOM     59  C   UNL A   1      44.674  28.266  31.682  1.00  0.00     0.029 A 
ATOM     60  C   UNL A   1      44.019  29.501  31.677  1.00  0.00     0.049 A 
ATOM     61  H   UNL A   1      44.719  31.176  30.607  1.00  0.00     0.167 HD
ATOM     62  C   UNL A   1      42.050  30.985  32.002  1.00  0.00     0.074 A 
ATOM     63  C   UNL A   1      42.134  31.901  30.866  1.00  0.00     0.031 C 
ATOM     64  C   UNL A   1      42.871  29.978  32.426  1.00  0.00     0.031 A 
BRANCH  51  65
ATOM     65  C   UNL A   1      45.463  30.719  27.620  1.00  0.00    -0.014 A 
ATOM     66  C   UNL A   1      44.750  31.898  27.318  1.00  0.00     0.010 A 
ATOM     67  C   UNL A   1      46.858  30.753  27.432  1.00  0.00     0.010 A 
ATOM     68  C   UNL A   1      45.375  33.043  26.832  1.00  0.00     0.020 A 
ATOM     69  C   UNL A   1      47.505  31.915  26.987  1.00  0.00     0.020 A 
ATOM     70  C   UNL A   1      46.754  33.049  26.680  1.00  0.00     0.054 A 
BRANCH  70  71
ATOM     71  S   UNL A   1      47.530  34.583  26.128  1.00  0.00     0.124 S 
ATOM     72  O   UNL A   1      46.387  35.317  25.593  1.00  0.00    -0.237 OA
ATOM     73  O   UNL A   1      48.093  35.111  27.367  1.00  0.00    -0.237 OA
ATOM     74  O   UNL A   1      48.506  34.135  25.140  1.00  0.00    -0.744 OA
ENDBRANCH  70  71
ENDBRANCH  51  65
BRANCH  52  75
ATOM     75  C   UNL A   1      37.716  32.412  30.788  1.00  0.00    -0.014 A 
ATOM     76  C   UNL A   1      36.507  32.449  31.511  1.00  0.00     0.010 A 
ATOM     77  C   UNL A   1      37.796  33.161  29.596  1.00  0.00     0.010 A 
ATOM     78  C   UNL A   1      35.387  33.127  31.015  1.00  0.00     0.020 A 
ATOM     79  C   UNL A   1      36.675  33.839  29.092  1.00  0.00     0.020 A 
ATOM     80  C   UNL A   1      35.466  33.782  29.787  1.00  0.00     0.054 A 
BRANCH  80  81
ATOM     81  S   UNL A   1      33.938  34.462  29.077  1.00  0.00     0.124 S 
ATOM     82  O   UNL A   1      34.426  35.660  28.400  1.00  0.00    -0.237 OA
ATOM     83  O   UNL A   1      33.492  33.383  28.198  1.00  0.00    -0.237 OA
ATOM     84  O   UNL A   1      33.091  34.703  30.241  1.00  0.00    -0.744 OA
ENDBRANCH  80  81
ENDBRANCH  52  75
BRANCH  64  85
ATOM     85  C   UNL A   1      42.451  29.131  33.612  1.00  0.00    -0.014 A 
ATOM     86  C   UNL A   1      43.140  29.339  34.822  1.00  0.00     0.010 A 
ATOM     87  C   UNL A   1      41.563  28.040  33.532  1.00  0.00     0.010 A 
ATOM     88  C   UNL A   1      42.985  28.470  35.903  1.00  0.00     0.020 A 
ATOM     89  C   UNL A   1      41.380  27.178  34.626  1.00  0.00     0.020 A 
ATOM     90  C   UNL A   1      42.116  27.384  35.796  1.00  0.00     0.054 A 
BRANCH  90  91
ATOM     91  S   UNL A   1      41.997  26.245  37.203  1.00  0.00     0.124 S 
ATOM     92  O   UNL A   1      43.084  26.704  38.066  1.00  0.00    -0.237 OA
ATOM     93  O   UNL A   1      40.650  26.499  37.711  1.00  0.00    -0.237 OA
ATOM     94  O   UNL A   1      42.196  24.924  36.612  1.00  0.00    -0.744 OA
ENDBRANCH  90  91
ENDBRANCH  64  85
ENDBRANCH  38  39
ENDBRANCH  30  33
ENDBRANCH  28  29
ENDBRANCH   1  28
TORSDOF 18
ENDMDL
MODEL 2
REMARK VINA RESULT:     -11.9      2.637      9.088
REMARK SMILES NC(=O)C[C@@H](NC(=O)Cn1cnc2ccccc21)C(=O)NCCCNC(=O)c1ccc(-c2c3nc(c(-c4ccc(S(=O)(=O)[O-])cc4)c4ccc([nH]4)c(-c4ccc(S(=O)(=O)[O-])cc4)c4nc(c(-c5ccc(S(=O)(=O)[O-])cc5)c5ccc2[nH]5)C=C4)C=C3)cc1
REMARK SMILES IDX 23 1 22 2 21 3 19 4 20 5 5 7 4 8 2 9 1 10 3 13 6 14 7 15
REMARK SMILES IDX 8 17 9 18 10 19 11 20 18 21 12 22 13 23 17 24 14 25 16 26
REMARK SMILES IDX 15 27 24 28 25 29 26 30 27 32 28 33 29 34 87 35 30 36 86 37
REMARK SMILES IDX 31 38 32 39 33 40 80 41 34 42 85 43 79 44 81 45 35 46 84 47
REMARK SMILES IDX 78 48 77 49 36 51 66 52 47 53 65 54 48 55 51 56 64 57 82 58
REMARK SMILES IDX 49 59 50 60 63 62 83 63 52 64 37 65 38 66 46 67 39 68 45 69
REMARK SMILES IDX 40 70 41 71 42 72 43 73 44 74 67 75 68 76 76 77 69 78 75 79
REMARK SMILES IDX 70 80 71 81 72 82 73 83 74 84 53 85 54 86 62 87 55 88 61 89
REMARK SMILES IDX 56 90 57 91 58 92 59 93 60 94
REMARK H PARENT 21 6 1 11 1 12 6 16 25 31 81 50 51 61
REMARK Flexibility Score: inf
ROOT
ATOM      1  C   UNL A   1      35.229  30.349  27.690  1.00  0.00     0.042 C 
ENDROOT
BRANCH   1   2
ATOM      2  C   UNL A   1      34.355  29.322  26.993  1.00  0.00     0.117 C 
BRANCH   2   3
ATOM      3  N   UNL A   1      33.103  29.037  27.692  1.00  0.00    -0.354 N 
ATOM      4  C   UNL A   1      32.094  28.178  27.345  1.00  0.00     0.243 C 
ATOM      5  O   UNL A   1      31.108  28.066  28.077  1.00  0.00    -0.273 OA
ATOM      6  H   UNL A   1      32.966  29.533  28.531  1.00  0.00     0.163 HD
BRANCH   4   7
ATOM      7  C   UNL A   1      32.095  27.505  25.967  1.00  0.00     0.180 C 
BRANCH   7   8
ATOM      8  C   UNL A   1      31.179  26.286  26.207  1.00  0.00     0.134 C 
BRANCH   8   9
ATOM      9  C   UNL A   1      31.812  24.978  26.583  1.00  0.00     0.220 C 
ATOM     10  N   UNL A   1      33.095  24.799  26.153  1.00  0.00    -0.370 N 
ATOM     11  H   UNL A   1      33.572  23.964  26.363  1.00  0.00     0.159 HD
ATOM     12  H   UNL A   1      33.542  25.505  25.634  1.00  0.00     0.159 HD
ATOM     13  O   UNL A   1      31.208  24.098  27.167  1.00  0.00    -0.275 OA
ENDBRANCH   8   9
ENDBRANCH   7   8
BRANCH   7  14
ATOM     14  N   UNL A   1      31.708  28.451  24.911  1.00  0.00    -0.342 N 
ATOM     15  C   UNL A   1      30.973  28.243  23.770  1.00  0.00     0.240 C 
ATOM     16  H   UNL A   1      32.023  29.375  25.041  1.00  0.00     0.164 HD
ATOM     17  O   UNL A   1      30.659  29.244  23.119  1.00  0.00    -0.273 OA
BRANCH  15  18
ATOM     18  C   UNL A   1      30.561  26.854  23.274  1.00  0.00     0.223 C 
BRANCH  18  19
ATOM     19  N   UNL A   1      31.637  26.097  22.650  1.00  0.00    -0.321 N 
ATOM     20  C   UNL A   1      32.687  26.633  21.962  1.00  0.00     0.201 A 
ATOM     21  C   UNL A   1      31.885  24.747  22.794  1.00  0.00     0.068 A 
ATOM     22  N   UNL A   1      33.691  25.787  21.916  1.00  0.00    -0.237 NA
ATOM     23  C   UNL A   1      33.232  24.623  22.471  1.00  0.00     0.088 A 
ATOM     24  C   UNL A   1      31.134  23.666  23.264  1.00  0.00     0.028 A 
ATOM     25  C   UNL A   1      33.926  23.444  22.788  1.00  0.00     0.030 A 
ATOM     26  C   UNL A   1      31.833  22.481  23.541  1.00  0.00     0.002 A 
ATOM     27  C   UNL A   1      33.213  22.384  23.355  1.00  0.00     0.002 A 
ENDBRANCH  18  19
ENDBRANCH  15  18
ENDBRANCH   7  14
ENDBRANCH   4   7
ENDBRANCH   2   3
ENDBRANCH   1   2
BRANCH   1  28
ATOM     28  C   UNL A   1      34.568  31.674  28.056  1.00  0.00     0.118 C 
BRANCH  28  29
ATOM     29  N   UNL A   1      34.411  31.970  29.475  1.00  0.00    -0.352 N 
ATOM     30  C   UNL A   1      35.299  32.214  30.500  1.00  0.00     0.251 C 
ATOM     31  H   UNL A   1      33.469  32.004  29.761  1.00  0.00     0.163 HD
ATOM     32  O   UNL A   1      35.006  33.017  31.385  1.00  0.00    -0.269 OA
BRANCH  30  33
ATOM     33  C   UNL A   1      36.490  31.375  30.699  1.00  0.00     0.039 A 
ATOM     34  C   UNL A   1      37.745  31.769  30.283  1.00  0.00     0.014 A 
ATOM     35  C   UNL A   1      36.291  30.068  31.184  1.00  0.00     0.014 A 
ATOM     36  C   UNL A   1      38.692  30.805  30.043  1.00  0.00     0.010 A 
ATOM     37  C   UNL A   1      37.299  29.117  31.074  1.00  0.00     0.010 A 
ATOM     38  C   UNL A   1      38.467  29.470  30.415  1.00  0.00    -0.014 A 
BRANCH  38  39
ATOM     39  C   UNL A   1      39.597  28.575  30.201  1.00  0.00     0.031 A 
ATOM     40  C   UNL A   1      40.350  28.305  31.455  1.00  0.00     0.074 A 
ATOM     41  C   UNL A   1      40.006  28.051  29.033  1.00  0.00     0.049 A 
ATOM     42  N   UNL A   1      41.507  28.786  31.776  1.00  0.00    -0.248 NA
ATOM     43  C   UNL A   1      39.631  27.653  32.559  1.00  0.00     0.031 C 
ATOM     44  C   UNL A   1      39.325  27.998  27.742  1.00  0.00     0.029 A 
ATOM     45  N   UNL A   1      41.164  27.375  28.798  1.00  0.00    -0.354 N 
ATOM     46  C   UNL A   1      41.742  28.365  33.076  1.00  0.00     0.074 A 
ATOM     47  C   UNL A   1      40.500  27.811  33.557  1.00  0.00     0.031 C 
ATOM     48  C   UNL A   1      39.973  27.123  26.935  1.00  0.00     0.029 A 
ATOM     49  C   UNL A   1      41.198  26.696  27.592  1.00  0.00     0.049 A 
ATOM     50  H   UNL A   1      41.915  27.369  29.435  1.00  0.00     0.167 HD
ATOM     51  C   UNL A   1      42.996  28.337  33.601  1.00  0.00     0.031 A 
ATOM     52  C   UNL A   1      42.149  25.812  27.199  1.00  0.00     0.031 A 
ATOM     53  C   UNL A   1      43.905  29.177  32.869  1.00  0.00     0.049 A 
ATOM     54  C   UNL A   1      43.379  26.122  27.972  1.00  0.00     0.074 A 
ATOM     55  C   UNL A   1      43.985  30.536  32.636  1.00  0.00     0.029 A 
ATOM     56  N   UNL A   1      44.695  28.579  31.916  1.00  0.00    -0.354 N 
ATOM     57  N   UNL A   1      44.071  27.214  27.815  1.00  0.00    -0.248 NA
ATOM     58  C   UNL A   1      43.604  25.412  29.221  1.00  0.00     0.031 C 
ATOM     59  C   UNL A   1      44.428  30.653  31.287  1.00  0.00     0.029 A 
ATOM     60  C   UNL A   1      44.662  29.366  30.794  1.00  0.00     0.049 A 
ATOM     61  H   UNL A   1      45.194  27.737  32.021  1.00  0.00     0.167 HD
ATOM     62  C   UNL A   1      44.482  27.560  29.093  1.00  0.00     0.074 A 
ATOM     63  C   UNL A   1      44.242  26.367  29.902  1.00  0.00     0.031 C 
ATOM     64  C   UNL A   1      44.730  28.859  29.435  1.00  0.00     0.031 A 
BRANCH  51  65
ATOM     65  C   UNL A   1      43.443  27.257  34.548  1.00  0.00    -0.014 A 
ATOM     66  C   UNL A   1      43.242  25.885  34.288  1.00  0.00     0.010 A 
ATOM     67  C   UNL A   1      44.304  27.584  35.613  1.00  0.00     0.010 A 
ATOM     68  C   UNL A   1      43.839  24.887  35.052  1.00  0.00     0.020 A 
ATOM     69  C   UNL A   1      44.947  26.587  36.361  1.00  0.00     0.020 A 
ATOM     70  C   UNL A   1      44.700  25.244  36.079  1.00  0.00     0.054 A 
BRANCH  70  71
ATOM     71  S   UNL A   1      45.518  23.915  36.989  1.00  0.00     0.124 S 
ATOM     72  O   UNL A   1      44.978  24.101  38.333  1.00  0.00    -0.237 OA
ATOM     73  O   UNL A   1      45.056  22.724  36.283  1.00  0.00    -0.237 OA
ATOM     74  O   UNL A   1      46.937  24.221  36.836  1.00  0.00    -0.744 OA
ENDBRANCH  70  71
ENDBRANCH  51  65
BRANCH  52  75
ATOM     75  C   UNL A   1      41.914  24.460  26.626  1.00  0.00    -0.014 A 
ATOM     76  C   UNL A   1      40.846  23.670  27.096  1.00  0.00     0.010 A 
ATOM     77  C   UNL A   1      42.926  23.824  25.879  1.00  0.00     0.010 A 
ATOM     78  C   UNL A   1      40.837  22.282  26.913  1.00  0.00     0.020 A 
ATOM     79  C   UNL A   1      42.924  22.432  25.696  1.00  0.00     0.020 A 
ATOM     80  C   UNL A   1      41.898  21.667  26.251  1.00  0.00     0.054 A 
BRANCH  80  81
ATOM     81  S   UNL A   1      41.957  19.852  26.226  1.00  0.00     0.124 S 
ATOM     82  O   UNL A   1      43.002  19.597  25.238  1.00  0.00    -0.237 OA
ATOM     83  O   UNL A   1      42.309  19.528  27.607  1.00  0.00    -0.237 OA
ATOM     84  O   UNL A   1      40.608  19.466  25.823  1.00  0.00    -0.744 OA
ENDBRANCH  80  81
ENDBRANCH  52  75
BRANCH  64  85
ATOM     85  C   UNL A   1      44.845  29.903  28.341  1.00  0.00    -0.014 A 
ATOM     86  C   UNL A   1      46.098  30.525  28.178  1.00  0.00     0.010 A 
ATOM     87  C   UNL A   1      43.750  30.415  27.617  1.00  0.00     0.010 A 
ATOM     88  C   UNL A   1      46.250  31.643  27.358  1.00  0.00     0.020 A 
ATOM     89  C   UNL A   1      43.903  31.523  26.765  1.00  0.00     0.020 A 
ATOM     90  C   UNL A   1      45.150  32.146  26.664  1.00  0.00     0.054 A 
BRANCH  90  91
ATOM     91  S   UNL A   1      45.384  33.639  25.661  1.00  0.00     0.124 S 
ATOM     92  O   UNL A   1      44.744  33.268  24.399  1.00  0.00    -0.237 OA
ATOM     93  O   UNL A   1      44.684  34.663  26.436  1.00  0.00    -0.237 OA
ATOM     94  O   UNL A   1      46.834  33.800  25.591  1.00  0.00    -0.744 OA
ENDBRANCH  90  91
ENDBRANCH  64  85
ENDBRANCH  38  39
ENDBRANCH  30  33
ENDBRANCH  28  29
ENDBRANCH   1  28
TORSDOF 18
ENDMDL
MODEL 3
REMARK VINA RESULT:     -11.9      2.017      3.123
REMARK SMILES NC(=O)C[C@@H](NC(=O)Cn1cnc2ccccc21)C(=O)NCCCNC(=O)c1ccc(-c2c3nc(c(-c4ccc(S(=O)(=O)[O-])cc4)c4ccc([nH]4)c(-c4ccc(S(=O)(=O)[O-])cc4)c4nc(c(-c5ccc(S(=O)(=O)[O-])cc5)c5ccc2[nH]5)C=C4)C=C3)cc1
REMARK SMILES IDX 23 1 22 2 21 3 19 4 20 5 5 7 4 8 2 9 1 10 3 13 6 14 7 15
REMARK SMILES IDX 8 17 9 18 10 19 11 20 18 21 12 22 13 23 17 24 14 25 16 26
REMARK SMILES IDX 15 27 24 28 25 29 26 30 27 32 28 33 29 34 87 35 30 36 86 37
REMARK SMILES IDX 31 38 32 39 33 40 80 41 34 42 85 43 79 44 81 45 35 46 84 47
REMARK SMILES IDX 78 48 77 49 36 51 66 52 47 53 65 54 48 55 51 56 64 57 82 58
REMARK SMILES IDX 49 59 50 60 63 62 83 63 52 64 37 65 38 66 46 67 39 68 45 69
REMARK SMILES IDX 40 70 41 71 42 72 43 73 44 74 67 75 68 76 76 77 69 78 75 79
REMARK SMILES IDX 70 80 71 81 72 82 73 83 74 84 53 85 54 86 62 87 55 88 61 89
REMARK SMILES IDX 56 90 57 91 58 92 59 93 60 94
REMARK H PARENT 21 6 1 11 1 12 6 16 25 31 81 50 51 61
REMARK Flexibility Score: inf
ROOT
ATOM      1  C   UNL A   1      38.927  23.294  26.382  1.00  0.00     0.042 C 
ENDROOT
BRANCH   1   2
ATOM      2  C   UNL A   1      37.543  22.955  25.859  1.00  0.00     0.117 C 
BRANCH   2   3
ATOM      3  N   UNL A   1      37.460  22.887  24.402  1.00  0.00    -0.354 N 
ATOM      4  C   UNL A   1      36.362  22.998  23.589  1.00  0.00     0.243 C 
ATOM      5  O   UNL A   1      36.496  22.921  22.367  1.00  0.00    -0.273 OA
ATOM      6  H   UNL A   1      38.316  22.742  23.937  1.00  0.00     0.163 HD
BRANCH   4   7
ATOM      7  C   UNL A   1      34.954  23.022  24.197  1.00  0.00     0.180 C 
BRANCH   7   8
ATOM      8  C   UNL A   1      34.708  24.535  24.370  1.00  0.00     0.134 C 
BRANCH   8   9
ATOM      9  C   UNL A   1      34.199  25.031  25.693  1.00  0.00     0.220 C 
ATOM     10  N   UNL A   1      34.120  24.094  26.683  1.00  0.00    -0.370 N 
ATOM     11  H   UNL A   1      33.796  24.349  27.576  1.00  0.00     0.159 HD
ATOM     12  H   UNL A   1      34.389  23.165  26.502  1.00  0.00     0.159 HD
ATOM     13  O   UNL A   1      33.811  26.171  25.864  1.00  0.00    -0.275 OA
ENDBRANCH   8   9
ENDBRANCH   7   8
BRANCH   7  14
ATOM     14  N   UNL A   1      34.002  22.267  23.369  1.00  0.00    -0.342 N 
ATOM     15  C   UNL A   1      32.802  21.695  23.710  1.00  0.00     0.240 C 
ATOM     16  H   UNL A   1      34.265  22.154  22.427  1.00  0.00     0.164 HD
ATOM     17  O   UNL A   1      32.118  21.242  22.787  1.00  0.00    -0.273 OA
BRANCH  15  18
ATOM     18  C   UNL A   1      32.305  21.575  25.154  1.00  0.00     0.223 C 
BRANCH  18  19
ATOM     19  N   UNL A   1      31.335  22.589  25.540  1.00  0.00    -0.321 N 
ATOM     20  C   UNL A   1      30.731  22.686  26.760  1.00  0.00     0.201 A 
ATOM     21  C   UNL A   1      30.995  23.719  24.822  1.00  0.00     0.068 A 
ATOM     22  N   UNL A   1      30.281  23.904  26.960  1.00  0.00    -0.237 NA
ATOM     23  C   UNL A   1      30.479  24.578  25.786  1.00  0.00     0.088 A 
ATOM     24  C   UNL A   1      31.177  24.118  23.495  1.00  0.00     0.028 A 
ATOM     25  C   UNL A   1      30.300  25.939  25.491  1.00  0.00     0.030 A 
ATOM     26  C   UNL A   1      30.958  25.473  23.205  1.00  0.00     0.002 A 
ATOM     27  C   UNL A   1      30.575  26.381  24.194  1.00  0.00     0.002 A 
ENDBRANCH  18  19
ENDBRANCH  15  18
ENDBRANCH   7  14
ENDBRANCH   4   7
ENDBRANCH   2   3
ENDBRANCH   1   2
BRANCH   1  28
ATOM     28  C   UNL A   1      39.929  22.147  26.459  1.00  0.00     0.118 C 
BRANCH  28  29
ATOM     29  N   UNL A   1      41.181  22.307  25.729  1.00  0.00    -0.352 N 
ATOM     30  C   UNL A   1      42.343  23.004  25.976  1.00  0.00     0.251 C 
ATOM     31  H   UNL A   1      41.200  21.809  24.879  1.00  0.00     0.163 HD
ATOM     32  O   UNL A   1      43.424  22.537  25.619  1.00  0.00    -0.269 OA
BRANCH  30  33
ATOM     33  C   UNL A   1      42.318  24.397  26.447  1.00  0.00     0.039 A 
ATOM     34  C   UNL A   1      42.574  24.734  27.760  1.00  0.00     0.014 A 
ATOM     35  C   UNL A   1      41.855  25.378  25.549  1.00  0.00     0.014 A 
ATOM     36  C   UNL A   1      42.076  25.917  28.245  1.00  0.00     0.010 A 
ATOM     37  C   UNL A   1      41.480  26.634  26.013  1.00  0.00     0.010 A 
ATOM     38  C   UNL A   1      41.504  26.864  27.380  1.00  0.00    -0.014 A 
BRANCH  38  39
ATOM     39  C   UNL A   1      41.116  28.118  28.013  1.00  0.00     0.031 A 
ATOM     40  C   UNL A   1      42.138  29.183  27.833  1.00  0.00     0.074 A 
ATOM     41  C   UNL A   1      40.006  28.352  28.734  1.00  0.00     0.049 A 
ATOM     42  N   UNL A   1      42.954  29.626  28.732  1.00  0.00    -0.248 NA
ATOM     43  C   UNL A   1      42.454  29.603  26.459  1.00  0.00     0.031 C 
ATOM     44  C   UNL A   1      38.790  27.552  28.865  1.00  0.00     0.029 A 
ATOM     45  N   UNL A   1      39.732  29.455  29.482  1.00  0.00    -0.354 N 
ATOM     46  C   UNL A   1      43.796  30.510  28.075  1.00  0.00     0.074 A 
ATOM     47  C   UNL A   1      43.547  30.339  26.665  1.00  0.00     0.031 C 
ATOM     48  C   UNL A   1      37.826  28.306  29.447  1.00  0.00     0.029 A 
ATOM     49  C   UNL A   1      38.409  29.566  29.877  1.00  0.00     0.049 A 
ATOM     50  H   UNL A   1      40.418  30.119  29.723  1.00  0.00     0.167 HD
ATOM     51  C   UNL A   1      44.508  31.452  28.748  1.00  0.00     0.031 A 
ATOM     52  C   UNL A   1      37.841  30.645  30.471  1.00  0.00     0.031 A 
ATOM     53  C   UNL A   1      44.639  31.131  30.145  1.00  0.00     0.049 A 
ATOM     54  C   UNL A   1      38.934  31.409  31.127  1.00  0.00     0.074 A 
ATOM     55  C   UNL A   1      45.245  30.107  30.845  1.00  0.00     0.029 A 
ATOM     56  N   UNL A   1      43.752  31.718  31.015  1.00  0.00    -0.354 N 
ATOM     57  N   UNL A   1      39.603  30.969  32.154  1.00  0.00    -0.248 NA
ATOM     58  C   UNL A   1      39.570  32.481  30.378  1.00  0.00     0.031 C 
ATOM     59  C   UNL A   1      44.365  29.832  31.931  1.00  0.00     0.029 A 
ATOM     60  C   UNL A   1      43.308  30.746  31.875  1.00  0.00     0.049 A 
ATOM     61  H   UNL A   1      43.485  32.665  31.021  1.00  0.00     0.167 HD
ATOM     62  C   UNL A   1      40.907  31.389  31.934  1.00  0.00     0.074 A 
ATOM     63  C   UNL A   1      40.806  32.390  30.874  1.00  0.00     0.031 C 
ATOM     64  C   UNL A   1      41.972  30.701  32.441  1.00  0.00     0.031 A 
BRANCH  51  65
ATOM     65  C   UNL A   1      44.755  32.824  28.185  1.00  0.00    -0.014 A 
ATOM     66  C   UNL A   1      43.761  33.825  28.158  1.00  0.00     0.010 A 
ATOM     67  C   UNL A   1      46.072  33.227  27.894  1.00  0.00     0.010 A 
ATOM     68  C   UNL A   1      44.046  35.149  27.837  1.00  0.00     0.020 A 
ATOM     69  C   UNL A   1      46.379  34.566  27.615  1.00  0.00     0.020 A 
ATOM     70  C   UNL A   1      45.358  35.516  27.578  1.00  0.00     0.054 A 
BRANCH  70  71
ATOM     71  S   UNL A   1      45.693  37.260  27.250  1.00  0.00     0.124 S 
ATOM     72  O   UNL A   1      44.370  37.748  26.867  1.00  0.00    -0.237 OA
ATOM     73  O   UNL A   1      46.188  37.731  28.540  1.00  0.00    -0.237 OA
ATOM     74  O   UNL A   1      46.682  37.222  26.177  1.00  0.00    -0.744 OA
ENDBRANCH  70  71
ENDBRANCH  51  65
BRANCH  52  75
ATOM     75  C   UNL A   1      36.567  31.302  30.075  1.00  0.00    -0.014 A 
ATOM     76  C   UNL A   1      36.377  31.729  28.745  1.00  0.00     0.010 A 
ATOM     77  C   UNL A   1      35.697  31.808  31.061  1.00  0.00     0.010 A 
ATOM     78  C   UNL A   1      35.420  32.699  28.426  1.00  0.00     0.020 A 
ATOM     79  C   UNL A   1      34.737  32.784  30.748  1.00  0.00     0.020 A 
ATOM     80  C   UNL A   1      34.635  33.252  29.437  1.00  0.00     0.054 A 
BRANCH  80  81
ATOM     81  S   UNL A   1      33.563  34.657  29.019  1.00  0.00     0.124 S 
ATOM     82  O   UNL A   1      32.627  34.054  28.074  1.00  0.00    -0.237 OA
ATOM     83  O   UNL A   1      32.997  35.018  30.317  1.00  0.00    -0.237 OA
ATOM     84  O   UNL A   1      34.482  35.638  28.449  1.00  0.00    -0.744 OA
ENDBRANCH  80  81
ENDBRANCH  52  75
BRANCH  64  85
ATOM     85  C   UNL A   1      41.733  29.639  33.496  1.00  0.00    -0.014 A 
ATOM     86  C   UNL A   1      41.940  30.011  34.838  1.00  0.00     0.010 A 
ATOM     87  C   UNL A   1      41.504  28.277  33.213  1.00  0.00     0.010 A 
ATOM     88  C   UNL A   1      41.962  29.060  35.859  1.00  0.00     0.020 A 
ATOM     89  C   UNL A   1      41.494  27.318  34.240  1.00  0.00     0.020 A 
ATOM     90  C   UNL A   1      41.752  27.715  35.555  1.00  0.00     0.054 A 
BRANCH  90  91
ATOM     91  S   UNL A   1      41.853  26.509  36.906  1.00  0.00     0.124 S 
ATOM     92  O   UNL A   1      42.024  25.249  36.184  1.00  0.00    -0.237 OA
ATOM     93  O   UNL A   1      43.025  26.960  37.655  1.00  0.00    -0.237 OA
ATOM     94  O   UNL A   1      40.579  26.649  37.606  1.00  0.00    -0.744 OA
ENDBRANCH  90  91
ENDBRANCH  64  85
ENDBRANCH  38  39
ENDBRANCH  30  33
ENDBRANCH  28  29
ENDBRANCH   1  28
TORSDOF 18
ENDMDL
