MODEL 1
REMARK VINA RESULT:     -11.6      0.000      0.000
REMARK SMILES Cc1cc(Cl)cc2c1O[C@H](C(F)(F)F)C(C(=O)NCCCNC(=O)c1ccc(-c3c4nc(c(-c5ccc(S(=O)(=O)[O-])cc5)c5ccc([nH]5)c(-c5ccc(S(=O)(=O)[O-])cc5)c5nc(c(-c6ccc(S(=O)(=O)[O-])cc6)c6ccc3[nH]6)C=C5)C=C4)cc1)=C2
REMARK SMILES IDX 21 1 20 2 19 3 18 4 16 5 17 6 15 8 1 9 2 10 3 11 8 12 4 13
REMARK SMILES IDX 7 14 9 15 5 16 6 17 85 18 10 19 11 20 12 21 13 22 14 23
REMARK SMILES IDX 22 24 23 25 24 27 25 28 26 29 84 30 27 31 83 32 28 33 29 34
REMARK SMILES IDX 30 35 77 36 31 37 82 38 76 39 78 40 32 41 81 42 75 43 74 44
REMARK SMILES IDX 33 46 63 47 44 48 62 49 45 50 48 51 61 52 79 53 46 54 47 55
REMARK SMILES IDX 60 57 80 58 49 59 34 60 35 61 43 62 36 63 42 64 37 65 38 66
REMARK SMILES IDX 39 67 40 68 41 69 64 70 65 71 73 72 66 73 72 74 67 75 68 76
REMARK SMILES IDX 69 77 70 78 71 79 50 80 51 81 59 82 52 83 58 84 53 85 54 86
REMARK SMILES IDX 55 87 56 88 57 89
REMARK H PARENT 18 7 22 26 78 45 48 56
REMARK Flexibility Score: inf
ROOT
ATOM      1  C   UNL A   1      33.629  28.487  26.413  1.00  0.00     0.118 C 
ENDROOT
BRANCH   1   2
ATOM      2  C   UNL A   1      33.720  28.411  24.895  1.00  0.00     0.042 C 
BRANCH   2   3
ATOM      3  C   UNL A   1      32.820  27.326  24.322  1.00  0.00     0.118 C 
BRANCH   3   4
ATOM      4  N   UNL A   1      31.963  26.733  25.338  1.00  0.00    -0.352 N 
ATOM      5  C   UNL A   1      31.834  25.533  25.949  1.00  0.00     0.251 C 
ATOM      6  O   UNL A   1      30.947  25.469  26.806  1.00  0.00    -0.270 OA
ATOM      7  H   UNL A   1      31.299  27.379  25.669  1.00  0.00     0.163 HD
BRANCH   5   8
ATOM      8  C   UNL A   1      32.671  24.333  25.663  1.00  0.00     0.067 C 
ATOM      9  C   UNL A   1      34.475  19.615  24.688  1.00  0.00     0.048 C 
ATOM     10  C   UNL A   1      35.072  20.927  25.111  1.00  0.00    -0.007 A 
ATOM     11  C   UNL A   1      36.454  21.030  25.316  1.00  0.00     0.027 A 
ATOM     12  C   UNL A   1      34.273  22.051  25.359  1.00  0.00     0.131 A 
ATOM     13  C   UNL A   1      37.014  22.236  25.743  1.00  0.00     0.042 A 
ATOM     14  C   UNL A   1      34.831  23.261  25.790  1.00  0.00     0.019 A 
ATOM     15  O   UNL A   1      32.922  21.902  25.211  1.00  0.00    -0.475 OA
ATOM     16  Cl  UNL A   1      38.714  22.343  25.986  1.00  0.00    -0.084 Cl
ATOM     17  C   UNL A   1      36.211  23.351  25.981  1.00  0.00     0.032 A 
ATOM     18  C   UNL A   1      33.955  24.395  26.064  1.00  0.00     0.025 C 
ATOM     19  C   UNL A   1      32.170  23.113  24.947  1.00  0.00     0.314 C 
BRANCH  19  20
ATOM     20  C   UNL A   1      32.057  23.327  23.424  1.00  0.00     0.429 C 
ATOM     21  F   UNL A   1      30.809  23.743  23.094  1.00  0.00    -0.167 F 
ATOM     22  F   UNL A   1      32.911  24.272  22.965  1.00  0.00    -0.167 F 
ATOM     23  F   UNL A   1      32.309  22.202  22.717  1.00  0.00    -0.167 F 
ENDBRANCH  19  20
ENDBRANCH   5   8
ENDBRANCH   3   4
ENDBRANCH   2   3
ENDBRANCH   1   2
BRANCH   1  24
ATOM     24  N   UNL A   1      33.521  29.868  26.880  1.00  0.00    -0.352 N 
ATOM     25  C   UNL A   1      34.320  30.574  27.742  1.00  0.00     0.251 C 
ATOM     26  H   UNL A   1      32.755  30.369  26.518  1.00  0.00     0.163 HD
ATOM     27  O   UNL A   1      33.906  31.623  28.234  1.00  0.00    -0.269 OA
BRANCH  25  28
ATOM     28  C   UNL A   1      35.667  30.075  28.074  1.00  0.00     0.039 A 
ATOM     29  C   UNL A   1      36.672  30.105  27.105  1.00  0.00     0.014 A 
ATOM     30  C   UNL A   1      35.930  29.555  29.344  1.00  0.00     0.014 A 
ATOM     31  C   UNL A   1      37.958  29.674  27.434  1.00  0.00     0.010 A 
ATOM     32  C   UNL A   1      37.229  29.222  29.699  1.00  0.00     0.010 A 
ATOM     33  C   UNL A   1      38.253  29.263  28.744  1.00  0.00    -0.014 A 
BRANCH  33  34
ATOM     34  C   UNL A   1      39.616  28.832  29.134  1.00  0.00     0.031 A 
ATOM     35  C   UNL A   1      40.493  29.768  29.923  1.00  0.00     0.074 A 
ATOM     36  C   UNL A   1      40.075  27.627  28.743  1.00  0.00     0.049 A 
ATOM     37  N   UNL A   1      41.736  29.612  30.296  1.00  0.00    -0.248 NA
ATOM     38  C   UNL A   1      39.905  31.059  30.327  1.00  0.00     0.031 C 
ATOM     39  C   UNL A   1      39.323  26.644  27.958  1.00  0.00     0.029 A 
ATOM     40  N   UNL A   1      41.285  27.018  28.959  1.00  0.00    -0.354 N 
ATOM     41  C   UNL A   1      42.076  30.777  30.974  1.00  0.00     0.074 A 
ATOM     42  C   UNL A   1      40.935  31.661  30.903  1.00  0.00     0.031 C 
ATOM     43  C   UNL A   1      40.071  25.540  27.800  1.00  0.00     0.029 A 
ATOM     44  C   UNL A   1      41.370  25.752  28.428  1.00  0.00     0.049 A 
ATOM     45  H   UNL A   1      42.024  27.447  29.447  1.00  0.00     0.167 HD
ATOM     46  C   UNL A   1      43.222  31.070  31.630  1.00  0.00     0.031 A 
ATOM     47  C   UNL A   1      42.383  24.864  28.448  1.00  0.00     0.031 A 
ATOM     48  C   UNL A   1      44.344  30.178  31.719  1.00  0.00     0.049 A 
ATOM     49  C   UNL A   1      43.666  25.240  29.140  1.00  0.00     0.074 A 
ATOM     50  C   UNL A   1      45.545  30.372  32.377  1.00  0.00     0.029 A 
ATOM     51  N   UNL A   1      44.399  28.917  31.145  1.00  0.00    -0.354 N 
ATOM     52  N   UNL A   1      43.955  26.338  29.797  1.00  0.00    -0.248 NA
ATOM     53  C   UNL A   1      44.756  24.257  29.097  1.00  0.00     0.031 C 
ATOM     54  C   UNL A   1      46.343  29.246  32.167  1.00  0.00     0.029 A 
ATOM     55  C   UNL A   1      45.618  28.328  31.425  1.00  0.00     0.049 A 
ATOM     56  H   UNL A   1      43.678  28.504  30.618  1.00  0.00     0.167 HD
ATOM     57  C   UNL A   1      45.250  26.162  30.273  1.00  0.00     0.074 A 
ATOM     58  C   UNL A   1      45.680  24.848  29.842  1.00  0.00     0.031 C 
ATOM     59  C   UNL A   1      46.018  27.012  30.998  1.00  0.00     0.031 A 
BRANCH  46  60
ATOM     60  C   UNL A   1      43.308  32.392  32.340  1.00  0.00    -0.014 A 
ATOM     61  C   UNL A   1      42.964  32.494  33.701  1.00  0.00     0.010 A 
ATOM     62  C   UNL A   1      43.822  33.520  31.676  1.00  0.00     0.010 A 
ATOM     63  C   UNL A   1      43.123  33.702  34.382  1.00  0.00     0.020 A 
ATOM     64  C   UNL A   1      44.008  34.724  32.362  1.00  0.00     0.020 A 
ATOM     65  C   UNL A   1      43.654  34.808  33.711  1.00  0.00     0.054 A 
BRANCH  65  66
ATOM     66  S   UNL A   1      43.921  36.337  34.647  1.00  0.00     0.124 S 
ATOM     67  O   UNL A   1      42.967  36.190  35.744  1.00  0.00    -0.237 OA
ATOM     68  O   UNL A   1      45.329  36.238  35.023  1.00  0.00    -0.237 OA
ATOM     69  O   UNL A   1      43.607  37.393  33.688  1.00  0.00    -0.744 OA
ENDBRANCH  65  66
ENDBRANCH  46  60
BRANCH  47  70
ATOM     70  C   UNL A   1      42.231  23.525  27.813  1.00  0.00    -0.014 A 
ATOM     71  C   UNL A   1      41.653  22.463  28.533  1.00  0.00     0.010 A 
ATOM     72  C   UNL A   1      42.684  23.292  26.502  1.00  0.00     0.010 A 
ATOM     73  C   UNL A   1      41.567  21.186  27.969  1.00  0.00     0.020 A 
ATOM     74  C   UNL A   1      42.572  22.024  25.924  1.00  0.00     0.020 A 
ATOM     75  C   UNL A   1      42.032  20.975  26.669  1.00  0.00     0.054 A 
BRANCH  75  76
ATOM     76  S   UNL A   1      41.905  19.310  25.958  1.00  0.00     0.124 S 
ATOM     77  O   UNL A   1      42.412  18.477  27.044  1.00  0.00    -0.237 OA
ATOM     78  O   UNL A   1      40.475  19.194  25.684  1.00  0.00    -0.237 OA
ATOM     79  O   UNL A   1      42.755  19.380  24.771  1.00  0.00    -0.744 OA
ENDBRANCH  75  76
ENDBRANCH  47  70
BRANCH  59  80
ATOM     80  C   UNL A   1      47.386  26.540  31.404  1.00  0.00    -0.014 A 
ATOM     81  C   UNL A   1      47.581  25.820  32.594  1.00  0.00     0.010 A 
ATOM     82  C   UNL A   1      48.476  26.750  30.538  1.00  0.00     0.010 A 
ATOM     83  C   UNL A   1      48.849  25.334  32.923  1.00  0.00     0.020 A 
ATOM     84  C   UNL A   1      49.739  26.240  30.850  1.00  0.00     0.020 A 
ATOM     85  C   UNL A   1      49.918  25.542  32.046  1.00  0.00     0.054 A 
BRANCH  85  86
ATOM     86  S   UNL A   1      51.537  24.845  32.472  1.00  0.00     0.124 S 
ATOM     87  O   UNL A   1      51.336  23.424  32.202  1.00  0.00    -0.237 OA
ATOM     88  O   UNL A   1      52.434  25.540  31.552  1.00  0.00    -0.237 OA
ATOM     89  O   UNL A   1      51.706  25.193  33.881  1.00  0.00    -0.744 OA
ENDBRANCH  85  86
ENDBRANCH  59  80
ENDBRANCH  33  34
ENDBRANCH  25  28
ENDBRANCH   1  24
TORSDOF 14
ENDMDL
MODEL 2
REMARK VINA RESULT:     -11.5      2.875      9.298
REMARK SMILES Cc1cc(Cl)cc2c1O[C@H](C(F)(F)F)C(C(=O)NCCCNC(=O)c1ccc(-c3c4nc(c(-c5ccc(S(=O)(=O)[O-])cc5)c5ccc([nH]5)c(-c5ccc(S(=O)(=O)[O-])cc5)c5nc(c(-c6ccc(S(=O)(=O)[O-])cc6)c6ccc3[nH]6)C=C5)C=C4)cc1)=C2
REMARK SMILES IDX 21 1 20 2 19 3 18 4 16 5 17 6 15 8 1 9 2 10 3 11 8 12 4 13
REMARK SMILES IDX 7 14 9 15 5 16 6 17 85 18 10 19 11 20 12 21 13 22 14 23
REMARK SMILES IDX 22 24 23 25 24 27 25 28 26 29 84 30 27 31 83 32 28 33 29 34
REMARK SMILES IDX 30 35 77 36 31 37 82 38 76 39 78 40 32 41 81 42 75 43 74 44
REMARK SMILES IDX 33 46 63 47 44 48 62 49 45 50 48 51 61 52 79 53 46 54 47 55
REMARK SMILES IDX 60 57 80 58 49 59 34 60 35 61 43 62 36 63 42 64 37 65 38 66
REMARK SMILES IDX 39 67 40 68 41 69 64 70 65 71 73 72 66 73 72 74 67 75 68 76
REMARK SMILES IDX 69 77 70 78 71 79 50 80 51 81 59 82 52 83 58 84 53 85 54 86
REMARK SMILES IDX 55 87 56 88 57 89
REMARK H PARENT 18 7 22 26 78 45 48 56
REMARK Flexibility Score: inf
ROOT
ATOM      1  C   UNL A   1      37.046  23.703  24.888  1.00  0.00     0.118 C 
ENDROOT
BRANCH   1   2
ATOM      2  C   UNL A   1      36.594  23.346  23.478  1.00  0.00     0.042 C 
BRANCH   2   3
ATOM      3  C   UNL A   1      35.090  23.134  23.396  1.00  0.00     0.118 C 
BRANCH   3   4
ATOM      4  N   UNL A   1      34.504  22.861  24.700  1.00  0.00    -0.352 N 
ATOM      5  C   UNL A   1      33.712  23.508  25.586  1.00  0.00     0.251 C 
ATOM      6  O   UNL A   1      33.429  22.869  26.605  1.00  0.00    -0.270 OA
ATOM      7  H   UNL A   1      34.753  21.966  25.026  1.00  0.00     0.163 HD
BRANCH   5   8
ATOM      8  C   UNL A   1      33.177  24.888  25.408  1.00  0.00     0.067 C 
ATOM      9  C   UNL A   1      30.798  29.156  23.804  1.00  0.00     0.048 C 
ATOM     10  C   UNL A   1      31.887  28.840  24.788  1.00  0.00    -0.007 A 
ATOM     11  C   UNL A   1      32.482  29.871  25.525  1.00  0.00     0.027 A 
ATOM     12  C   UNL A   1      32.368  27.534  24.956  1.00  0.00     0.131 A 
ATOM     13  C   UNL A   1      33.520  29.591  26.417  1.00  0.00     0.042 A 
ATOM     14  C   UNL A   1      33.410  27.250  25.847  1.00  0.00     0.019 A 
ATOM     15  O   UNL A   1      31.811  26.559  24.176  1.00  0.00    -0.475 OA
ATOM     16  Cl  UNL A   1      34.235  30.873  27.316  1.00  0.00    -0.084 Cl
ATOM     17  C   UNL A   1      33.986  28.287  26.582  1.00  0.00     0.032 A 
ATOM     18  C   UNL A   1      33.896  25.879  25.965  1.00  0.00     0.025 C 
ATOM     19  C   UNL A   1      31.900  25.205  24.686  1.00  0.00     0.314 C 
BRANCH  19  20
ATOM     20  C   UNL A   1      30.650  24.889  25.531  1.00  0.00     0.429 C 
ATOM     21  F   UNL A   1      30.887  25.137  26.843  1.00  0.00    -0.167 F 
ATOM     22  F   UNL A   1      29.580  25.645  25.185  1.00  0.00    -0.167 F 
ATOM     23  F   UNL A   1      30.259  23.598  25.426  1.00  0.00    -0.167 F 
ENDBRANCH  19  20
ENDBRANCH   5   8
ENDBRANCH   3   4
ENDBRANCH   2   3
ENDBRANCH   1   2
BRANCH   1  24
ATOM     24  N   UNL A   1      37.927  22.680  25.448  1.00  0.00    -0.352 N 
ATOM     25  C   UNL A   1      39.080  22.812  26.179  1.00  0.00     0.251 C 
ATOM     26  H   UNL A   1      37.648  21.752  25.274  1.00  0.00     0.163 HD
ATOM     27  O   UNL A   1      39.829  21.845  26.309  1.00  0.00    -0.269 OA
BRANCH  25  28
ATOM     28  C   UNL A   1      39.414  24.105  26.802  1.00  0.00     0.039 A 
ATOM     29  C   UNL A   1      38.987  24.374  28.104  1.00  0.00     0.014 A 
ATOM     30  C   UNL A   1      40.135  25.064  26.086  1.00  0.00     0.014 A 
ATOM     31  C   UNL A   1      39.342  25.581  28.708  1.00  0.00     0.010 A 
ATOM     32  C   UNL A   1      40.572  26.218  26.721  1.00  0.00     0.010 A 
ATOM     33  C   UNL A   1      40.167  26.495  28.033  1.00  0.00    -0.014 A 
BRANCH  33  34
ATOM     34  C   UNL A   1      40.590  27.769  28.660  1.00  0.00     0.031 A 
ATOM     35  C   UNL A   1      42.001  27.915  29.167  1.00  0.00     0.074 A 
ATOM     36  C   UNL A   1      39.699  28.769  28.812  1.00  0.00     0.049 A 
ATOM     37  N   UNL A   1      42.544  28.915  29.810  1.00  0.00    -0.248 NA
ATOM     38  C   UNL A   1      42.916  26.781  28.942  1.00  0.00     0.031 C 
ATOM     39  C   UNL A   1      38.300  28.734  28.379  1.00  0.00     0.029 A 
ATOM     40  N   UNL A   1      39.840  30.015  29.367  1.00  0.00    -0.354 N 
ATOM     41  C   UNL A   1      43.856  28.531  30.065  1.00  0.00     0.074 A 
ATOM     42  C   UNL A   1      44.010  27.182  29.571  1.00  0.00     0.031 C 
ATOM     43  C   UNL A   1      37.727  29.921  28.642  1.00  0.00     0.029 A 
ATOM     44  C   UNL A   1      38.700  30.781  29.304  1.00  0.00     0.049 A 
ATOM     45  H   UNL A   1      40.680  30.332  29.773  1.00  0.00     0.167 HD
ATOM     46  C   UNL A   1      44.854  29.251  30.625  1.00  0.00     0.031 A 
ATOM     47  C   UNL A   1      38.468  32.038  29.733  1.00  0.00     0.031 A 
ATOM     48  C   UNL A   1      44.703  30.601  31.093  1.00  0.00     0.049 A 
ATOM     49  C   UNL A   1      39.584  32.795  30.402  1.00  0.00     0.074 A 
ATOM     50  C   UNL A   1      45.658  31.425  31.658  1.00  0.00     0.029 A 
ATOM     51  N   UNL A   1      43.525  31.330  31.035  1.00  0.00    -0.354 N 
ATOM     52  N   UNL A   1      40.824  32.421  30.609  1.00  0.00    -0.248 NA
ATOM     53  C   UNL A   1      39.271  34.144  30.891  1.00  0.00     0.031 C 
ATOM     54  C   UNL A   1      45.048  32.640  31.982  1.00  0.00     0.029 A 
ATOM     55  C   UNL A   1      43.728  32.590  31.566  1.00  0.00     0.049 A 
ATOM     56  H   UNL A   1      42.673  30.999  30.670  1.00  0.00     0.167 HD
ATOM     57  C   UNL A   1      41.447  33.502  31.223  1.00  0.00     0.074 A 
ATOM     58  C   UNL A   1      40.451  34.548  31.340  1.00  0.00     0.031 C 
ATOM     59  C   UNL A   1      42.725  33.620  31.656  1.00  0.00     0.031 A 
BRANCH  46  60
ATOM     60  C   UNL A   1      46.211  28.612  30.729  1.00  0.00    -0.014 A 
ATOM     61  C   UNL A   1      46.575  27.896  31.884  1.00  0.00     0.010 A 
ATOM     62  C   UNL A   1      47.094  28.644  29.635  1.00  0.00     0.010 A 
ATOM     63  C   UNL A   1      47.801  27.231  31.948  1.00  0.00     0.020 A 
ATOM     64  C   UNL A   1      48.311  27.959  29.685  1.00  0.00     0.020 A 
ATOM     65  C   UNL A   1      48.658  27.258  30.843  1.00  0.00     0.054 A 
BRANCH  65  66
ATOM     66  S   UNL A   1      50.207  26.319  30.932  1.00  0.00     0.124 S 
ATOM     67  O   UNL A   1      50.267  25.710  29.606  1.00  0.00    -0.237 OA
ATOM     68  O   UNL A   1      51.196  27.363  31.188  1.00  0.00    -0.237 OA
ATOM     69  O   UNL A   1      49.986  25.387  32.034  1.00  0.00    -0.744 OA
ENDBRANCH  65  66
ENDBRANCH  46  60
BRANCH  47  70
ATOM     70  C   UNL A   1      37.136  32.675  29.531  1.00  0.00    -0.014 A 
ATOM     71  C   UNL A   1      36.849  33.346  28.328  1.00  0.00     0.010 A 
ATOM     72  C   UNL A   1      36.160  32.642  30.543  1.00  0.00     0.010 A 
ATOM     73  C   UNL A   1      35.627  34.004  28.157  1.00  0.00     0.020 A 
ATOM     74  C   UNL A   1      34.925  33.272  30.363  1.00  0.00     0.020 A 
ATOM     75  C   UNL A   1      34.675  33.965  29.178  1.00  0.00     0.054 A 
BRANCH  75  76
ATOM     76  S   UNL A   1      33.095  34.823  28.930  1.00  0.00     0.124 S 
ATOM     77  O   UNL A   1      33.533  36.140  28.477  1.00  0.00    -0.237 OA
ATOM     78  O   UNL A   1      32.441  33.991  27.923  1.00  0.00    -0.237 OA
ATOM     79  O   UNL A   1      32.476  34.788  30.253  1.00  0.00    -0.744 OA
ENDBRANCH  75  76
ENDBRANCH  47  70
BRANCH  59  80
ATOM     80  C   UNL A   1      43.137  34.932  32.265  1.00  0.00    -0.014 A 
ATOM     81  C   UNL A   1      43.719  35.943  31.482  1.00  0.00     0.010 A 
ATOM     82  C   UNL A   1      42.858  35.185  33.621  1.00  0.00     0.010 A 
ATOM     83  C   UNL A   1      44.035  37.179  32.050  1.00  0.00     0.020 A 
ATOM     84  C   UNL A   1      43.146  36.430  34.185  1.00  0.00     0.020 A 
ATOM     85  C   UNL A   1      43.742  37.416  33.397  1.00  0.00     0.054 A 
BRANCH  85  86
ATOM     86  S   UNL A   1      44.107  39.052  34.089  1.00  0.00     0.124 S 
ATOM     87  O   UNL A   1      44.260  38.753  35.510  1.00  0.00    -0.237 OA
ATOM     88  O   UNL A   1      45.333  39.426  33.389  1.00  0.00    -0.237 OA
ATOM     89  O   UNL A   1      42.931  39.847  33.743  1.00  0.00    -0.744 OA
ENDBRANCH  85  86
ENDBRANCH  59  80
ENDBRANCH  33  34
ENDBRANCH  25  28
ENDBRANCH   1  24
TORSDOF 14
ENDMDL
MODEL 3
REMARK VINA RESULT:     -11.3      2.468      3.902
REMARK SMILES Cc1cc(Cl)cc2c1O[C@H](C(F)(F)F)C(C(=O)NCCCNC(=O)c1ccc(-c3c4nc(c(-c5ccc(S(=O)(=O)[O-])cc5)c5ccc([nH]5)c(-c5ccc(S(=O)(=O)[O-])cc5)c5nc(c(-c6ccc(S(=O)(=O)[O-])cc6)c6ccc3[nH]6)C=C5)C=C4)cc1)=C2
REMARK SMILES IDX 21 1 20 2 19 3 18 4 16 5 17 6 15 8 1 9 2 10 3 11 8 12 4 13
REMARK SMILES IDX 7 14 9 15 5 16 6 17 85 18 10 19 11 20 12 21 13 22 14 23
REMARK SMILES IDX 22 24 23 25 24 27 25 28 26 29 84 30 27 31 83 32 28 33 29 34
REMARK SMILES IDX 30 35 77 36 31 37 82 38 76 39 78 40 32 41 81 42 75 43 74 44
REMARK SMILES IDX 33 46 63 47 44 48 62 49 45 50 48 51 61 52 79 53 46 54 47 55
REMARK SMILES IDX 60 57 80 58 49 59 34 60 35 61 43 62 36 63 42 64 37 65 38 66
REMARK SMILES IDX 39 67 40 68 41 69 64 70 65 71 73 72 66 73 72 74 67 75 68 76
REMARK SMILES IDX 69 77 70 78 71 79 50 80 51 81 59 82 52 83 58 84 53 85 54 86
REMARK SMILES IDX 55 87 56 88 57 89
REMARK H PARENT 18 7 22 26 78 45 48 56
REMARK Flexibility Score: inf
ROOT
ATOM      1  C   UNL A   1      33.796  28.140  26.891  1.00  0.00     0.118 C 
ENDROOT
BRANCH   1   2
ATOM      2  C   UNL A   1      33.895  27.674  25.444  1.00  0.00     0.042 C 
BRANCH   2   3
ATOM      3  C   UNL A   1      33.750  26.165  25.318  1.00  0.00     0.118 C 
BRANCH   3   4
ATOM      4  N   UNL A   1      33.580  25.746  23.934  1.00  0.00    -0.352 N 
ATOM      5  C   UNL A   1      32.643  25.877  22.967  1.00  0.00     0.251 C 
ATOM      6  O   UNL A   1      32.928  25.358  21.883  1.00  0.00    -0.270 OA
ATOM      7  H   UNL A   1      34.354  25.227  23.618  1.00  0.00     0.163 HD
BRANCH   5   8
ATOM      8  C   UNL A   1      31.343  26.588  23.125  1.00  0.00     0.067 C 
ATOM      9  C   UNL A   1      26.401  27.903  23.679  1.00  0.00     0.048 C 
ATOM     10  C   UNL A   1      27.669  28.622  23.316  1.00  0.00    -0.007 A 
ATOM     11  C   UNL A   1      27.639  29.996  23.046  1.00  0.00     0.027 A 
ATOM     12  C   UNL A   1      28.887  27.941  23.188  1.00  0.00     0.131 A 
ATOM     13  C   UNL A   1      28.807  30.666  22.673  1.00  0.00     0.042 A 
ATOM     14  C   UNL A   1      30.060  28.609  22.812  1.00  0.00     0.019 A 
ATOM     15  O   UNL A   1      28.872  26.590  23.396  1.00  0.00    -0.475 OA
ATOM     16  Cl  UNL A   1      28.749  32.355  22.349  1.00  0.00    -0.084 Cl
ATOM     17  C   UNL A   1      30.016  29.981  22.555  1.00  0.00     0.032 A 
ATOM     18  C   UNL A   1      31.298  27.852  22.663  1.00  0.00     0.025 C 
ATOM     19  C   UNL A   1      30.134  25.989  23.781  1.00  0.00     0.314 C 
BRANCH  19  20
ATOM     20  C   UNL A   1      30.246  25.968  25.319  1.00  0.00     0.429 C 
ATOM     21  F   UNL A   1      29.024  25.799  25.883  1.00  0.00    -0.167 F 
ATOM     22  F   UNL A   1      31.022  24.955  25.773  1.00  0.00    -0.167 F 
ATOM     23  F   UNL A   1      30.770  27.110  25.822  1.00  0.00    -0.167 F 
ENDBRANCH  19  20
ENDBRANCH   5   8
ENDBRANCH   3   4
ENDBRANCH   2   3
ENDBRANCH   1   2
BRANCH   1  24
ATOM     24  N   UNL A   1      33.668  29.592  26.984  1.00  0.00    -0.352 N 
ATOM     25  C   UNL A   1      34.457  30.509  27.629  1.00  0.00     0.251 C 
ATOM     26  H   UNL A   1      32.893  29.971  26.509  1.00  0.00     0.163 HD
ATOM     27  O   UNL A   1      34.027  31.643  27.835  1.00  0.00    -0.269 OA
BRANCH  25  28
ATOM     28  C   UNL A   1      35.812  30.134  28.071  1.00  0.00     0.039 A 
ATOM     29  C   UNL A   1      36.008  29.667  29.373  1.00  0.00     0.014 A 
ATOM     30  C   UNL A   1      36.896  30.266  27.200  1.00  0.00     0.014 A 
ATOM     31  C   UNL A   1      37.284  29.270  29.776  1.00  0.00     0.010 A 
ATOM     32  C   UNL A   1      38.142  29.778  27.568  1.00  0.00     0.010 A 
ATOM     33  C   UNL A   1      38.352  29.289  28.865  1.00  0.00    -0.014 A 
BRANCH  33  34
ATOM     34  C   UNL A   1      39.711  28.842  29.251  1.00  0.00     0.031 A 
ATOM     35  C   UNL A   1      40.594  29.760  30.056  1.00  0.00     0.074 A 
ATOM     36  C   UNL A   1      40.162  27.640  28.842  1.00  0.00     0.049 A 
ATOM     37  N   UNL A   1      41.835  29.588  30.428  1.00  0.00    -0.248 NA
ATOM     38  C   UNL A   1      40.015  31.048  30.479  1.00  0.00     0.031 C 
ATOM     39  C   UNL A   1      39.405  26.675  28.041  1.00  0.00     0.029 A 
ATOM     40  N   UNL A   1      41.367  27.019  29.051  1.00  0.00    -0.354 N 
ATOM     41  C   UNL A   1      42.182  30.740  31.125  1.00  0.00     0.074 A 
ATOM     42  C   UNL A   1      41.048  31.634  31.065  1.00  0.00     0.031 C 
ATOM     43  C   UNL A   1      40.145  25.567  27.867  1.00  0.00     0.029 A 
ATOM     44  C   UNL A   1      41.444  25.761  28.501  1.00  0.00     0.049 A 
ATOM     45  H   UNL A   1      42.109  27.435  29.548  1.00  0.00     0.167 HD
ATOM     46  C   UNL A   1      43.328  31.015  31.788  1.00  0.00     0.031 A 
ATOM     47  C   UNL A   1      42.451  24.865  28.509  1.00  0.00     0.031 A 
ATOM     48  C   UNL A   1      44.444  30.114  31.865  1.00  0.00     0.049 A 
ATOM     49  C   UNL A   1      43.735  25.222  29.210  1.00  0.00     0.074 A 
ATOM     50  C   UNL A   1      45.644  30.290  32.529  1.00  0.00     0.029 A 
ATOM     51  N   UNL A   1      44.491  28.862  31.272  1.00  0.00    -0.354 N 
ATOM     52  N   UNL A   1      44.031  26.307  29.884  1.00  0.00    -0.248 NA
ATOM     53  C   UNL A   1      44.818  24.231  29.154  1.00  0.00     0.031 C 
ATOM     54  C   UNL A   1      46.435  29.160  32.303  1.00  0.00     0.029 A 
ATOM     55  C   UNL A   1      45.705  28.259  31.545  1.00  0.00     0.049 A 
ATOM     56  H   UNL A   1      43.768  28.462  30.737  1.00  0.00     0.167 HD
ATOM     57  C   UNL A   1      45.324  26.114  30.360  1.00  0.00     0.074 A 
ATOM     58  C   UNL A   1      45.745  24.804  29.909  1.00  0.00     0.031 C 
ATOM     59  C   UNL A   1      46.096  26.947  31.099  1.00  0.00     0.031 A 
BRANCH  46  60
ATOM     60  C   UNL A   1      43.423  32.326  32.518  1.00  0.00    -0.014 A 
ATOM     61  C   UNL A   1      43.028  32.421  33.866  1.00  0.00     0.010 A 
ATOM     62  C   UNL A   1      43.993  33.447  31.890  1.00  0.00     0.010 A 
ATOM     63  C   UNL A   1      43.194  33.615  34.569  1.00  0.00     0.020 A 
ATOM     64  C   UNL A   1      44.185  34.637  32.598  1.00  0.00     0.020 A 
ATOM     65  C   UNL A   1      43.781  34.714  33.934  1.00  0.00     0.054 A 
BRANCH  65  66
ATOM     66  S   UNL A   1      44.052  36.224  34.900  1.00  0.00     0.124 S 
ATOM     67  O   UNL A   1      44.788  35.715  36.055  1.00  0.00    -0.237 OA
ATOM     68  O   UNL A   1      44.825  37.054  33.980  1.00  0.00    -0.237 OA
ATOM     69  O   UNL A   1      42.702  36.702  35.186  1.00  0.00    -0.744 OA
ENDBRANCH  65  66
ENDBRANCH  46  60
BRANCH  47  70
ATOM     70  C   UNL A   1      42.290  23.537  27.854  1.00  0.00    -0.014 A 
ATOM     71  C   UNL A   1      41.629  22.492  28.526  1.00  0.00     0.010 A 
ATOM     72  C   UNL A   1      42.817  23.296  26.572  1.00  0.00     0.010 A 
ATOM     73  C   UNL A   1      41.533  21.224  27.946  1.00  0.00     0.020 A 
ATOM     74  C   UNL A   1      42.696  22.038  25.976  1.00  0.00     0.020 A 
ATOM     75  C   UNL A   1      42.071  21.005  26.675  1.00  0.00     0.054 A 
BRANCH  75  76
ATOM     76  S   UNL A   1      41.929  19.351  25.942  1.00  0.00     0.124 S 
ATOM     77  O   UNL A   1      40.496  19.260  25.674  1.00  0.00    -0.237 OA
ATOM     78  O   UNL A   1      42.788  19.454  24.766  1.00  0.00    -0.237 OA
ATOM     79  O   UNL A   1      42.427  18.467  26.993  1.00  0.00    -0.744 OA
ENDBRANCH  75  76
ENDBRANCH  47  70
BRANCH  59  80
ATOM     80  C   UNL A   1      47.460  26.459  31.500  1.00  0.00    -0.014 A 
ATOM     81  C   UNL A   1      47.655  25.759  32.702  1.00  0.00     0.010 A 
ATOM     82  C   UNL A   1      48.545  26.634  30.620  1.00  0.00     0.010 A 
ATOM     83  C   UNL A   1      48.917  25.257  33.028  1.00  0.00     0.020 A 
ATOM     84  C   UNL A   1      49.801  26.108  30.928  1.00  0.00     0.020 A 
ATOM     85  C   UNL A   1      49.981  25.430  32.136  1.00  0.00     0.054 A 
BRANCH  85  86
ATOM     86  S   UNL A   1      51.592  24.713  32.559  1.00  0.00     0.124 S 
ATOM     87  O   UNL A   1      52.490  25.434  31.662  1.00  0.00    -0.237 OA
ATOM     88  O   UNL A   1      51.722  25.038  33.977  1.00  0.00    -0.237 OA
ATOM     89  O   UNL A   1      51.428  23.291  32.264  1.00  0.00    -0.744 OA
ENDBRANCH  85  86
ENDBRANCH  59  80
ENDBRANCH  33  34
ENDBRANCH  25  28
ENDBRANCH   1  24
TORSDOF 14
ENDMDL
