MODEL 1
REMARK VINA RESULT:     -10.6      0.000      0.000
REMARK SMILES O=C(C[C@H]1CN(S(=O)(=O)N2CCCCC2)CCO1)NCCCNC(=O)c1ccc(-c2c3nc(c(-c4ccc(S(=O)(=O)[O-])cc4)c4ccc([nH]4)c(-c4ccc(S(=O)(=O)[O-])cc4)c4nc(c(-c5ccc(S(=O)(=O)[O-])cc5)c5ccc2[nH]5)C=C4)C=C3)cc1
REMARK SMILES IDX 21 1 20 2 19 3 1 4 2 5 3 7 4 8 5 9 18 10 6 11 17 12 16 13
REMARK SMILES IDX 7 14 8 15 9 16 10 17 11 18 15 19 12 20 14 21 13 22 22 23
REMARK SMILES IDX 23 24 24 25 25 27 26 28 27 29 85 30 28 31 84 32 29 33 30 34
REMARK SMILES IDX 31 35 78 36 32 37 83 38 77 39 79 40 33 41 82 42 76 43 75 44
REMARK SMILES IDX 34 46 64 47 45 48 63 49 46 50 49 51 62 52 80 53 47 54 48 55
REMARK SMILES IDX 61 57 81 58 50 59 35 60 36 61 44 62 37 63 43 64 38 65 39 66
REMARK SMILES IDX 40 67 41 68 42 69 65 70 66 71 74 72 67 73 73 74 68 75 69 76
REMARK SMILES IDX 70 77 71 78 72 79 51 80 52 81 60 82 53 83 59 84 54 85 55 86
REMARK SMILES IDX 56 87 57 88 58 89
REMARK H PARENT 19 6 23 26 79 45 49 56
REMARK Flexibility Score: inf
ROOT
ATOM      1  C   UNL A   1      31.911  27.791  27.356  1.00  0.00     0.042 C 
ENDROOT
BRANCH   1   2
ATOM      2  C   UNL A   1      31.523  27.048  26.080  1.00  0.00     0.117 C 
BRANCH   2   3
ATOM      3  N   UNL A   1      32.631  26.265  25.575  1.00  0.00    -0.356 N 
ATOM      4  O   UNL A   1      32.944  27.521  23.684  1.00  0.00    -0.275 OA
ATOM      5  C   UNL A   1      33.195  26.523  24.351  1.00  0.00     0.222 C 
ATOM      6  H   UNL A   1      32.989  25.530  26.123  1.00  0.00     0.163 HD
BRANCH   5   7
ATOM      7  C   UNL A   1      34.070  25.409  23.841  1.00  0.00     0.133 C 
BRANCH   7   8
ATOM      8  C   UNL A   1      33.474  24.546  22.734  1.00  0.00     0.142 C 
ATOM      9  C   UNL A   1      33.951  23.075  22.764  1.00  0.00     0.136 C 
ATOM     10  O   UNL A   1      32.045  24.604  22.636  1.00  0.00    -0.375 OA
ATOM     11  N   UNL A   1      33.288  22.229  23.793  1.00  0.00    -0.184 NA
ATOM     12  C   UNL A   1      31.382  23.851  23.661  1.00  0.00     0.177 C 
ATOM     13  C   UNL A   1      31.798  22.373  23.635  1.00  0.00     0.132 C 
BRANCH  11  14
ATOM     14  S   UNL A   1      33.768  22.089  25.409  1.00  0.00     0.282 S 
ATOM     15  O   UNL A   1      33.204  23.182  26.157  1.00  0.00    -0.195 OA
ATOM     16  O   UNL A   1      33.443  20.730  25.794  1.00  0.00    -0.195 OA
BRANCH  14  17
ATOM     17  N   UNL A   1      35.442  22.245  25.417  1.00  0.00    -0.189 NA
ATOM     18  C   UNL A   1      36.004  23.382  26.166  1.00  0.00     0.103 C 
ATOM     19  C   UNL A   1      36.293  21.052  25.209  1.00  0.00     0.103 C 
ATOM     20  C   UNL A   1      37.426  23.682  25.715  1.00  0.00     0.017 C 
ATOM     21  C   UNL A   1      37.767  21.358  24.967  1.00  0.00     0.017 C 
ATOM     22  C   UNL A   1      38.296  22.450  25.882  1.00  0.00     0.003 C 
ENDBRANCH  14  17
ENDBRANCH  11  14
ENDBRANCH   7   8
ENDBRANCH   5   7
ENDBRANCH   2   3
ENDBRANCH   1   2
BRANCH   1  23
ATOM     23  C   UNL A   1      33.298  28.427  27.310  1.00  0.00     0.118 C 
BRANCH  23  24
ATOM     24  N   UNL A   1      33.268  29.866  27.536  1.00  0.00    -0.352 N 
ATOM     25  C   UNL A   1      34.223  30.694  28.067  1.00  0.00     0.251 C 
ATOM     26  H   UNL A   1      32.432  30.312  27.267  1.00  0.00     0.163 HD
ATOM     27  O   UNL A   1      33.935  31.856  28.339  1.00  0.00    -0.269 OA
BRANCH  25  28
ATOM     28  C   UNL A   1      35.584  30.184  28.328  1.00  0.00     0.039 A 
ATOM     29  C   UNL A   1      36.524  30.218  27.297  1.00  0.00     0.014 A 
ATOM     30  C   UNL A   1      35.931  29.674  29.582  1.00  0.00     0.014 A 
ATOM     31  C   UNL A   1      37.833  29.800  27.543  1.00  0.00     0.010 A 
ATOM     32  C   UNL A   1      37.254  29.334  29.847  1.00  0.00     0.010 A 
ATOM     33  C   UNL A   1      38.219  29.391  28.830  1.00  0.00    -0.014 A 
BRANCH  33  34
ATOM     34  C   UNL A   1      39.628  29.031  29.133  1.00  0.00     0.031 A 
ATOM     35  C   UNL A   1      40.556  30.047  29.744  1.00  0.00     0.074 A 
ATOM     36  C   UNL A   1      40.087  27.808  28.804  1.00  0.00     0.049 A 
ATOM     37  N   UNL A   1      41.828  29.934  30.029  1.00  0.00    -0.248 NA
ATOM     38  C   UNL A   1      39.989  31.370  30.052  1.00  0.00     0.031 C 
ATOM     39  C   UNL A   1      39.296  26.747  28.173  1.00  0.00     0.029 A 
ATOM     40  N   UNL A   1      41.333  27.249  28.948  1.00  0.00    -0.354 N 
ATOM     41  C   UNL A   1      42.215  31.169  30.535  1.00  0.00     0.074 A 
ATOM     42  C   UNL A   1      41.057  32.034  30.467  1.00  0.00     0.031 C 
ATOM     43  C   UNL A   1      40.066  25.659  28.014  1.00  0.00     0.029 A 
ATOM     44  C   UNL A   1      41.416  25.957  28.482  1.00  0.00     0.049 A 
ATOM     45  H   UNL A   1      42.095  27.728  29.346  1.00  0.00     0.167 HD
ATOM     46  C   UNL A   1      43.419  31.544  31.029  1.00  0.00     0.031 A 
ATOM     47  C   UNL A   1      42.462  25.109  28.428  1.00  0.00     0.031 A 
ATOM     48  C   UNL A   1      44.567  30.678  31.096  1.00  0.00     0.049 A 
ATOM     49  C   UNL A   1      43.797  25.559  28.958  1.00  0.00     0.074 A 
ATOM     50  C   UNL A   1      45.817  30.948  31.627  1.00  0.00     0.029 A 
ATOM     51  N   UNL A   1      44.610  29.379  30.614  1.00  0.00    -0.354 N 
ATOM     52  N   UNL A   1      44.125  26.710  29.495  1.00  0.00    -0.248 NA
ATOM     53  C   UNL A   1      44.899  24.591  28.884  1.00  0.00     0.031 C 
ATOM     54  C   UNL A   1      46.635  29.836  31.406  1.00  0.00     0.029 A 
ATOM     55  C   UNL A   1      45.874  28.845  30.806  1.00  0.00     0.049 A 
ATOM     56  H   UNL A   1      43.854  28.905  30.196  1.00  0.00     0.167 HD
ATOM     57  C   UNL A   1      45.463  26.593  29.852  1.00  0.00     0.074 A 
ATOM     58  C   UNL A   1      45.878  25.254  29.485  1.00  0.00     0.031 C 
ATOM     59  C   UNL A   1      46.274  27.511  30.435  1.00  0.00     0.031 A 
BRANCH  46  60
ATOM     60  C   UNL A   1      43.561  32.960  31.526  1.00  0.00    -0.014 A 
ATOM     61  C   UNL A   1      43.246  33.302  32.855  1.00  0.00     0.010 A 
ATOM     62  C   UNL A   1      44.058  33.956  30.666  1.00  0.00     0.010 A 
ATOM     63  C   UNL A   1      43.384  34.620  33.299  1.00  0.00     0.020 A 
ATOM     64  C   UNL A   1      44.229  35.269  31.116  1.00  0.00     0.020 A 
ATOM     65  C   UNL A   1      43.874  35.595  32.426  1.00  0.00     0.054 A 
BRANCH  65  66
ATOM     66  S   UNL A   1      44.062  37.291  33.039  1.00  0.00     0.124 S 
ATOM     67  O   UNL A   1      43.836  38.076  31.827  1.00  0.00    -0.237 OA
ATOM     68  O   UNL A   1      43.014  37.384  34.052  1.00  0.00    -0.237 OA
ATOM     69  O   UNL A   1      45.430  37.325  33.554  1.00  0.00    -0.744 OA
ENDBRANCH  65  66
ENDBRANCH  46  60
BRANCH  47  70
ATOM     70  C   UNL A   1      42.286  23.745  27.856  1.00  0.00    -0.014 A 
ATOM     71  C   UNL A   1      42.503  23.507  26.489  1.00  0.00     0.010 A 
ATOM     72  C   UNL A   1      41.906  22.672  28.684  1.00  0.00     0.010 A 
ATOM     73  C   UNL A   1      42.324  22.228  25.954  1.00  0.00     0.020 A 
ATOM     74  C   UNL A   1      41.758  21.385  28.159  1.00  0.00     0.020 A 
ATOM     75  C   UNL A   1      41.956  21.173  26.794  1.00  0.00     0.054 A 
BRANCH  75  76
ATOM     76  S   UNL A   1      41.775  19.513  26.085  1.00  0.00     0.124 S 
ATOM     77  O   UNL A   1      42.209  18.663  27.189  1.00  0.00    -0.237 OA
ATOM     78  O   UNL A   1      40.350  19.461  25.768  1.00  0.00    -0.237 OA
ATOM     79  O   UNL A   1      42.665  19.538  24.926  1.00  0.00    -0.744 OA
ENDBRANCH  75  76
ENDBRANCH  47  70
BRANCH  59  80
ATOM     80  C   UNL A   1      47.687  27.090  30.750  1.00  0.00    -0.014 A 
ATOM     81  C   UNL A   1      48.742  27.325  29.851  1.00  0.00     0.010 A 
ATOM     82  C   UNL A   1      47.970  26.499  31.996  1.00  0.00     0.010 A 
ATOM     83  C   UNL A   1      50.047  26.948  30.178  1.00  0.00     0.020 A 
ATOM     84  C   UNL A   1      49.278  26.153  32.342  1.00  0.00     0.020 A 
ATOM     85  C   UNL A   1      50.307  26.366  31.423  1.00  0.00     0.054 A 
BRANCH  85  86
ATOM     86  S   UNL A   1      52.018  25.931  31.842  1.00  0.00     0.124 S 
ATOM     87  O   UNL A   1      52.379  26.989  32.781  1.00  0.00    -0.237 OA
ATOM     88  O   UNL A   1      51.874  24.598  32.422  1.00  0.00    -0.237 OA
ATOM     89  O   UNL A   1      52.711  25.975  30.558  1.00  0.00    -0.744 OA
ENDBRANCH  85  86
ENDBRANCH  59  80
ENDBRANCH  33  34
ENDBRANCH  25  28
ENDBRANCH  23  24
ENDBRANCH   1  23
TORSDOF 16
ENDMDL
MODEL 2
REMARK VINA RESULT:     -10.4      1.627      2.229
REMARK SMILES O=C(C[C@H]1CN(S(=O)(=O)N2CCCCC2)CCO1)NCCCNC(=O)c1ccc(-c2c3nc(c(-c4ccc(S(=O)(=O)[O-])cc4)c4ccc([nH]4)c(-c4ccc(S(=O)(=O)[O-])cc4)c4nc(c(-c5ccc(S(=O)(=O)[O-])cc5)c5ccc2[nH]5)C=C4)C=C3)cc1
REMARK SMILES IDX 21 1 20 2 19 3 1 4 2 5 3 7 4 8 5 9 18 10 6 11 17 12 16 13
REMARK SMILES IDX 7 14 8 15 9 16 10 17 11 18 15 19 12 20 14 21 13 22 22 23
REMARK SMILES IDX 23 24 24 25 25 27 26 28 27 29 85 30 28 31 84 32 29 33 30 34
REMARK SMILES IDX 31 35 78 36 32 37 83 38 77 39 79 40 33 41 82 42 76 43 75 44
REMARK SMILES IDX 34 46 64 47 45 48 63 49 46 50 49 51 62 52 80 53 47 54 48 55
REMARK SMILES IDX 61 57 81 58 50 59 35 60 36 61 44 62 37 63 43 64 38 65 39 66
REMARK SMILES IDX 40 67 41 68 42 69 65 70 66 71 74 72 67 73 73 74 68 75 69 76
REMARK SMILES IDX 70 77 71 78 72 79 51 80 52 81 60 82 53 83 59 84 54 85 55 86
REMARK SMILES IDX 56 87 57 88 58 89
REMARK H PARENT 19 6 23 26 79 45 49 56
REMARK Flexibility Score: inf
ROOT
ATOM      1  C   UNL A   1      33.748  27.991  25.842  1.00  0.00     0.042 C 
ENDROOT
BRANCH   1   2
ATOM      2  C   UNL A   1      32.549  27.457  25.062  1.00  0.00     0.117 C 
BRANCH   2   3
ATOM      3  N   UNL A   1      32.544  26.010  25.040  1.00  0.00    -0.356 N 
ATOM      4  O   UNL A   1      31.058  25.768  26.767  1.00  0.00    -0.275 OA
ATOM      5  C   UNL A   1      31.855  25.278  25.974  1.00  0.00     0.222 C 
ATOM      6  H   UNL A   1      33.048  25.538  24.338  1.00  0.00     0.163 HD
BRANCH   5   7
ATOM      7  C   UNL A   1      32.249  23.826  26.018  1.00  0.00     0.133 C 
BRANCH   7   8
ATOM      8  C   UNL A   1      33.723  23.542  26.287  1.00  0.00     0.142 C 
ATOM      9  C   UNL A   1      34.030  22.053  26.570  1.00  0.00     0.136 C 
ATOM     10  O   UNL A   1      34.620  24.056  25.295  1.00  0.00    -0.375 OA
ATOM     11  N   UNL A   1      34.076  21.188  25.360  1.00  0.00    -0.184 NA
ATOM     12  C   UNL A   1      34.631  23.277  24.091  1.00  0.00     0.177 C 
ATOM     13  C   UNL A   1      35.016  21.816  24.366  1.00  0.00     0.132 C 
BRANCH  11  14
ATOM     14  S   UNL A   1      32.742  20.449  24.629  1.00  0.00     0.282 S 
ATOM     15  O   UNL A   1      31.587  20.646  25.464  1.00  0.00    -0.195 OA
ATOM     16  O   UNL A   1      32.721  20.947  23.268  1.00  0.00    -0.195 OA
BRANCH  14  17
ATOM     17  N   UNL A   1      33.087  18.804  24.575  1.00  0.00    -0.189 NA
ATOM     18  C   UNL A   1      32.655  17.993  25.726  1.00  0.00     0.103 C 
ATOM     19  C   UNL A   1      33.262  18.132  23.269  1.00  0.00     0.103 C 
ATOM     20  C   UNL A   1      33.418  16.677  25.782  1.00  0.00     0.017 C 
ATOM     21  C   UNL A   1      33.834  16.721  23.352  1.00  0.00     0.017 C 
ATOM     22  C   UNL A   1      33.228  15.910  24.486  1.00  0.00     0.003 C 
ENDBRANCH  14  17
ENDBRANCH  11  14
ENDBRANCH   7   8
ENDBRANCH   5   7
ENDBRANCH   2   3
ENDBRANCH   1   2
BRANCH   1  23
ATOM     23  C   UNL A   1      33.424  28.414  27.272  1.00  0.00     0.118 C 
BRANCH  23  24
ATOM     24  N   UNL A   1      33.393  29.861  27.441  1.00  0.00    -0.352 N 
ATOM     25  C   UNL A   1      34.336  30.707  27.966  1.00  0.00     0.251 C 
ATOM     26  H   UNL A   1      32.567  30.299  27.130  1.00  0.00     0.163 HD
ATOM     27  O   UNL A   1      34.044  31.879  28.183  1.00  0.00    -0.269 OA
BRANCH  25  28
ATOM     28  C   UNL A   1      35.686  30.204  28.286  1.00  0.00     0.039 A 
ATOM     29  C   UNL A   1      36.670  30.240  27.296  1.00  0.00     0.014 A 
ATOM     30  C   UNL A   1      35.982  29.698  29.554  1.00  0.00     0.014 A 
ATOM     31  C   UNL A   1      37.969  29.829  27.598  1.00  0.00     0.010 A 
ATOM     32  C   UNL A   1      37.294  29.365  29.877  1.00  0.00     0.010 A 
ATOM     33  C   UNL A   1      38.302  29.424  28.902  1.00  0.00    -0.014 A 
BRANCH  33  34
ATOM     34  C   UNL A   1      39.698  29.072  29.265  1.00  0.00     0.031 A 
ATOM     35  C   UNL A   1      40.581  30.080  29.949  1.00  0.00     0.074 A 
ATOM     36  C   UNL A   1      40.188  27.863  28.926  1.00  0.00     0.049 A 
ATOM     37  N   UNL A   1      41.839  29.973  30.294  1.00  0.00    -0.248 NA
ATOM     38  C   UNL A   1      39.983  31.388  30.264  1.00  0.00     0.031 C 
ATOM     39  C   UNL A   1      39.443  26.811  28.228  1.00  0.00     0.029 A 
ATOM     40  N   UNL A   1      41.432  27.314  29.117  1.00  0.00    -0.354 N 
ATOM     41  C   UNL A   1      42.185  31.198  30.853  1.00  0.00     0.074 A 
ATOM     42  C   UNL A   1      41.021  32.051  30.751  1.00  0.00     0.031 C 
ATOM     43  C   UNL A   1      40.233  25.737  28.078  1.00  0.00     0.029 A 
ATOM     44  C   UNL A   1      41.554  26.037  28.622  1.00  0.00     0.049 A 
ATOM     45  H   UNL A   1      42.167  27.791  29.566  1.00  0.00     0.167 HD
ATOM     46  C   UNL A   1      43.358  31.573  31.417  1.00  0.00     0.031 A 
ATOM     47  C   UNL A   1      42.612  25.203  28.596  1.00  0.00     0.031 A 
ATOM     48  C   UNL A   1      44.511  30.718  31.518  1.00  0.00     0.049 A 
ATOM     49  C   UNL A   1      43.913  25.652  29.205  1.00  0.00     0.074 A 
ATOM     50  C   UNL A   1      45.730  30.987  32.118  1.00  0.00     0.029 A 
ATOM     51  N   UNL A   1      44.595  29.433  31.003  1.00  0.00    -0.354 N 
ATOM     52  N   UNL A   1      44.199  26.792  29.789  1.00  0.00    -0.248 NA
ATOM     53  C   UNL A   1      45.030  24.699  29.161  1.00  0.00     0.031 C 
ATOM     54  C   UNL A   1      46.571  29.890  31.909  1.00  0.00     0.029 A 
ATOM     55  C   UNL A   1      45.854  28.908  31.245  1.00  0.00     0.049 A 
ATOM     56  H   UNL A   1      43.867  28.963  30.536  1.00  0.00     0.167 HD
ATOM     57  C   UNL A   1      45.520  26.679  30.210  1.00  0.00     0.074 A 
ATOM     58  C   UNL A   1      45.969  25.356  29.828  1.00  0.00     0.031 C 
ATOM     59  C   UNL A   1      46.289  27.589  30.857  1.00  0.00     0.031 A 
BRANCH  46  60
ATOM     60  C   UNL A   1      43.457  32.976  31.959  1.00  0.00    -0.014 A 
ATOM     61  C   UNL A   1      43.046  33.282  33.270  1.00  0.00     0.010 A 
ATOM     62  C   UNL A   1      44.009  33.995  31.163  1.00  0.00     0.010 A 
ATOM     63  C   UNL A   1      43.146  34.588  33.757  1.00  0.00     0.020 A 
ATOM     64  C   UNL A   1      44.142  35.296  31.658  1.00  0.00     0.020 A 
ATOM     65  C   UNL A   1      43.693  35.587  32.946  1.00  0.00     0.054 A 
BRANCH  65  66
ATOM     66  S   UNL A   1      43.828  37.268  33.614  1.00  0.00     0.124 S 
ATOM     67  O   UNL A   1      45.158  37.244  34.220  1.00  0.00    -0.237 OA
ATOM     68  O   UNL A   1      43.697  38.098  32.420  1.00  0.00    -0.237 OA
ATOM     69  O   UNL A   1      42.717  37.358  34.559  1.00  0.00    -0.744 OA
ENDBRANCH  65  66
ENDBRANCH  46  60
BRANCH  47  70
ATOM     70  C   UNL A   1      42.482  23.853  27.980  1.00  0.00    -0.014 A 
ATOM     71  C   UNL A   1      42.789  23.651  26.624  1.00  0.00     0.010 A 
ATOM     72  C   UNL A   1      42.055  22.757  28.753  1.00  0.00     0.010 A 
ATOM     73  C   UNL A   1      42.652  22.386  26.046  1.00  0.00     0.020 A 
ATOM     74  C   UNL A   1      41.949  21.483  28.187  1.00  0.00     0.020 A 
ATOM     75  C   UNL A   1      42.237  21.308  26.833  1.00  0.00     0.054 A 
BRANCH  75  76
ATOM     76  S   UNL A   1      42.113  19.666  26.071  1.00  0.00     0.124 S 
ATOM     77  O   UNL A   1      42.538  18.793  27.161  1.00  0.00    -0.237 OA
ATOM     78  O   UNL A   1      40.698  19.592  25.715  1.00  0.00    -0.237 OA
ATOM     79  O   UNL A   1      43.031  19.745  24.937  1.00  0.00    -0.744 OA
ENDBRANCH  75  76
ENDBRANCH  47  70
BRANCH  59  80
ATOM     80  C   UNL A   1      47.690  27.175  31.232  1.00  0.00    -0.014 A 
ATOM     81  C   UNL A   1      48.779  27.408  30.373  1.00  0.00     0.010 A 
ATOM     82  C   UNL A   1      47.924  26.595  32.493  1.00  0.00     0.010 A 
ATOM     83  C   UNL A   1      50.071  27.037  30.755  1.00  0.00     0.020 A 
ATOM     84  C   UNL A   1      49.219  26.255  32.893  1.00  0.00     0.020 A 
ATOM     85  C   UNL A   1      50.283  26.465  32.014  1.00  0.00     0.054 A 
BRANCH  85  86
ATOM     86  S   UNL A   1      51.976  26.039  32.504  1.00  0.00     0.124 S 
ATOM     87  O   UNL A   1      52.720  27.227  32.095  1.00  0.00    -0.237 OA
ATOM     88  O   UNL A   1      51.851  25.841  33.946  1.00  0.00    -0.237 OA
ATOM     89  O   UNL A   1      52.265  24.829  31.737  1.00  0.00    -0.744 OA
ENDBRANCH  85  86
ENDBRANCH  59  80
ENDBRANCH  33  34
ENDBRANCH  25  28
ENDBRANCH  23  24
ENDBRANCH   1  23
TORSDOF 16
ENDMDL
MODEL 3
REMARK VINA RESULT:      -9.9      4.477     10.388
REMARK SMILES O=C(C[C@H]1CN(S(=O)(=O)N2CCCCC2)CCO1)NCCCNC(=O)c1ccc(-c2c3nc(c(-c4ccc(S(=O)(=O)[O-])cc4)c4ccc([nH]4)c(-c4ccc(S(=O)(=O)[O-])cc4)c4nc(c(-c5ccc(S(=O)(=O)[O-])cc5)c5ccc2[nH]5)C=C4)C=C3)cc1
REMARK SMILES IDX 21 1 20 2 19 3 1 4 2 5 3 7 4 8 5 9 18 10 6 11 17 12 16 13
REMARK SMILES IDX 7 14 8 15 9 16 10 17 11 18 15 19 12 20 14 21 13 22 22 23
REMARK SMILES IDX 23 24 24 25 25 27 26 28 27 29 85 30 28 31 84 32 29 33 30 34
REMARK SMILES IDX 31 35 78 36 32 37 83 38 77 39 79 40 33 41 82 42 76 43 75 44
REMARK SMILES IDX 34 46 64 47 45 48 63 49 46 50 49 51 62 52 80 53 47 54 48 55
REMARK SMILES IDX 61 57 81 58 50 59 35 60 36 61 44 62 37 63 43 64 38 65 39 66
REMARK SMILES IDX 40 67 41 68 42 69 65 70 66 71 74 72 67 73 73 74 68 75 69 76
REMARK SMILES IDX 70 77 71 78 72 79 51 80 52 81 60 82 53 83 59 84 54 85 55 86
REMARK SMILES IDX 56 87 57 88 58 89
REMARK H PARENT 19 6 23 26 79 45 49 56
REMARK Flexibility Score: inf
ROOT
ATOM      1  C   UNL A   1      40.439  22.109  27.656  1.00  0.00     0.042 C 
ENDROOT
BRANCH   1   2
ATOM      2  C   UNL A   1      39.909  21.812  26.256  1.00  0.00     0.117 C 
BRANCH   2   3
ATOM      3  N   UNL A   1      38.551  22.290  26.100  1.00  0.00    -0.356 N 
ATOM      4  O   UNL A   1      37.834  20.511  24.846  1.00  0.00    -0.275 OA
ATOM      5  C   UNL A   1      37.641  21.628  25.315  1.00  0.00     0.222 C 
ATOM      6  H   UNL A   1      38.274  23.111  26.568  1.00  0.00     0.163 HD
BRANCH   5   7
ATOM      7  C   UNL A   1      36.420  22.444  24.983  1.00  0.00     0.133 C 
BRANCH   7   8
ATOM      8  C   UNL A   1      35.301  22.422  26.019  1.00  0.00     0.142 C 
ATOM      9  C   UNL A   1      34.300  23.592  25.881  1.00  0.00     0.136 C 
ATOM     10  O   UNL A   1      34.600  21.175  26.113  1.00  0.00    -0.375 OA
ATOM     11  N   UNL A   1      33.303  23.431  24.788  1.00  0.00    -0.184 NA
ATOM     12  C   UNL A   1      33.681  20.965  25.032  1.00  0.00     0.177 C 
ATOM     13  C   UNL A   1      32.639  22.090  24.949  1.00  0.00     0.132 C 
BRANCH  11  14
ATOM     14  S   UNL A   1      33.542  23.857  23.169  1.00  0.00     0.282 S 
ATOM     15  O   UNL A   1      34.954  23.865  22.894  1.00  0.00    -0.195 OA
ATOM     16  O   UNL A   1      32.681  22.977  22.405  1.00  0.00    -0.195 OA
BRANCH  14  17
ATOM     17  N   UNL A   1      32.958  25.426  23.005  1.00  0.00    -0.189 NA
ATOM     18  C   UNL A   1      31.507  25.581  22.807  1.00  0.00     0.103 C 
ATOM     19  C   UNL A   1      33.711  26.557  23.591  1.00  0.00     0.103 C 
ATOM     20  C   UNL A   1      31.181  26.943  22.211  1.00  0.00     0.017 C 
ATOM     21  C   UNL A   1      33.234  27.935  23.147  1.00  0.00     0.017 C 
ATOM     22  C   UNL A   1      31.719  28.045  23.106  1.00  0.00     0.003 C 
ENDBRANCH  14  17
ENDBRANCH  11  14
ENDBRANCH   7   8
ENDBRANCH   5   7
ENDBRANCH   2   3
ENDBRANCH   1   2
BRANCH   1  23
ATOM     23  C   UNL A   1      41.360  23.324  27.729  1.00  0.00     0.118 C 
BRANCH  23  24
ATOM     24  N   UNL A   1      41.502  24.004  26.449  1.00  0.00    -0.352 N 
ATOM     25  C   UNL A   1      41.306  25.321  26.124  1.00  0.00     0.251 C 
ATOM     26  H   UNL A   1      41.782  23.427  25.701  1.00  0.00     0.163 HD
ATOM     27  O   UNL A   1      41.307  25.661  24.944  1.00  0.00    -0.269 OA
BRANCH  25  28
ATOM     28  C   UNL A   1      41.075  26.320  27.187  1.00  0.00     0.039 A 
ATOM     29  C   UNL A   1      40.062  26.087  28.119  1.00  0.00     0.014 A 
ATOM     30  C   UNL A   1      41.852  27.479  27.264  1.00  0.00     0.014 A 
ATOM     31  C   UNL A   1      39.871  26.987  29.169  1.00  0.00     0.010 A 
ATOM     32  C   UNL A   1      41.713  28.332  28.355  1.00  0.00     0.010 A 
ATOM     33  C   UNL A   1      40.719  28.097  29.318  1.00  0.00    -0.014 A 
BRANCH  33  34
ATOM     34  C   UNL A   1      40.590  29.014  30.479  1.00  0.00     0.031 A 
ATOM     35  C   UNL A   1      41.468  28.835  31.688  1.00  0.00     0.074 A 
ATOM     36  C   UNL A   1      39.641  29.970  30.468  1.00  0.00     0.049 A 
ATOM     37  N   UNL A   1      41.464  29.501  32.815  1.00  0.00    -0.248 NA
ATOM     38  C   UNL A   1      42.463  27.752  31.637  1.00  0.00     0.031 C 
ATOM     39  C   UNL A   1      38.702  30.221  29.370  1.00  0.00     0.029 A 
ATOM     40  N   UNL A   1      39.303  30.908  31.412  1.00  0.00    -0.354 N 
ATOM     41  C   UNL A   1      42.442  28.912  33.607  1.00  0.00     0.074 A 
ATOM     42  C   UNL A   1      42.982  27.801  32.855  1.00  0.00     0.031 C 
ATOM     43  C   UNL A   1      37.918  31.262  29.690  1.00  0.00     0.029 A 
ATOM     44  C   UNL A   1      38.260  31.722  31.033  1.00  0.00     0.049 A 
ATOM     45  H   UNL A   1      39.762  30.990  32.278  1.00  0.00     0.167 HD
ATOM     46  C   UNL A   1      42.866  29.275  34.842  1.00  0.00     0.031 A 
ATOM     47  C   UNL A   1      37.641  32.720  31.693  1.00  0.00     0.031 A 
ATOM     48  C   UNL A   1      42.327  30.384  35.584  1.00  0.00     0.049 A 
ATOM     49  C   UNL A   1      38.112  33.087  33.074  1.00  0.00     0.074 A 
ATOM     50  C   UNL A   1      42.724  30.864  36.820  1.00  0.00     0.029 A 
ATOM     51  N   UNL A   1      41.273  31.182  35.165  1.00  0.00    -0.354 N 
ATOM     52  N   UNL A   1      39.085  32.560  33.780  1.00  0.00    -0.248 NA
ATOM     53  C   UNL A   1      37.410  34.190  33.743  1.00  0.00     0.031 C 
ATOM     54  C   UNL A   1      41.868  31.910  37.178  1.00  0.00     0.029 A 
ATOM     55  C   UNL A   1      40.986  32.131  36.133  1.00  0.00     0.049 A 
ATOM     56  H   UNL A   1      40.798  31.088  34.308  1.00  0.00     0.167 HD
ATOM     57  C   UNL A   1      39.131  33.289  34.963  1.00  0.00     0.074 A 
ATOM     58  C   UNL A   1      38.100  34.303  34.869  1.00  0.00     0.031 C 
ATOM     59  C   UNL A   1      39.955  33.134  36.029  1.00  0.00     0.031 A 
BRANCH  46  60
ATOM     60  C   UNL A   1      43.962  28.455  35.474  1.00  0.00    -0.014 A 
ATOM     61  C   UNL A   1      43.667  27.321  36.253  1.00  0.00     0.010 A 
ATOM     62  C   UNL A   1      45.308  28.797  35.249  1.00  0.00     0.010 A 
ATOM     63  C   UNL A   1      44.696  26.572  36.831  1.00  0.00     0.020 A 
ATOM     64  C   UNL A   1      46.341  28.030  35.797  1.00  0.00     0.020 A 
ATOM     65  C   UNL A   1      46.027  26.932  36.599  1.00  0.00     0.054 A 
BRANCH  65  66
ATOM     66  S   UNL A   1      47.339  25.927  37.345  1.00  0.00     0.124 S 
ATOM     67  O   UNL A   1      46.626  25.261  38.433  1.00  0.00    -0.237 OA
ATOM     68  O   UNL A   1      47.748  25.064  36.240  1.00  0.00    -0.237 OA
ATOM     69  O   UNL A   1      48.335  26.911  37.766  1.00  0.00    -0.744 OA
ENDBRANCH  65  66
ENDBRANCH  46  60
BRANCH  47  70
ATOM     70  C   UNL A   1      36.512  33.450  31.051  1.00  0.00    -0.014 A 
ATOM     71  C   UNL A   1      35.311  33.668  31.747  1.00  0.00     0.010 A 
ATOM     72  C   UNL A   1      36.637  33.939  29.737  1.00  0.00     0.010 A 
ATOM     73  C   UNL A   1      34.249  34.342  31.136  1.00  0.00     0.020 A 
ATOM     74  C   UNL A   1      35.590  34.642  29.134  1.00  0.00     0.020 A 
ATOM     75  C   UNL A   1      34.398  34.829  29.834  1.00  0.00     0.054 A 
BRANCH  75  76
ATOM     76  S   UNL A   1      33.022  35.741  29.080  1.00  0.00     0.124 S 
ATOM     77  O   UNL A   1      32.417  34.725  28.224  1.00  0.00    -0.237 OA
ATOM     78  O   UNL A   1      32.235  36.139  30.245  1.00  0.00    -0.237 OA
ATOM     79  O   UNL A   1      33.684  36.838  28.379  1.00  0.00    -0.744 OA
ENDBRANCH  75  76
ENDBRANCH  47  70
BRANCH  59  80
ATOM     80  C   UNL A   1      39.807  34.107  37.171  1.00  0.00    -0.014 A 
ATOM     81  C   UNL A   1      40.404  35.380  37.134  1.00  0.00     0.010 A 
ATOM     82  C   UNL A   1      39.007  33.759  38.275  1.00  0.00     0.010 A 
ATOM     83  C   UNL A   1      40.231  36.273  38.194  1.00  0.00     0.020 A 
ATOM     84  C   UNL A   1      38.803  34.661  39.322  1.00  0.00     0.020 A 
ATOM     85  C   UNL A   1      39.428  35.908  39.281  1.00  0.00     0.054 A 
BRANCH  85  86
ATOM     86  S   UNL A   1      39.180  37.104  40.622  1.00  0.00     0.124 S 
ATOM     87  O   UNL A   1      40.540  37.580  40.860  1.00  0.00    -0.237 OA
ATOM     88  O   UNL A   1      38.271  38.075  40.020  1.00  0.00    -0.237 OA
ATOM     89  O   UNL A   1      38.605  36.303  41.699  1.00  0.00    -0.744 OA
ENDBRANCH  85  86
ENDBRANCH  59  80
ENDBRANCH  33  34
ENDBRANCH  25  28
ENDBRANCH  23  24
ENDBRANCH   1  23
TORSDOF 16
ENDMDL
