MODEL 1
REMARK VINA RESULT:     -11.0      0.000      0.000
REMARK SMILES O=C(NCCCNC(=O)c1ccncc1-c1ccc(F)cc1F)c1ccc(-c2c3nc(c(-c4ccc(S(=O)(=O)[O-])cc4)c4ccc([nH]4)c(-c4ccc(S(=O)(=O)[O-])cc4)c4nc(c(-c5ccc(S(=O)(=O)[O-])cc5)c5ccc2[nH]5)C=C4)C=C3)cc1
REMARK SMILES IDX 4 1 3 2 1 3 2 4 24 6 25 7 83 8 26 9 82 10 27 11 28 12 29 13
REMARK SMILES IDX 76 14 30 15 81 16 75 17 77 18 31 19 80 20 74 21 73 22 32 24
REMARK SMILES IDX 62 25 43 26 61 27 44 28 47 29 60 30 78 31 45 32 46 33 59 35
REMARK SMILES IDX 79 36 48 37 33 38 34 39 42 40 35 41 41 42 36 43 37 44 38 45
REMARK SMILES IDX 39 46 40 47 63 48 64 49 72 50 65 51 71 52 66 53 67 54 68 55
REMARK SMILES IDX 69 56 70 57 49 58 50 59 58 60 51 61 57 62 52 63 53 64 54 65
REMARK SMILES IDX 55 66 56 67 5 68 6 69 7 70 8 71 9 73 10 74 11 75 15 76 12 77
REMARK SMILES IDX 14 78 13 79 16 80 17 81 22 82 18 83 21 84 23 85 19 86 20 87
REMARK H PARENT 3 5 77 23 47 34 7 72
REMARK Flexibility Score: inf
ROOT
ATOM      1  C   UNL A   1      33.558  28.127  26.864  1.00  0.00     0.118 C 
ENDROOT
BRANCH   1   2
ATOM      2  N   UNL A   1      33.472  29.575  26.997  1.00  0.00    -0.352 N 
ATOM      3  O   UNL A   1      33.939  31.629  27.764  1.00  0.00    -0.269 OA
ATOM      4  C   UNL A   1      34.322  30.474  27.591  1.00  0.00     0.251 C 
ATOM      5  H   UNL A   1      32.669  29.976  26.592  1.00  0.00     0.163 HD
BRANCH   4   6
ATOM      6  C   UNL A   1      35.674  30.070  28.037  1.00  0.00     0.039 A 
ATOM      7  C   UNL A   1      35.904  29.613  29.337  1.00  0.00     0.014 A 
ATOM      8  C   UNL A   1      36.724  30.089  27.112  1.00  0.00     0.014 A 
ATOM      9  C   UNL A   1      37.199  29.309  29.751  1.00  0.00     0.010 A 
ATOM     10  C   UNL A   1      38.008  29.703  27.506  1.00  0.00     0.010 A 
ATOM     11  C   UNL A   1      38.261  29.335  28.836  1.00  0.00    -0.014 A 
BRANCH  11  12
ATOM     12  C   UNL A   1      39.619  28.913  29.264  1.00  0.00     0.031 A 
ATOM     13  C   UNL A   1      40.523  29.851  30.011  1.00  0.00     0.074 A 
ATOM     14  C   UNL A   1      40.043  27.672  28.953  1.00  0.00     0.049 A 
ATOM     15  N   UNL A   1      41.750  29.658  30.422  1.00  0.00    -0.248 NA
ATOM     16  C   UNL A   1      39.986  31.183  30.328  1.00  0.00     0.031 C 
ATOM     17  C   UNL A   1      39.262  26.674  28.218  1.00  0.00     0.029 A 
ATOM     18  N   UNL A   1      41.235  27.040  29.205  1.00  0.00    -0.354 N 
ATOM     19  C   UNL A   1      42.142  30.848  31.024  1.00  0.00     0.074 A 
ATOM     20  C   UNL A   1      41.029  31.765  30.903  1.00  0.00     0.031 C 
ATOM     21  C   UNL A   1      39.987  25.554  28.092  1.00  0.00     0.029 A 
ATOM     22  C   UNL A   1      41.304  25.772  28.681  1.00  0.00     0.049 A 
ATOM     23  H   UNL A   1      41.969  27.456  29.713  1.00  0.00     0.167 HD
ATOM     24  C   UNL A   1      43.323  31.148  31.619  1.00  0.00     0.031 A 
ATOM     25  C   UNL A   1      42.319  24.889  28.644  1.00  0.00     0.031 A 
ATOM     26  C   UNL A   1      44.430  30.234  31.724  1.00  0.00     0.049 A 
ATOM     27  C   UNL A   1      43.626  25.249  29.285  1.00  0.00     0.074 A 
ATOM     28  C   UNL A   1      45.650  30.427  32.348  1.00  0.00     0.029 A 
ATOM     29  N   UNL A   1      44.458  28.958  31.180  1.00  0.00    -0.354 N 
ATOM     30  N   UNL A   1      43.959  26.359  29.898  1.00  0.00    -0.248 NA
ATOM     31  C   UNL A   1      44.693  24.241  29.237  1.00  0.00     0.031 C 
ATOM     32  C   UNL A   1      46.436  29.290  32.133  1.00  0.00     0.029 A 
ATOM     33  C   UNL A   1      45.686  28.365  31.426  1.00  0.00     0.049 A 
ATOM     34  H   UNL A   1      43.715  28.536  30.690  1.00  0.00     0.167 HD
ATOM     35  C   UNL A   1      45.269  26.180  30.323  1.00  0.00     0.074 A 
ATOM     36  C   UNL A   1      45.664  24.848  29.906  1.00  0.00     0.031 C 
ATOM     37  C   UNL A   1      46.068  27.040  31.001  1.00  0.00     0.031 A 
BRANCH  24  38
ATOM     38  C   UNL A   1      43.489  32.545  32.161  1.00  0.00    -0.014 A 
ATOM     39  C   UNL A   1      44.021  33.580  31.373  1.00  0.00     0.010 A 
ATOM     40  C   UNL A   1      43.094  32.826  33.483  1.00  0.00     0.010 A 
ATOM     41  C   UNL A   1      44.218  34.853  31.915  1.00  0.00     0.020 A 
ATOM     42  C   UNL A   1      43.263  34.105  34.021  1.00  0.00     0.020 A 
ATOM     43  C   UNL A   1      43.849  35.104  33.241  1.00  0.00     0.054 A 
BRANCH  43  44
ATOM     44  S   UNL A   1      44.140  36.756  33.930  1.00  0.00     0.124 S 
ATOM     45  O   UNL A   1      43.528  36.640  35.251  1.00  0.00    -0.237 OA
ATOM     46  O   UNL A   1      45.598  36.857  33.921  1.00  0.00    -0.237 OA
ATOM     47  O   UNL A   1      43.451  37.647  33.000  1.00  0.00    -0.744 OA
ENDBRANCH  43  44
ENDBRANCH  24  38
BRANCH  25  48
ATOM     48  C   UNL A   1      42.118  23.592  27.946  1.00  0.00    -0.014 A 
ATOM     49  C   UNL A   1      42.570  23.404  26.631  1.00  0.00     0.010 A 
ATOM     50  C   UNL A   1      41.552  22.505  28.640  1.00  0.00     0.010 A 
ATOM     51  C   UNL A   1      42.471  22.148  26.024  1.00  0.00     0.020 A 
ATOM     52  C   UNL A   1      41.476  21.243  28.047  1.00  0.00     0.020 A 
ATOM     53  C   UNL A   1      41.935  21.073  26.739  1.00  0.00     0.054 A 
BRANCH  53  54
ATOM     54  S   UNL A   1      41.916  19.430  25.971  1.00  0.00     0.124 S 
ATOM     55  O   UNL A   1      42.391  18.580  27.059  1.00  0.00    -0.237 OA
ATOM     56  O   UNL A   1      40.511  19.267  25.608  1.00  0.00    -0.237 OA
ATOM     57  O   UNL A   1      42.830  19.571  24.840  1.00  0.00    -0.744 OA
ENDBRANCH  53  54
ENDBRANCH  25  48
BRANCH  37  58
ATOM     58  C   UNL A   1      47.450  26.568  31.362  1.00  0.00    -0.014 A 
ATOM     59  C   UNL A   1      47.703  25.928  32.587  1.00  0.00     0.010 A 
ATOM     60  C   UNL A   1      48.489  26.689  30.421  1.00  0.00     0.010 A 
ATOM     61  C   UNL A   1      48.975  25.422  32.867  1.00  0.00     0.020 A 
ATOM     62  C   UNL A   1      49.756  26.165  30.689  1.00  0.00     0.020 A 
ATOM     63  C   UNL A   1      49.992  25.539  31.914  1.00  0.00     0.054 A 
BRANCH  63  64
ATOM     64  S   UNL A   1      51.612  24.802  32.268  1.00  0.00     0.124 S 
ATOM     65  O   UNL A   1      51.362  23.385  32.019  1.00  0.00    -0.237 OA
ATOM     66  O   UNL A   1      52.484  25.467  31.303  1.00  0.00    -0.237 OA
ATOM     67  O   UNL A   1      51.856  25.156  33.665  1.00  0.00    -0.744 OA
ENDBRANCH  63  64
ENDBRANCH  37  58
ENDBRANCH  11  12
ENDBRANCH   4   6
ENDBRANCH   1   2
BRANCH   1  68
ATOM     68  C   UNL A   1      34.032  27.689  25.483  1.00  0.00     0.042 C 
BRANCH  68  69
ATOM     69  C   UNL A   1      32.930  27.138  24.588  1.00  0.00     0.118 C 
BRANCH  69  70
ATOM     70  N   UNL A   1      33.389  26.057  23.726  1.00  0.00    -0.352 N 
ATOM     71  C   UNL A   1      33.396  24.699  23.928  1.00  0.00     0.252 C 
ATOM     72  H   UNL A   1      33.753  26.346  22.857  1.00  0.00     0.163 HD
ATOM     73  O   UNL A   1      33.892  23.956  23.086  1.00  0.00    -0.269 OA
BRANCH  71  74
ATOM     74  C   UNL A   1      32.794  24.133  25.153  1.00  0.00     0.050 A 
ATOM     75  C   UNL A   1      31.411  24.278  25.321  1.00  0.00     0.034 A 
ATOM     76  C   UNL A   1      33.557  23.400  26.078  1.00  0.00     0.016 A 
ATOM     77  C   UNL A   1      30.833  23.769  26.466  1.00  0.00     0.112 A 
ATOM     78  C   UNL A   1      32.852  22.932  27.189  1.00  0.00     0.120 A 
ATOM     79  N   UNL A   1      31.527  23.113  27.412  1.00  0.00    -0.264 NA
BRANCH  76  80
ATOM     80  C   UNL A   1      34.986  23.080  25.924  1.00  0.00     0.020 A 
ATOM     81  C   UNL A   1      35.994  24.032  26.154  1.00  0.00     0.015 A 
ATOM     82  C   UNL A   1      35.388  21.785  25.541  1.00  0.00     0.134 A 
ATOM     83  C   UNL A   1      37.343  23.696  25.992  1.00  0.00     0.040 A 
ATOM     84  C   UNL A   1      36.726  21.442  25.381  1.00  0.00     0.079 A 
ATOM     85  F   UNL A   1      34.465  20.836  25.321  1.00  0.00    -0.206 F 
ATOM     86  C   UNL A   1      37.694  22.407  25.606  1.00  0.00     0.126 A 
ATOM     87  F   UNL A   1      38.987  22.090  25.455  1.00  0.00    -0.207 F 
ENDBRANCH  76  80
ENDBRANCH  71  74
ENDBRANCH  69  70
ENDBRANCH  68  69
ENDBRANCH   1  68
TORSDOF 14
ENDMDL
MODEL 2
REMARK VINA RESULT:     -11.0      2.808      9.208
REMARK SMILES O=C(NCCCNC(=O)c1ccncc1-c1ccc(F)cc1F)c1ccc(-c2c3nc(c(-c4ccc(S(=O)(=O)[O-])cc4)c4ccc([nH]4)c(-c4ccc(S(=O)(=O)[O-])cc4)c4nc(c(-c5ccc(S(=O)(=O)[O-])cc5)c5ccc2[nH]5)C=C4)C=C3)cc1
REMARK SMILES IDX 4 1 3 2 1 3 2 4 24 6 25 7 83 8 26 9 82 10 27 11 28 12 29 13
REMARK SMILES IDX 76 14 30 15 81 16 75 17 77 18 31 19 80 20 74 21 73 22 32 24
REMARK SMILES IDX 62 25 43 26 61 27 44 28 47 29 60 30 78 31 45 32 46 33 59 35
REMARK SMILES IDX 79 36 48 37 33 38 34 39 42 40 35 41 41 42 36 43 37 44 38 45
REMARK SMILES IDX 39 46 40 47 63 48 64 49 72 50 65 51 71 52 66 53 67 54 68 55
REMARK SMILES IDX 69 56 70 57 49 58 50 59 58 60 51 61 57 62 52 63 53 64 54 65
REMARK SMILES IDX 55 66 56 67 5 68 6 69 7 70 8 71 9 73 10 74 11 75 15 76 12 77
REMARK SMILES IDX 14 78 13 79 16 80 17 81 22 82 18 83 21 84 23 85 19 86 20 87
REMARK H PARENT 3 5 77 23 47 34 7 72
REMARK Flexibility Score: inf
ROOT
ATOM      1  C   UNL A   1      36.685  23.755  24.975  1.00  0.00     0.118 C 
ENDROOT
BRANCH   1   2
ATOM      2  N   UNL A   1      37.569  22.678  25.397  1.00  0.00    -0.352 N 
ATOM      3  O   UNL A   1      39.439  21.683  26.132  1.00  0.00    -0.269 OA
ATOM      4  C   UNL A   1      38.766  22.710  26.067  1.00  0.00     0.251 C 
ATOM      5  H   UNL A   1      37.254  21.775  25.162  1.00  0.00     0.163 HD
BRANCH   4   6
ATOM      6  C   UNL A   1      39.262  23.956  26.693  1.00  0.00     0.039 A 
ATOM      7  C   UNL A   1      40.049  24.863  25.981  1.00  0.00     0.014 A 
ATOM      8  C   UNL A   1      38.874  24.254  28.004  1.00  0.00     0.014 A 
ATOM      9  C   UNL A   1      40.562  25.992  26.616  1.00  0.00     0.010 A 
ATOM     10  C   UNL A   1      39.319  25.430  28.614  1.00  0.00     0.010 A 
ATOM     11  C   UNL A   1      40.189  26.295  27.934  1.00  0.00    -0.014 A 
BRANCH  11  12
ATOM     12  C   UNL A   1      40.661  27.553  28.567  1.00  0.00     0.031 A 
ATOM     13  C   UNL A   1      42.047  27.661  29.137  1.00  0.00     0.074 A 
ATOM     14  C   UNL A   1      39.817  28.600  28.644  1.00  0.00     0.049 A 
ATOM     15  N   UNL A   1      42.604  28.668  29.758  1.00  0.00    -0.248 NA
ATOM     16  C   UNL A   1      42.917  26.483  29.001  1.00  0.00     0.031 C 
ATOM     17  C   UNL A   1      38.441  28.612  28.140  1.00  0.00     0.029 A 
ATOM     18  N   UNL A   1      39.984  29.851  29.182  1.00  0.00    -0.354 N 
ATOM     19  C   UNL A   1      43.879  28.240  30.111  1.00  0.00     0.074 A 
ATOM     20  C   UNL A   1      44.004  26.873  29.652  1.00  0.00     0.031 C 
ATOM     21  C   UNL A   1      37.896  29.813  28.378  1.00  0.00     0.029 A 
ATOM     22  C   UNL A   1      38.858  30.635  29.105  1.00  0.00     0.049 A 
ATOM     23  H   UNL A   1      40.829  30.157  29.584  1.00  0.00     0.167 HD
ATOM     24  C   UNL A   1      44.853  28.924  30.760  1.00  0.00     0.031 A 
ATOM     25  C   UNL A   1      38.607  31.865  29.591  1.00  0.00     0.031 A 
ATOM     26  C   UNL A   1      44.717  30.281  31.222  1.00  0.00     0.049 A 
ATOM     27  C   UNL A   1      39.689  32.596  30.328  1.00  0.00     0.074 A 
ATOM     28  C   UNL A   1      45.662  31.076  31.848  1.00  0.00     0.029 A 
ATOM     29  N   UNL A   1      43.559  31.039  31.123  1.00  0.00    -0.354 N 
ATOM     30  N   UNL A   1      40.907  32.195  30.602  1.00  0.00    -0.248 NA
ATOM     31  C   UNL A   1      39.370  33.944  30.817  1.00  0.00     0.031 C 
ATOM     32  C   UNL A   1      45.058  32.294  32.177  1.00  0.00     0.029 A 
ATOM     33  C   UNL A   1      43.755  32.281  31.705  1.00  0.00     0.049 A 
ATOM     34  H   UNL A   1      42.722  30.739  30.702  1.00  0.00     0.167 HD
ATOM     35  C   UNL A   1      41.507  33.247  31.284  1.00  0.00     0.074 A 
ATOM     36  C   UNL A   1      40.521  34.306  31.369  1.00  0.00     0.031 C 
ATOM     37  C   UNL A   1      42.763  33.326  31.787  1.00  0.00     0.031 A 
BRANCH  24  38
ATOM     38  C   UNL A   1      46.139  28.192  31.045  1.00  0.00    -0.014 A 
ATOM     39  C   UNL A   1      47.215  28.218  30.141  1.00  0.00     0.010 A 
ATOM     40  C   UNL A   1      46.274  27.471  32.247  1.00  0.00     0.010 A 
ATOM     41  C   UNL A   1      48.377  27.486  30.402  1.00  0.00     0.020 A 
ATOM     42  C   UNL A   1      47.444  26.760  32.524  1.00  0.00     0.020 A 
ATOM     43  C   UNL A   1      48.479  26.750  31.586  1.00  0.00     0.054 A 
BRANCH  43  44
ATOM     44  S   UNL A   1      49.985  25.785  31.888  1.00  0.00     0.124 S 
ATOM     45  O   UNL A   1      50.241  25.212  30.569  1.00  0.00    -0.237 OA
ATOM     46  O   UNL A   1      50.938  26.802  32.326  1.00  0.00    -0.237 OA
ATOM     47  O   UNL A   1      49.583  24.827  32.916  1.00  0.00    -0.744 OA
ENDBRANCH  43  44
ENDBRANCH  24  38
BRANCH  25  48
ATOM     48  C   UNL A   1      37.254  32.451  29.400  1.00  0.00    -0.014 A 
ATOM     49  C   UNL A   1      36.292  32.389  30.420  1.00  0.00     0.010 A 
ATOM     50  C   UNL A   1      36.958  33.159  28.219  1.00  0.00     0.010 A 
ATOM     51  C   UNL A   1      35.062  33.036  30.269  1.00  0.00     0.020 A 
ATOM     52  C   UNL A   1      35.741  33.827  28.075  1.00  0.00     0.020 A 
ATOM     53  C   UNL A   1      34.798  33.760  29.103  1.00  0.00     0.054 A 
BRANCH  53  54
ATOM     54  S   UNL A   1      33.240  34.680  28.974  1.00  0.00     0.124 S 
ATOM     55  O   UNL A   1      32.481  33.862  28.034  1.00  0.00    -0.237 OA
ATOM     56  O   UNL A   1      32.755  34.674  30.352  1.00  0.00    -0.237 OA
ATOM     57  O   UNL A   1      33.655  35.989  28.476  1.00  0.00    -0.744 OA
ENDBRANCH  53  54
ENDBRANCH  25  48
BRANCH  37  58
ATOM     58  C   UNL A   1      43.163  34.610  32.460  1.00  0.00    -0.014 A 
ATOM     59  C   UNL A   1      43.637  35.704  31.716  1.00  0.00     0.010 A 
ATOM     60  C   UNL A   1      42.976  34.751  33.848  1.00  0.00     0.010 A 
ATOM     61  C   UNL A   1      43.924  36.916  32.350  1.00  0.00     0.020 A 
ATOM     62  C   UNL A   1      43.239  35.967  34.481  1.00  0.00     0.020 A 
ATOM     63  C   UNL A   1      43.717  37.042  33.728  1.00  0.00     0.054 A 
BRANCH  63  64
ATOM     64  S   UNL A   1      44.018  38.649  34.515  1.00  0.00     0.124 S 
ATOM     65  O   UNL A   1      42.996  39.487  33.894  1.00  0.00    -0.237 OA
ATOM     66  O   UNL A   1      43.816  38.355  35.931  1.00  0.00    -0.237 OA
ATOM     67  O   UNL A   1      45.395  38.965  34.141  1.00  0.00    -0.744 OA
ENDBRANCH  63  64
ENDBRANCH  37  58
ENDBRANCH  11  12
ENDBRANCH   4   6
ENDBRANCH   1   2
BRANCH   1  68
ATOM     68  C   UNL A   1      35.538  23.993  25.951  1.00  0.00     0.042 C 
BRANCH  68  69
ATOM     69  C   UNL A   1      34.407  22.978  25.846  1.00  0.00     0.118 C 
BRANCH  69  70
ATOM     70  N   UNL A   1      33.323  23.240  26.784  1.00  0.00    -0.352 N 
ATOM     71  C   UNL A   1      32.114  23.862  26.597  1.00  0.00     0.252 C 
ATOM     72  H   UNL A   1      33.483  22.918  27.701  1.00  0.00     0.163 HD
ATOM     73  O   UNL A   1      31.359  24.036  27.550  1.00  0.00    -0.269 OA
BRANCH  71  74
ATOM     74  C   UNL A   1      31.716  24.308  25.245  1.00  0.00     0.050 A 
ATOM     75  C   UNL A   1      31.049  23.386  24.429  1.00  0.00     0.034 A 
ATOM     76  C   UNL A   1      31.919  25.631  24.817  1.00  0.00     0.016 A 
ATOM     77  C   UNL A   1      30.683  23.780  23.159  1.00  0.00     0.112 A 
ATOM     78  C   UNL A   1      31.497  25.904  23.514  1.00  0.00     0.120 A 
ATOM     79  N   UNL A   1      30.907  25.014  22.677  1.00  0.00    -0.264 NA
BRANCH  76  80
ATOM     80  C   UNL A   1      32.490  26.706  25.646  1.00  0.00     0.020 A 
ATOM     81  C   UNL A   1      33.823  27.128  25.509  1.00  0.00     0.015 A 
ATOM     82  C   UNL A   1      31.698  27.356  26.614  1.00  0.00     0.134 A 
ATOM     83  C   UNL A   1      34.336  28.149  26.318  1.00  0.00     0.040 A 
ATOM     84  C   UNL A   1      32.198  28.372  27.419  1.00  0.00     0.079 A 
ATOM     85  F   UNL A   1      30.414  26.999  26.776  1.00  0.00    -0.206 F 
ATOM     86  C   UNL A   1      33.520  28.758  27.264  1.00  0.00     0.126 A 
ATOM     87  F   UNL A   1      34.014  29.736  28.034  1.00  0.00    -0.207 F 
ENDBRANCH  76  80
ENDBRANCH  71  74
ENDBRANCH  69  70
ENDBRANCH  68  69
ENDBRANCH   1  68
TORSDOF 14
ENDMDL
MODEL 3
REMARK VINA RESULT:     -11.0      1.358      2.283
REMARK SMILES O=C(NCCCNC(=O)c1ccncc1-c1ccc(F)cc1F)c1ccc(-c2c3nc(c(-c4ccc(S(=O)(=O)[O-])cc4)c4ccc([nH]4)c(-c4ccc(S(=O)(=O)[O-])cc4)c4nc(c(-c5ccc(S(=O)(=O)[O-])cc5)c5ccc2[nH]5)C=C4)C=C3)cc1
REMARK SMILES IDX 4 1 3 2 1 3 2 4 24 6 25 7 83 8 26 9 82 10 27 11 28 12 29 13
REMARK SMILES IDX 76 14 30 15 81 16 75 17 77 18 31 19 80 20 74 21 73 22 32 24
REMARK SMILES IDX 62 25 43 26 61 27 44 28 47 29 60 30 78 31 45 32 46 33 59 35
REMARK SMILES IDX 79 36 48 37 33 38 34 39 42 40 35 41 41 42 36 43 37 44 38 45
REMARK SMILES IDX 39 46 40 47 63 48 64 49 72 50 65 51 71 52 66 53 67 54 68 55
REMARK SMILES IDX 69 56 70 57 49 58 50 59 58 60 51 61 57 62 52 63 53 64 54 65
REMARK SMILES IDX 55 66 56 67 5 68 6 69 7 70 8 71 9 73 10 74 11 75 15 76 12 77
REMARK SMILES IDX 14 78 13 79 16 80 17 81 22 82 18 83 21 84 23 85 19 86 20 87
REMARK H PARENT 3 5 77 23 47 34 7 72
REMARK Flexibility Score: inf
ROOT
ATOM      1  C   UNL A   1      34.114  28.723  25.835  1.00  0.00     0.118 C 
ENDROOT
BRANCH   1   2
ATOM      2  N   UNL A   1      33.813  29.920  26.607  1.00  0.00    -0.352 N 
ATOM      3  O   UNL A   1      33.938  31.410  28.278  1.00  0.00    -0.269 OA
ATOM      4  C   UNL A   1      34.493  30.519  27.638  1.00  0.00     0.251 C 
ATOM      5  H   UNL A   1      32.981  30.377  26.344  1.00  0.00     0.163 HD
BRANCH   4   6
ATOM      6  C   UNL A   1      35.865  30.098  27.997  1.00  0.00     0.039 A 
ATOM      7  C   UNL A   1      36.923  30.224  27.093  1.00  0.00     0.014 A 
ATOM      8  C   UNL A   1      36.111  29.628  29.291  1.00  0.00     0.014 A 
ATOM      9  C   UNL A   1      38.190  29.753  27.432  1.00  0.00     0.010 A 
ATOM     10  C   UNL A   1      37.401  29.234  29.658  1.00  0.00     0.010 A 
ATOM     11  C   UNL A   1      38.446  29.269  28.723  1.00  0.00    -0.014 A 
BRANCH  11  12
ATOM     12  C   UNL A   1      39.823  28.863  29.104  1.00  0.00     0.031 A 
ATOM     13  C   UNL A   1      40.750  29.823  29.792  1.00  0.00     0.074 A 
ATOM     14  C   UNL A   1      40.242  27.618  28.803  1.00  0.00     0.049 A 
ATOM     15  N   UNL A   1      41.994  29.646  30.157  1.00  0.00    -0.248 NA
ATOM     16  C   UNL A   1      40.218  31.159  30.102  1.00  0.00     0.031 C 
ATOM     17  C   UNL A   1      39.437  26.600  28.123  1.00  0.00     0.029 A 
ATOM     18  N   UNL A   1      41.447  26.999  29.020  1.00  0.00    -0.354 N 
ATOM     19  C   UNL A   1      42.403  30.852  30.716  1.00  0.00     0.074 A 
ATOM     20  C   UNL A   1      41.279  31.760  30.621  1.00  0.00     0.031 C 
ATOM     21  C   UNL A   1      40.164  25.481  27.991  1.00  0.00     0.029 A 
ATOM     22  C   UNL A   1      41.502  25.720  28.521  1.00  0.00     0.049 A 
ATOM     23  H   UNL A   1      42.198  27.431  29.487  1.00  0.00     0.167 HD
ATOM     24  C   UNL A   1      43.605  31.171  31.255  1.00  0.00     0.031 A 
ATOM     25  C   UNL A   1      42.521  24.842  28.462  1.00  0.00     0.031 A 
ATOM     26  C   UNL A   1      44.721  30.265  31.335  1.00  0.00     0.049 A 
ATOM     27  C   UNL A   1      43.851  25.224  29.040  1.00  0.00     0.074 A 
ATOM     28  C   UNL A   1      45.965  30.480  31.904  1.00  0.00     0.029 A 
ATOM     29  N   UNL A   1      44.735  28.978  30.818  1.00  0.00    -0.354 N 
ATOM     30  N   UNL A   1      44.201  26.349  29.615  1.00  0.00    -0.248 NA
ATOM     31  C   UNL A   1      44.921  24.220  28.971  1.00  0.00     0.031 C 
ATOM     32  C   UNL A   1      46.748  29.343  31.681  1.00  0.00     0.029 A 
ATOM     33  C   UNL A   1      45.976  28.397  31.026  1.00  0.00     0.049 A 
ATOM     34  H   UNL A   1      43.975  28.541  30.369  1.00  0.00     0.167 HD
ATOM     35  C   UNL A   1      45.529  26.186  29.990  1.00  0.00     0.074 A 
ATOM     36  C   UNL A   1      45.915  24.848  29.586  1.00  0.00     0.031 C 
ATOM     37  C   UNL A   1      46.349  27.065  30.615  1.00  0.00     0.031 A 
BRANCH  24  38
ATOM     38  C   UNL A   1      43.784  32.580  31.760  1.00  0.00    -0.014 A 
ATOM     39  C   UNL A   1      43.434  32.939  33.073  1.00  0.00     0.010 A 
ATOM     40  C   UNL A   1      44.320  33.560  30.903  1.00  0.00     0.010 A 
ATOM     41  C   UNL A   1      43.557  34.264  33.501  1.00  0.00     0.020 A 
ATOM     42  C   UNL A   1      44.470  34.881  31.336  1.00  0.00     0.020 A 
ATOM     43  C   UNL A   1      44.061  35.230  32.625  1.00  0.00     0.054 A 
BRANCH  43  44
ATOM     44  S   UNL A   1      44.183  36.947  33.195  1.00  0.00     0.124 S 
ATOM     45  O   UNL A   1      45.566  37.009  33.661  1.00  0.00    -0.237 OA
ATOM     46  O   UNL A   1      43.895  37.710  31.982  1.00  0.00    -0.237 OA
ATOM     47  O   UNL A   1      43.168  37.039  34.242  1.00  0.00    -0.744 OA
ENDBRANCH  43  44
ENDBRANCH  24  38
BRANCH  25  48
ATOM     48  C   UNL A   1      42.300  23.528  27.802  1.00  0.00    -0.014 A 
ATOM     49  C   UNL A   1      42.731  23.303  26.485  1.00  0.00     0.010 A 
ATOM     50  C   UNL A   1      41.736  22.465  28.532  1.00  0.00     0.010 A 
ATOM     51  C   UNL A   1      42.614  22.033  25.913  1.00  0.00     0.020 A 
ATOM     52  C   UNL A   1      41.641  21.189  27.973  1.00  0.00     0.020 A 
ATOM     53  C   UNL A   1      42.080  20.981  26.664  1.00  0.00     0.054 A 
BRANCH  53  54
ATOM     54  S   UNL A   1      42.038  19.318  25.939  1.00  0.00     0.124 S 
ATOM     55  O   UNL A   1      42.564  18.499  27.027  1.00  0.00    -0.237 OA
ATOM     56  O   UNL A   1      40.619  19.139  25.642  1.00  0.00    -0.237 OA
ATOM     57  O   UNL A   1      42.901  19.434  24.766  1.00  0.00    -0.744 OA
ENDBRANCH  53  54
ENDBRANCH  25  48
BRANCH  37  58
ATOM     58  C   UNL A   1      47.748  26.610  30.929  1.00  0.00    -0.014 A 
ATOM     59  C   UNL A   1      48.812  26.866  30.047  1.00  0.00     0.010 A 
ATOM     60  C   UNL A   1      48.013  25.996  32.168  1.00  0.00     0.010 A 
ATOM     61  C   UNL A   1      50.117  26.510  30.396  1.00  0.00     0.020 A 
ATOM     62  C   UNL A   1      49.319  25.660  32.529  1.00  0.00     0.020 A 
ATOM     63  C   UNL A   1      50.363  25.914  31.638  1.00  0.00     0.054 A 
BRANCH  63  64
ATOM     64  S   UNL A   1      52.076  25.536  32.102  1.00  0.00     0.124 S 
ATOM     65  O   UNL A   1      52.805  25.891  30.888  1.00  0.00    -0.237 OA
ATOM     66  O   UNL A   1      52.298  26.412  33.249  1.00  0.00    -0.237 OA
ATOM     67  O   UNL A   1      52.043  24.108  32.414  1.00  0.00    -0.744 OA
ENDBRANCH  63  64
ENDBRANCH  37  58
ENDBRANCH  11  12
ENDBRANCH   4   6
ENDBRANCH   1   2
BRANCH   1  68
ATOM     68  C   UNL A   1      33.558  27.455  26.472  1.00  0.00     0.042 C 
BRANCH  68  69
ATOM     69  C   UNL A   1      32.080  27.532  26.832  1.00  0.00     0.118 C 
BRANCH  69  70
ATOM     70  N   UNL A   1      31.416  26.235  26.779  1.00  0.00    -0.352 N 
ATOM     71  C   UNL A   1      30.802  25.592  25.734  1.00  0.00     0.252 C 
ATOM     72  H   UNL A   1      31.407  25.741  27.631  1.00  0.00     0.163 HD
ATOM     73  O   UNL A   1      30.242  24.515  25.920  1.00  0.00    -0.269 OA
BRANCH  71  74
ATOM     74  C   UNL A   1      30.829  26.189  24.382  1.00  0.00     0.050 A 
ATOM     75  C   UNL A   1      29.980  27.275  24.137  1.00  0.00     0.034 A 
ATOM     76  C   UNL A   1      31.730  25.746  23.399  1.00  0.00     0.016 A 
ATOM     77  C   UNL A   1      29.980  27.836  22.877  1.00  0.00     0.112 A 
ATOM     78  C   UNL A   1      31.635  26.400  22.169  1.00  0.00     0.120 A 
ATOM     79  N   UNL A   1      30.778  27.412  21.883  1.00  0.00    -0.264 NA
BRANCH  76  80
ATOM     80  C   UNL A   1      32.750  24.703  23.601  1.00  0.00     0.020 A 
ATOM     81  C   UNL A   1      34.065  25.009  23.990  1.00  0.00     0.015 A 
ATOM     82  C   UNL A   1      32.427  23.344  23.411  1.00  0.00     0.134 A 
ATOM     83  C   UNL A   1      35.011  23.993  24.167  1.00  0.00     0.040 A 
ATOM     84  C   UNL A   1      33.360  22.330  23.588  1.00  0.00     0.079 A 
ATOM     85  F   UNL A   1      31.181  22.998  23.051  1.00  0.00    -0.206 F 
ATOM     86  C   UNL A   1      34.650  22.666  23.963  1.00  0.00     0.126 A 
ATOM     87  F   UNL A   1      35.559  21.698  24.135  1.00  0.00    -0.207 F 
ENDBRANCH  76  80
ENDBRANCH  71  74
ENDBRANCH  69  70
ENDBRANCH  68  69
ENDBRANCH   1  68
TORSDOF 14
ENDMDL
