MODEL 1
REMARK VINA RESULT:      -9.0      0.000      0.000
REMARK SMILES O=C(/C=C/C(=O)c1ccc(F)c(Br)c1)NCCCNC(=O)c1ccc(-c2c3nc(c(-c4ccc(S(=O)(=O)[O-])cc4)c4ccc([nH]4)c(-c4ccc(S(=O)(=O)[O-])cc4)c4nc(c(-c5ccc(S(=O)(=O)[O-])cc5)c5ccc2[nH]5)C=C4)C=C3)cc1
REMARK SMILES IDX 17 1 16 2 15 3 1 4 2 5 3 7 4 8 5 9 6 10 7 11 8 12 14 13 9 14
REMARK SMILES IDX 12 15 10 16 13 17 11 18 18 19 19 20 20 21 21 23 22 24 23 25
REMARK SMILES IDX 81 26 24 27 80 28 25 29 26 30 27 31 74 32 28 33 79 34 73 35
REMARK SMILES IDX 75 36 29 37 78 38 72 39 71 40 30 42 60 43 41 44 59 45 42 46
REMARK SMILES IDX 45 47 58 48 76 49 43 50 44 51 57 53 77 54 46 55 31 56 32 57
REMARK SMILES IDX 40 58 33 59 39 60 34 61 35 62 36 63 37 64 38 65 61 66 62 67
REMARK SMILES IDX 70 68 63 69 69 70 64 71 65 72 66 73 67 74 68 75 47 76 48 77
REMARK SMILES IDX 56 78 49 79 55 80 50 81 51 82 52 83 53 84 54 85
REMARK H PARENT 15 6 19 22 75 41 45 52
REMARK Flexibility Score: inf
ROOT
ATOM      1  C   UNL A   1      34.472  34.439  28.689  1.00  0.00     0.042 C 
ENDROOT
BRANCH   1   2
ATOM      2  C   UNL A   1      33.787  34.064  29.999  1.00  0.00     0.118 C 
BRANCH   2   3
ATOM      3  N   UNL A   1      34.730  33.594  30.997  1.00  0.00    -0.352 N 
ATOM      4  O   UNL A   1      33.340  33.910  32.795  1.00  0.00    -0.270 OA
ATOM      5  C   UNL A   1      34.423  33.572  32.329  1.00  0.00     0.244 C 
ATOM      6  H   UNL A   1      35.617  33.282  30.706  1.00  0.00     0.163 HD
BRANCH   5   7
ATOM      7  C   UNL A   1      35.481  33.111  33.263  1.00  0.00     0.075 C 
ATOM      8  C   UNL A   1      36.407  32.169  33.032  1.00  0.00     0.058 C 
BRANCH   8   9
ATOM      9  C   UNL A   1      37.446  31.764  34.014  1.00  0.00     0.186 C 
ATOM     10  O   UNL A   1      37.546  32.379  35.072  1.00  0.00    -0.289 OA
BRANCH   9  11
ATOM     11  C   UNL A   1      38.366  30.637  33.737  1.00  0.00     0.023 A 
ATOM     12  C   UNL A   1      37.951  29.514  33.006  1.00  0.00     0.015 A 
ATOM     13  C   UNL A   1      39.692  30.742  34.176  1.00  0.00     0.031 A 
ATOM     14  C   UNL A   1      38.851  28.475  32.762  1.00  0.00     0.041 A 
ATOM     15  C   UNL A   1      40.586  29.701  33.923  1.00  0.00     0.054 A 
ATOM     16  C   UNL A   1      40.161  28.572  33.225  1.00  0.00     0.137 A 
ATOM     17  Br  UNL A   1      42.370  29.837  34.534  1.00  0.00    -0.048 Br
ATOM     18  F   UNL A   1      41.004  27.559  32.976  1.00  0.00    -0.206 F 
ENDBRANCH   9  11
ENDBRANCH   8   9
ENDBRANCH   5   7
ENDBRANCH   2   3
ENDBRANCH   1   2
BRANCH   1  19
ATOM     19  C   UNL A   1      35.096  33.262  27.944  1.00  0.00     0.118 C 
BRANCH  19  20
ATOM     20  N   UNL A   1      34.167  32.159  27.732  1.00  0.00    -0.352 N 
ATOM     21  C   UNL A   1      34.401  30.804  27.736  1.00  0.00     0.251 C 
ATOM     22  H   UNL A   1      33.235  32.423  27.559  1.00  0.00     0.163 HD
ATOM     23  O   UNL A   1      33.504  30.035  27.402  1.00  0.00    -0.269 OA
BRANCH  21  24
ATOM     24  C   UNL A   1      35.730  30.276  28.112  1.00  0.00     0.039 A 
ATOM     25  C   UNL A   1      36.758  30.296  27.165  1.00  0.00     0.014 A 
ATOM     26  C   UNL A   1      35.967  29.761  29.389  1.00  0.00     0.014 A 
ATOM     27  C   UNL A   1      38.041  29.868  27.519  1.00  0.00     0.010 A 
ATOM     28  C   UNL A   1      37.259  29.399  29.760  1.00  0.00     0.010 A 
ATOM     29  C   UNL A   1      38.311  29.452  28.832  1.00  0.00    -0.014 A 
BRANCH  29  30
ATOM     30  C   UNL A   1      39.680  29.070  29.266  1.00  0.00     0.031 A 
ATOM     31  C   UNL A   1      40.557  30.077  29.962  1.00  0.00     0.074 A 
ATOM     32  C   UNL A   1      40.170  27.853  28.956  1.00  0.00     0.049 A 
ATOM     33  N   UNL A   1      41.819  29.984  30.295  1.00  0.00    -0.248 NA
ATOM     34  C   UNL A   1      39.938  31.368  30.306  1.00  0.00     0.031 C 
ATOM     35  C   UNL A   1      39.434  26.793  28.261  1.00  0.00     0.029 A 
ATOM     36  N   UNL A   1      41.411  27.308  29.169  1.00  0.00    -0.354 N 
ATOM     37  C   UNL A   1      42.153  31.209  30.859  1.00  0.00     0.074 A 
ATOM     38  C   UNL A   1      40.971  32.042  30.790  1.00  0.00     0.031 C 
ATOM     39  C   UNL A   1      40.233  25.723  28.118  1.00  0.00     0.029 A 
ATOM     40  C   UNL A   1      41.549  26.035  28.666  1.00  0.00     0.049 A 
ATOM     41  H   UNL A   1      42.135  27.783  29.637  1.00  0.00     0.167 HD
ATOM     42  C   UNL A   1      43.331  31.603  31.399  1.00  0.00     0.031 A 
ATOM     43  C   UNL A   1      42.619  25.216  28.632  1.00  0.00     0.031 A 
ATOM     44  C   UNL A   1      44.500  30.768  31.481  1.00  0.00     0.049 A 
ATOM     45  C   UNL A   1      43.921  25.677  29.228  1.00  0.00     0.074 A 
ATOM     46  C   UNL A   1      45.727  31.060  32.053  1.00  0.00     0.029 A 
ATOM     47  N   UNL A   1      44.590  29.478  30.982  1.00  0.00    -0.354 N 
ATOM     48  N   UNL A   1      44.205  26.825  29.796  1.00  0.00    -0.248 NA
ATOM     49  C   UNL A   1      45.044  24.731  29.187  1.00  0.00     0.031 C 
ATOM     50  C   UNL A   1      46.571  29.963  31.859  1.00  0.00     0.029 A 
ATOM     51  C   UNL A   1      45.854  28.966  31.217  1.00  0.00     0.049 A 
ATOM     52  H   UNL A   1      43.861  28.997  30.527  1.00  0.00     0.167 HD
ATOM     53  C   UNL A   1      45.530  26.726  30.208  1.00  0.00     0.074 A 
ATOM     54  C   UNL A   1      45.987  25.404  29.832  1.00  0.00     0.031 C 
ATOM     55  C   UNL A   1      46.295  27.645  30.846  1.00  0.00     0.031 A 
BRANCH  42  56
ATOM     56  C   UNL A   1      43.415  33.008  31.935  1.00  0.00    -0.014 A 
ATOM     57  C   UNL A   1      43.833  34.074  31.118  1.00  0.00     0.010 A 
ATOM     58  C   UNL A   1      43.037  33.271  33.264  1.00  0.00     0.010 A 
ATOM     59  C   UNL A   1      43.916  35.370  31.635  1.00  0.00     0.020 A 
ATOM     60  C   UNL A   1      43.091  34.571  33.776  1.00  0.00     0.020 A 
ATOM     61  C   UNL A   1      43.549  35.609  32.962  1.00  0.00     0.054 A 
BRANCH  61  62
ATOM     62  S   UNL A   1      43.655  37.303  33.602  1.00  0.00     0.124 S 
ATOM     63  O   UNL A   1      43.794  38.081  32.373  1.00  0.00    -0.237 OA
ATOM     64  O   UNL A   1      42.382  37.461  34.303  1.00  0.00    -0.237 OA
ATOM     65  O   UNL A   1      44.836  37.277  34.461  1.00  0.00    -0.744 OA
ENDBRANCH  61  62
ENDBRANCH  42  56
BRANCH  43  66
ATOM     66  C   UNL A   1      42.500  23.865  28.017  1.00  0.00    -0.014 A 
ATOM     67  C   UNL A   1      42.710  23.691  26.638  1.00  0.00     0.010 A 
ATOM     68  C   UNL A   1      42.187  22.744  28.808  1.00  0.00     0.010 A 
ATOM     69  C   UNL A   1      42.591  22.425  26.057  1.00  0.00     0.020 A 
ATOM     70  C   UNL A   1      42.094  21.472  28.236  1.00  0.00     0.020 A 
ATOM     71  C   UNL A   1      42.286  21.323  26.861  1.00  0.00     0.054 A 
BRANCH  71  72
ATOM     72  S   UNL A   1      42.188  19.681  26.094  1.00  0.00     0.124 S 
ATOM     73  O   UNL A   1      43.130  19.807  24.986  1.00  0.00    -0.237 OA
ATOM     74  O   UNL A   1      42.605  18.798  27.182  1.00  0.00    -0.237 OA
ATOM     75  O   UNL A   1      40.782  19.565  25.713  1.00  0.00    -0.744 OA
ENDBRANCH  71  72
ENDBRANCH  43  66
BRANCH  55  76
ATOM     76  C   UNL A   1      47.695  27.243  31.226  1.00  0.00    -0.014 A 
ATOM     77  C   UNL A   1      47.968  26.613  32.451  1.00  0.00     0.010 A 
ATOM     78  C   UNL A   1      48.742  27.442  30.308  1.00  0.00     0.010 A 
ATOM     79  C   UNL A   1      49.270  26.211  32.762  1.00  0.00     0.020 A 
ATOM     80  C   UNL A   1      50.040  27.019  30.605  1.00  0.00     0.020 A 
ATOM     81  C   UNL A   1      50.297  26.416  31.836  1.00  0.00     0.054 A 
BRANCH  81  82
ATOM     82  S   UNL A   1      51.968  25.836  32.240  1.00  0.00     0.124 S 
ATOM     83  O   UNL A   1      51.929  24.452  31.775  1.00  0.00    -0.237 OA
ATOM     84  O   UNL A   1      52.818  26.736  31.465  1.00  0.00    -0.237 OA
ATOM     85  O   UNL A   1      52.052  26.004  33.689  1.00  0.00    -0.744 OA
ENDBRANCH  81  82
ENDBRANCH  55  76
ENDBRANCH  29  30
ENDBRANCH  21  24
ENDBRANCH  19  20
ENDBRANCH   1  19
TORSDOF 15
ENDMDL
MODEL 2
REMARK VINA RESULT:      -9.0      3.066     10.448
REMARK SMILES O=C(/C=C/C(=O)c1ccc(F)c(Br)c1)NCCCNC(=O)c1ccc(-c2c3nc(c(-c4ccc(S(=O)(=O)[O-])cc4)c4ccc([nH]4)c(-c4ccc(S(=O)(=O)[O-])cc4)c4nc(c(-c5ccc(S(=O)(=O)[O-])cc5)c5ccc2[nH]5)C=C4)C=C3)cc1
REMARK SMILES IDX 17 1 16 2 15 3 1 4 2 5 3 7 4 8 5 9 6 10 7 11 8 12 14 13 9 14
REMARK SMILES IDX 12 15 10 16 13 17 11 18 18 19 19 20 20 21 21 23 22 24 23 25
REMARK SMILES IDX 81 26 24 27 80 28 25 29 26 30 27 31 74 32 28 33 79 34 73 35
REMARK SMILES IDX 75 36 29 37 78 38 72 39 71 40 30 42 60 43 41 44 59 45 42 46
REMARK SMILES IDX 45 47 58 48 76 49 43 50 44 51 57 53 77 54 46 55 31 56 32 57
REMARK SMILES IDX 40 58 33 59 39 60 34 61 35 62 36 63 37 64 38 65 61 66 62 67
REMARK SMILES IDX 70 68 63 69 69 70 64 71 65 72 66 73 67 74 68 75 47 76 48 77
REMARK SMILES IDX 56 78 49 79 55 80 50 81 51 82 52 83 53 84 54 85
REMARK H PARENT 15 6 19 22 75 41 45 52
REMARK Flexibility Score: inf
ROOT
ATOM      1  C   UNL A   1      41.699  21.787  25.818  1.00  0.00     0.042 C 
ENDROOT
BRANCH   1   2
ATOM      2  C   UNL A   1      42.855  22.227  26.711  1.00  0.00     0.118 C 
BRANCH   2   3
ATOM      3  N   UNL A   1      43.344  23.549  26.365  1.00  0.00    -0.352 N 
ATOM      4  O   UNL A   1      45.178  23.484  27.741  1.00  0.00    -0.270 OA
ATOM      5  C   UNL A   1      44.472  24.074  26.931  1.00  0.00     0.244 C 
ATOM      6  H   UNL A   1      42.849  24.083  25.703  1.00  0.00     0.163 HD
BRANCH   5   7
ATOM      7  C   UNL A   1      44.854  25.453  26.532  1.00  0.00     0.075 C 
ATOM      8  C   UNL A   1      45.753  26.246  27.130  1.00  0.00     0.058 C 
BRANCH   8   9
ATOM      9  C   UNL A   1      46.094  27.617  26.668  1.00  0.00     0.186 C 
ATOM     10  O   UNL A   1      47.022  27.771  25.878  1.00  0.00    -0.289 OA
BRANCH   9  11
ATOM     11  C   UNL A   1      45.341  28.798  27.146  1.00  0.00     0.023 A 
ATOM     12  C   UNL A   1      44.000  29.005  26.794  1.00  0.00     0.015 A 
ATOM     13  C   UNL A   1      45.988  29.688  28.015  1.00  0.00     0.031 A 
ATOM     14  C   UNL A   1      43.323  30.129  27.271  1.00  0.00     0.041 A 
ATOM     15  C   UNL A   1      45.302  30.805  28.491  1.00  0.00     0.054 A 
ATOM     16  C   UNL A   1      43.979  31.025  28.112  1.00  0.00     0.137 A 
ATOM     17  Br  UNL A   1      46.183  32.014  29.648  1.00  0.00    -0.048 Br
ATOM     18  F   UNL A   1      43.305  32.097  28.556  1.00  0.00    -0.206 F 
ENDBRANCH   9  11
ENDBRANCH   8   9
ENDBRANCH   5   7
ENDBRANCH   2   3
ENDBRANCH   1   2
BRANCH   1  19
ATOM     19  C   UNL A   1      40.387  21.545  26.559  1.00  0.00     0.118 C 
BRANCH  19  20
ATOM     20  N   UNL A   1      39.218  22.017  25.827  1.00  0.00    -0.352 N 
ATOM     21  C   UNL A   1      38.587  23.237  25.877  1.00  0.00     0.251 C 
ATOM     22  H   UNL A   1      38.822  21.365  25.205  1.00  0.00     0.163 HD
ATOM     23  O   UNL A   1      37.529  23.396  25.276  1.00  0.00    -0.269 OA
BRANCH  21  24
ATOM     24  C   UNL A   1      39.163  24.344  26.672  1.00  0.00     0.039 A 
ATOM     25  C   UNL A   1      40.040  25.238  26.050  1.00  0.00     0.014 A 
ATOM     26  C   UNL A   1      38.844  24.504  28.023  1.00  0.00     0.014 A 
ATOM     27  C   UNL A   1      40.540  26.332  26.761  1.00  0.00     0.010 A 
ATOM     28  C   UNL A   1      39.289  25.631  28.710  1.00  0.00     0.010 A 
ATOM     29  C   UNL A   1      40.138  26.560  28.087  1.00  0.00    -0.014 A 
BRANCH  29  30
ATOM     30  C   UNL A   1      40.583  27.757  28.845  1.00  0.00     0.031 A 
ATOM     31  C   UNL A   1      41.913  27.747  29.553  1.00  0.00     0.074 A 
ATOM     32  C   UNL A   1      39.759  28.816  28.976  1.00  0.00     0.049 A 
ATOM     33  N   UNL A   1      42.418  28.632  30.373  1.00  0.00    -0.248 NA
ATOM     34  C   UNL A   1      42.775  26.576  29.327  1.00  0.00     0.031 C 
ATOM     35  C   UNL A   1      38.435  28.942  28.363  1.00  0.00     0.029 A 
ATOM     36  N   UNL A   1      39.908  29.982  29.685  1.00  0.00    -0.354 N 
ATOM     37  C   UNL A   1      43.640  28.114  30.783  1.00  0.00     0.074 A 
ATOM     38  C   UNL A   1      43.784  26.820  30.150  1.00  0.00     0.031 C 
ATOM     39  C   UNL A   1      37.899  30.124  28.712  1.00  0.00     0.029 A 
ATOM     40  C   UNL A   1      38.818  30.817  29.608  1.00  0.00     0.049 A 
ATOM     41  H   UNL A   1      40.718  30.200  30.200  1.00  0.00     0.167 HD
ATOM     42  C   UNL A   1      44.568  28.668  31.601  1.00  0.00     0.031 A 
ATOM     43  C   UNL A   1      38.576  32.001  30.206  1.00  0.00     0.031 A 
ATOM     44  C   UNL A   1      44.431  29.961  32.216  1.00  0.00     0.049 A 
ATOM     45  C   UNL A   1      39.614  32.593  31.119  1.00  0.00     0.074 A 
ATOM     46  C   UNL A   1      45.336  30.630  33.023  1.00  0.00     0.029 A 
ATOM     47  N   UNL A   1      43.322  30.784  32.093  1.00  0.00    -0.354 N 
ATOM     48  N   UNL A   1      40.783  32.106  31.460  1.00  0.00    -0.248 NA
ATOM     49  C   UNL A   1      39.306  33.898  31.720  1.00  0.00     0.031 C 
ATOM     50  C   UNL A   1      44.756  31.837  33.423  1.00  0.00     0.029 A 
ATOM     51  C   UNL A   1      43.513  31.946  32.821  1.00  0.00     0.049 A 
ATOM     52  H   UNL A   1      42.518  30.573  31.566  1.00  0.00     0.167 HD
ATOM     53  C   UNL A   1      41.363  33.060  32.290  1.00  0.00     0.074 A 
ATOM     54  C   UNL A   1      40.419  34.155  32.392  1.00  0.00     0.031 C 
ATOM     55  C   UNL A   1      42.570  33.033  32.907  1.00  0.00     0.031 A 
BRANCH  42  56
ATOM     56  C   UNL A   1      45.811  27.867  31.884  1.00  0.00    -0.014 A 
ATOM     57  C   UNL A   1      45.869  26.972  32.968  1.00  0.00     0.010 A 
ATOM     58  C   UNL A   1      46.926  27.985  31.035  1.00  0.00     0.010 A 
ATOM     59  C   UNL A   1      47.035  26.246  33.224  1.00  0.00     0.020 A 
ATOM     60  C   UNL A   1      48.084  27.239  31.270  1.00  0.00     0.020 A 
ATOM     61  C   UNL A   1      48.137  26.388  32.376  1.00  0.00     0.054 A 
BRANCH  61  62
ATOM     62  S   UNL A   1      49.632  25.423  32.724  1.00  0.00     0.124 S 
ATOM     63  O   UNL A   1      49.130  24.414  33.654  1.00  0.00    -0.237 OA
ATOM     64  O   UNL A   1      50.009  24.925  31.403  1.00  0.00    -0.237 OA
ATOM     65  O   UNL A   1      50.550  26.401  33.303  1.00  0.00    -0.744 OA
ENDBRANCH  61  62
ENDBRANCH  42  56
BRANCH  43  66
ATOM     66  C   UNL A   1      37.292  32.712  29.951  1.00  0.00    -0.014 A 
ATOM     67  C   UNL A   1      36.180  32.491  30.782  1.00  0.00     0.010 A 
ATOM     68  C   UNL A   1      37.178  33.620  28.884  1.00  0.00     0.010 A 
ATOM     69  C   UNL A   1      34.972  33.151  30.540  1.00  0.00     0.020 A 
ATOM     70  C   UNL A   1      35.980  34.303  28.654  1.00  0.00     0.020 A 
ATOM     71  C   UNL A   1      34.881  34.055  29.478  1.00  0.00     0.054 A 
BRANCH  71  72
ATOM     72  S   UNL A   1      33.319  34.940  29.215  1.00  0.00     0.124 S 
ATOM     73  O   UNL A   1      32.636  34.075  28.258  1.00  0.00    -0.237 OA
ATOM     74  O   UNL A   1      32.745  34.976  30.558  1.00  0.00    -0.237 OA
ATOM     75  O   UNL A   1      33.746  36.238  28.694  1.00  0.00    -0.744 OA
ENDBRANCH  71  72
ENDBRANCH  43  66
BRANCH  55  76
ATOM     76  C   UNL A   1      42.969  34.242  33.710  1.00  0.00    -0.014 A 
ATOM     77  C   UNL A   1      42.779  34.292  35.102  1.00  0.00     0.010 A 
ATOM     78  C   UNL A   1      43.606  35.318  33.065  1.00  0.00     0.010 A 
ATOM     79  C   UNL A   1      43.197  35.408  35.830  1.00  0.00     0.020 A 
ATOM     80  C   UNL A   1      44.048  36.424  33.794  1.00  0.00     0.020 A 
ATOM     81  C   UNL A   1      43.829  36.467  35.172  1.00  0.00     0.054 A 
BRANCH  81  82
ATOM     82  S   UNL A   1      44.413  37.881  36.148  1.00  0.00     0.124 S 
ATOM     83  O   UNL A   1      44.232  38.990  35.214  1.00  0.00    -0.237 OA
ATOM     84  O   UNL A   1      43.511  37.874  37.296  1.00  0.00    -0.237 OA
ATOM     85  O   UNL A   1      45.801  37.543  36.452  1.00  0.00    -0.744 OA
ENDBRANCH  81  82
ENDBRANCH  55  76
ENDBRANCH  29  30
ENDBRANCH  21  24
ENDBRANCH  19  20
ENDBRANCH   1  19
TORSDOF 15
ENDMDL
MODEL 3
REMARK VINA RESULT:      -8.9      3.047     10.753
REMARK SMILES O=C(/C=C/C(=O)c1ccc(F)c(Br)c1)NCCCNC(=O)c1ccc(-c2c3nc(c(-c4ccc(S(=O)(=O)[O-])cc4)c4ccc([nH]4)c(-c4ccc(S(=O)(=O)[O-])cc4)c4nc(c(-c5ccc(S(=O)(=O)[O-])cc5)c5ccc2[nH]5)C=C4)C=C3)cc1
REMARK SMILES IDX 17 1 16 2 15 3 1 4 2 5 3 7 4 8 5 9 6 10 7 11 8 12 14 13 9 14
REMARK SMILES IDX 12 15 10 16 13 17 11 18 18 19 19 20 20 21 21 23 22 24 23 25
REMARK SMILES IDX 81 26 24 27 80 28 25 29 26 30 27 31 74 32 28 33 79 34 73 35
REMARK SMILES IDX 75 36 29 37 78 38 72 39 71 40 30 42 60 43 41 44 59 45 42 46
REMARK SMILES IDX 45 47 58 48 76 49 43 50 44 51 57 53 77 54 46 55 31 56 32 57
REMARK SMILES IDX 40 58 33 59 39 60 34 61 35 62 36 63 37 64 38 65 61 66 62 67
REMARK SMILES IDX 70 68 63 69 69 70 64 71 65 72 66 73 67 74 68 75 47 76 48 77
REMARK SMILES IDX 56 78 49 79 55 80 50 81 51 82 52 83 53 84 54 85
REMARK H PARENT 15 6 19 22 75 41 45 52
REMARK Flexibility Score: inf
ROOT
ATOM      1  C   UNL A   1      44.636  19.444  24.650  1.00  0.00     0.042 C 
ENDROOT
BRANCH   1   2
ATOM      2  C   UNL A   1      46.023  20.068  24.541  1.00  0.00     0.118 C 
BRANCH   2   3
ATOM      3  N   UNL A   1      45.964  21.487  24.241  1.00  0.00    -0.352 N 
ATOM      4  O   UNL A   1      46.182  22.192  26.412  1.00  0.00    -0.270 OA
ATOM      5  C   UNL A   1      46.036  22.438  25.220  1.00  0.00     0.244 C 
ATOM      6  H   UNL A   1      45.870  21.774  23.303  1.00  0.00     0.163 HD
BRANCH   5   7
ATOM      7  C   UNL A   1      45.923  23.858  24.799  1.00  0.00     0.075 C 
ATOM      8  C   UNL A   1      45.619  24.907  25.575  1.00  0.00     0.058 C 
BRANCH   8   9
ATOM      9  C   UNL A   1      45.534  26.308  25.085  1.00  0.00     0.186 C 
ATOM     10  O   UNL A   1      46.394  26.729  24.317  1.00  0.00    -0.289 OA
BRANCH   9  11
ATOM     11  C   UNL A   1      44.436  27.205  25.513  1.00  0.00     0.023 A 
ATOM     12  C   UNL A   1      43.146  27.095  24.973  1.00  0.00     0.015 A 
ATOM     13  C   UNL A   1      44.701  28.142  26.521  1.00  0.00     0.031 A 
ATOM     14  C   UNL A   1      42.138  27.956  25.407  1.00  0.00     0.041 A 
ATOM     15  C   UNL A   1      43.686  28.995  26.951  1.00  0.00     0.054 A 
ATOM     16  C   UNL A   1      42.413  28.904  26.389  1.00  0.00     0.137 A 
ATOM     17  Br  UNL A   1      44.051  30.271  28.299  1.00  0.00    -0.048 Br
ATOM     18  F   UNL A   1      41.425  29.719  26.787  1.00  0.00    -0.206 F 
ENDBRANCH   9  11
ENDBRANCH   8   9
ENDBRANCH   5   7
ENDBRANCH   2   3
ENDBRANCH   1   2
BRANCH   1  19
ATOM     19  C   UNL A   1      43.756  20.048  25.742  1.00  0.00     0.118 C 
BRANCH  19  20
ATOM     20  N   UNL A   1      42.336  19.781  25.548  1.00  0.00    -0.352 N 
ATOM     21  C   UNL A   1      41.244  20.484  25.998  1.00  0.00     0.251 C 
ATOM     22  H   UNL A   1      42.129  18.979  25.017  1.00  0.00     0.163 HD
ATOM     23  O   UNL A   1      40.118  20.018  25.839  1.00  0.00    -0.269 OA
BRANCH  21  24
ATOM     24  C   UNL A   1      41.421  21.777  26.692  1.00  0.00     0.039 A 
ATOM     25  C   UNL A   1      41.175  21.845  28.067  1.00  0.00     0.014 A 
ATOM     26  C   UNL A   1      41.826  22.920  25.998  1.00  0.00     0.014 A 
ATOM     27  C   UNL A   1      41.404  23.038  28.758  1.00  0.00     0.010 A 
ATOM     28  C   UNL A   1      42.118  24.088  26.698  1.00  0.00     0.010 A 
ATOM     29  C   UNL A   1      41.914  24.160  28.086  1.00  0.00    -0.014 A 
BRANCH  29  30
ATOM     30  C   UNL A   1      42.248  25.418  28.803  1.00  0.00     0.031 A 
ATOM     31  C   UNL A   1      43.550  25.534  29.551  1.00  0.00     0.074 A 
ATOM     32  C   UNL A   1      41.348  26.420  28.859  1.00  0.00     0.049 A 
ATOM     33  N   UNL A   1      43.963  26.488  30.346  1.00  0.00    -0.248 NA
ATOM     34  C   UNL A   1      44.499  24.418  29.406  1.00  0.00     0.031 C 
ATOM     35  C   UNL A   1      40.040  26.424  28.199  1.00  0.00     0.029 A 
ATOM     36  N   UNL A   1      41.390  27.623  29.518  1.00  0.00    -0.354 N 
ATOM     37  C   UNL A   1      45.204  26.076  30.817  1.00  0.00     0.074 A 
ATOM     38  C   UNL A   1      45.459  24.770  30.249  1.00  0.00     0.031 C 
ATOM     39  C   UNL A   1      39.411  27.579  28.476  1.00  0.00     0.029 A 
ATOM     40  C   UNL A   1      40.248  28.374  29.369  1.00  0.00     0.049 A 
ATOM     41  H   UNL A   1      42.165  27.921  30.048  1.00  0.00     0.167 HD
ATOM     42  C   UNL A   1      46.061  26.730  31.637  1.00  0.00     0.031 A 
ATOM     43  C   UNL A   1      39.902  29.563  29.904  1.00  0.00     0.031 A 
ATOM     44  C   UNL A   1      45.813  28.035  32.188  1.00  0.00     0.049 A 
ATOM     45  C   UNL A   1      40.865  30.266  30.820  1.00  0.00     0.074 A 
ATOM     46  C   UNL A   1      46.641  28.802  32.991  1.00  0.00     0.029 A 
ATOM     47  N   UNL A   1      44.654  28.772  31.993  1.00  0.00    -0.354 N 
ATOM     48  N   UNL A   1      42.053  29.879  31.221  1.00  0.00    -0.248 NA
ATOM     49  C   UNL A   1      40.445  31.571  31.351  1.00  0.00     0.031 C 
ATOM     50  C   UNL A   1      45.964  29.981  33.317  1.00  0.00     0.029 A 
ATOM     51  C   UNL A   1      44.738  29.974  32.672  1.00  0.00     0.049 A 
ATOM     52  H   UNL A   1      43.885  28.481  31.451  1.00  0.00     0.167 HD
ATOM     53  C   UNL A   1      42.535  30.907  32.024  1.00  0.00     0.074 A 
ATOM     54  C   UNL A   1      41.514  31.935  32.046  1.00  0.00     0.031 C 
ATOM     55  C   UNL A   1      43.719  30.993  32.679  1.00  0.00     0.031 A 
BRANCH  42  56
ATOM     56  C   UNL A   1      47.347  26.033  31.996  1.00  0.00    -0.014 A 
ATOM     57  C   UNL A   1      47.487  25.348  33.216  1.00  0.00     0.010 A 
ATOM     58  C   UNL A   1      48.419  26.034  31.085  1.00  0.00     0.010 A 
ATOM     59  C   UNL A   1      48.692  24.717  33.538  1.00  0.00     0.020 A 
ATOM     60  C   UNL A   1      49.616  25.379  31.391  1.00  0.00     0.020 A 
ATOM     61  C   UNL A   1      49.750  24.741  32.626  1.00  0.00     0.054 A 
BRANCH  61  62
ATOM     62  S   UNL A   1      51.297  23.903  33.065  1.00  0.00     0.124 S 
ATOM     63  O   UNL A   1      52.295  24.908  32.710  1.00  0.00    -0.237 OA
ATOM     64  O   UNL A   1      51.135  23.658  34.497  1.00  0.00    -0.237 OA
ATOM     65  O   UNL A   1      51.293  22.706  32.228  1.00  0.00    -0.744 OA
ENDBRANCH  61  62
ENDBRANCH  42  56
BRANCH  43  66
ATOM     66  C   UNL A   1      38.582  30.168  29.576  1.00  0.00    -0.014 A 
ATOM     67  C   UNL A   1      38.497  31.512  29.174  1.00  0.00     0.010 A 
ATOM     68  C   UNL A   1      37.405  29.402  29.654  1.00  0.00     0.010 A 
ATOM     69  C   UNL A   1      37.257  32.085  28.873  1.00  0.00     0.020 A 
ATOM     70  C   UNL A   1      36.167  29.963  29.328  1.00  0.00     0.020 A 
ATOM     71  C   UNL A   1      36.100  31.305  28.951  1.00  0.00     0.054 A 
BRANCH  71  72
ATOM     72  S   UNL A   1      34.509  32.055  28.505  1.00  0.00     0.124 S 
ATOM     73  O   UNL A   1      34.046  32.570  29.789  1.00  0.00    -0.237 OA
ATOM     74  O   UNL A   1      34.898  33.063  27.521  1.00  0.00    -0.237 OA
ATOM     75  O   UNL A   1      33.743  30.933  27.965  1.00  0.00    -0.744 OA
ENDBRANCH  71  72
ENDBRANCH  43  66
BRANCH  55  76
ATOM     76  C   UNL A   1      44.004  32.262  33.438  1.00  0.00    -0.014 A 
ATOM     77  C   UNL A   1      44.670  33.342  32.835  1.00  0.00     0.010 A 
ATOM     78  C   UNL A   1      43.536  32.394  34.758  1.00  0.00     0.010 A 
ATOM     79  C   UNL A   1      44.885  34.525  33.548  1.00  0.00     0.020 A 
ATOM     80  C   UNL A   1      43.727  33.584  35.465  1.00  0.00     0.020 A 
ATOM     81  C   UNL A   1      44.411  34.638  34.859  1.00  0.00     0.054 A 
BRANCH  81  82
ATOM     82  S   UNL A   1      44.654  36.202  35.744  1.00  0.00     0.124 S 
ATOM     83  O   UNL A   1      44.145  35.880  37.075  1.00  0.00    -0.237 OA
ATOM     84  O   UNL A   1      46.098  36.402  35.655  1.00  0.00    -0.237 OA
ATOM     85  O   UNL A   1      43.851  37.158  34.985  1.00  0.00    -0.744 OA
ENDBRANCH  81  82
ENDBRANCH  55  76
ENDBRANCH  29  30
ENDBRANCH  21  24
ENDBRANCH  19  20
ENDBRANCH   1  19
TORSDOF 15
ENDMDL
