MODEL 1
REMARK VINA RESULT:     -10.8      0.000      0.000
REMARK SMILES O=C(CCCN1C(=O)/C(=C\c2ccc(O)c(O)c2)SC1=S)NCCCNC(=O)c1ccc(-c2c3nc(c(-c4ccc(S(=O)(=O)[O-])cc4)c4ccc([nH]4)c(-c4ccc(S(=O)(=O)[O-])cc4)c4nc(c(-c5ccc(S(=O)(=O)[O-])cc5)c5ccc2[nH]5)C=C4)C=C3)cc1
REMARK SMILES IDX 23 1 22 2 1 3 2 4 3 6 4 7 5 8 6 9 7 10 20 11 8 12 9 13 19 14
REMARK SMILES IDX 21 15 10 16 11 17 12 18 18 19 13 20 16 21 14 22 17 23 15 25
REMARK SMILES IDX 24 27 25 28 26 29 27 30 28 32 29 33 30 34 88 35 31 36 87 37
REMARK SMILES IDX 32 38 33 39 34 40 81 41 35 42 86 43 80 44 82 45 36 46 85 47
REMARK SMILES IDX 79 48 78 49 37 51 67 52 48 53 66 54 49 55 52 56 65 57 83 58
REMARK SMILES IDX 50 59 51 60 64 62 84 63 53 64 38 65 39 66 47 67 40 68 46 69
REMARK SMILES IDX 41 70 42 71 43 72 44 73 45 74 68 75 69 76 77 77 70 78 76 79
REMARK SMILES IDX 71 80 72 81 73 82 74 83 75 84 54 85 55 86 63 87 56 88 62 89
REMARK SMILES IDX 57 90 58 91 59 92 60 93 61 94
REMARK H PARENT 22 5 17 24 15 26 26 31 82 50 52 61
REMARK Flexibility Score: inf
ROOT
ATOM      1  C   UNL A   1      31.237  27.332  26.769  1.00  0.00     0.117 C 
ENDROOT
BRANCH   1   2
ATOM      2  N   UNL A   1      31.371  25.890  26.720  1.00  0.00    -0.356 N 
ATOM      3  O   UNL A   1      29.570  25.552  25.333  1.00  0.00    -0.275 OA
ATOM      4  C   UNL A   1      30.508  25.111  25.986  1.00  0.00     0.220 C 
ATOM      5  H   UNL A   1      32.098  25.458  27.224  1.00  0.00     0.163 HD
BRANCH   4   6
ATOM      6  C   UNL A   1      30.849  23.641  26.014  1.00  0.00     0.102 C 
BRANCH   6   7
ATOM      7  C   UNL A   1      31.777  23.303  27.183  1.00  0.00     0.032 C 
BRANCH   7   8
ATOM      8  C   UNL A   1      33.248  23.032  26.826  1.00  0.00     0.128 C 
BRANCH   8   9
ATOM      9  N   UNL A   1      33.691  23.277  25.445  1.00  0.00    -0.293 N 
ATOM     10  C   UNL A   1      33.969  24.551  24.991  1.00  0.00     0.266 C 
ATOM     11  C   UNL A   1      34.078  22.261  24.587  1.00  0.00     0.148 C 
ATOM     12  O   UNL A   1      34.101  25.546  25.693  1.00  0.00    -0.268 OA
ATOM     13  C   UNL A   1      34.186  24.537  23.521  1.00  0.00     0.081 C 
ATOM     14  S   UNL A   1      34.637  22.939  23.059  1.00  0.00    -0.054 SA
ATOM     15  S   UNL A   1      34.047  20.617  24.863  1.00  0.00    -0.052 S 
ATOM     16  C   UNL A   1      33.908  25.500  22.628  1.00  0.00     0.029 C 
BRANCH  16  17
ATOM     17  C   UNL A   1      33.185  26.748  22.907  1.00  0.00    -0.020 A 
ATOM     18  C   UNL A   1      33.825  27.956  23.219  1.00  0.00     0.012 A 
ATOM     19  C   UNL A   1      31.783  26.710  22.879  1.00  0.00     0.058 A 
ATOM     20  C   UNL A   1      33.084  29.087  23.584  1.00  0.00     0.051 A 
ATOM     21  C   UNL A   1      31.056  27.841  23.220  1.00  0.00     0.157 A 
ATOM     22  C   UNL A   1      31.698  29.016  23.592  1.00  0.00     0.157 A 
BRANCH  21  23
ATOM     23  O   UNL A   1      29.693  27.780  23.207  1.00  0.00    -0.504 OA
ATOM     24  H   UNL A   1      29.197  28.444  22.767  1.00  0.00     0.293 HD
ENDBRANCH  21  23
BRANCH  22  25
ATOM     25  O   UNL A   1      30.922  30.078  23.967  1.00  0.00    -0.504 OA
ATOM     26  H   UNL A   1      31.254  30.950  23.892  1.00  0.00     0.293 HD
ENDBRANCH  22  25
ENDBRANCH  16  17
ENDBRANCH   8   9
ENDBRANCH   7   8
ENDBRANCH   6   7
ENDBRANCH   4   6
ENDBRANCH   1   2
BRANCH   1  27
ATOM     27  C   UNL A   1      32.150  27.969  27.809  1.00  0.00     0.042 C 
BRANCH  27  28
ATOM     28  C   UNL A   1      33.374  28.675  27.237  1.00  0.00     0.118 C 
BRANCH  28  29
ATOM     29  N   UNL A   1      33.402  30.104  27.515  1.00  0.00    -0.352 N 
ATOM     30  C   UNL A   1      34.416  30.860  28.058  1.00  0.00     0.251 C 
ATOM     31  H   UNL A   1      32.582  30.596  27.285  1.00  0.00     0.163 HD
ATOM     32  O   UNL A   1      34.220  32.034  28.354  1.00  0.00    -0.269 OA
BRANCH  30  33
ATOM     33  C   UNL A   1      35.730  30.234  28.321  1.00  0.00     0.039 A 
ATOM     34  C   UNL A   1      36.674  30.186  27.291  1.00  0.00     0.014 A 
ATOM     35  C   UNL A   1      36.041  29.737  29.588  1.00  0.00     0.014 A 
ATOM     36  C   UNL A   1      37.963  29.719  27.558  1.00  0.00     0.010 A 
ATOM     37  C   UNL A   1      37.344  29.333  29.868  1.00  0.00     0.010 A 
ATOM     38  C   UNL A   1      38.322  29.334  28.859  1.00  0.00    -0.014 A 
BRANCH  38  39
ATOM     39  C   UNL A   1      39.716  28.953  29.206  1.00  0.00     0.031 A 
ATOM     40  C   UNL A   1      40.646  29.971  29.808  1.00  0.00     0.074 A 
ATOM     41  C   UNL A   1      40.176  27.727  28.887  1.00  0.00     0.049 A 
ATOM     42  N   UNL A   1      41.931  29.883  30.032  1.00  0.00    -0.248 NA
ATOM     43  C   UNL A   1      40.057  31.267  30.181  1.00  0.00     0.031 C 
ATOM     44  C   UNL A   1      39.384  26.654  28.277  1.00  0.00     0.029 A 
ATOM     45  N   UNL A   1      41.430  27.181  29.014  1.00  0.00    -0.354 N 
ATOM     46  C   UNL A   1      42.311  31.117  30.543  1.00  0.00     0.074 A 
ATOM     47  C   UNL A   1      41.126  31.947  30.567  1.00  0.00     0.031 C 
ATOM     48  C   UNL A   1      40.169  25.579  28.093  1.00  0.00     0.029 A 
ATOM     49  C   UNL A   1      41.525  25.898  28.526  1.00  0.00     0.049 A 
ATOM     50  H   UNL A   1      42.189  27.662  29.415  1.00  0.00     0.167 HD
ATOM     51  C   UNL A   1      43.534  31.521  30.962  1.00  0.00     0.031 A 
ATOM     52  C   UNL A   1      42.588  25.076  28.419  1.00  0.00     0.031 A 
ATOM     53  C   UNL A   1      44.708  30.690  30.955  1.00  0.00     0.049 A 
ATOM     54  C   UNL A   1      43.936  25.547  28.889  1.00  0.00     0.074 A 
ATOM     55  C   UNL A   1      45.981  30.996  31.403  1.00  0.00     0.029 A 
ATOM     56  N   UNL A   1      44.752  29.386  30.486  1.00  0.00    -0.354 N 
ATOM     57  N   UNL A   1      44.269  26.707  29.402  1.00  0.00    -0.248 NA
ATOM     58  C   UNL A   1      45.052  24.596  28.774  1.00  0.00     0.031 C 
ATOM     59  C   UNL A   1      46.805  29.890  31.170  1.00  0.00     0.029 A 
ATOM     60  C   UNL A   1      46.032  28.879  30.622  1.00  0.00     0.049 A 
ATOM     61  H   UNL A   1      43.985  28.895  30.111  1.00  0.00     0.167 HD
ATOM     62  C   UNL A   1      45.623  26.615  29.700  1.00  0.00     0.074 A 
ATOM     63  C   UNL A   1      46.049  25.286  29.313  1.00  0.00     0.031 C 
ATOM     64  C   UNL A   1      46.438  27.548  30.249  1.00  0.00     0.031 A 
BRANCH  51  65
ATOM     65  C   UNL A   1      43.666  32.938  31.453  1.00  0.00    -0.014 A 
ATOM     66  C   UNL A   1      43.855  34.003  30.553  1.00  0.00     0.010 A 
ATOM     67  C   UNL A   1      43.567  33.212  32.828  1.00  0.00     0.010 A 
ATOM     68  C   UNL A   1      43.988  35.311  31.025  1.00  0.00     0.020 A 
ATOM     69  C   UNL A   1      43.673  34.523  33.302  1.00  0.00     0.020 A 
ATOM     70  C   UNL A   1      43.903  35.562  32.398  1.00  0.00     0.054 A 
BRANCH  70  71
ATOM     71  S   UNL A   1      44.067  37.271  32.985  1.00  0.00     0.124 S 
ATOM     72  O   UNL A   1      44.095  38.016  31.729  1.00  0.00    -0.237 OA
ATOM     73  O   UNL A   1      42.864  37.451  33.795  1.00  0.00    -0.237 OA
ATOM     74  O   UNL A   1      45.321  37.260  33.732  1.00  0.00    -0.744 OA
ENDBRANCH  70  71
ENDBRANCH  51  65
BRANCH  52  75
ATOM     75  C   UNL A   1      42.415  23.713  27.846  1.00  0.00    -0.014 A 
ATOM     76  C   UNL A   1      42.621  23.491  26.474  1.00  0.00     0.010 A 
ATOM     77  C   UNL A   1      42.063  22.630  28.671  1.00  0.00     0.010 A 
ATOM     78  C   UNL A   1      42.465  22.212  25.932  1.00  0.00     0.020 A 
ATOM     79  C   UNL A   1      41.929  21.345  28.137  1.00  0.00     0.020 A 
ATOM     80  C   UNL A   1      42.120  21.146  26.769  1.00  0.00     0.054 A 
BRANCH  80  81
ATOM     81  S   UNL A   1      41.978  19.483  26.057  1.00  0.00     0.124 S 
ATOM     82  O   UNL A   1      40.541  19.372  25.831  1.00  0.00    -0.237 OA
ATOM     83  O   UNL A   1      42.802  19.580  24.855  1.00  0.00    -0.237 OA
ATOM     84  O   UNL A   1      42.518  18.617  27.103  1.00  0.00    -0.744 OA
ENDBRANCH  80  81
ENDBRANCH  52  75
BRANCH  64  85
ATOM     85  C   UNL A   1      47.865  27.158  30.520  1.00  0.00    -0.014 A 
ATOM     86  C   UNL A   1      48.868  27.346  29.553  1.00  0.00     0.010 A 
ATOM     87  C   UNL A   1      48.217  26.676  31.794  1.00  0.00     0.010 A 
ATOM     88  C   UNL A   1      50.200  27.049  29.855  1.00  0.00     0.020 A 
ATOM     89  C   UNL A   1      49.549  26.398  32.105  1.00  0.00     0.020 A 
ATOM     90  C   UNL A   1      50.532  26.580  31.131  1.00  0.00     0.054 A 
BRANCH  90  91
ATOM     91  S   UNL A   1      52.277  26.274  31.524  1.00  0.00     0.124 S 
ATOM     92  O   UNL A   1      52.477  27.120  32.697  1.00  0.00    -0.237 OA
ATOM     93  O   UNL A   1      52.304  24.834  31.775  1.00  0.00    -0.237 OA
ATOM     94  O   UNL A   1      52.983  26.702  30.318  1.00  0.00    -0.744 OA
ENDBRANCH  90  91
ENDBRANCH  64  85
ENDBRANCH  38  39
ENDBRANCH  30  33
ENDBRANCH  28  29
ENDBRANCH  27  28
ENDBRANCH   1  27
TORSDOF 19
ENDMDL
MODEL 2
REMARK VINA RESULT:     -10.5      5.216      6.869
REMARK SMILES O=C(CCCN1C(=O)/C(=C\c2ccc(O)c(O)c2)SC1=S)NCCCNC(=O)c1ccc(-c2c3nc(c(-c4ccc(S(=O)(=O)[O-])cc4)c4ccc([nH]4)c(-c4ccc(S(=O)(=O)[O-])cc4)c4nc(c(-c5ccc(S(=O)(=O)[O-])cc5)c5ccc2[nH]5)C=C4)C=C3)cc1
REMARK SMILES IDX 23 1 22 2 1 3 2 4 3 6 4 7 5 8 6 9 7 10 20 11 8 12 9 13 19 14
REMARK SMILES IDX 21 15 10 16 11 17 12 18 18 19 13 20 16 21 14 22 17 23 15 25
REMARK SMILES IDX 24 27 25 28 26 29 27 30 28 32 29 33 30 34 88 35 31 36 87 37
REMARK SMILES IDX 32 38 33 39 34 40 81 41 35 42 86 43 80 44 82 45 36 46 85 47
REMARK SMILES IDX 79 48 78 49 37 51 67 52 48 53 66 54 49 55 52 56 65 57 83 58
REMARK SMILES IDX 50 59 51 60 64 62 84 63 53 64 38 65 39 66 47 67 40 68 46 69
REMARK SMILES IDX 41 70 42 71 43 72 44 73 45 74 68 75 69 76 77 77 70 78 76 79
REMARK SMILES IDX 71 80 72 81 73 82 74 83 75 84 54 85 55 86 63 87 56 88 62 89
REMARK SMILES IDX 57 90 58 91 59 92 60 93 61 94
REMARK H PARENT 22 5 17 24 15 26 26 31 82 50 52 61
REMARK Flexibility Score: inf
ROOT
ATOM      1  C   UNL A   1      34.444  32.170  28.571  1.00  0.00     0.117 C 
ENDROOT
BRANCH   1   2
ATOM      2  N   UNL A   1      34.006  30.971  27.885  1.00  0.00    -0.356 N 
ATOM      3  O   UNL A   1      36.092  30.012  27.772  1.00  0.00    -0.275 OA
ATOM      4  C   UNL A   1      34.889  29.974  27.542  1.00  0.00     0.220 C 
ATOM      5  H   UNL A   1      33.054  30.867  27.660  1.00  0.00     0.163 HD
BRANCH   4   6
ATOM      6  C   UNL A   1      34.231  28.783  26.890  1.00  0.00     0.102 C 
BRANCH   6   7
ATOM      7  C   UNL A   1      33.430  29.193  25.652  1.00  0.00     0.032 C 
BRANCH   7   8
ATOM      8  C   UNL A   1      33.219  28.103  24.588  1.00  0.00     0.128 C 
BRANCH   8   9
ATOM      9  N   UNL A   1      31.848  27.648  24.313  1.00  0.00    -0.293 N 
ATOM     10  C   UNL A   1      31.083  28.222  23.316  1.00  0.00     0.266 C 
ATOM     11  C   UNL A   1      31.315  26.490  24.855  1.00  0.00     0.148 C 
ATOM     12  O   UNL A   1      31.498  28.969  22.439  1.00  0.00    -0.268 OA
ATOM     13  C   UNL A   1      29.684  27.726  23.392  1.00  0.00     0.081 C 
ATOM     14  S   UNL A   1      29.693  26.217  24.225  1.00  0.00    -0.054 SA
ATOM     15  S   UNL A   1      32.021  25.453  25.953  1.00  0.00    -0.052 S 
ATOM     16  C   UNL A   1      28.552  28.373  23.073  1.00  0.00     0.029 C 
BRANCH  16  17
ATOM     17  C   UNL A   1      28.448  29.790  22.702  1.00  0.00    -0.020 A 
ATOM     18  C   UNL A   1      28.648  30.841  23.608  1.00  0.00     0.012 A 
ATOM     19  C   UNL A   1      28.107  30.093  21.375  1.00  0.00     0.058 A 
ATOM     20  C   UNL A   1      28.426  32.171  23.226  1.00  0.00     0.051 A 
ATOM     21  C   UNL A   1      27.912  31.415  20.998  1.00  0.00     0.157 A 
ATOM     22  C   UNL A   1      28.047  32.447  21.919  1.00  0.00     0.157 A 
BRANCH  21  23
ATOM     23  O   UNL A   1      27.561  31.689  19.708  1.00  0.00    -0.504 OA
ATOM     24  H   UNL A   1      28.074  32.287  19.200  1.00  0.00     0.293 HD
ENDBRANCH  21  23
BRANCH  22  25
ATOM     25  O   UNL A   1      27.790  33.721  21.495  1.00  0.00    -0.504 OA
ATOM     26  H   UNL A   1      27.145  33.873  20.834  1.00  0.00     0.293 HD
ENDBRANCH  22  25
ENDBRANCH  16  17
ENDBRANCH   8   9
ENDBRANCH   7   8
ENDBRANCH   6   7
ENDBRANCH   4   6
ENDBRANCH   1   2
BRANCH   1  27
ATOM     27  C   UNL A   1      33.713  33.418  28.090  1.00  0.00     0.042 C 
BRANCH  27  28
ATOM     28  C   UNL A   1      34.151  34.713  28.765  1.00  0.00     0.118 C 
BRANCH  28  29
ATOM     29  N   UNL A   1      33.168  35.239  29.701  1.00  0.00    -0.352 N 
ATOM     30  C   UNL A   1      33.141  35.139  31.073  1.00  0.00     0.251 C 
ATOM     31  H   UNL A   1      32.420  35.734  29.296  1.00  0.00     0.163 HD
ATOM     32  O   UNL A   1      32.160  35.524  31.701  1.00  0.00    -0.269 OA
BRANCH  30  33
ATOM     33  C   UNL A   1      34.284  34.524  31.782  1.00  0.00     0.039 A 
ATOM     34  C   UNL A   1      34.222  33.169  32.118  1.00  0.00     0.014 A 
ATOM     35  C   UNL A   1      35.427  35.273  32.073  1.00  0.00     0.014 A 
ATOM     36  C   UNL A   1      35.342  32.542  32.668  1.00  0.00     0.010 A 
ATOM     37  C   UNL A   1      36.562  34.632  32.561  1.00  0.00     0.010 A 
ATOM     38  C   UNL A   1      36.537  33.257  32.850  1.00  0.00    -0.014 A 
BRANCH  38  39
ATOM     39  C   UNL A   1      37.783  32.594  33.312  1.00  0.00     0.031 A 
ATOM     40  C   UNL A   1      38.290  32.835  34.708  1.00  0.00     0.074 A 
ATOM     41  C   UNL A   1      38.513  31.859  32.449  1.00  0.00     0.049 A 
ATOM     42  N   UNL A   1      39.429  32.482  35.244  1.00  0.00    -0.248 NA
ATOM     43  C   UNL A   1      37.412  33.599  35.608  1.00  0.00     0.031 C 
ATOM     44  C   UNL A   1      38.146  31.568  31.060  1.00  0.00     0.029 A 
ATOM     45  N   UNL A   1      39.728  31.239  32.607  1.00  0.00    -0.354 N 
ATOM     46  C   UNL A   1      39.419  33.004  36.532  1.00  0.00     0.074 A 
ATOM     47  C   UNL A   1      38.173  33.724  36.686  1.00  0.00     0.031 C 
ATOM     48  C   UNL A   1      39.110  30.818  30.499  1.00  0.00     0.029 A 
ATOM     49  C   UNL A   1      40.182  30.615  31.468  1.00  0.00     0.049 A 
ATOM     50  H   UNL A   1      40.227  31.240  33.455  1.00  0.00     0.167 HD
ATOM     51  C   UNL A   1      40.357  32.887  37.501  1.00  0.00     0.031 A 
ATOM     52  C   UNL A   1      41.339  29.969  31.222  1.00  0.00     0.031 A 
ATOM     53  C   UNL A   1      41.586  32.155  37.355  1.00  0.00     0.049 A 
ATOM     54  C   UNL A   1      42.366  29.854  32.313  1.00  0.00     0.074 A 
ATOM     55  C   UNL A   1      42.578  31.941  38.296  1.00  0.00     0.029 A 
ATOM     56  N   UNL A   1      41.990  31.509  36.196  1.00  0.00    -0.354 N 
ATOM     57  N   UNL A   1      42.323  30.325  33.537  1.00  0.00    -0.248 NA
ATOM     58  C   UNL A   1      43.596  29.114  31.995  1.00  0.00     0.031 C 
ATOM     59  C   UNL A   1      43.599  31.197  37.696  1.00  0.00     0.029 A 
ATOM     60  C   UNL A   1      43.220  30.907  36.394  1.00  0.00     0.049 A 
ATOM     61  H   UNL A   1      41.477  31.483  35.355  1.00  0.00     0.167 HD
ATOM     62  C   UNL A   1      43.503  29.911  34.143  1.00  0.00     0.074 A 
ATOM     63  C   UNL A   1      44.240  29.150  33.155  1.00  0.00     0.031 C 
ATOM     64  C   UNL A   1      43.933  30.138  35.408  1.00  0.00     0.031 A 
BRANCH  51  65
ATOM     65  C   UNL A   1      40.092  33.582  38.810  1.00  0.00    -0.014 A 
ATOM     66  C   UNL A   1      39.381  32.940  39.841  1.00  0.00     0.010 A 
ATOM     67  C   UNL A   1      40.587  34.880  39.023  1.00  0.00     0.010 A 
ATOM     68  C   UNL A   1      39.132  33.603  41.044  1.00  0.00     0.020 A 
ATOM     69  C   UNL A   1      40.362  35.536  40.236  1.00  0.00     0.020 A 
ATOM     70  C   UNL A   1      39.618  34.901  41.233  1.00  0.00     0.054 A 
BRANCH  70  71
ATOM     71  S   UNL A   1      39.291  35.736  42.809  1.00  0.00     0.124 S 
ATOM     72  O   UNL A   1      39.672  37.112  42.504  1.00  0.00    -0.237 OA
ATOM     73  O   UNL A   1      37.860  35.510  43.003  1.00  0.00    -0.237 OA
ATOM     74  O   UNL A   1      40.162  35.042  43.755  1.00  0.00    -0.744 OA
ENDBRANCH  70  71
ENDBRANCH  51  65
BRANCH  52  75
ATOM     75  C   UNL A   1      41.584  29.374  29.880  1.00  0.00    -0.014 A 
ATOM     76  C   UNL A   1      41.074  28.103  29.565  1.00  0.00     0.010 A 
ATOM     77  C   UNL A   1      42.310  30.082  28.905  1.00  0.00     0.010 A 
ATOM     78  C   UNL A   1      41.297  27.542  28.304  1.00  0.00     0.020 A 
ATOM     79  C   UNL A   1      42.515  29.535  27.635  1.00  0.00     0.020 A 
ATOM     80  C   UNL A   1      42.016  28.263  27.346  1.00  0.00     0.054 A 
BRANCH  80  81
ATOM     81  S   UNL A   1      42.247  27.543  25.697  1.00  0.00     0.124 S 
ATOM     82  O   UNL A   1      42.076  28.705  24.832  1.00  0.00    -0.237 OA
ATOM     83  O   UNL A   1      43.602  27.003  25.772  1.00  0.00    -0.237 OA
ATOM     84  O   UNL A   1      41.189  26.537  25.614  1.00  0.00    -0.744 OA
ENDBRANCH  80  81
ENDBRANCH  52  75
BRANCH  64  85
ATOM     85  C   UNL A   1      45.238  29.516  35.825  1.00  0.00    -0.014 A 
ATOM     86  C   UNL A   1      46.453  30.210  35.689  1.00  0.00     0.010 A 
ATOM     87  C   UNL A   1      45.231  28.252  36.441  1.00  0.00     0.010 A 
ATOM     88  C   UNL A   1      47.642  29.644  36.156  1.00  0.00     0.020 A 
ATOM     89  C   UNL A   1      46.415  27.692  36.927  1.00  0.00     0.020 A 
ATOM     90  C   UNL A   1      47.615  28.389  36.775  1.00  0.00     0.054 A 
BRANCH  90  91
ATOM     91  S   UNL A   1      49.159  27.707  37.441  1.00  0.00     0.124 S 
ATOM     92  O   UNL A   1      48.734  26.392  37.909  1.00  0.00    -0.237 OA
ATOM     93  O   UNL A   1      50.040  27.705  36.275  1.00  0.00    -0.237 OA
ATOM     94  O   UNL A   1      49.530  28.654  38.491  1.00  0.00    -0.744 OA
ENDBRANCH  90  91
ENDBRANCH  64  85
ENDBRANCH  38  39
ENDBRANCH  30  33
ENDBRANCH  28  29
ENDBRANCH  27  28
ENDBRANCH   1  27
TORSDOF 19
ENDMDL
MODEL 3
REMARK VINA RESULT:     -10.4      5.016     10.108
REMARK SMILES O=C(CCCN1C(=O)/C(=C\c2ccc(O)c(O)c2)SC1=S)NCCCNC(=O)c1ccc(-c2c3nc(c(-c4ccc(S(=O)(=O)[O-])cc4)c4ccc([nH]4)c(-c4ccc(S(=O)(=O)[O-])cc4)c4nc(c(-c5ccc(S(=O)(=O)[O-])cc5)c5ccc2[nH]5)C=C4)C=C3)cc1
REMARK SMILES IDX 23 1 22 2 1 3 2 4 3 6 4 7 5 8 6 9 7 10 20 11 8 12 9 13 19 14
REMARK SMILES IDX 21 15 10 16 11 17 12 18 18 19 13 20 16 21 14 22 17 23 15 25
REMARK SMILES IDX 24 27 25 28 26 29 27 30 28 32 29 33 30 34 88 35 31 36 87 37
REMARK SMILES IDX 32 38 33 39 34 40 81 41 35 42 86 43 80 44 82 45 36 46 85 47
REMARK SMILES IDX 79 48 78 49 37 51 67 52 48 53 66 54 49 55 52 56 65 57 83 58
REMARK SMILES IDX 50 59 51 60 64 62 84 63 53 64 38 65 39 66 47 67 40 68 46 69
REMARK SMILES IDX 41 70 42 71 43 72 44 73 45 74 68 75 69 76 77 77 70 78 76 79
REMARK SMILES IDX 71 80 72 81 73 82 74 83 75 84 54 85 55 86 63 87 56 88 62 89
REMARK SMILES IDX 57 90 58 91 59 92 60 93 61 94
REMARK H PARENT 22 5 17 24 15 26 26 31 82 50 52 61
REMARK Flexibility Score: inf
ROOT
ATOM      1  C   UNL A   1      39.953  21.639  26.344  1.00  0.00     0.117 C 
ENDROOT
BRANCH   1   2
ATOM      2  N   UNL A   1      38.840  22.372  25.775  1.00  0.00    -0.356 N 
ATOM      3  O   UNL A   1      37.824  20.535  24.839  1.00  0.00    -0.275 OA
ATOM      4  C   UNL A   1      37.850  21.740  25.060  1.00  0.00     0.220 C 
ATOM      5  H   UNL A   1      38.792  23.347  25.903  1.00  0.00     0.163 HD
BRANCH   4   6
ATOM      6  C   UNL A   1      36.751  22.666  24.601  1.00  0.00     0.102 C 
BRANCH   6   7
ATOM      7  C   UNL A   1      36.270  23.571  25.738  1.00  0.00     0.032 C 
BRANCH   7   8
ATOM      8  C   UNL A   1      34.792  23.432  26.138  1.00  0.00     0.128 C 
BRANCH   8   9
ATOM      9  N   UNL A   1      33.857  22.836  25.171  1.00  0.00    -0.293 N 
ATOM     10  C   UNL A   1      33.327  21.575  25.363  1.00  0.00     0.266 C 
ATOM     11  C   UNL A   1      33.269  23.559  24.147  1.00  0.00     0.148 C 
ATOM     12  O   UNL A   1      33.378  20.929  26.402  1.00  0.00    -0.268 OA
ATOM     13  C   UNL A   1      32.590  21.138  24.149  1.00  0.00     0.081 C 
ATOM     14  S   UNL A   1      32.137  22.543  23.259  1.00  0.00    -0.054 SA
ATOM     15  S   UNL A   1      33.537  25.152  23.732  1.00  0.00    -0.052 S 
ATOM     16  C   UNL A   1      32.442  19.894  23.666  1.00  0.00     0.029 C 
BRANCH  16  17
ATOM     17  C   UNL A   1      33.110  18.689  24.177  1.00  0.00    -0.020 A 
ATOM     18  C   UNL A   1      34.503  18.557  24.261  1.00  0.00     0.012 A 
ATOM     19  C   UNL A   1      32.301  17.614  24.575  1.00  0.00     0.058 A 
ATOM     20  C   UNL A   1      35.087  17.345  24.651  1.00  0.00     0.051 A 
ATOM     21  C   UNL A   1      32.887  16.424  24.982  1.00  0.00     0.157 A 
ATOM     22  C   UNL A   1      34.270  16.279  25.000  1.00  0.00     0.157 A 
BRANCH  21  23
ATOM     23  O   UNL A   1      32.084  15.382  25.346  1.00  0.00    -0.504 OA
ATOM     24  H   UNL A   1      32.369  14.779  26.006  1.00  0.00     0.293 HD
ENDBRANCH  21  23
BRANCH  22  25
ATOM     25  O   UNL A   1      34.781  15.063  25.361  1.00  0.00    -0.504 OA
ATOM     26  H   UNL A   1      35.642  14.818  25.089  1.00  0.00     0.293 HD
ENDBRANCH  22  25
ENDBRANCH  16  17
ENDBRANCH   8   9
ENDBRANCH   7   8
ENDBRANCH   6   7
ENDBRANCH   4   6
ENDBRANCH   1   2
BRANCH   1  27
ATOM     27  C   UNL A   1      41.154  22.530  26.635  1.00  0.00     0.042 C 
BRANCH  27  28
ATOM     28  C   UNL A   1      40.832  24.016  26.748  1.00  0.00     0.118 C 
BRANCH  28  29
ATOM     29  N   UNL A   1      41.506  24.832  25.748  1.00  0.00    -0.352 N 
ATOM     30  C   UNL A   1      41.692  26.195  25.727  1.00  0.00     0.251 C 
ATOM     31  H   UNL A   1      41.879  24.341  24.981  1.00  0.00     0.163 HD
ATOM     32  O   UNL A   1      42.165  26.739  24.734  1.00  0.00    -0.269 OA
BRANCH  30  33
ATOM     33  C   UNL A   1      41.279  27.005  26.893  1.00  0.00     0.039 A 
ATOM     34  C   UNL A   1      40.359  26.468  27.798  1.00  0.00     0.014 A 
ATOM     35  C   UNL A   1      41.829  28.270  27.113  1.00  0.00     0.014 A 
ATOM     36  C   UNL A   1      40.058  27.163  28.971  1.00  0.00     0.010 A 
ATOM     37  C   UNL A   1      41.577  28.931  28.313  1.00  0.00     0.010 A 
ATOM     38  C   UNL A   1      40.701  28.377  29.261  1.00  0.00    -0.014 A 
BRANCH  38  39
ATOM     39  C   UNL A   1      40.501  29.080  30.555  1.00  0.00     0.031 A 
ATOM     40  C   UNL A   1      39.437  30.135  30.681  1.00  0.00     0.074 A 
ATOM     41  C   UNL A   1      41.341  28.844  31.583  1.00  0.00     0.049 A 
ATOM     42  N   UNL A   1      39.212  30.966  31.666  1.00  0.00    -0.248 NA
ATOM     43  C   UNL A   1      38.524  30.295  29.537  1.00  0.00     0.031 C 
ATOM     44  C   UNL A   1      42.430  27.863  31.583  1.00  0.00     0.029 A 
ATOM     45  N   UNL A   1      41.421  29.427  32.824  1.00  0.00    -0.354 N 
ATOM     46  C   UNL A   1      38.155  31.766  31.251  1.00  0.00     0.074 A 
ATOM     47  C   UNL A   1      37.803  31.341  29.913  1.00  0.00     0.031 C 
ATOM     48  C   UNL A   1      43.061  27.907  32.768  1.00  0.00     0.029 A 
ATOM     49  C   UNL A   1      42.455  28.947  33.593  1.00  0.00     0.049 A 
ATOM     50  H   UNL A   1      40.798  30.124  33.133  1.00  0.00     0.167 HD
ATOM     51  C   UNL A   1      37.528  32.759  31.926  1.00  0.00     0.031 A 
ATOM     52  C   UNL A   1      42.883  29.314  34.818  1.00  0.00     0.031 A 
ATOM     53  C   UNL A   1      37.865  33.168  33.263  1.00  0.00     0.049 A 
ATOM     54  C   UNL A   1      42.172  30.420  35.547  1.00  0.00     0.074 A 
ATOM     55  C   UNL A   1      37.257  34.134  34.046  1.00  0.00     0.029 A 
ATOM     56  N   UNL A   1      38.897  32.631  34.018  1.00  0.00    -0.354 N 
ATOM     57  N   UNL A   1      41.151  31.142  35.152  1.00  0.00    -0.248 NA
ATOM     58  C   UNL A   1      42.665  30.757  36.890  1.00  0.00     0.031 C 
ATOM     59  C   UNL A   1      37.944  34.206  35.263  1.00  0.00     0.029 A 
ATOM     60  C   UNL A   1      38.949  33.252  35.254  1.00  0.00     0.049 A 
ATOM     61  H   UNL A   1      39.502  31.914  33.719  1.00  0.00     0.167 HD
ATOM     62  C   UNL A   1      40.860  31.996  36.209  1.00  0.00     0.074 A 
ATOM     63  C   UNL A   1      41.810  31.701  37.262  1.00  0.00     0.031 C 
ATOM     64  C   UNL A   1      39.888  32.936  36.299  1.00  0.00     0.031 A 
BRANCH  51  65
ATOM     65  C   UNL A   1      36.415  33.483  31.217  1.00  0.00    -0.014 A 
ATOM     66  C   UNL A   1      35.262  33.897  31.910  1.00  0.00     0.010 A 
ATOM     67  C   UNL A   1      36.536  33.781  29.849  1.00  0.00     0.010 A 
ATOM     68  C   UNL A   1      34.232  34.556  31.236  1.00  0.00     0.020 A 
ATOM     69  C   UNL A   1      35.519  34.464  29.177  1.00  0.00     0.020 A 
ATOM     70  C   UNL A   1      34.364  34.830  29.871  1.00  0.00     0.054 A 
BRANCH  70  71
ATOM     71  S   UNL A   1      33.017  35.698  29.021  1.00  0.00     0.124 S 
ATOM     72  O   UNL A   1      32.204  36.161  30.143  1.00  0.00    -0.237 OA
ATOM     73  O   UNL A   1      33.721  36.744  28.283  1.00  0.00    -0.237 OA
ATOM     74  O   UNL A   1      32.405  34.661  28.194  1.00  0.00    -0.744 OA
ENDBRANCH  70  71
ENDBRANCH  51  65
BRANCH  52  75
ATOM     75  C   UNL A   1      44.045  28.619  35.435  1.00  0.00    -0.014 A 
ATOM     76  C   UNL A   1      43.847  27.472  36.224  1.00  0.00     0.010 A 
ATOM     77  C   UNL A   1      45.354  29.087  35.222  1.00  0.00     0.010 A 
ATOM     78  C   UNL A   1      44.936  26.814  36.802  1.00  0.00     0.020 A 
ATOM     79  C   UNL A   1      46.447  28.417  35.779  1.00  0.00     0.020 A 
ATOM     80  C   UNL A   1      46.231  27.291  36.574  1.00  0.00     0.054 A 
BRANCH  80  81
ATOM     81  S   UNL A   1      47.635  26.389  37.286  1.00  0.00     0.124 S 
ATOM     82  O   UNL A   1      48.231  27.395  38.158  1.00  0.00    -0.237 OA
ATOM     83  O   UNL A   1      46.985  25.270  37.963  1.00  0.00    -0.237 OA
ATOM     84  O   UNL A   1      48.431  26.020  36.117  1.00  0.00    -0.744 OA
ENDBRANCH  80  81
ENDBRANCH  52  75
BRANCH  64  85
ATOM     85  C   UNL A   1      39.759  33.686  37.596  1.00  0.00    -0.014 A 
ATOM     86  C   UNL A   1      40.381  34.932  37.784  1.00  0.00     0.010 A 
ATOM     87  C   UNL A   1      38.930  33.170  38.609  1.00  0.00     0.010 A 
ATOM     88  C   UNL A   1      40.182  35.647  38.968  1.00  0.00     0.020 A 
ATOM     89  C   UNL A   1      38.713  33.891  39.785  1.00  0.00     0.020 A 
ATOM     90  C   UNL A   1      39.346  35.122  39.961  1.00  0.00     0.054 A 
BRANCH  90  91
ATOM     91  S   UNL A   1      39.043  36.102  41.458  1.00  0.00     0.124 S 
ATOM     92  O   UNL A   1      38.906  37.451  40.915  1.00  0.00    -0.237 OA
ATOM     93  O   UNL A   1      37.817  35.509  41.988  1.00  0.00    -0.237 OA
ATOM     94  O   UNL A   1      40.237  35.874  42.268  1.00  0.00    -0.744 OA
ENDBRANCH  90  91
ENDBRANCH  64  85
ENDBRANCH  38  39
ENDBRANCH  30  33
ENDBRANCH  28  29
ENDBRANCH  27  28
ENDBRANCH   1  27
TORSDOF 19
ENDMDL
