MODEL 1
REMARK VINA RESULT:     -10.7      0.000      0.000
REMARK SMILES O=C(NC[C@@H]1CCOC1)NC[C@@H]1CC[C@H](C(=O)NCCCNC(=O)c2ccc(-c3c4nc(c(-c5ccc(S(=O)(=O)[O-])cc5)c5ccc([nH]5)c(-c5ccc(S(=O)(=O)[O-])cc5)c5nc(c(-c6ccc(S(=O)(=O)[O-])cc6)c6ccc3[nH]6)C=C5)C=C4)cc2)O1
REMARK SMILES IDX 19 1 18 2 16 3 17 4 15 6 12 7 13 8 85 9 14 10 11 11 10 12
REMARK SMILES IDX 1 13 2 14 3 15 4 18 5 19 6 20 9 21 7 22 8 23 20 24 21 25
REMARK SMILES IDX 22 26 23 27 24 29 25 30 26 31 84 32 27 33 83 34 28 35 29 36
REMARK SMILES IDX 30 37 77 38 31 39 82 40 76 41 78 42 32 43 81 44 75 45 74 46
REMARK SMILES IDX 33 48 63 49 44 50 62 51 45 52 48 53 61 54 79 55 46 56 47 57
REMARK SMILES IDX 60 59 80 60 49 61 34 62 35 63 43 64 36 65 42 66 37 67 38 68
REMARK SMILES IDX 39 69 40 70 41 71 64 72 65 73 73 74 66 75 72 76 67 77 68 78
REMARK SMILES IDX 69 79 70 80 71 81 50 82 51 83 59 84 52 85 58 86 53 87 54 88
REMARK SMILES IDX 55 89 56 90 57 91
REMARK H PARENT 18 5 3 16 10 17 22 28 78 47 48 58
REMARK Flexibility Score: inf
ROOT
ATOM      1  C   UNL A   1      31.598  29.370  24.828  1.00  0.00     0.117 C 
ENDROOT
BRANCH   1   2
ATOM      2  N   UNL A   1      32.803  29.342  23.999  1.00  0.00    -0.354 N 
ATOM      3  C   UNL A   1      33.239  28.492  23.029  1.00  0.00     0.249 C 
ATOM      4  O   UNL A   1      34.398  28.655  22.627  1.00  0.00    -0.272 OA
ATOM      5  H   UNL A   1      33.422  30.087  24.178  1.00  0.00     0.163 HD
BRANCH   3   6
ATOM      6  C   UNL A   1      32.382  27.352  22.441  1.00  0.00     0.207 C 
ATOM      7  C   UNL A   1      31.388  25.316  22.934  1.00  0.00     0.138 C 
ATOM      8  C   UNL A   1      32.765  24.986  22.379  1.00  0.00     0.037 C 
ATOM      9  O   UNL A   1      31.461  26.701  23.308  1.00  0.00    -0.363 OA
ATOM     10  C   UNL A   1      33.220  26.280  21.749  1.00  0.00     0.045 C 
BRANCH   7  11
ATOM     11  C   UNL A   1      30.895  24.461  24.122  1.00  0.00     0.149 C 
BRANCH  11  12
ATOM     12  N   UNL A   1      31.972  23.909  24.922  1.00  0.00    -0.336 N 
ATOM     13  O   UNL A   1      31.580  24.997  26.894  1.00  0.00    -0.249 OA
ATOM     14  C   UNL A   1      32.310  24.327  26.170  1.00  0.00     0.314 C 
ATOM     15  N   UNL A   1      33.585  24.017  26.558  1.00  0.00    -0.338 N 
ATOM     16  H   UNL A   1      33.820  24.223  27.491  1.00  0.00     0.165 HD
ATOM     17  H   UNL A   1      32.500  23.175  24.531  1.00  0.00     0.165 HD
BRANCH  15  18
ATOM     18  C   UNL A   1      34.632  23.419  25.748  1.00  0.00     0.123 C 
BRANCH  18  19
ATOM     19  C   UNL A   1      35.028  21.963  26.054  1.00  0.00     0.036 C 
ATOM     20  C   UNL A   1      35.102  20.991  24.895  1.00  0.00     0.036 C 
ATOM     21  C   UNL A   1      33.879  21.307  26.809  1.00  0.00     0.165 C 
ATOM     22  C   UNL A   1      33.661  20.662  24.585  1.00  0.00     0.160 C 
ATOM     23  O   UNL A   1      32.932  20.915  25.795  1.00  0.00    -0.381 OA
ENDBRANCH  18  19
ENDBRANCH  15  18
ENDBRANCH  11  12
ENDBRANCH   7  11
ENDBRANCH   3   6
ENDBRANCH   1   2
BRANCH   1  24
ATOM     24  C   UNL A   1      31.761  28.419  26.019  1.00  0.00     0.042 C 
BRANCH  24  25
ATOM     25  C   UNL A   1      33.020  28.579  26.896  1.00  0.00     0.118 C 
BRANCH  25  26
ATOM     26  N   UNL A   1      33.191  29.862  27.564  1.00  0.00    -0.352 N 
ATOM     27  C   UNL A   1      34.258  30.682  27.877  1.00  0.00     0.251 C 
ATOM     28  H   UNL A   1      32.334  30.240  27.867  1.00  0.00     0.163 HD
ATOM     29  O   UNL A   1      33.980  31.859  28.129  1.00  0.00    -0.269 OA
BRANCH  27  30
ATOM     30  C   UNL A   1      35.677  30.254  28.112  1.00  0.00     0.039 A 
ATOM     31  C   UNL A   1      35.973  29.778  29.410  1.00  0.00     0.014 A 
ATOM     32  C   UNL A   1      36.728  30.287  27.201  1.00  0.00     0.014 A 
ATOM     33  C   UNL A   1      37.251  29.306  29.770  1.00  0.00     0.010 A 
ATOM     34  C   UNL A   1      38.004  29.765  27.549  1.00  0.00     0.010 A 
ATOM     35  C   UNL A   1      38.291  29.259  28.834  1.00  0.00    -0.014 A 
BRANCH  35  36
ATOM     36  C   UNL A   1      39.663  28.747  29.204  1.00  0.00     0.031 A 
ATOM     37  C   UNL A   1      40.625  29.628  29.979  1.00  0.00     0.074 A 
ATOM     38  C   UNL A   1      40.100  27.510  28.861  1.00  0.00     0.049 A 
ATOM     39  N   UNL A   1      41.875  29.403  30.311  1.00  0.00    -0.248 NA
ATOM     40  C   UNL A   1      40.117  30.933  30.425  1.00  0.00     0.031 C 
ATOM     41  C   UNL A   1      39.335  26.499  28.131  1.00  0.00     0.029 A 
ATOM     42  N   UNL A   1      41.319  26.893  29.078  1.00  0.00    -0.354 N 
ATOM     43  C   UNL A   1      42.313  30.550  30.965  1.00  0.00     0.074 A 
ATOM     44  C   UNL A   1      41.202  31.480  30.959  1.00  0.00     0.031 C 
ATOM     45  C   UNL A   1      40.093  25.400  27.963  1.00  0.00     0.029 A 
ATOM     46  C   UNL A   1      41.415  25.625  28.547  1.00  0.00     0.049 A 
ATOM     47  H   UNL A   1      42.054  27.323  29.572  1.00  0.00     0.167 HD
ATOM     48  C   UNL A   1      43.512  30.817  31.540  1.00  0.00     0.031 A 
ATOM     49  C   UNL A   1      42.436  24.738  28.514  1.00  0.00     0.031 A 
ATOM     50  C   UNL A   1      44.621  29.904  31.629  1.00  0.00     0.049 A 
ATOM     51  C   UNL A   1      43.768  25.064  29.148  1.00  0.00     0.074 A 
ATOM     52  C   UNL A   1      45.838  30.099  32.264  1.00  0.00     0.029 A 
ATOM     53  N   UNL A   1      44.660  28.634  31.084  1.00  0.00    -0.354 N 
ATOM     54  N   UNL A   1      44.131  26.139  29.803  1.00  0.00    -0.248 NA
ATOM     55  C   UNL A   1      44.829  24.044  29.046  1.00  0.00     0.031 C 
ATOM     56  C   UNL A   1      46.629  28.964  32.067  1.00  0.00     0.029 A 
ATOM     57  C   UNL A   1      45.885  28.042  31.352  1.00  0.00     0.049 A 
ATOM     58  H   UNL A   1      43.925  28.211  30.582  1.00  0.00     0.167 HD
ATOM     59  C   UNL A   1      45.441  25.905  30.220  1.00  0.00     0.074 A 
ATOM     60  C   UNL A   1      45.808  24.588  29.757  1.00  0.00     0.031 C 
ATOM     61  C   UNL A   1      46.262  26.720  30.926  1.00  0.00     0.031 A 
BRANCH  48  62
ATOM     62  C   UNL A   1      43.707  32.184  32.140  1.00  0.00    -0.014 A 
ATOM     63  C   UNL A   1      43.429  32.427  33.496  1.00  0.00     0.010 A 
ATOM     64  C   UNL A   1      44.258  33.212  31.354  1.00  0.00     0.010 A 
ATOM     65  C   UNL A   1      43.668  33.687  34.048  1.00  0.00     0.020 A 
ATOM     66  C   UNL A   1      44.525  34.466  31.910  1.00  0.00     0.020 A 
ATOM     67  C   UNL A   1      44.214  34.698  33.251  1.00  0.00     0.054 A 
BRANCH  67  68
ATOM     68  S   UNL A   1      44.555  36.311  34.006  1.00  0.00     0.124 S 
ATOM     69  O   UNL A   1      43.547  37.157  33.370  1.00  0.00    -0.237 OA
ATOM     70  O   UNL A   1      44.347  36.051  35.427  1.00  0.00    -0.237 OA
ATOM     71  O   UNL A   1      45.935  36.590  33.621  1.00  0.00    -0.744 OA
ENDBRANCH  67  68
ENDBRANCH  48  62
BRANCH  49  72
ATOM     72  C   UNL A   1      42.277  23.421  27.827  1.00  0.00    -0.014 A 
ATOM     73  C   UNL A   1      41.732  22.317  28.511  1.00  0.00     0.010 A 
ATOM     74  C   UNL A   1      42.759  23.240  26.518  1.00  0.00     0.010 A 
ATOM     75  C   UNL A   1      41.713  21.051  27.916  1.00  0.00     0.020 A 
ATOM     76  C   UNL A   1      42.714  21.982  25.910  1.00  0.00     0.020 A 
ATOM     77  C   UNL A   1      42.211  20.890  26.621  1.00  0.00     0.054 A 
BRANCH  77  78
ATOM     78  S   UNL A   1      42.175  19.242  25.862  1.00  0.00     0.124 S 
ATOM     79  O   UNL A   1      42.709  18.405  26.931  1.00  0.00    -0.237 OA
ATOM     80  O   UNL A   1      40.756  19.061  25.562  1.00  0.00    -0.237 OA
ATOM     81  O   UNL A   1      43.035  19.390  24.690  1.00  0.00    -0.744 OA
ENDBRANCH  77  78
ENDBRANCH  49  72
BRANCH  61  82
ATOM     82  C   UNL A   1      47.629  26.211  31.311  1.00  0.00    -0.014 A 
ATOM     83  C   UNL A   1      48.733  26.343  30.451  1.00  0.00     0.010 A 
ATOM     84  C   UNL A   1      47.827  25.656  32.590  1.00  0.00     0.010 A 
ATOM     85  C   UNL A   1      50.002  25.911  30.852  1.00  0.00     0.020 A 
ATOM     86  C   UNL A   1      49.099  25.244  33.005  1.00  0.00     0.020 A 
ATOM     87  C   UNL A   1      50.178  25.364  32.127  1.00  0.00     0.054 A 
BRANCH  87  88
ATOM     88  S   UNL A   1      51.844  24.864  32.648  1.00  0.00     0.124 S 
ATOM     89  O   UNL A   1      51.817  25.152  34.079  1.00  0.00    -0.237 OA
ATOM     90  O   UNL A   1      51.880  23.445  32.294  1.00  0.00    -0.237 OA
ATOM     91  O   UNL A   1      52.726  25.718  31.857  1.00  0.00    -0.744 OA
ENDBRANCH  87  88
ENDBRANCH  61  82
ENDBRANCH  35  36
ENDBRANCH  27  30
ENDBRANCH  25  26
ENDBRANCH  24  25
ENDBRANCH   1  24
TORSDOF 17
ENDMDL
MODEL 2
REMARK VINA RESULT:     -10.5      3.138      3.752
REMARK SMILES O=C(NC[C@@H]1CCOC1)NC[C@@H]1CC[C@H](C(=O)NCCCNC(=O)c2ccc(-c3c4nc(c(-c5ccc(S(=O)(=O)[O-])cc5)c5ccc([nH]5)c(-c5ccc(S(=O)(=O)[O-])cc5)c5nc(c(-c6ccc(S(=O)(=O)[O-])cc6)c6ccc3[nH]6)C=C5)C=C4)cc2)O1
REMARK SMILES IDX 19 1 18 2 16 3 17 4 15 6 12 7 13 8 85 9 14 10 11 11 10 12
REMARK SMILES IDX 1 13 2 14 3 15 4 18 5 19 6 20 9 21 7 22 8 23 20 24 21 25
REMARK SMILES IDX 22 26 23 27 24 29 25 30 26 31 84 32 27 33 83 34 28 35 29 36
REMARK SMILES IDX 30 37 77 38 31 39 82 40 76 41 78 42 32 43 81 44 75 45 74 46
REMARK SMILES IDX 33 48 63 49 44 50 62 51 45 52 48 53 61 54 79 55 46 56 47 57
REMARK SMILES IDX 60 59 80 60 49 61 34 62 35 63 43 64 36 65 42 66 37 67 38 68
REMARK SMILES IDX 39 69 40 70 41 71 64 72 65 73 73 74 66 75 72 76 67 77 68 78
REMARK SMILES IDX 69 79 70 80 71 81 50 82 51 83 59 84 52 85 58 86 53 87 54 88
REMARK SMILES IDX 55 89 56 90 57 91
REMARK H PARENT 18 5 3 16 10 17 22 28 78 47 48 58
REMARK Flexibility Score: inf
ROOT
ATOM      1  C   UNL A   1      33.616  28.597  26.398  1.00  0.00     0.117 C 
ENDROOT
BRANCH   1   2
ATOM      2  N   UNL A   1      33.909  28.980  25.016  1.00  0.00    -0.354 N 
ATOM      3  C   UNL A   1      33.203  28.875  23.858  1.00  0.00     0.249 C 
ATOM      4  O   UNL A   1      33.806  29.148  22.811  1.00  0.00    -0.272 OA
ATOM      5  H   UNL A   1      34.794  29.398  24.902  1.00  0.00     0.163 HD
BRANCH   3   6
ATOM      6  C   UNL A   1      31.730  28.422  23.791  1.00  0.00     0.207 C 
ATOM      7  C   UNL A   1      30.224  26.840  24.570  1.00  0.00     0.138 C 
ATOM      8  C   UNL A   1      30.777  26.285  23.267  1.00  0.00     0.037 C 
ATOM      9  O   UNL A   1      31.156  27.859  24.964  1.00  0.00    -0.363 OA
ATOM     10  C   UNL A   1      31.456  27.473  22.628  1.00  0.00     0.045 C 
BRANCH   7  11
ATOM     11  C   UNL A   1      30.008  25.830  25.718  1.00  0.00     0.149 C 
BRANCH  11  12
ATOM     12  N   UNL A   1      31.058  24.833  25.815  1.00  0.00    -0.336 N 
ATOM     13  O   UNL A   1      30.106  23.420  27.340  1.00  0.00    -0.249 OA
ATOM     14  C   UNL A   1      31.084  23.813  26.712  1.00  0.00     0.314 C 
ATOM     15  N   UNL A   1      32.323  23.279  26.942  1.00  0.00    -0.338 N 
ATOM     16  H   UNL A   1      32.354  22.477  27.513  1.00  0.00     0.165 HD
ATOM     17  H   UNL A   1      31.810  24.902  25.183  1.00  0.00     0.165 HD
BRANCH  15  18
ATOM     18  C   UNL A   1      33.598  23.761  26.443  1.00  0.00     0.123 C 
BRANCH  18  19
ATOM     19  C   UNL A   1      34.672  22.714  26.096  1.00  0.00     0.036 C 
ATOM     20  C   UNL A   1      34.957  22.451  24.632  1.00  0.00     0.036 C 
ATOM     21  C   UNL A   1      34.128  21.338  26.457  1.00  0.00     0.165 C 
ATOM     22  C   UNL A   1      33.801  21.598  24.169  1.00  0.00     0.160 C 
ATOM     23  O   UNL A   1      33.290  20.957  25.347  1.00  0.00    -0.381 OA
ENDBRANCH  18  19
ENDBRANCH  15  18
ENDBRANCH  11  12
ENDBRANCH   7  11
ENDBRANCH   3   6
ENDBRANCH   1   2
BRANCH   1  24
ATOM     24  C   UNL A   1      33.479  29.850  27.269  1.00  0.00     0.042 C 
BRANCH  24  25
ATOM     25  C   UNL A   1      34.771  30.598  27.658  1.00  0.00     0.118 C 
BRANCH  25  26
ATOM     26  N   UNL A   1      34.959  30.884  29.074  1.00  0.00    -0.352 N 
ATOM     27  C   UNL A   1      36.040  31.097  29.907  1.00  0.00     0.251 C 
ATOM     28  H   UNL A   1      34.103  30.938  29.558  1.00  0.00     0.163 HD
ATOM     29  O   UNL A   1      35.795  31.663  30.977  1.00  0.00    -0.269 OA
BRANCH  27  30
ATOM     30  C   UNL A   1      37.431  30.562  29.725  1.00  0.00     0.039 A 
ATOM     31  C   UNL A   1      37.808  30.262  28.397  1.00  0.00     0.014 A 
ATOM     32  C   UNL A   1      38.376  30.320  30.717  1.00  0.00     0.014 A 
ATOM     33  C   UNL A   1      39.094  29.788  28.065  1.00  0.00     0.010 A 
ATOM     34  C   UNL A   1      39.686  29.889  30.377  1.00  0.00     0.010 A 
ATOM     35  C   UNL A   1      40.076  29.621  29.048  1.00  0.00    -0.014 A 
BRANCH  35  36
ATOM     36  C   UNL A   1      41.460  29.122  28.704  1.00  0.00     0.031 A 
ATOM     37  C   UNL A   1      42.640  30.076  28.712  1.00  0.00     0.074 A 
ATOM     38  C   UNL A   1      41.710  27.833  28.367  1.00  0.00     0.049 A 
ATOM     39  N   UNL A   1      43.886  29.859  28.359  1.00  0.00    -0.248 NA
ATOM     40  C   UNL A   1      42.380  31.450  29.163  1.00  0.00     0.031 C 
ATOM     41  C   UNL A   1      40.728  26.752  28.311  1.00  0.00     0.029 A 
ATOM     42  N   UNL A   1      42.889  27.213  27.993  1.00  0.00    -0.354 N 
ATOM     43  C   UNL A   1      44.545  31.076  28.506  1.00  0.00     0.074 A 
ATOM     44  C   UNL A   1      43.553  32.032  28.953  1.00  0.00     0.031 C 
ATOM     45  C   UNL A   1      41.336  25.614  27.930  1.00  0.00     0.029 A 
ATOM     46  C   UNL A   1      42.753  25.876  27.684  1.00  0.00     0.049 A 
ATOM     47  H   UNL A   1      43.752  27.687  27.953  1.00  0.00     0.167 HD
ATOM     48  C   UNL A   1      45.851  31.383  28.311  1.00  0.00     0.031 A 
ATOM     49  C   UNL A   1      43.645  24.960  27.245  1.00  0.00     0.031 A 
ATOM     50  C   UNL A   1      46.884  30.455  27.931  1.00  0.00     0.049 A 
ATOM     51  C   UNL A   1      45.094  25.330  27.021  1.00  0.00     0.074 A 
ATOM     52  C   UNL A   1      48.242  30.701  27.788  1.00  0.00     0.029 A 
ATOM     53  N   UNL A   1      46.693  29.117  27.642  1.00  0.00    -0.354 N 
ATOM     54  N   UNL A   1      45.693  26.478  27.218  1.00  0.00    -0.248 NA
ATOM     55  C   UNL A   1      45.989  24.269  26.522  1.00  0.00     0.031 C 
ATOM     56  C   UNL A   1      48.864  29.522  27.370  1.00  0.00     0.029 A 
ATOM     57  C   UNL A   1      47.902  28.530  27.303  1.00  0.00     0.049 A 
ATOM     58  H   UNL A   1      45.826  28.650  27.674  1.00  0.00     0.167 HD
ATOM     59  C   UNL A   1      47.035  26.263  26.906  1.00  0.00     0.074 A 
ATOM     60  C   UNL A   1      47.167  24.879  26.518  1.00  0.00     0.031 C 
ATOM     61  C   UNL A   1      48.063  27.146  26.941  1.00  0.00     0.031 A 
BRANCH  48  62
ATOM     62  C   UNL A   1      46.265  32.817  28.509  1.00  0.00    -0.014 A 
ATOM     63  C   UNL A   1      46.774  33.262  29.741  1.00  0.00     0.010 A 
ATOM     64  C   UNL A   1      46.224  33.706  27.419  1.00  0.00     0.010 A 
ATOM     65  C   UNL A   1      47.205  34.582  29.889  1.00  0.00     0.020 A 
ATOM     66  C   UNL A   1      46.680  35.019  27.556  1.00  0.00     0.020 A 
ATOM     67  C   UNL A   1      47.154  35.452  28.795  1.00  0.00     0.054 A 
BRANCH  67  68
ATOM     68  S   UNL A   1      47.759  37.149  29.005  1.00  0.00     0.124 S 
ATOM     69  O   UNL A   1      48.759  36.980  30.057  1.00  0.00    -0.237 OA
ATOM     70  O   UNL A   1      48.289  37.466  27.683  1.00  0.00    -0.237 OA
ATOM     71  O   UNL A   1      46.567  37.896  29.393  1.00  0.00    -0.744 OA
ENDBRANCH  67  68
ENDBRANCH  48  62
BRANCH  49  72
ATOM     72  C   UNL A   1      43.214  23.560  26.948  1.00  0.00    -0.014 A 
ATOM     73  C   UNL A   1      43.096  22.612  27.983  1.00  0.00     0.010 A 
ATOM     74  C   UNL A   1      43.013  23.146  25.620  1.00  0.00     0.010 A 
ATOM     75  C   UNL A   1      42.830  21.270  27.691  1.00  0.00     0.020 A 
ATOM     76  C   UNL A   1      42.718  21.811  25.326  1.00  0.00     0.020 A 
ATOM     77  C   UNL A   1      42.649  20.877  26.362  1.00  0.00     0.054 A 
BRANCH  77  78
ATOM     78  S   UNL A   1      42.300  19.134  26.000  1.00  0.00     0.124 S 
ATOM     79  O   UNL A   1      40.860  19.156  25.760  1.00  0.00    -0.237 OA
ATOM     80  O   UNL A   1      43.135  18.878  24.829  1.00  0.00    -0.237 OA
ATOM     81  O   UNL A   1      42.723  18.444  27.217  1.00  0.00    -0.744 OA
ENDBRANCH  77  78
ENDBRANCH  49  72
BRANCH  61  82
ATOM     82  C   UNL A   1      49.450  26.652  26.612  1.00  0.00    -0.014 A 
ATOM     83  C   UNL A   1      50.269  26.055  27.586  1.00  0.00     0.010 A 
ATOM     84  C   UNL A   1      49.914  26.721  25.284  1.00  0.00     0.010 A 
ATOM     85  C   UNL A   1      51.531  25.555  27.244  1.00  0.00     0.020 A 
ATOM     86  C   UNL A   1      51.165  26.202  24.933  1.00  0.00     0.020 A 
ATOM     87  C   UNL A   1      51.972  25.631  25.919  1.00  0.00     0.054 A 
BRANCH  87  88
ATOM     88  S   UNL A   1      53.589  24.926  25.488  1.00  0.00     0.124 S 
ATOM     89  O   UNL A   1      54.358  25.160  26.707  1.00  0.00    -0.237 OA
ATOM     90  O   UNL A   1      53.267  23.528  25.208  1.00  0.00    -0.237 OA
ATOM     91  O   UNL A   1      54.009  25.706  24.326  1.00  0.00    -0.744 OA
ENDBRANCH  87  88
ENDBRANCH  61  82
ENDBRANCH  35  36
ENDBRANCH  27  30
ENDBRANCH  25  26
ENDBRANCH  24  25
ENDBRANCH   1  24
TORSDOF 17
ENDMDL
MODEL 3
REMARK VINA RESULT:     -10.5      4.260     11.567
REMARK SMILES O=C(NC[C@@H]1CCOC1)NC[C@@H]1CC[C@H](C(=O)NCCCNC(=O)c2ccc(-c3c4nc(c(-c5ccc(S(=O)(=O)[O-])cc5)c5ccc([nH]5)c(-c5ccc(S(=O)(=O)[O-])cc5)c5nc(c(-c6ccc(S(=O)(=O)[O-])cc6)c6ccc3[nH]6)C=C5)C=C4)cc2)O1
REMARK SMILES IDX 19 1 18 2 16 3 17 4 15 6 12 7 13 8 85 9 14 10 11 11 10 12
REMARK SMILES IDX 1 13 2 14 3 15 4 18 5 19 6 20 9 21 7 22 8 23 20 24 21 25
REMARK SMILES IDX 22 26 23 27 24 29 25 30 26 31 84 32 27 33 83 34 28 35 29 36
REMARK SMILES IDX 30 37 77 38 31 39 82 40 76 41 78 42 32 43 81 44 75 45 74 46
REMARK SMILES IDX 33 48 63 49 44 50 62 51 45 52 48 53 61 54 79 55 46 56 47 57
REMARK SMILES IDX 60 59 80 60 49 61 34 62 35 63 43 64 36 65 42 66 37 67 38 68
REMARK SMILES IDX 39 69 40 70 41 71 64 72 65 73 73 74 66 75 72 76 67 77 68 78
REMARK SMILES IDX 69 79 70 80 71 81 50 82 51 83 59 84 52 85 58 86 53 87 54 88
REMARK SMILES IDX 55 89 56 90 57 91
REMARK H PARENT 18 5 3 16 10 17 22 28 78 47 48 58
REMARK Flexibility Score: inf
ROOT
ATOM      1  C   UNL A   1      43.118  20.672  25.810  1.00  0.00     0.117 C 
ENDROOT
BRANCH   1   2
ATOM      2  N   UNL A   1      44.067  21.249  24.857  1.00  0.00    -0.354 N 
ATOM      3  C   UNL A   1      44.672  22.465  24.778  1.00  0.00     0.249 C 
ATOM      4  O   UNL A   1      45.307  22.703  23.742  1.00  0.00    -0.272 OA
ATOM      5  H   UNL A   1      44.317  20.635  24.130  1.00  0.00     0.163 HD
BRANCH   3   6
ATOM      6  C   UNL A   1      44.587  23.539  25.881  1.00  0.00     0.207 C 
ATOM      7  C   UNL A   1      45.636  25.418  26.746  1.00  0.00     0.138 C 
ATOM      8  C   UNL A   1      46.203  24.233  27.511  1.00  0.00     0.037 C 
ATOM      9  O   UNL A   1      45.043  24.849  25.568  1.00  0.00    -0.363 OA
ATOM     10  C   UNL A   1      45.256  23.104  27.182  1.00  0.00     0.045 C 
BRANCH   7  11
ATOM     11  C   UNL A   1      46.627  26.539  26.366  1.00  0.00     0.149 C 
BRANCH  11  12
ATOM     12  N   UNL A   1      45.993  27.830  26.175  1.00  0.00    -0.336 N 
ATOM     13  O   UNL A   1      47.192  28.585  24.381  1.00  0.00    -0.249 OA
ATOM     14  C   UNL A   1      46.419  28.789  25.312  1.00  0.00     0.314 C 
ATOM     15  N   UNL A   1      45.986  30.055  25.596  1.00  0.00    -0.338 N 
ATOM     16  H   UNL A   1      46.201  30.750  24.932  1.00  0.00     0.165 HD
ATOM     17  H   UNL A   1      45.191  28.026  26.712  1.00  0.00     0.165 HD
BRANCH  15  18
ATOM     18  C   UNL A   1      45.247  30.492  26.767  1.00  0.00     0.123 C 
BRANCH  18  19
ATOM     19  C   UNL A   1      45.798  31.697  27.551  1.00  0.00     0.036 C 
ATOM     20  C   UNL A   1      44.866  32.864  27.803  1.00  0.00     0.036 C 
ATOM     21  C   UNL A   1      46.806  32.418  26.667  1.00  0.00     0.165 C 
ATOM     22  C   UNL A   1      44.808  33.594  26.483  1.00  0.00     0.160 C 
ATOM     23  O   UNL A   1      46.019  33.252  25.792  1.00  0.00    -0.381 OA
ENDBRANCH  18  19
ENDBRANCH  15  18
ENDBRANCH  11  12
ENDBRANCH   7  11
ENDBRANCH   3   6
ENDBRANCH   1   2
BRANCH   1  24
ATOM     24  C   UNL A   1      41.878  21.567  25.919  1.00  0.00     0.042 C 
BRANCH  24  25
ATOM     25  C   UNL A   1      40.646  20.998  26.651  1.00  0.00     0.118 C 
BRANCH  25  26
ATOM     26  N   UNL A   1      39.349  21.534  26.259  1.00  0.00    -0.352 N 
ATOM     27  C   UNL A   1      38.799  22.792  26.116  1.00  0.00     0.251 C 
ATOM     28  H   UNL A   1      38.704  20.822  26.043  1.00  0.00     0.163 HD
ATOM     29  O   UNL A   1      37.779  22.862  25.423  1.00  0.00    -0.269 OA
BRANCH  27  30
ATOM     30  C   UNL A   1      39.206  24.037  26.851  1.00  0.00     0.039 A 
ATOM     31  C   UNL A   1      39.944  24.982  26.103  1.00  0.00     0.014 A 
ATOM     32  C   UNL A   1      38.947  24.352  28.181  1.00  0.00     0.014 A 
ATOM     33  C   UNL A   1      40.363  26.214  26.645  1.00  0.00     0.010 A 
ATOM     34  C   UNL A   1      39.327  25.614  28.712  1.00  0.00     0.010 A 
ATOM     35  C   UNL A   1      40.035  26.572  27.957  1.00  0.00    -0.014 A 
BRANCH  35  36
ATOM     36  C   UNL A   1      40.470  27.893  28.547  1.00  0.00     0.031 A 
ATOM     37  C   UNL A   1      41.900  28.088  29.016  1.00  0.00     0.074 A 
ATOM     38  C   UNL A   1      39.624  28.942  28.698  1.00  0.00     0.049 A 
ATOM     39  N   UNL A   1      42.441  29.114  29.631  1.00  0.00    -0.248 NA
ATOM     40  C   UNL A   1      42.835  26.980  28.771  1.00  0.00     0.031 C 
ATOM     41  C   UNL A   1      38.216  28.976  28.303  1.00  0.00     0.029 A 
ATOM     42  N   UNL A   1      39.833  30.197  29.242  1.00  0.00    -0.354 N 
ATOM     43  C   UNL A   1      43.763  28.759  29.881  1.00  0.00     0.074 A 
ATOM     44  C   UNL A   1      43.933  27.412  29.376  1.00  0.00     0.031 C 
ATOM     45  C   UNL A   1      37.693  30.175  28.613  1.00  0.00     0.029 A 
ATOM     46  C   UNL A   1      38.713  31.001  29.258  1.00  0.00     0.049 A 
ATOM     47  H   UNL A   1      40.707  30.490  29.587  1.00  0.00     0.167 HD
ATOM     48  C   UNL A   1      44.759  29.477  30.457  1.00  0.00     0.031 A 
ATOM     49  C   UNL A   1      38.509  32.249  29.737  1.00  0.00     0.031 A 
ATOM     50  C   UNL A   1      44.657  30.839  30.914  1.00  0.00     0.049 A 
ATOM     51  C   UNL A   1      39.632  33.024  30.388  1.00  0.00     0.074 A 
ATOM     52  C   UNL A   1      45.658  31.639  31.442  1.00  0.00     0.029 A 
ATOM     53  N   UNL A   1      43.507  31.605  30.896  1.00  0.00    -0.354 N 
ATOM     54  N   UNL A   1      40.883  32.678  30.563  1.00  0.00    -0.248 NA
ATOM     55  C   UNL A   1      39.311  34.371  30.898  1.00  0.00     0.031 C 
ATOM     56  C   UNL A   1      45.104  32.875  31.784  1.00  0.00     0.029 A 
ATOM     57  C   UNL A   1      43.769  32.861  31.421  1.00  0.00     0.049 A 
ATOM     58  H   UNL A   1      42.631  31.305  30.559  1.00  0.00     0.167 HD
ATOM     59  C   UNL A   1      41.500  33.774  31.163  1.00  0.00     0.074 A 
ATOM     60  C   UNL A   1      40.495  34.800  31.315  1.00  0.00     0.031 C 
ATOM     61  C   UNL A   1      42.791  33.909  31.554  1.00  0.00     0.031 A 
BRANCH  48  62
ATOM     62  C   UNL A   1      46.092  28.799  30.636  1.00  0.00    -0.014 A 
ATOM     63  C   UNL A   1      46.387  28.078  31.805  1.00  0.00     0.010 A 
ATOM     64  C   UNL A   1      47.023  28.814  29.580  1.00  0.00     0.010 A 
ATOM     65  C   UNL A   1      47.607  27.409  31.929  1.00  0.00     0.020 A 
ATOM     66  C   UNL A   1      48.232  28.123  29.691  1.00  0.00     0.020 A 
ATOM     67  C   UNL A   1      48.521  27.437  30.871  1.00  0.00     0.054 A 
BRANCH  67  68
ATOM     68  S   UNL A   1      50.079  26.524  31.045  1.00  0.00     0.124 S 
ATOM     69  O   UNL A   1      51.067  27.581  30.843  1.00  0.00    -0.237 OA
ATOM     70  O   UNL A   1      49.992  25.997  32.403  1.00  0.00    -0.237 OA
ATOM     71  O   UNL A   1      50.012  25.522  29.984  1.00  0.00    -0.744 OA
ENDBRANCH  67  68
ENDBRANCH  48  62
BRANCH  49  72
ATOM     72  C   UNL A   1      37.160  32.885  29.653  1.00  0.00    -0.014 A 
ATOM     73  C   UNL A   1      36.743  33.530  28.473  1.00  0.00     0.010 A 
ATOM     74  C   UNL A   1      36.326  32.932  30.785  1.00  0.00     0.010 A 
ATOM     75  C   UNL A   1      35.541  34.245  28.440  1.00  0.00     0.020 A 
ATOM     76  C   UNL A   1      35.110  33.620  30.746  1.00  0.00     0.020 A 
ATOM     77  C   UNL A   1      34.735  34.291  29.580  1.00  0.00     0.054 A 
BRANCH  77  78
ATOM     78  S   UNL A   1      33.176  35.218  29.519  1.00  0.00     0.124 S 
ATOM     79  O   UNL A   1      33.632  36.553  29.145  1.00  0.00    -0.237 OA
ATOM     80  O   UNL A   1      32.417  34.498  28.499  1.00  0.00    -0.237 OA
ATOM     81  O   UNL A   1      32.653  35.090  30.878  1.00  0.00    -0.744 OA
ENDBRANCH  77  78
ENDBRANCH  49  72
BRANCH  61  82
ATOM     82  C   UNL A   1      43.236  35.229  32.132  1.00  0.00    -0.014 A 
ATOM     83  C   UNL A   1      43.059  35.535  33.493  1.00  0.00     0.010 A 
ATOM     84  C   UNL A   1      43.912  36.153  31.311  1.00  0.00     0.010 A 
ATOM     85  C   UNL A   1      43.529  36.745  34.017  1.00  0.00     0.020 A 
ATOM     86  C   UNL A   1      44.405  37.353  31.836  1.00  0.00     0.020 A 
ATOM     87  C   UNL A   1      44.200  37.647  33.185  1.00  0.00     0.054 A 
BRANCH  87  88
ATOM     88  S   UNL A   1      44.851  39.184  33.899  1.00  0.00     0.124 S 
ATOM     89  O   UNL A   1      43.794  39.559  34.833  1.00  0.00    -0.237 OA
ATOM     90  O   UNL A   1      46.105  38.750  34.512  1.00  0.00    -0.237 OA
ATOM     91  O   UNL A   1      45.004  40.066  32.744  1.00  0.00    -0.744 OA
ENDBRANCH  87  88
ENDBRANCH  61  82
ENDBRANCH  35  36
ENDBRANCH  27  30
ENDBRANCH  25  26
ENDBRANCH  24  25
ENDBRANCH   1  24
TORSDOF 17
ENDMDL
