MODEL 1
REMARK VINA RESULT:     -11.8      0.000      0.000
REMARK SMILES CCC[NH+]1CCN(c2cc(C(=O)NCCCNC(=O)c3ccc(-c4c5nc(c(-c6ccc(S(=O)(=O)[O-])cc6)c6ccc([nH]6)c(-c6ccc(S(=O)(=O)[O-])cc6)c6nc(c(-c7ccc(S(=O)(=O)[O-])cc7)c7ccc4[nH]7)C=C6)C=C5)cc3)c3cc(NC(=O)c4ccc(F)cc4)ccc3n2)CC1
REMARK SMILES IDX 15 1 14 2 13 3 11 4 12 5 10 7 8 8 9 9 96 10 95 11 80 12
REMARK SMILES IDX 94 13 81 14 93 15 82 16 7 17 4 18 5 19 98 20 6 22 97 23 3 24
REMARK SMILES IDX 2 25 1 26 83 27 84 28 85 30 86 31 87 32 92 33 88 34 91 35
REMARK SMILES IDX 89 36 90 37 16 38 17 39 18 40 19 42 20 43 21 44 79 45 22 46
REMARK SMILES IDX 78 47 23 48 24 49 25 50 72 51 26 52 77 53 71 54 73 55 27 56
REMARK SMILES IDX 76 57 70 58 69 59 28 61 58 62 39 63 57 64 40 65 43 66 56 67
REMARK SMILES IDX 74 68 41 69 42 70 55 72 75 73 44 74 29 75 30 76 38 77 31 78
REMARK SMILES IDX 37 79 32 80 33 81 34 82 35 83 36 84 59 85 60 86 68 87 61 88
REMARK SMILES IDX 67 89 62 90 63 91 64 92 65 93 66 94 45 95 46 96 54 97 47 98
REMARK SMILES IDX 53 99 48 100 49 101 50 102 51 103 52 104
REMARK H PARENT 13 6 4 21 83 29 17 41 73 60 43 71
REMARK Flexibility Score: inf
ROOT
ATOM      1  C   UNL A   1      38.813  23.470  26.294  1.00  0.00     0.042 C 
ENDROOT
BRANCH   1   2
ATOM      2  C   UNL A   1      37.390  23.525  25.770  1.00  0.00     0.118 C 
BRANCH   2   3
ATOM      3  N   UNL A   1      37.200  23.395  24.337  1.00  0.00    -0.352 N 
ATOM      4  C   UNL A   1      36.104  23.067  23.565  1.00  0.00     0.252 C 
ATOM      5  O   UNL A   1      36.243  23.213  22.345  1.00  0.00    -0.269 OA
ATOM      6  H   UNL A   1      38.014  23.575  23.812  1.00  0.00     0.163 HD
BRANCH   4   7
ATOM      7  C   UNL A   1      34.800  22.490  24.048  1.00  0.00     0.052 A 
ATOM      8  C   UNL A   1      33.740  20.455  24.827  1.00  0.00     0.130 A 
ATOM      9  C   UNL A   1      34.880  21.152  24.448  1.00  0.00     0.061 A 
ATOM     10  N   UNL A   1      32.549  21.069  24.928  1.00  0.00    -0.231 NA
ATOM     11  C   UNL A   1      32.435  22.345  24.545  1.00  0.00     0.074 A 
ATOM     12  C   UNL A   1      33.515  23.068  24.014  1.00  0.00     0.015 A 
ATOM     13  C   UNL A   1      31.182  22.951  24.611  1.00  0.00     0.031 A 
ATOM     14  C   UNL A   1      33.209  24.271  23.373  1.00  0.00     0.037 A 
ATOM     15  C   UNL A   1      30.928  24.199  24.030  1.00  0.00     0.028 A 
ATOM     16  C   UNL A   1      31.935  24.817  23.308  1.00  0.00     0.042 A 
BRANCH   8  17
ATOM     17  N   UNL A   1      33.809  19.099  25.054  1.00  0.00    -0.345 N 
ATOM     18  N   UNL A   1      33.123  16.403  24.120  1.00  0.00    -0.332 N 
ATOM     19  C   UNL A   1      32.111  17.386  24.578  1.00  0.00     0.284 C 
ATOM     20  C   UNL A   1      34.235  17.179  23.505  1.00  0.00     0.284 C 
ATOM     21  H   UNL A   1      32.690  15.769  23.449  1.00  0.00     0.348 HD
ATOM     22  C   UNL A   1      32.639  18.416  25.598  1.00  0.00     0.179 C 
ATOM     23  C   UNL A   1      34.840  18.295  24.391  1.00  0.00     0.179 C 
BRANCH  18  24
ATOM     24  C   UNL A   1      33.624  15.533  25.199  1.00  0.00     0.262 C 
BRANCH  24  25
ATOM     25  C   UNL A   1      32.712  14.350  25.559  1.00  0.00     0.058 C 
ATOM     26  C   UNL A   1      32.061  14.482  26.927  1.00  0.00     0.010 C 
ENDBRANCH  24  25
ENDBRANCH  18  24
ENDBRANCH   8  17
BRANCH  16  27
ATOM     27  N   UNL A   1      31.643  25.941  22.518  1.00  0.00    -0.322 N 
ATOM     28  C   UNL A   1      31.568  27.287  22.844  1.00  0.00     0.255 C 
ATOM     29  H   UNL A   1      31.460  25.738  21.572  1.00  0.00     0.170 HD
ATOM     30  O   UNL A   1      31.059  28.069  22.044  1.00  0.00    -0.269 OA
BRANCH  28  31
ATOM     31  C   UNL A   1      32.114  27.828  24.126  1.00  0.00     0.040 A 
ATOM     32  C   UNL A   1      31.260  27.883  25.232  1.00  0.00     0.017 A 
ATOM     33  C   UNL A   1      33.458  28.203  24.284  1.00  0.00     0.017 A 
ATOM     34  C   UNL A   1      31.764  28.183  26.502  1.00  0.00     0.040 A 
ATOM     35  C   UNL A   1      33.971  28.444  25.563  1.00  0.00     0.040 A 
ATOM     36  C   UNL A   1      33.123  28.413  26.663  1.00  0.00     0.123 A 
ATOM     37  F   UNL A   1      33.621  28.603  27.891  1.00  0.00    -0.207 F 
ENDBRANCH  28  31
ENDBRANCH  16  27
ENDBRANCH   4   7
ENDBRANCH   2   3
ENDBRANCH   1   2
BRANCH   1  38
ATOM     38  C   UNL A   1      39.366  22.073  26.571  1.00  0.00     0.118 C 
BRANCH  38  39
ATOM     39  N   UNL A   1      40.592  21.717  25.852  1.00  0.00    -0.352 N 
ATOM     40  C   UNL A   1      41.869  22.238  25.857  1.00  0.00     0.251 C 
ATOM     41  H   UNL A   1      40.482  20.951  25.243  1.00  0.00     0.163 HD
ATOM     42  O   UNL A   1      42.750  21.747  25.155  1.00  0.00    -0.269 OA
BRANCH  40  43
ATOM     43  C   UNL A   1      42.195  23.389  26.705  1.00  0.00     0.039 A 
ATOM     44  C   UNL A   1      42.623  24.601  26.149  1.00  0.00     0.014 A 
ATOM     45  C   UNL A   1      42.071  23.243  28.079  1.00  0.00     0.014 A 
ATOM     46  C   UNL A   1      42.818  25.704  26.985  1.00  0.00     0.010 A 
ATOM     47  C   UNL A   1      42.110  24.362  28.877  1.00  0.00     0.010 A 
ATOM     48  C   UNL A   1      42.508  25.599  28.347  1.00  0.00    -0.014 A 
BRANCH  48  49
ATOM     49  C   UNL A   1      42.610  26.713  29.315  1.00  0.00     0.031 A 
ATOM     50  C   UNL A   1      43.696  26.634  30.357  1.00  0.00     0.074 A 
ATOM     51  C   UNL A   1      41.618  27.619  29.390  1.00  0.00     0.049 A 
ATOM     52  N   UNL A   1      43.779  27.234  31.512  1.00  0.00    -0.248 NA
ATOM     53  C   UNL A   1      44.778  25.663  30.103  1.00  0.00     0.031 C 
ATOM     54  C   UNL A   1      40.488  27.729  28.464  1.00  0.00     0.029 A 
ATOM     55  N   UNL A   1      41.380  28.596  30.320  1.00  0.00    -0.354 N 
ATOM     56  C   UNL A   1      44.873  26.657  32.149  1.00  0.00     0.074 A 
ATOM     57  C   UNL A   1      45.377  25.618  31.283  1.00  0.00     0.031 C 
ATOM     58  C   UNL A   1      39.684  28.727  28.864  1.00  0.00     0.029 A 
ATOM     59  C   UNL A   1      40.212  29.290  30.100  1.00  0.00     0.049 A 
ATOM     60  H   UNL A   1      41.985  28.784  31.073  1.00  0.00     0.167 HD
ATOM     61  C   UNL A   1      45.418  26.986  33.343  1.00  0.00     0.031 A 
ATOM     62  C   UNL A   1      39.634  30.261  30.831  1.00  0.00     0.031 A 
ATOM     63  C   UNL A   1      44.931  28.079  34.140  1.00  0.00     0.049 A 
ATOM     64  C   UNL A   1      40.316  30.687  32.100  1.00  0.00     0.074 A 
ATOM     65  C   UNL A   1      45.451  28.598  35.310  1.00  0.00     0.029 A 
ATOM     66  N   UNL A   1      43.815  28.842  33.819  1.00  0.00    -0.354 N 
ATOM     67  N   UNL A   1      41.383  30.174  32.671  1.00  0.00    -0.248 NA
ATOM     68  C   UNL A   1      39.735  31.828  32.815  1.00  0.00     0.031 C 
ATOM     69  C   UNL A   1      44.631  29.658  35.711  1.00  0.00     0.029 A 
ATOM     70  C   UNL A   1      43.630  29.830  34.765  1.00  0.00     0.049 A 
ATOM     71  H   UNL A   1      43.241  28.699  33.032  1.00  0.00     0.167 HD
ATOM     72  C   UNL A   1      41.620  30.949  33.798  1.00  0.00     0.074 A 
ATOM     73  C   UNL A   1      40.592  31.974  33.818  1.00  0.00     0.031 C 
ATOM     74  C   UNL A   1      42.594  30.832  34.735  1.00  0.00     0.031 A 
BRANCH  61  75
ATOM     75  C   UNL A   1      46.599  26.181  33.828  1.00  0.00    -0.014 A 
ATOM     76  C   UNL A   1      46.421  25.013  34.594  1.00  0.00     0.010 A 
ATOM     77  C   UNL A   1      47.908  26.586  33.508  1.00  0.00     0.010 A 
ATOM     78  C   UNL A   1      47.522  24.302  35.078  1.00  0.00     0.020 A 
ATOM     79  C   UNL A   1      49.014  25.856  33.959  1.00  0.00     0.020 A 
ATOM     80  C   UNL A   1      48.813  24.730  34.759  1.00  0.00     0.054 A 
BRANCH  80  81
ATOM     81  S   UNL A   1      50.222  23.771  35.382  1.00  0.00     0.124 S 
ATOM     82  O   UNL A   1      50.603  24.532  36.570  1.00  0.00    -0.237 OA
ATOM     83  O   UNL A   1      49.629  22.461  35.639  1.00  0.00    -0.237 OA
ATOM     84  O   UNL A   1      51.182  23.812  34.283  1.00  0.00    -0.744 OA
ENDBRANCH  80  81
ENDBRANCH  61  75
BRANCH  62  85
ATOM     85  C   UNL A   1      38.390  30.919  30.344  1.00  0.00    -0.014 A 
ATOM     86  C   UNL A   1      38.475  32.053  29.518  1.00  0.00     0.010 A 
ATOM     87  C   UNL A   1      37.120  30.395  30.650  1.00  0.00     0.010 A 
ATOM     88  C   UNL A   1      37.320  32.659  29.017  1.00  0.00     0.020 A 
ATOM     89  C   UNL A   1      35.961  30.982  30.129  1.00  0.00     0.020 A 
ATOM     90  C   UNL A   1      36.068  32.117  29.322  1.00  0.00     0.054 A 
BRANCH  90  91
ATOM     91  S   UNL A   1      34.587  32.886  28.609  1.00  0.00     0.124 S 
ATOM     92  O   UNL A   1      33.971  33.504  29.778  1.00  0.00    -0.237 OA
ATOM     93  O   UNL A   1      35.153  33.809  27.628  1.00  0.00    -0.237 OA
ATOM     94  O   UNL A   1      33.857  31.755  28.038  1.00  0.00    -0.744 OA
ENDBRANCH  90  91
ENDBRANCH  62  85
BRANCH  74  95
ATOM     95  C   UNL A   1      42.611  31.859  35.830  1.00  0.00    -0.014 A 
ATOM     96  C   UNL A   1      41.945  31.634  37.046  1.00  0.00     0.010 A 
ATOM     97  C   UNL A   1      43.365  33.034  35.658  1.00  0.00     0.010 A 
ATOM     98  C   UNL A   1      42.008  32.584  38.065  1.00  0.00     0.020 A 
ATOM     99  C   UNL A   1      43.454  33.972  36.687  1.00  0.00     0.020 A 
ATOM    100  C   UNL A   1      42.765  33.746  37.879  1.00  0.00     0.054 A 
BRANCH 100 101
ATOM    101  S   UNL A   1      42.875  34.938  39.239  1.00  0.00     0.124 S 
ATOM    102  O   UNL A   1      41.539  35.529  39.232  1.00  0.00    -0.237 OA
ATOM    103  O   UNL A   1      43.180  34.087  40.386  1.00  0.00    -0.237 OA
ATOM    104  O   UNL A   1      43.955  35.833  38.829  1.00  0.00    -0.744 OA
ENDBRANCH 100 101
ENDBRANCH  74  95
ENDBRANCH  48  49
ENDBRANCH  40  43
ENDBRANCH  38  39
ENDBRANCH   1  38
TORSDOF 18
ENDMDL
MODEL 2
REMARK VINA RESULT:     -11.4      1.598      2.225
REMARK SMILES CCC[NH+]1CCN(c2cc(C(=O)NCCCNC(=O)c3ccc(-c4c5nc(c(-c6ccc(S(=O)(=O)[O-])cc6)c6ccc([nH]6)c(-c6ccc(S(=O)(=O)[O-])cc6)c6nc(c(-c7ccc(S(=O)(=O)[O-])cc7)c7ccc4[nH]7)C=C6)C=C5)cc3)c3cc(NC(=O)c4ccc(F)cc4)ccc3n2)CC1
REMARK SMILES IDX 15 1 14 2 13 3 11 4 12 5 10 7 8 8 9 9 96 10 95 11 80 12
REMARK SMILES IDX 94 13 81 14 93 15 82 16 7 17 4 18 5 19 98 20 6 22 97 23 3 24
REMARK SMILES IDX 2 25 1 26 83 27 84 28 85 30 86 31 87 32 92 33 88 34 91 35
REMARK SMILES IDX 89 36 90 37 16 38 17 39 18 40 19 42 20 43 21 44 79 45 22 46
REMARK SMILES IDX 78 47 23 48 24 49 25 50 72 51 26 52 77 53 71 54 73 55 27 56
REMARK SMILES IDX 76 57 70 58 69 59 28 61 58 62 39 63 57 64 40 65 43 66 56 67
REMARK SMILES IDX 74 68 41 69 42 70 55 72 75 73 44 74 29 75 30 76 38 77 31 78
REMARK SMILES IDX 37 79 32 80 33 81 34 82 35 83 36 84 59 85 60 86 68 87 61 88
REMARK SMILES IDX 67 89 62 90 63 91 64 92 65 93 66 94 45 95 46 96 54 97 47 98
REMARK SMILES IDX 53 99 48 100 49 101 50 102 51 103 52 104
REMARK H PARENT 13 6 4 21 83 29 17 41 73 60 43 71
REMARK Flexibility Score: inf
ROOT
ATOM      1  C   UNL A   1      38.414  24.420  26.576  1.00  0.00     0.042 C 
ENDROOT
BRANCH   1   2
ATOM      2  C   UNL A   1      37.188  23.764  25.969  1.00  0.00     0.118 C 
BRANCH   2   3
ATOM      3  N   UNL A   1      37.220  23.473  24.547  1.00  0.00    -0.352 N 
ATOM      4  C   UNL A   1      36.230  23.199  23.626  1.00  0.00     0.252 C 
ATOM      5  O   UNL A   1      36.591  23.164  22.444  1.00  0.00    -0.269 OA
ATOM      6  H   UNL A   1      38.128  23.470  24.165  1.00  0.00     0.163 HD
BRANCH   4   7
ATOM      7  C   UNL A   1      34.789  22.875  23.920  1.00  0.00     0.052 A 
ATOM      8  C   UNL A   1      33.255  21.052  24.366  1.00  0.00     0.130 A 
ATOM      9  C   UNL A   1      34.549  21.520  24.174  1.00  0.00     0.061 A 
ATOM     10  N   UNL A   1      32.211  21.896  24.424  1.00  0.00    -0.231 NA
ATOM     11  C   UNL A   1      32.403  23.195  24.177  1.00  0.00     0.074 A 
ATOM     12  C   UNL A   1      33.661  23.715  23.831  1.00  0.00     0.015 A 
ATOM     13  C   UNL A   1      31.301  24.047  24.194  1.00  0.00     0.031 A 
ATOM     14  C   UNL A   1      33.682  25.008  23.303  1.00  0.00     0.037 A 
ATOM     15  C   UNL A   1      31.374  25.368  23.734  1.00  0.00     0.028 A 
ATOM     16  C   UNL A   1      32.561  25.817  23.181  1.00  0.00     0.042 A 
BRANCH   8  17
ATOM     17  N   UNL A   1      33.020  19.699  24.446  1.00  0.00    -0.345 N 
ATOM     18  N   UNL A   1      33.676  17.018  23.449  1.00  0.00    -0.332 N 
ATOM     19  C   UNL A   1      32.996  18.046  22.626  1.00  0.00     0.284 C 
ATOM     20  C   UNL A   1      34.579  17.740  24.388  1.00  0.00     0.284 C 
ATOM     21  H   UNL A   1      34.196  16.391  22.835  1.00  0.00     0.348 HD
ATOM     22  C   UNL A   1      32.174  19.070  23.437  1.00  0.00     0.179 C 
ATOM     23  C   UNL A   1      33.909  18.845  25.240  1.00  0.00     0.179 C 
BRANCH  18  24
ATOM     24  C   UNL A   1      32.744  16.145  24.185  1.00  0.00     0.262 C 
BRANCH  24  25
ATOM     25  C   UNL A   1      33.313  15.516  25.466  1.00  0.00     0.058 C 
ATOM     26  C   UNL A   1      32.926  14.057  25.648  1.00  0.00     0.010 C 
ENDBRANCH  24  25
ENDBRANCH  18  24
ENDBRANCH   8  17
BRANCH  16  27
ATOM     27  N   UNL A   1      32.596  27.044  22.497  1.00  0.00    -0.322 N 
ATOM     28  C   UNL A   1      32.529  28.348  22.966  1.00  0.00     0.255 C 
ATOM     29  H   UNL A   1      32.682  26.964  21.520  1.00  0.00     0.170 HD
ATOM     30  O   UNL A   1      32.335  29.261  22.166  1.00  0.00    -0.269 OA
BRANCH  28  31
ATOM     31  C   UNL A   1      32.718  28.688  24.409  1.00  0.00     0.040 A 
ATOM     32  C   UNL A   1      33.967  28.439  24.984  1.00  0.00     0.017 A 
ATOM     33  C   UNL A   1      31.727  29.316  25.180  1.00  0.00     0.017 A 
ATOM     34  C   UNL A   1      34.269  28.922  26.262  1.00  0.00     0.040 A 
ATOM     35  C   UNL A   1      32.048  29.850  26.433  1.00  0.00     0.040 A 
ATOM     36  C   UNL A   1      33.322  29.663  26.954  1.00  0.00     0.123 A 
ATOM     37  F   UNL A   1      33.643  30.209  28.134  1.00  0.00    -0.207 F 
ENDBRANCH  28  31
ENDBRANCH  16  27
ENDBRANCH   4   7
ENDBRANCH   2   3
ENDBRANCH   1   2
BRANCH   1  38
ATOM     38  C   UNL A   1      39.552  23.476  26.960  1.00  0.00     0.118 C 
BRANCH  38  39
ATOM     39  N   UNL A   1      40.745  23.535  26.111  1.00  0.00    -0.352 N 
ATOM     40  C   UNL A   1      41.850  24.359  26.100  1.00  0.00     0.251 C 
ATOM     41  H   UNL A   1      40.760  22.846  25.408  1.00  0.00     0.163 HD
ATOM     42  O   UNL A   1      42.745  24.198  25.273  1.00  0.00    -0.269 OA
BRANCH  40  43
ATOM     43  C   UNL A   1      41.975  25.443  27.080  1.00  0.00     0.039 A 
ATOM     44  C   UNL A   1      42.375  26.728  26.692  1.00  0.00     0.014 A 
ATOM     45  C   UNL A   1      41.688  25.159  28.406  1.00  0.00     0.014 A 
ATOM     46  C   UNL A   1      42.376  27.757  27.638  1.00  0.00     0.010 A 
ATOM     47  C   UNL A   1      41.539  26.197  29.296  1.00  0.00     0.010 A 
ATOM     48  C   UNL A   1      41.904  27.502  28.932  1.00  0.00    -0.014 A 
BRANCH  48  49
ATOM     49  C   UNL A   1      41.795  28.523  29.997  1.00  0.00     0.031 A 
ATOM     50  C   UNL A   1      42.712  28.392  31.185  1.00  0.00     0.074 A 
ATOM     51  C   UNL A   1      40.754  29.376  29.995  1.00  0.00     0.049 A 
ATOM     52  N   UNL A   1      42.585  28.883  32.387  1.00  0.00    -0.248 NA
ATOM     53  C   UNL A   1      43.873  27.495  31.021  1.00  0.00     0.031 C 
ATOM     54  C   UNL A   1      39.774  29.526  28.915  1.00  0.00     0.029 A 
ATOM     55  N   UNL A   1      40.322  30.250  30.956  1.00  0.00    -0.354 N 
ATOM     56  C   UNL A   1      43.599  28.294  33.136  1.00  0.00     0.074 A 
ATOM     57  C   UNL A   1      44.286  27.364  32.272  1.00  0.00     0.031 C 
ATOM     58  C   UNL A   1      38.863  30.447  29.270  1.00  0.00     0.029 A 
ATOM     59  C   UNL A   1      39.165  30.912  30.617  1.00  0.00     0.049 A 
ATOM     60  H   UNL A   1      40.794  30.392  31.808  1.00  0.00     0.167 HD
ATOM     61  C   UNL A   1      43.937  28.532  34.424  1.00  0.00     0.031 A 
ATOM     62  C   UNL A   1      38.429  31.785  31.329  1.00  0.00     0.031 A 
ATOM     63  C   UNL A   1      43.274  29.524  35.226  1.00  0.00     0.049 A 
ATOM     64  C   UNL A   1      38.885  32.118  32.723  1.00  0.00     0.074 A 
ATOM     65  C   UNL A   1      43.579  29.951  36.504  1.00  0.00     0.029 A 
ATOM     66  N   UNL A   1      42.179  30.266  34.802  1.00  0.00    -0.354 N 
ATOM     67  N   UNL A   1      39.879  31.598  33.407  1.00  0.00    -0.248 NA
ATOM     68  C   UNL A   1      38.139  33.161  33.434  1.00  0.00     0.031 C 
ATOM     69  C   UNL A   1      42.650  30.933  36.862  1.00  0.00     0.029 A 
ATOM     70  C   UNL A   1      41.797  31.152  35.789  1.00  0.00     0.049 A 
ATOM     71  H   UNL A   1      41.740  30.174  33.925  1.00  0.00     0.167 HD
ATOM     72  C   UNL A   1      39.898  32.273  34.620  1.00  0.00     0.074 A 
ATOM     73  C   UNL A   1      38.824  33.247  34.568  1.00  0.00     0.031 C 
ATOM     74  C   UNL A   1      40.723  32.108  35.684  1.00  0.00     0.031 A 
BRANCH  61  75
ATOM     75  C   UNL A   1      45.073  27.734  35.016  1.00  0.00    -0.014 A 
ATOM     76  C   UNL A   1      46.408  28.166  34.897  1.00  0.00     0.010 A 
ATOM     77  C   UNL A   1      44.809  26.539  35.710  1.00  0.00     0.010 A 
ATOM     78  C   UNL A   1      47.456  27.396  35.407  1.00  0.00     0.020 A 
ATOM     79  C   UNL A   1      45.853  25.782  36.255  1.00  0.00     0.020 A 
ATOM     80  C   UNL A   1      47.172  26.206  36.081  1.00  0.00     0.054 A 
BRANCH  80  81
ATOM     81  S   UNL A   1      48.553  25.239  36.753  1.00  0.00     0.124 S 
ATOM     82  O   UNL A   1      47.904  23.971  37.075  1.00  0.00    -0.237 OA
ATOM     83  O   UNL A   1      49.489  25.199  35.632  1.00  0.00    -0.237 OA
ATOM     84  O   UNL A   1      48.997  26.022  37.903  1.00  0.00    -0.744 OA
ENDBRANCH  80  81
ENDBRANCH  61  75
BRANCH  62  85
ATOM     85  C   UNL A   1      37.239  32.434  30.713  1.00  0.00    -0.014 A 
ATOM     86  C   UNL A   1      37.409  33.515  29.830  1.00  0.00     0.010 A 
ATOM     87  C   UNL A   1      35.939  31.951  30.953  1.00  0.00     0.010 A 
ATOM     88  C   UNL A   1      36.307  34.109  29.209  1.00  0.00     0.020 A 
ATOM     89  C   UNL A   1      34.835  32.525  30.313  1.00  0.00     0.020 A 
ATOM     90  C   UNL A   1      35.025  33.607  29.451  1.00  0.00     0.054 A 
BRANCH  90  91
ATOM     91  S   UNL A   1      33.617  34.357  28.584  1.00  0.00     0.124 S 
ATOM     92  O   UNL A   1      32.735  34.716  29.689  1.00  0.00    -0.237 OA
ATOM     93  O   UNL A   1      34.241  35.476  27.881  1.00  0.00    -0.237 OA
ATOM     94  O   UNL A   1      33.136  33.280  27.720  1.00  0.00    -0.744 OA
ENDBRANCH  90  91
ENDBRANCH  62  85
BRANCH  74  95
ATOM     95  C   UNL A   1      40.516  33.028  36.853  1.00  0.00    -0.014 A 
ATOM     96  C   UNL A   1      39.598  32.713  37.869  1.00  0.00     0.010 A 
ATOM     97  C   UNL A   1      41.305  34.186  36.964  1.00  0.00     0.010 A 
ATOM     98  C   UNL A   1      39.451  33.561  38.966  1.00  0.00     0.020 A 
ATOM     99  C   UNL A   1      41.182  35.020  38.076  1.00  0.00     0.020 A 
ATOM    100  C   UNL A   1      40.246  34.708  39.063  1.00  0.00     0.054 A 
BRANCH 100 101
ATOM    101  S   UNL A   1      40.074  35.763  40.527  1.00  0.00     0.124 S 
ATOM    102  O   UNL A   1      40.586  34.898  41.585  1.00  0.00    -0.237 OA
ATOM    103  O   UNL A   1      40.911  36.912  40.193  1.00  0.00    -0.237 OA
ATOM    104  O   UNL A   1      38.640  36.040  40.586  1.00  0.00    -0.744 OA
ENDBRANCH 100 101
ENDBRANCH  74  95
ENDBRANCH  48  49
ENDBRANCH  40  43
ENDBRANCH  38  39
ENDBRANCH   1  38
TORSDOF 18
ENDMDL
MODEL 3
REMARK VINA RESULT:     -10.6      5.668     10.978
REMARK SMILES CCC[NH+]1CCN(c2cc(C(=O)NCCCNC(=O)c3ccc(-c4c5nc(c(-c6ccc(S(=O)(=O)[O-])cc6)c6ccc([nH]6)c(-c6ccc(S(=O)(=O)[O-])cc6)c6nc(c(-c7ccc(S(=O)(=O)[O-])cc7)c7ccc4[nH]7)C=C6)C=C5)cc3)c3cc(NC(=O)c4ccc(F)cc4)ccc3n2)CC1
REMARK SMILES IDX 15 1 14 2 13 3 11 4 12 5 10 7 8 8 9 9 96 10 95 11 80 12
REMARK SMILES IDX 94 13 81 14 93 15 82 16 7 17 4 18 5 19 98 20 6 22 97 23 3 24
REMARK SMILES IDX 2 25 1 26 83 27 84 28 85 30 86 31 87 32 92 33 88 34 91 35
REMARK SMILES IDX 89 36 90 37 16 38 17 39 18 40 19 42 20 43 21 44 79 45 22 46
REMARK SMILES IDX 78 47 23 48 24 49 25 50 72 51 26 52 77 53 71 54 73 55 27 56
REMARK SMILES IDX 76 57 70 58 69 59 28 61 58 62 39 63 57 64 40 65 43 66 56 67
REMARK SMILES IDX 74 68 41 69 42 70 55 72 75 73 44 74 29 75 30 76 38 77 31 78
REMARK SMILES IDX 37 79 32 80 33 81 34 82 35 83 36 84 59 85 60 86 68 87 61 88
REMARK SMILES IDX 67 89 62 90 63 91 64 92 65 93 66 94 45 95 46 96 54 97 47 98
REMARK SMILES IDX 53 99 48 100 49 101 50 102 51 103 52 104
REMARK H PARENT 13 6 4 21 83 29 17 41 73 60 43 71
REMARK Flexibility Score: inf
ROOT
ATOM      1  C   UNL A   1      36.932  30.110  31.587  1.00  0.00     0.042 C 
ENDROOT
BRANCH   1   2
ATOM      2  C   UNL A   1      36.153  29.587  30.394  1.00  0.00     0.118 C 
BRANCH   2   3
ATOM      3  N   UNL A   1      36.798  29.650  29.095  1.00  0.00    -0.352 N 
ATOM      4  C   UNL A   1      36.315  29.867  27.821  1.00  0.00     0.252 C 
ATOM      5  O   UNL A   1      37.169  30.028  26.942  1.00  0.00    -0.269 OA
ATOM      6  H   UNL A   1      37.772  29.510  29.130  1.00  0.00     0.163 HD
BRANCH   4   7
ATOM      7  C   UNL A   1      34.873  29.856  27.389  1.00  0.00     0.052 A 
ATOM      8  C   UNL A   1      33.182  28.521  26.279  1.00  0.00     0.130 A 
ATOM      9  C   UNL A   1      34.458  28.651  26.813  1.00  0.00     0.061 A 
ATOM     10  N   UNL A   1      32.274  29.505  26.395  1.00  0.00    -0.231 NA
ATOM     11  C   UNL A   1      32.640  30.674  26.932  1.00  0.00     0.074 A 
ATOM     12  C   UNL A   1      33.954  30.924  27.360  1.00  0.00     0.015 A 
ATOM     13  C   UNL A   1      31.699  31.699  27.001  1.00  0.00     0.031 A 
ATOM     14  C   UNL A   1      34.287  32.257  27.612  1.00  0.00     0.037 A 
ATOM     15  C   UNL A   1      32.051  33.011  27.340  1.00  0.00     0.028 A 
ATOM     16  C   UNL A   1      33.387  33.312  27.544  1.00  0.00     0.042 A 
BRANCH   8  17
ATOM     17  N   UNL A   1      32.848  27.391  25.568  1.00  0.00    -0.345 N 
ATOM     18  N   UNL A   1      32.026  24.575  25.656  1.00  0.00    -0.332 N 
ATOM     19  C   UNL A   1      33.357  25.047  26.107  1.00  0.00     0.284 C 
ATOM     20  C   UNL A   1      31.060  25.675  25.928  1.00  0.00     0.284 C 
ATOM     21  H   UNL A   1      31.783  23.727  26.167  1.00  0.00     0.348 HD
ATOM     22  C   UNL A   1      33.845  26.336  25.414  1.00  0.00     0.179 C 
ATOM     23  C   UNL A   1      31.439  27.056  25.340  1.00  0.00     0.179 C 
BRANCH  18  24
ATOM     24  C   UNL A   1      31.993  24.187  24.235  1.00  0.00     0.262 C 
BRANCH  24  25
ATOM     25  C   UNL A   1      32.659  22.842  23.910  1.00  0.00     0.058 C 
ATOM     26  C   UNL A   1      32.259  21.723  24.859  1.00  0.00     0.010 C 
ENDBRANCH  24  25
ENDBRANCH  18  24
ENDBRANCH   8  17
BRANCH  16  27
ATOM     27  N   UNL A   1      33.797  34.652  27.645  1.00  0.00    -0.322 N 
ATOM     28  C   UNL A   1      33.930  35.480  28.750  1.00  0.00     0.255 C 
ATOM     29  H   UNL A   1      34.028  35.074  26.787  1.00  0.00     0.170 HD
ATOM     30  O   UNL A   1      34.072  36.689  28.576  1.00  0.00    -0.269 OA
BRANCH  28  31
ATOM     31  C   UNL A   1      33.940  34.951  30.148  1.00  0.00     0.040 A 
ATOM     32  C   UNL A   1      34.974  34.085  30.514  1.00  0.00     0.017 A 
ATOM     33  C   UNL A   1      33.009  35.349  31.120  1.00  0.00     0.017 A 
ATOM     34  C   UNL A   1      35.154  33.723  31.853  1.00  0.00     0.040 A 
ATOM     35  C   UNL A   1      33.225  35.035  32.466  1.00  0.00     0.040 A 
ATOM     36  C   UNL A   1      34.306  34.240  32.823  1.00  0.00     0.123 A 
ATOM     37  F   UNL A   1      34.537  33.973  34.114  1.00  0.00    -0.207 F 
ENDBRANCH  28  31
ENDBRANCH  16  27
ENDBRANCH   4   7
ENDBRANCH   2   3
ENDBRANCH   1   2
BRANCH   1  38
ATOM     38  C   UNL A   1      37.456  29.051  32.554  1.00  0.00     0.118 C 
BRANCH  38  39
ATOM     39  N   UNL A   1      37.992  29.553  33.823  1.00  0.00    -0.352 N 
ATOM     40  C   UNL A   1      39.264  29.887  34.239  1.00  0.00     0.251 C 
ATOM     41  H   UNL A   1      37.305  29.679  34.517  1.00  0.00     0.163 HD
ATOM     42  O   UNL A   1      39.461  30.306  35.378  1.00  0.00    -0.269 OA
BRANCH  40  43
ATOM     43  C   UNL A   1      40.402  29.748  33.325  1.00  0.00     0.039 A 
ATOM     44  C   UNL A   1      41.368  28.753  33.517  1.00  0.00     0.014 A 
ATOM     45  C   UNL A   1      40.498  30.635  32.263  1.00  0.00     0.014 A 
ATOM     46  C   UNL A   1      42.375  28.587  32.562  1.00  0.00     0.010 A 
ATOM     47  C   UNL A   1      41.390  30.373  31.251  1.00  0.00     0.010 A 
ATOM     48  C   UNL A   1      42.354  29.364  31.397  1.00  0.00    -0.014 A 
BRANCH  48  49
ATOM     49  C   UNL A   1      43.325  29.234  30.289  1.00  0.00     0.031 A 
ATOM     50  C   UNL A   1      43.243  27.998  29.431  1.00  0.00     0.074 A 
ATOM     51  C   UNL A   1      44.373  30.075  30.223  1.00  0.00     0.049 A 
ATOM     52  N   UNL A   1      44.156  27.453  28.676  1.00  0.00    -0.248 NA
ATOM     53  C   UNL A   1      41.995  27.215  29.528  1.00  0.00     0.031 C 
ATOM     54  C   UNL A   1      44.571  31.263  31.060  1.00  0.00     0.029 A 
ATOM     55  N   UNL A   1      45.496  30.033  29.440  1.00  0.00    -0.354 N 
ATOM     56  C   UNL A   1      43.622  26.232  28.274  1.00  0.00     0.074 A 
ATOM     57  C   UNL A   1      42.340  26.090  28.922  1.00  0.00     0.031 C 
ATOM     58  C   UNL A   1      45.737  31.843  30.735  1.00  0.00     0.029 A 
ATOM     59  C   UNL A   1      46.392  31.042  29.709  1.00  0.00     0.049 A 
ATOM     60  H   UNL A   1      45.648  29.346  28.751  1.00  0.00     0.167 HD
ATOM     61  C   UNL A   1      44.151  25.326  27.419  1.00  0.00     0.031 A 
ATOM     62  C   UNL A   1      47.611  31.276  29.189  1.00  0.00     0.031 A 
ATOM     63  C   UNL A   1      45.397  25.543  26.737  1.00  0.00     0.049 A 
ATOM     64  C   UNL A   1      48.133  30.313  28.159  1.00  0.00     0.074 A 
ATOM     65  C   UNL A   1      45.998  24.770  25.763  1.00  0.00     0.029 A 
ATOM     66  N   UNL A   1      46.219  26.644  26.944  1.00  0.00    -0.354 N 
ATOM     67  N   UNL A   1      47.598  29.188  27.742  1.00  0.00    -0.248 NA
ATOM     68  C   UNL A   1      49.407  30.654  27.518  1.00  0.00     0.031 C 
ATOM     69  C   UNL A   1      47.199  25.389  25.402  1.00  0.00     0.029 A 
ATOM     70  C   UNL A   1      47.321  26.574  26.116  1.00  0.00     0.049 A 
ATOM     71  H   UNL A   1      46.041  27.368  27.587  1.00  0.00     0.167 HD
ATOM     72  C   UNL A   1      48.456  28.700  26.765  1.00  0.00     0.074 A 
ATOM     73  C   UNL A   1      49.536  29.661  26.646  1.00  0.00     0.031 C 
ATOM     74  C   UNL A   1      48.367  27.563  26.030  1.00  0.00     0.031 A 
BRANCH  61  75
ATOM     75  C   UNL A   1      43.376  24.056  27.167  1.00  0.00    -0.014 A 
ATOM     76  C   UNL A   1      42.674  23.857  25.963  1.00  0.00     0.010 A 
ATOM     77  C   UNL A   1      43.351  23.040  28.139  1.00  0.00     0.010 A 
ATOM     78  C   UNL A   1      41.920  22.699  25.758  1.00  0.00     0.020 A 
ATOM     79  C   UNL A   1      42.627  21.861  27.924  1.00  0.00     0.020 A 
ATOM     80  C   UNL A   1      41.899  21.708  26.743  1.00  0.00     0.054 A 
BRANCH  80  81
ATOM     81  S   UNL A   1      40.930  20.204  26.439  1.00  0.00     0.124 S 
ATOM     82  O   UNL A   1      41.786  19.477  25.505  1.00  0.00    -0.237 OA
ATOM     83  O   UNL A   1      40.819  19.620  27.773  1.00  0.00    -0.237 OA
ATOM     84  O   UNL A   1      39.680  20.706  25.876  1.00  0.00    -0.744 OA
ENDBRANCH  80  81
ENDBRANCH  61  75
BRANCH  62  85
ATOM     85  C   UNL A   1      48.372  32.490  29.591  1.00  0.00    -0.014 A 
ATOM     86  C   UNL A   1      48.066  33.734  29.010  1.00  0.00     0.010 A 
ATOM     87  C   UNL A   1      49.363  32.432  30.589  1.00  0.00     0.010 A 
ATOM     88  C   UNL A   1      48.741  34.892  29.406  1.00  0.00     0.020 A 
ATOM     89  C   UNL A   1      50.023  33.593  31.008  1.00  0.00     0.020 A 
ATOM     90  C   UNL A   1      49.713  34.815  30.407  1.00  0.00     0.054 A 
BRANCH  90  91
ATOM     91  S   UNL A   1      50.531  36.343  30.947  1.00  0.00     0.124 S 
ATOM     92  O   UNL A   1      51.863  36.197  30.369  1.00  0.00    -0.237 OA
ATOM     93  O   UNL A   1      49.691  37.378  30.348  1.00  0.00    -0.237 OA
ATOM     94  O   UNL A   1      50.467  36.268  32.405  1.00  0.00    -0.744 OA
ENDBRANCH  90  91
ENDBRANCH  62  85
BRANCH  74  95
ATOM     95  C   UNL A   1      49.444  27.326  25.011  1.00  0.00    -0.014 A 
ATOM     96  C   UNL A   1      49.232  27.616  23.653  1.00  0.00     0.010 A 
ATOM     97  C   UNL A   1      50.705  26.872  25.437  1.00  0.00     0.010 A 
ATOM     98  C   UNL A   1      50.260  27.427  22.730  1.00  0.00     0.020 A 
ATOM     99  C   UNL A   1      51.744  26.711  24.520  1.00  0.00     0.020 A 
ATOM    100  C   UNL A   1      51.510  26.978  23.170  1.00  0.00     0.054 A 
BRANCH 100 101
ATOM    101  S   UNL A   1      52.844  26.794  21.957  1.00  0.00     0.124 S 
ATOM    102  O   UNL A   1      52.226  25.926  20.958  1.00  0.00    -0.237 OA
ATOM    103  O   UNL A   1      53.082  28.171  21.532  1.00  0.00    -0.237 OA
ATOM    104  O   UNL A   1      53.929  26.188  22.725  1.00  0.00    -0.744 OA
ENDBRANCH 100 101
ENDBRANCH  74  95
ENDBRANCH  48  49
ENDBRANCH  40  43
ENDBRANCH  38  39
ENDBRANCH   1  38
TORSDOF 18
ENDMDL
