MODEL 1
REMARK VINA RESULT:     -11.6      0.000      0.000
REMARK SMILES O=C1OC(c2ccc(Cl)cc2)=N/C1=C/Nc1ccc(O)c(C(=O)NCCCNC(=O)c2ccc(-c3c4nc(c(-c5ccc(S(=O)(=O)[O-])cc5)c5ccc([nH]5)c(-c5ccc(S(=O)(=O)[O-])cc5)c5nc(c(-c6ccc(S(=O)(=O)[O-])cc6)c6ccc3[nH]6)C=C5)C=C4)cc2)c1
REMARK SMILES IDX 26 1 25 2 24 3 22 4 23 5 21 7 16 8 17 9 91 10 18 11 19 12
REMARK SMILES IDX 15 13 14 15 1 16 2 17 3 18 13 19 4 20 12 21 5 22 6 23 11 24
REMARK SMILES IDX 7 25 10 26 8 27 9 28 20 29 27 31 28 32 29 33 30 35 31 36
REMARK SMILES IDX 32 37 90 38 33 39 89 40 34 41 35 42 36 43 83 44 37 45 88 46
REMARK SMILES IDX 82 47 84 48 38 49 87 50 81 51 80 52 39 54 69 55 50 56 68 57
REMARK SMILES IDX 51 58 54 59 67 60 85 61 52 62 53 63 66 65 86 66 55 67 40 68
REMARK SMILES IDX 41 69 49 70 42 71 48 72 43 73 44 74 45 75 46 76 47 77 70 78
REMARK SMILES IDX 71 79 79 80 72 81 78 82 73 83 74 84 75 85 76 86 77 87 56 88
REMARK SMILES IDX 57 89 65 90 58 91 64 92 59 93 60 94 61 95 62 96 63 97
REMARK H PARENT 24 6 15 14 20 30 28 34 84 53 54 64
REMARK Flexibility Score: inf
ROOT
ATOM      1  C   UNL A   1      35.156  33.072  28.003  1.00  0.00     0.042 C 
ENDROOT
BRANCH   1   2
ATOM      2  C   UNL A   1      35.256  34.518  28.492  1.00  0.00     0.118 C 
BRANCH   2   3
ATOM      3  N   UNL A   1      33.973  35.180  28.383  1.00  0.00    -0.352 N 
ATOM      4  C   UNL A   1      33.139  35.746  29.309  1.00  0.00     0.255 C 
ATOM      5  O   UNL A   1      32.073  36.186  28.864  1.00  0.00    -0.269 OA
ATOM      6  H   UNL A   1      33.635  35.234  27.461  1.00  0.00     0.163 HD
BRANCH   4   7
ATOM      7  C   UNL A   1      33.449  35.960  30.758  1.00  0.00     0.083 A 
ATOM      8  C   UNL A   1      34.187  34.777  32.792  1.00  0.00     0.039 A 
ATOM      9  C   UNL A   1      34.016  35.952  33.522  1.00  0.00     0.030 A 
ATOM     10  C   UNL A   1      33.878  34.792  31.427  1.00  0.00     0.043 A 
ATOM     11  C   UNL A   1      33.651  37.132  32.882  1.00  0.00     0.049 A 
ATOM     12  C   UNL A   1      33.400  37.144  31.505  1.00  0.00     0.128 A 
BRANCH   8  13
ATOM     13  N   UNL A   1      34.595  33.579  33.390  1.00  0.00    -0.360 N 
ATOM     14  H   UNL A   1      34.201  33.364  34.267  1.00  0.00     0.166 HD
BRANCH  13  15
ATOM     15  C   UNL A   1      35.487  32.677  32.875  1.00  0.00     0.119 C 
ATOM     16  O   UNL A   1      36.608  33.210  35.634  1.00  0.00    -0.244 OA
ATOM     17  C   UNL A   1      37.074  32.469  34.795  1.00  0.00     0.365 C 
ATOM     18  O   UNL A   1      38.180  31.677  34.904  1.00  0.00    -0.402 OA
ATOM     19  C   UNL A   1      36.606  32.187  33.411  1.00  0.00     0.168 C 
ATOM     20  C   UNL A   1      38.329  31.080  33.700  1.00  0.00     0.231 C 
ATOM     21  N   UNL A   1      37.463  31.330  32.775  1.00  0.00    -0.204 NA
BRANCH  20  22
ATOM     22  C   UNL A   1      39.521  30.254  33.560  1.00  0.00     0.037 A 
ATOM     23  C   UNL A   1      40.760  30.711  34.013  1.00  0.00     0.015 A 
ATOM     24  C   UNL A   1      39.384  28.979  33.001  1.00  0.00     0.015 A 
ATOM     25  C   UNL A   1      41.874  29.876  33.907  1.00  0.00     0.021 A 
ATOM     26  C   UNL A   1      40.504  28.157  32.879  1.00  0.00     0.021 A 
ATOM     27  C   UNL A   1      41.743  28.607  33.337  1.00  0.00     0.041 A 
ATOM     28  Cl  UNL A   1      43.120  27.585  33.204  1.00  0.00    -0.084 Cl
ENDBRANCH  20  22
ENDBRANCH  13  15
ENDBRANCH   8  13
BRANCH  12  29
ATOM     29  O   UNL A   1      33.175  38.362  30.940  1.00  0.00    -0.507 OA
ATOM     30  H   UNL A   1      33.684  38.638  30.204  1.00  0.00     0.293 HD
ENDBRANCH  12  29
ENDBRANCH   4   7
ENDBRANCH   2   3
ENDBRANCH   1   2
BRANCH   1  31
ATOM     31  C   UNL A   1      34.314  32.188  28.915  1.00  0.00     0.118 C 
BRANCH  31  32
ATOM     32  N   UNL A   1      33.839  30.999  28.219  1.00  0.00    -0.352 N 
ATOM     33  C   UNL A   1      34.546  29.944  27.701  1.00  0.00     0.251 C 
ATOM     34  H   UNL A   1      32.863  30.945  28.103  1.00  0.00     0.163 HD
ATOM     35  O   UNL A   1      33.997  29.178  26.913  1.00  0.00    -0.269 OA
BRANCH  33  36
ATOM     36  C   UNL A   1      35.959  29.733  28.079  1.00  0.00     0.039 A 
ATOM     37  C   UNL A   1      36.258  29.320  29.380  1.00  0.00     0.014 A 
ATOM     38  C   UNL A   1      36.989  29.968  27.165  1.00  0.00     0.014 A 
ATOM     39  C   UNL A   1      37.584  29.079  29.744  1.00  0.00     0.010 A 
ATOM     40  C   UNL A   1      38.302  29.652  27.504  1.00  0.00     0.010 A 
ATOM     41  C   UNL A   1      38.613  29.203  28.794  1.00  0.00    -0.014 A 
BRANCH  41  42
ATOM     42  C   UNL A   1      40.013  28.838  29.121  1.00  0.00     0.031 A 
ATOM     43  C   UNL A   1      40.933  29.842  29.758  1.00  0.00     0.074 A 
ATOM     44  C   UNL A   1      40.474  27.620  28.774  1.00  0.00     0.049 A 
ATOM     45  N   UNL A   1      42.203  29.726  30.052  1.00  0.00    -0.248 NA
ATOM     46  C   UNL A   1      40.358  31.156  30.086  1.00  0.00     0.031 C 
ATOM     47  C   UNL A   1      39.684  26.571  28.124  1.00  0.00     0.029 A 
ATOM     48  N   UNL A   1      41.719  27.060  28.909  1.00  0.00    -0.354 N 
ATOM     49  C   UNL A   1      42.581  30.951  30.589  1.00  0.00     0.074 A 
ATOM     50  C   UNL A   1      41.420  31.814  30.528  1.00  0.00     0.031 C 
ATOM     51  C   UNL A   1      40.454  25.487  27.947  1.00  0.00     0.029 A 
ATOM     52  C   UNL A   1      41.804  25.778  28.418  1.00  0.00     0.049 A 
ATOM     53  H   UNL A   1      42.480  27.531  29.320  1.00  0.00     0.167 HD
ATOM     54  C   UNL A   1      43.780  31.320  31.100  1.00  0.00     0.031 A 
ATOM     55  C   UNL A   1      42.851  24.936  28.343  1.00  0.00     0.031 A 
ATOM     56  C   UNL A   1      44.934  30.459  31.141  1.00  0.00     0.049 A 
ATOM     57  C   UNL A   1      44.187  25.384  28.868  1.00  0.00     0.074 A 
ATOM     58  C   UNL A   1      46.184  30.719  31.675  1.00  0.00     0.029 A 
ATOM     59  N   UNL A   1      44.983  29.175  30.616  1.00  0.00    -0.354 N 
ATOM     60  N   UNL A   1      44.508  26.523  29.432  1.00  0.00    -0.248 NA
ATOM     61  C   UNL A   1      45.299  24.433  28.748  1.00  0.00     0.031 C 
ATOM     62  C   UNL A   1      47.008  29.620  31.413  1.00  0.00     0.029 A 
ATOM     63  C   UNL A   1      46.252  28.644  30.781  1.00  0.00     0.049 A 
ATOM     64  H   UNL A   1      44.228  28.710  30.190  1.00  0.00     0.167 HD
ATOM     65  C   UNL A   1      45.856  26.416  29.759  1.00  0.00     0.074 A 
ATOM     66  C   UNL A   1      46.282  25.095  29.344  1.00  0.00     0.031 C 
ATOM     67  C   UNL A   1      46.664  27.329  30.352  1.00  0.00     0.031 A 
BRANCH  54  68
ATOM     68  C   UNL A   1      43.906  32.724  31.635  1.00  0.00    -0.014 A 
ATOM     69  C   UNL A   1      43.643  33.016  32.987  1.00  0.00     0.010 A 
ATOM     70  C   UNL A   1      44.311  33.767  30.781  1.00  0.00     0.010 A 
ATOM     71  C   UNL A   1      43.726  34.329  33.458  1.00  0.00     0.020 A 
ATOM     72  C   UNL A   1      44.429  35.076  31.257  1.00  0.00     0.020 A 
ATOM     73  C   UNL A   1      44.113  35.352  32.589  1.00  0.00     0.054 A 
BRANCH  73  74
ATOM     74  S   UNL A   1      44.210  37.046  33.230  1.00  0.00     0.124 S 
ATOM     75  O   UNL A   1      45.401  36.981  34.072  1.00  0.00    -0.237 OA
ATOM     76  O   UNL A   1      44.346  37.841  32.012  1.00  0.00    -0.237 OA
ATOM     77  O   UNL A   1      42.950  37.221  33.947  1.00  0.00    -0.744 OA
ENDBRANCH  73  74
ENDBRANCH  54  68
BRANCH  55  78
ATOM     78  C   UNL A   1      42.668  23.579  27.758  1.00  0.00    -0.014 A 
ATOM     79  C   UNL A   1      43.095  23.306  26.446  1.00  0.00     0.010 A 
ATOM     80  C   UNL A   1      42.100  22.541  28.520  1.00  0.00     0.010 A 
ATOM     81  C   UNL A   1      42.951  22.026  25.905  1.00  0.00     0.020 A 
ATOM     82  C   UNL A   1      41.984  21.251  27.994  1.00  0.00     0.020 A 
ATOM     83  C   UNL A   1      42.404  21.004  26.687  1.00  0.00     0.054 A 
BRANCH  83  84
ATOM     84  S   UNL A   1      42.295  19.334  25.986  1.00  0.00     0.124 S 
ATOM     85  O   UNL A   1      42.853  18.515  27.058  1.00  0.00    -0.237 OA
ATOM     86  O   UNL A   1      40.860  19.184  25.755  1.00  0.00    -0.237 OA
ATOM     87  O   UNL A   1      43.107  19.418  24.773  1.00  0.00    -0.744 OA
ENDBRANCH  83  84
ENDBRANCH  55  78
BRANCH  67  88
ATOM     88  C   UNL A   1      48.093  26.927  30.612  1.00  0.00    -0.014 A 
ATOM     89  C   UNL A   1      49.141  27.388  29.795  1.00  0.00     0.010 A 
ATOM     90  C   UNL A   1      48.397  26.129  31.731  1.00  0.00     0.010 A 
ATOM     91  C   UNL A   1      50.465  27.041  30.081  1.00  0.00     0.020 A 
ATOM     92  C   UNL A   1      49.722  25.808  32.038  1.00  0.00     0.020 A 
ATOM     93  C   UNL A   1      50.746  26.258  31.204  1.00  0.00     0.054 A 
BRANCH  93  94
ATOM     94  S   UNL A   1      52.478  25.876  31.587  1.00  0.00     0.124 S 
ATOM     95  O   UNL A   1      53.097  25.908  30.265  1.00  0.00    -0.237 OA
ATOM     96  O   UNL A   1      52.854  26.968  32.484  1.00  0.00    -0.237 OA
ATOM     97  O   UNL A   1      52.414  24.558  32.214  1.00  0.00    -0.744 OA
ENDBRANCH  93  94
ENDBRANCH  67  88
ENDBRANCH  41  42
ENDBRANCH  33  36
ENDBRANCH  31  32
ENDBRANCH   1  31
TORSDOF 17
ENDMDL
MODEL 2
REMARK VINA RESULT:     -11.1      0.489      7.997
REMARK SMILES O=C1OC(c2ccc(Cl)cc2)=N/C1=C/Nc1ccc(O)c(C(=O)NCCCNC(=O)c2ccc(-c3c4nc(c(-c5ccc(S(=O)(=O)[O-])cc5)c5ccc([nH]5)c(-c5ccc(S(=O)(=O)[O-])cc5)c5nc(c(-c6ccc(S(=O)(=O)[O-])cc6)c6ccc3[nH]6)C=C5)C=C4)cc2)c1
REMARK SMILES IDX 26 1 25 2 24 3 22 4 23 5 21 7 16 8 17 9 91 10 18 11 19 12
REMARK SMILES IDX 15 13 14 15 1 16 2 17 3 18 13 19 4 20 12 21 5 22 6 23 11 24
REMARK SMILES IDX 7 25 10 26 8 27 9 28 20 29 27 31 28 32 29 33 30 35 31 36
REMARK SMILES IDX 32 37 90 38 33 39 89 40 34 41 35 42 36 43 83 44 37 45 88 46
REMARK SMILES IDX 82 47 84 48 38 49 87 50 81 51 80 52 39 54 69 55 50 56 68 57
REMARK SMILES IDX 51 58 54 59 67 60 85 61 52 62 53 63 66 65 86 66 55 67 40 68
REMARK SMILES IDX 41 69 49 70 42 71 48 72 43 73 44 74 45 75 46 76 47 77 70 78
REMARK SMILES IDX 71 79 79 80 72 81 78 82 73 83 74 84 75 85 76 86 77 87 56 88
REMARK SMILES IDX 57 89 65 90 58 91 64 92 59 93 60 94 61 95 62 96 63 97
REMARK H PARENT 24 6 15 14 20 30 28 34 84 53 54 64
REMARK Flexibility Score: inf
ROOT
ATOM      1  C   UNL A   1      35.284  33.335  28.098  1.00  0.00     0.042 C 
ENDROOT
BRANCH   1   2
ATOM      2  C   UNL A   1      35.298  34.807  28.515  1.00  0.00     0.118 C 
BRANCH   2   3
ATOM      3  N   UNL A   1      33.968  35.370  28.431  1.00  0.00    -0.352 N 
ATOM      4  C   UNL A   1      33.109  35.866  29.375  1.00  0.00     0.255 C 
ATOM      5  O   UNL A   1      32.005  36.226  28.950  1.00  0.00    -0.269 OA
ATOM      6  H   UNL A   1      33.610  35.403  27.515  1.00  0.00     0.163 HD
BRANCH   4   7
ATOM      7  C   UNL A   1      33.426  36.095  30.820  1.00  0.00     0.083 A 
ATOM      8  C   UNL A   1      34.172  34.932  32.862  1.00  0.00     0.039 A 
ATOM      9  C   UNL A   1      34.007  36.115  33.580  1.00  0.00     0.030 A 
ATOM     10  C   UNL A   1      33.856  34.933  31.499  1.00  0.00     0.043 A 
ATOM     11  C   UNL A   1      33.640  37.289  32.930  1.00  0.00     0.049 A 
ATOM     12  C   UNL A   1      33.383  37.287  31.554  1.00  0.00     0.128 A 
BRANCH   8  13
ATOM     13  N   UNL A   1      34.581  33.740  33.471  1.00  0.00    -0.360 N 
ATOM     14  H   UNL A   1      34.211  33.547  34.363  1.00  0.00     0.166 HD
BRANCH  13  15
ATOM     15  C   UNL A   1      35.446  32.816  32.948  1.00  0.00     0.119 C 
ATOM     16  O   UNL A   1      36.590  33.300  35.706  1.00  0.00    -0.244 OA
ATOM     17  C   UNL A   1      37.032  32.551  34.861  1.00  0.00     0.365 C 
ATOM     18  O   UNL A   1      38.116  31.727  34.962  1.00  0.00    -0.402 OA
ATOM     19  C   UNL A   1      36.553  32.291  33.477  1.00  0.00     0.168 C 
ATOM     20  C   UNL A   1      38.245  31.134  33.754  1.00  0.00     0.231 C 
ATOM     21  N   UNL A   1      37.383  31.415  32.833  1.00  0.00    -0.204 NA
BRANCH  20  22
ATOM     22  C   UNL A   1      39.412  30.276  33.606  1.00  0.00     0.037 A 
ATOM     23  C   UNL A   1      40.643  30.650  34.148  1.00  0.00     0.015 A 
ATOM     24  C   UNL A   1      39.258  29.053  32.945  1.00  0.00     0.015 A 
ATOM     25  C   UNL A   1      41.731  29.782  34.029  1.00  0.00     0.021 A 
ATOM     26  C   UNL A   1      40.353  28.200  32.810  1.00  0.00     0.021 A 
ATOM     27  C   UNL A   1      41.584  28.566  33.358  1.00  0.00     0.041 A 
ATOM     28  Cl  UNL A   1      42.929  27.505  33.209  1.00  0.00    -0.084 Cl
ENDBRANCH  20  22
ENDBRANCH  13  15
ENDBRANCH   8  13
BRANCH  12  29
ATOM     29  O   UNL A   1      33.156  38.499  30.978  1.00  0.00    -0.507 OA
ATOM     30  H   UNL A   1      33.154  39.274  31.504  1.00  0.00     0.293 HD
ENDBRANCH  12  29
ENDBRANCH   4   7
ENDBRANCH   2   3
ENDBRANCH   1   2
BRANCH   1  31
ATOM     31  C   UNL A   1      34.644  32.423  29.138  1.00  0.00     0.118 C 
BRANCH  31  32
ATOM     32  N   UNL A   1      33.967  31.293  28.515  1.00  0.00    -0.352 N 
ATOM     33  C   UNL A   1      34.490  30.152  27.962  1.00  0.00     0.251 C 
ATOM     34  H   UNL A   1      32.985  31.358  28.488  1.00  0.00     0.163 HD
ATOM     35  O   UNL A   1      33.783  29.450  27.244  1.00  0.00    -0.269 OA
BRANCH  33  36
ATOM     36  C   UNL A   1      35.896  29.774  28.217  1.00  0.00     0.039 A 
ATOM     37  C   UNL A   1      36.827  29.884  27.180  1.00  0.00     0.014 A 
ATOM     38  C   UNL A   1      36.293  29.287  29.465  1.00  0.00     0.014 A 
ATOM     39  C   UNL A   1      38.166  29.569  27.414  1.00  0.00     0.010 A 
ATOM     40  C   UNL A   1      37.640  29.047  29.719  1.00  0.00     0.010 A 
ATOM     41  C   UNL A   1      38.590  29.188  28.698  1.00  0.00    -0.014 A 
BRANCH  41  42
ATOM     42  C   UNL A   1      40.025  28.963  29.003  1.00  0.00     0.031 A 
ATOM     43  C   UNL A   1      40.678  27.652  28.664  1.00  0.00     0.074 A 
ATOM     44  C   UNL A   1      40.717  29.918  29.653  1.00  0.00     0.049 A 
ATOM     45  N   UNL A   1      41.899  27.251  28.914  1.00  0.00    -0.248 NA
ATOM     46  C   UNL A   1      39.847  26.654  27.974  1.00  0.00     0.031 C 
ATOM     47  C   UNL A   1      40.182  31.220  30.061  1.00  0.00     0.029 A 
ATOM     48  N   UNL A   1      42.016  29.942  30.094  1.00  0.00    -0.354 N 
ATOM     49  C   UNL A   1      41.979  25.953  28.424  1.00  0.00     0.074 A 
ATOM     50  C   UNL A   1      40.668  25.615  27.911  1.00  0.00     0.031 C 
ATOM     51  C   UNL A   1      41.153  31.925  30.663  1.00  0.00     0.029 A 
ATOM     52  C   UNL A   1      42.361  31.110  30.734  1.00  0.00     0.049 A 
ATOM     53  H   UNL A   1      42.643  29.193  29.964  1.00  0.00     0.167 HD
ATOM     54  C   UNL A   1      43.049  25.123  28.389  1.00  0.00     0.031 A 
ATOM     55  C   UNL A   1      43.513  31.479  31.323  1.00  0.00     0.031 A 
ATOM     56  C   UNL A   1      44.345  25.463  28.917  1.00  0.00     0.049 A 
ATOM     57  C   UNL A   1      44.674  30.522  31.320  1.00  0.00     0.074 A 
ATOM     58  C   UNL A   1      45.508  24.713  28.895  1.00  0.00     0.029 A 
ATOM     59  N   UNL A   1      44.647  26.648  29.574  1.00  0.00    -0.354 N 
ATOM     60  N   UNL A   1      44.750  29.325  30.792  1.00  0.00    -0.248 NA
ATOM     61  C   UNL A   1      45.902  30.969  31.989  1.00  0.00     0.031 C 
ATOM     62  C   UNL A   1      46.493  25.414  29.598  1.00  0.00     0.029 A 
ATOM     63  C   UNL A   1      45.967  26.634  29.994  1.00  0.00     0.049 A 
ATOM     64  H   UNL A   1      44.017  27.390  29.720  1.00  0.00     0.167 HD
ATOM     65  C   UNL A   1      46.045  28.883  31.043  1.00  0.00     0.074 A 
ATOM     66  C   UNL A   1      46.719  29.950  31.754  1.00  0.00     0.031 C 
ATOM     67  C   UNL A   1      46.622  27.702  30.711  1.00  0.00     0.031 A 
BRANCH  54  68
ATOM     68  C   UNL A   1      42.852  23.759  27.777  1.00  0.00    -0.014 A 
ATOM     69  C   UNL A   1      42.518  22.645  28.570  1.00  0.00     0.010 A 
ATOM     70  C   UNL A   1      42.985  23.588  26.386  1.00  0.00     0.010 A 
ATOM     71  C   UNL A   1      42.378  21.380  27.993  1.00  0.00     0.020 A 
ATOM     72  C   UNL A   1      42.812  22.330  25.801  1.00  0.00     0.020 A 
ATOM     73  C   UNL A   1      42.531  21.229  26.612  1.00  0.00     0.054 A 
BRANCH  73  74
ATOM     74  S   UNL A   1      42.346  19.575  25.893  1.00  0.00     0.124 S 
ATOM     75  O   UNL A   1      42.596  18.716  27.047  1.00  0.00    -0.237 OA
ATOM     76  O   UNL A   1      40.967  19.590  25.409  1.00  0.00    -0.237 OA
ATOM     77  O   UNL A   1      43.368  19.530  24.851  1.00  0.00    -0.744 OA
ENDBRANCH  73  74
ENDBRANCH  54  68
BRANCH  55  78
ATOM     78  C   UNL A   1      43.624  32.824  31.951  1.00  0.00    -0.014 A 
ATOM     79  C   UNL A   1      43.386  32.989  33.327  1.00  0.00     0.010 A 
ATOM     80  C   UNL A   1      44.005  33.943  31.186  1.00  0.00     0.010 A 
ATOM     81  C   UNL A   1      43.519  34.245  33.925  1.00  0.00     0.020 A 
ATOM     82  C   UNL A   1      44.169  35.194  31.786  1.00  0.00     0.020 A 
ATOM     83  C   UNL A   1      43.918  35.339  33.151  1.00  0.00     0.054 A 
BRANCH  83  84
ATOM     84  S   UNL A   1      44.153  36.943  33.965  1.00  0.00     0.124 S 
ATOM     85  O   UNL A   1      43.220  37.796  33.236  1.00  0.00    -0.237 OA
ATOM     86  O   UNL A   1      43.793  36.647  35.350  1.00  0.00    -0.237 OA
ATOM     87  O   UNL A   1      45.569  37.233  33.748  1.00  0.00    -0.744 OA
ENDBRANCH  83  84
ENDBRANCH  55  78
BRANCH  67  88
ATOM     88  C   UNL A   1      48.066  27.503  31.092  1.00  0.00    -0.014 A 
ATOM     89  C   UNL A   1      48.423  26.898  32.310  1.00  0.00     0.010 A 
ATOM     90  C   UNL A   1      49.080  27.868  30.186  1.00  0.00     0.010 A 
ATOM     91  C   UNL A   1      49.767  26.680  32.624  1.00  0.00     0.020 A 
ATOM     92  C   UNL A   1      50.423  27.622  30.482  1.00  0.00     0.020 A 
ATOM     93  C   UNL A   1      50.758  27.039  31.705  1.00  0.00     0.054 A 
BRANCH  93  94
ATOM     94  S   UNL A   1      52.491  26.686  32.111  1.00  0.00     0.124 S 
ATOM     95  O   UNL A   1      52.761  25.506  31.294  1.00  0.00    -0.237 OA
ATOM     96  O   UNL A   1      53.172  27.909  31.692  1.00  0.00    -0.237 OA
ATOM     97  O   UNL A   1      52.470  26.454  33.553  1.00  0.00    -0.744 OA
ENDBRANCH  93  94
ENDBRANCH  67  88
ENDBRANCH  41  42
ENDBRANCH  33  36
ENDBRANCH  31  32
ENDBRANCH   1  31
TORSDOF 17
ENDMDL
MODEL 3
REMARK VINA RESULT:     -10.7      2.005      3.163
REMARK SMILES O=C1OC(c2ccc(Cl)cc2)=N/C1=C/Nc1ccc(O)c(C(=O)NCCCNC(=O)c2ccc(-c3c4nc(c(-c5ccc(S(=O)(=O)[O-])cc5)c5ccc([nH]5)c(-c5ccc(S(=O)(=O)[O-])cc5)c5nc(c(-c6ccc(S(=O)(=O)[O-])cc6)c6ccc3[nH]6)C=C5)C=C4)cc2)c1
REMARK SMILES IDX 26 1 25 2 24 3 22 4 23 5 21 7 16 8 17 9 91 10 18 11 19 12
REMARK SMILES IDX 15 13 14 15 1 16 2 17 3 18 13 19 4 20 12 21 5 22 6 23 11 24
REMARK SMILES IDX 7 25 10 26 8 27 9 28 20 29 27 31 28 32 29 33 30 35 31 36
REMARK SMILES IDX 32 37 90 38 33 39 89 40 34 41 35 42 36 43 83 44 37 45 88 46
REMARK SMILES IDX 82 47 84 48 38 49 87 50 81 51 80 52 39 54 69 55 50 56 68 57
REMARK SMILES IDX 51 58 54 59 67 60 85 61 52 62 53 63 66 65 86 66 55 67 40 68
REMARK SMILES IDX 41 69 49 70 42 71 48 72 43 73 44 74 45 75 46 76 47 77 70 78
REMARK SMILES IDX 71 79 79 80 72 81 78 82 73 83 74 84 75 85 76 86 77 87 56 88
REMARK SMILES IDX 57 89 65 90 58 91 64 92 59 93 60 94 61 95 62 96 63 97
REMARK H PARENT 24 6 15 14 20 30 28 34 84 53 54 64
REMARK Flexibility Score: inf
ROOT
ATOM      1  C   UNL A   1      34.781  32.779  30.390  1.00  0.00     0.042 C 
ENDROOT
BRANCH   1   2
ATOM      2  C   UNL A   1      35.155  34.046  31.163  1.00  0.00     0.118 C 
BRANCH   2   3
ATOM      3  N   UNL A   1      36.564  34.338  31.003  1.00  0.00    -0.352 N 
ATOM      4  C   UNL A   1      37.612  34.361  31.884  1.00  0.00     0.255 C 
ATOM      5  O   UNL A   1      38.697  34.713  31.406  1.00  0.00    -0.269 OA
ATOM      6  H   UNL A   1      36.817  34.566  30.081  1.00  0.00     0.163 HD
BRANCH   4   7
ATOM      7  C   UNL A   1      37.573  33.910  33.311  1.00  0.00     0.083 A 
ATOM      8  C   UNL A   1      38.753  32.487  34.941  1.00  0.00     0.039 A 
ATOM      9  C   UNL A   1      37.764  32.767  35.883  1.00  0.00     0.030 A 
ATOM     10  C   UNL A   1      38.629  33.042  33.663  1.00  0.00     0.043 A 
ATOM     11  C   UNL A   1      36.742  33.663  35.586  1.00  0.00     0.049 A 
ATOM     12  C   UNL A   1      36.664  34.255  34.319  1.00  0.00     0.128 A 
BRANCH   8  13
ATOM     13  N   UNL A   1      39.822  31.625  35.214  1.00  0.00    -0.360 N 
ATOM     14  H   UNL A   1      40.511  31.955  35.836  1.00  0.00     0.166 HD
BRANCH  13  15
ATOM     15  C   UNL A   1      40.003  30.368  34.703  1.00  0.00     0.119 C 
ATOM     16  O   UNL A   1      41.989  30.442  36.983  1.00  0.00    -0.244 OA
ATOM     17  C   UNL A   1      41.793  29.516  36.225  1.00  0.00     0.365 C 
ATOM     18  O   UNL A   1      42.385  28.286  36.240  1.00  0.00    -0.402 OA
ATOM     19  C   UNL A   1      40.869  29.419  35.062  1.00  0.00     0.168 C 
ATOM     20  C   UNL A   1      41.885  27.621  35.175  1.00  0.00     0.231 C 
ATOM     21  N   UNL A   1      41.007  28.212  34.434  1.00  0.00    -0.204 NA
BRANCH  20  22
ATOM     22  C   UNL A   1      42.461  26.304  34.940  1.00  0.00     0.037 A 
ATOM     23  C   UNL A   1      41.855  25.159  35.462  1.00  0.00     0.015 A 
ATOM     24  C   UNL A   1      43.609  26.212  34.147  1.00  0.00     0.015 A 
ATOM     25  C   UNL A   1      42.405  23.908  35.179  1.00  0.00     0.021 A 
ATOM     26  C   UNL A   1      44.167  24.961  33.885  1.00  0.00     0.021 A 
ATOM     27  C   UNL A   1      43.560  23.814  34.398  1.00  0.00     0.041 A 
ATOM     28  Cl  UNL A   1      44.238  22.270  34.058  1.00  0.00    -0.084 Cl
ENDBRANCH  20  22
ENDBRANCH  13  15
ENDBRANCH   8  13
BRANCH  12  29
ATOM     29  O   UNL A   1      35.711  35.214  34.157  1.00  0.00    -0.507 OA
ATOM     30  H   UNL A   1      35.057  35.115  33.494  1.00  0.00     0.293 HD
ENDBRANCH  12  29
ENDBRANCH   4   7
ENDBRANCH   2   3
ENDBRANCH   1   2
BRANCH   1  31
ATOM     31  C   UNL A   1      34.966  32.919  28.884  1.00  0.00     0.118 C 
BRANCH  31  32
ATOM     32  N   UNL A   1      34.208  31.911  28.155  1.00  0.00    -0.352 N 
ATOM     33  C   UNL A   1      34.616  30.708  27.639  1.00  0.00     0.251 C 
ATOM     34  H   UNL A   1      33.258  32.126  28.012  1.00  0.00     0.163 HD
ATOM     35  O   UNL A   1      33.904  30.127  26.823  1.00  0.00    -0.269 OA
BRANCH  33  36
ATOM     36  C   UNL A   1      35.907  30.117  28.051  1.00  0.00     0.039 A 
ATOM     37  C   UNL A   1      36.990  30.172  27.170  1.00  0.00     0.014 A 
ATOM     38  C   UNL A   1      36.044  29.486  29.290  1.00  0.00     0.014 A 
ATOM     39  C   UNL A   1      38.226  29.653  27.557  1.00  0.00     0.010 A 
ATOM     40  C   UNL A   1      37.295  29.041  29.707  1.00  0.00     0.010 A 
ATOM     41  C   UNL A   1      38.399  29.121  28.846  1.00  0.00    -0.014 A 
BRANCH  41  42
ATOM     42  C   UNL A   1      39.730  28.674  29.325  1.00  0.00     0.031 A 
ATOM     43  C   UNL A   1      40.596  29.595  30.138  1.00  0.00     0.074 A 
ATOM     44  C   UNL A   1      40.186  27.459  28.961  1.00  0.00     0.049 A 
ATOM     45  N   UNL A   1      41.811  29.403  30.585  1.00  0.00    -0.248 NA
ATOM     46  C   UNL A   1      40.032  30.911  30.475  1.00  0.00     0.031 C 
ATOM     47  C   UNL A   1      39.448  26.489  28.148  1.00  0.00     0.029 A 
ATOM     48  N   UNL A   1      41.381  26.836  29.217  1.00  0.00    -0.354 N 
ATOM     49  C   UNL A   1      42.161  30.575  31.245  1.00  0.00     0.074 A 
ATOM     50  C   UNL A   1      41.052  31.492  31.092  1.00  0.00     0.031 C 
ATOM     51  C   UNL A   1      40.193  25.382  28.000  1.00  0.00     0.029 A 
ATOM     52  C   UNL A   1      41.480  25.583  28.658  1.00  0.00     0.049 A 
ATOM     53  H   UNL A   1      42.098  27.246  29.752  1.00  0.00     0.167 HD
ATOM     54  C   UNL A   1      43.296  30.857  31.928  1.00  0.00     0.031 A 
ATOM     55  C   UNL A   1      42.496  24.699  28.663  1.00  0.00     0.031 A 
ATOM     56  C   UNL A   1      44.402  29.943  32.060  1.00  0.00     0.049 A 
ATOM     57  C   UNL A   1      43.768  25.054  29.383  1.00  0.00     0.074 A 
ATOM     58  C   UNL A   1      45.580  30.113  32.766  1.00  0.00     0.029 A 
ATOM     59  N   UNL A   1      44.471  28.692  31.463  1.00  0.00    -0.354 N 
ATOM     60  N   UNL A   1      44.055  26.141  30.057  1.00  0.00    -0.248 NA
ATOM     61  C   UNL A   1      44.849  24.061  29.344  1.00  0.00     0.031 C 
ATOM     62  C   UNL A   1      46.389  28.995  32.540  1.00  0.00     0.029 A 
ATOM     63  C   UNL A   1      45.686  28.095  31.753  1.00  0.00     0.049 A 
ATOM     64  H   UNL A   1      43.761  28.288  30.914  1.00  0.00     0.167 HD
ATOM     65  C   UNL A   1      45.344  25.953  30.546  1.00  0.00     0.074 A 
ATOM     66  C   UNL A   1      45.770  24.641  30.103  1.00  0.00     0.031 C 
ATOM     67  C   UNL A   1      46.101  26.790  31.296  1.00  0.00     0.031 A 
BRANCH  54  68
ATOM     68  C   UNL A   1      43.404  32.219  32.566  1.00  0.00    -0.014 A 
ATOM     69  C   UNL A   1      42.983  32.441  33.890  1.00  0.00     0.010 A 
ATOM     70  C   UNL A   1      43.952  33.293  31.839  1.00  0.00     0.010 A 
ATOM     71  C   UNL A   1      43.053  33.718  34.454  1.00  0.00     0.020 A 
ATOM     72  C   UNL A   1      44.056  34.565  32.411  1.00  0.00     0.020 A 
ATOM     73  C   UNL A   1      43.584  34.773  33.708  1.00  0.00     0.054 A 
BRANCH  73  74
ATOM     74  S   UNL A   1      43.661  36.419  34.466  1.00  0.00     0.124 S 
ATOM     75  O   UNL A   1      44.053  36.102  35.836  1.00  0.00    -0.237 OA
ATOM     76  O   UNL A   1      44.677  37.094  33.662  1.00  0.00    -0.237 OA
ATOM     77  O   UNL A   1      42.303  36.938  34.312  1.00  0.00    -0.744 OA
ENDBRANCH  73  74
ENDBRANCH  54  68
BRANCH  55  78
ATOM     78  C   UNL A   1      42.340  23.390  27.972  1.00  0.00    -0.014 A 
ATOM     79  C   UNL A   1      43.118  23.085  26.841  1.00  0.00     0.010 A 
ATOM     80  C   UNL A   1      41.440  22.425  28.461  1.00  0.00     0.010 A 
ATOM     81  C   UNL A   1      42.994  21.845  26.208  1.00  0.00     0.020 A 
ATOM     82  C   UNL A   1      41.336  21.172  27.850  1.00  0.00     0.020 A 
ATOM     83  C   UNL A   1      42.109  20.893  26.723  1.00  0.00     0.054 A 
BRANCH  83  84
ATOM     84  S   UNL A   1      42.021  19.265  25.926  1.00  0.00     0.124 S 
ATOM     85  O   UNL A   1      42.567  18.389  26.958  1.00  0.00    -0.237 OA
ATOM     86  O   UNL A   1      40.591  19.122  25.664  1.00  0.00    -0.237 OA
ATOM     87  O   UNL A   1      42.851  19.423  24.733  1.00  0.00    -0.744 OA
ENDBRANCH  83  84
ENDBRANCH  55  78
BRANCH  67  88
ATOM     88  C   UNL A   1      47.468  26.308  31.710  1.00  0.00    -0.014 A 
ATOM     89  C   UNL A   1      47.674  25.675  32.950  1.00  0.00     0.010 A 
ATOM     90  C   UNL A   1      48.548  26.430  30.816  1.00  0.00     0.010 A 
ATOM     91  C   UNL A   1      48.939  25.193  33.295  1.00  0.00     0.020 A 
ATOM     92  C   UNL A   1      49.806  25.920  31.144  1.00  0.00     0.020 A 
ATOM     93  C   UNL A   1      49.996  25.314  32.387  1.00  0.00     0.054 A 
BRANCH  93  94
ATOM     94  S   UNL A   1      51.612  24.622  32.835  1.00  0.00     0.124 S 
ATOM     95  O   UNL A   1      51.601  24.738  34.290  1.00  0.00    -0.237 OA
ATOM     96  O   UNL A   1      51.531  23.259  32.313  1.00  0.00    -0.237 OA
ATOM     97  O   UNL A   1      52.565  25.490  32.148  1.00  0.00    -0.744 OA
ENDBRANCH  93  94
ENDBRANCH  67  88
ENDBRANCH  41  42
ENDBRANCH  33  36
ENDBRANCH  31  32
ENDBRANCH   1  31
TORSDOF 17
ENDMDL
