MODEL 1
REMARK VINA RESULT:     -11.2      0.000      0.000
REMARK SMILES O=C(NCCCNC(=O)[C@H](CO)NC(=O)[C@H](Cc1ccc(O)cc1)NC(=O)c1ccc(F)cc1)c1ccc(-c2c3nc(c(-c4ccc(S(=O)(=O)[O-])cc4)c4ccc([nH]4)c(-c4ccc(S(=O)(=O)[O-])cc4)c4nc(c(-c5ccc(S(=O)(=O)[O-])cc5)c5ccc2[nH]5)C=C4)C=C3)cc1
REMARK SMILES IDX 6 1 5 2 4 3 3 4 1 5 2 6 35 8 36 9 94 10 37 11 93 12 38 13
REMARK SMILES IDX 39 14 40 15 87 16 41 17 92 18 86 19 88 20 42 21 91 22 85 23
REMARK SMILES IDX 84 24 43 26 73 27 54 28 72 29 55 30 58 31 71 32 89 33 56 34
REMARK SMILES IDX 57 35 70 37 90 38 59 39 44 40 45 41 53 42 46 43 52 44 47 45
REMARK SMILES IDX 48 46 49 47 50 48 51 49 74 50 75 51 83 52 76 53 82 54 77 55
REMARK SMILES IDX 78 56 79 57 80 58 81 59 60 60 61 61 69 62 62 63 68 64 63 65
REMARK SMILES IDX 64 66 65 67 66 68 67 69 7 70 8 71 9 73 10 74 13 75 14 76
REMARK SMILES IDX 15 78 16 79 25 80 26 81 27 83 28 84 29 85 34 86 30 87 33 88
REMARK SMILES IDX 31 89 32 90 17 91 18 92 19 93 24 94 20 95 23 96 21 97 22 98
REMARK SMILES IDX 11 100 12 101
REMARK H PARENT 3 7 88 25 58 36 7 72 13 77 25 82 22 99 12 102
REMARK Flexibility Score: inf
ROOT
ATOM      1  C   UNL A   1      32.830  26.858  26.205  1.00  0.00     0.117 C 
ENDROOT
BRANCH   1   2
ATOM      2  C   UNL A   1      33.004  28.127  27.012  1.00  0.00     0.042 C 
BRANCH   2   3
ATOM      3  C   UNL A   1      33.904  29.147  26.343  1.00  0.00     0.118 C 
BRANCH   3   4
ATOM      4  N   UNL A   1      33.660  30.518  26.786  1.00  0.00    -0.352 N 
ATOM      5  O   UNL A   1      33.898  32.427  27.955  1.00  0.00    -0.269 OA
ATOM      6  C   UNL A   1      34.361  31.328  27.653  1.00  0.00     0.251 C 
ATOM      7  H   UNL A   1      32.856  30.934  26.398  1.00  0.00     0.163 HD
BRANCH   6   8
ATOM      8  C   UNL A   1      35.639  30.874  28.247  1.00  0.00     0.039 A 
ATOM      9  C   UNL A   1      35.694  29.716  29.014  1.00  0.00     0.014 A 
ATOM     10  C   UNL A   1      36.806  31.621  28.047  1.00  0.00     0.014 A 
ATOM     11  C   UNL A   1      36.818  29.445  29.779  1.00  0.00     0.010 A 
ATOM     12  C   UNL A   1      37.992  31.251  28.694  1.00  0.00     0.010 A 
ATOM     13  C   UNL A   1      37.996  30.187  29.608  1.00  0.00    -0.014 A 
BRANCH  13  14
ATOM     14  C   UNL A   1      39.217  29.764  30.346  1.00  0.00     0.031 A 
ATOM     15  C   UNL A   1      40.121  28.677  29.826  1.00  0.00     0.074 A 
ATOM     16  C   UNL A   1      39.537  30.423  31.480  1.00  0.00     0.049 A 
ATOM     17  N   UNL A   1      41.239  28.228  30.338  1.00  0.00    -0.248 NA
ATOM     18  C   UNL A   1      39.721  28.001  28.582  1.00  0.00     0.031 C 
ATOM     19  C   UNL A   1      38.737  31.494  32.087  1.00  0.00     0.029 A 
ATOM     20  N   UNL A   1      40.628  30.324  32.305  1.00  0.00    -0.354 N 
ATOM     21  C   UNL A   1      41.660  27.201  29.502  1.00  0.00     0.074 A 
ATOM     22  C   UNL A   1      40.668  27.079  28.455  1.00  0.00     0.031 C 
ATOM     23  C   UNL A   1      39.397  32.000  33.136  1.00  0.00     0.029 A 
ATOM     24  C   UNL A   1      40.615  31.229  33.341  1.00  0.00     0.049 A 
ATOM     25  H   UNL A   1      41.349  29.668  32.169  1.00  0.00     0.167 HD
ATOM     26  C   UNL A   1      42.772  26.431  29.599  1.00  0.00     0.031 A 
ATOM     27  C   UNL A   1      41.468  31.407  34.366  1.00  0.00     0.031 A 
ATOM     28  C   UNL A   1      43.756  26.561  30.645  1.00  0.00     0.049 A 
ATOM     29  C   UNL A   1      42.673  30.522  34.466  1.00  0.00     0.074 A 
ATOM     30  C   UNL A   1      44.930  25.848  30.814  1.00  0.00     0.029 A 
ATOM     31  N   UNL A   1      43.681  27.458  31.701  1.00  0.00    -0.354 N 
ATOM     32  N   UNL A   1      43.062  29.572  33.649  1.00  0.00    -0.248 NA
ATOM     33  C   UNL A   1      43.552  30.728  35.622  1.00  0.00     0.031 C 
ATOM     34  C   UNL A   1      45.533  26.271  32.003  1.00  0.00     0.029 A 
ATOM     35  C   UNL A   1      44.772  27.296  32.540  1.00  0.00     0.049 A 
ATOM     36  H   UNL A   1      42.958  28.113  31.835  1.00  0.00     0.167 HD
ATOM     37  C   UNL A   1      44.241  29.074  34.187  1.00  0.00     0.074 A 
ATOM     38  C   UNL A   1      44.513  29.847  35.383  1.00  0.00     0.031 C 
ATOM     39  C   UNL A   1      45.026  28.066  33.732  1.00  0.00     0.031 A 
BRANCH  26  40
ATOM     40  C   UNL A   1      42.973  25.346  28.570  1.00  0.00    -0.014 A 
ATOM     41  C   UNL A   1      42.495  24.038  28.776  1.00  0.00     0.010 A 
ATOM     42  C   UNL A   1      43.594  25.657  27.345  1.00  0.00     0.010 A 
ATOM     43  C   UNL A   1      42.664  23.058  27.794  1.00  0.00     0.020 A 
ATOM     44  C   UNL A   1      43.740  24.687  26.349  1.00  0.00     0.020 A 
ATOM     45  C   UNL A   1      43.288  23.389  26.586  1.00  0.00     0.054 A 
BRANCH  45  46
ATOM     46  S   UNL A   1      43.467  22.103  25.319  1.00  0.00     0.124 S 
ATOM     47  O   UNL A   1      42.300  21.262  25.577  1.00  0.00    -0.237 OA
ATOM     48  O   UNL A   1      43.423  22.870  24.077  1.00  0.00    -0.237 OA
ATOM     49  O   UNL A   1      44.757  21.489  25.624  1.00  0.00    -0.744 OA
ENDBRANCH  45  46
ENDBRANCH  26  40
BRANCH  27  50
ATOM     50  C   UNL A   1      41.176  32.445  35.393  1.00  0.00    -0.014 A 
ATOM     51  C   UNL A   1      41.665  33.755  35.255  1.00  0.00     0.010 A 
ATOM     52  C   UNL A   1      40.367  32.129  36.501  1.00  0.00     0.010 A 
ATOM     53  C   UNL A   1      41.358  34.726  36.212  1.00  0.00     0.020 A 
ATOM     54  C   UNL A   1      40.028  33.105  37.440  1.00  0.00     0.020 A 
ATOM     55  C   UNL A   1      40.537  34.396  37.296  1.00  0.00     0.054 A 
BRANCH  55  56
ATOM     56  S   UNL A   1      40.104  35.688  38.492  1.00  0.00     0.124 S 
ATOM     57  O   UNL A   1      38.990  35.074  39.209  1.00  0.00    -0.237 OA
ATOM     58  O   UNL A   1      41.342  35.840  39.253  1.00  0.00    -0.237 OA
ATOM     59  O   UNL A   1      39.755  36.830  37.650  1.00  0.00    -0.744 OA
ENDBRANCH  55  56
ENDBRANCH  27  50
BRANCH  39  60
ATOM     60  C   UNL A   1      46.273  27.763  34.517  1.00  0.00    -0.014 A 
ATOM     61  C   UNL A   1      47.465  28.478  34.301  1.00  0.00     0.010 A 
ATOM     62  C   UNL A   1      46.240  26.768  35.511  1.00  0.00     0.010 A 
ATOM     63  C   UNL A   1      48.611  28.178  35.040  1.00  0.00     0.020 A 
ATOM     64  C   UNL A   1      47.375  26.486  36.274  1.00  0.00     0.020 A 
ATOM     65  C   UNL A   1      48.559  27.183  36.022  1.00  0.00     0.054 A 
BRANCH  65  66
ATOM     66  S   UNL A   1      50.051  26.835  36.993  1.00  0.00     0.124 S 
ATOM     67  O   UNL A   1      49.663  25.632  37.724  1.00  0.00    -0.237 OA
ATOM     68  O   UNL A   1      51.066  26.643  35.960  1.00  0.00    -0.237 OA
ATOM     69  O   UNL A   1      50.219  28.034  37.810  1.00  0.00    -0.744 OA
ENDBRANCH  65  66
ENDBRANCH  39  60
ENDBRANCH  13  14
ENDBRANCH   6   8
ENDBRANCH   3   4
ENDBRANCH   2   3
ENDBRANCH   1   2
BRANCH   1  70
ATOM     70  N   UNL A   1      31.625  26.824  25.394  1.00  0.00    -0.354 N 
ATOM     71  C   UNL A   1      31.533  26.600  24.043  1.00  0.00     0.244 C 
ATOM     72  H   UNL A   1      30.776  26.979  25.868  1.00  0.00     0.163 HD
ATOM     73  O   UNL A   1      30.418  26.473  23.532  1.00  0.00    -0.273 OA
BRANCH  71  74
ATOM     74  C   UNL A   1      32.813  26.618  23.191  1.00  0.00     0.197 C 
BRANCH  74  75
ATOM     75  N   UNL A   1      32.835  25.495  22.254  1.00  0.00    -0.340 N 
ATOM     76  C   UNL A   1      33.498  24.299  22.334  1.00  0.00     0.243 C 
ATOM     77  H   UNL A   1      32.292  25.618  21.443  1.00  0.00     0.164 HD
ATOM     78  O   UNL A   1      33.329  23.511  21.403  1.00  0.00    -0.273 OA
BRANCH  76  79
ATOM     79  C   UNL A   1      34.341  23.952  23.597  1.00  0.00     0.176 C 
BRANCH  79  80
ATOM     80  N   UNL A   1      33.472  23.506  24.695  1.00  0.00    -0.340 N 
ATOM     81  C   UNL A   1      32.790  22.360  25.009  1.00  0.00     0.251 C 
ATOM     82  H   UNL A   1      33.349  24.206  25.375  1.00  0.00     0.164 HD
ATOM     83  O   UNL A   1      31.916  22.477  25.874  1.00  0.00    -0.269 OA
BRANCH  81  84
ATOM     84  C   UNL A   1      33.049  20.991  24.460  1.00  0.00     0.040 A 
ATOM     85  C   UNL A   1      33.897  20.039  25.029  1.00  0.00     0.017 A 
ATOM     86  C   UNL A   1      32.264  20.578  23.362  1.00  0.00     0.017 A 
ATOM     87  C   UNL A   1      33.927  18.715  24.572  1.00  0.00     0.040 A 
ATOM     88  C   UNL A   1      32.303  19.259  22.888  1.00  0.00     0.040 A 
ATOM     89  C   UNL A   1      33.125  18.334  23.512  1.00  0.00     0.123 A 
ATOM     90  F   UNL A   1      33.137  17.061  23.101  1.00  0.00    -0.207 F 
ENDBRANCH  81  84
ENDBRANCH  79  80
BRANCH  79  91
ATOM     91  C   UNL A   1      35.497  22.959  23.327  1.00  0.00     0.070 C 
BRANCH  91  92
ATOM     92  C   UNL A   1      36.640  22.751  24.301  1.00  0.00    -0.045 A 
ATOM     93  C   UNL A   1      37.104  23.724  25.193  1.00  0.00     0.007 A 
ATOM     94  C   UNL A   1      37.214  21.467  24.374  1.00  0.00     0.007 A 
ATOM     95  C   UNL A   1      38.108  23.434  26.124  1.00  0.00     0.046 A 
ATOM     96  C   UNL A   1      38.221  21.174  25.297  1.00  0.00     0.046 A 
ATOM     97  C   UNL A   1      38.659  22.161  26.166  1.00  0.00     0.115 A 
BRANCH  97  98
ATOM     98  O   UNL A   1      39.636  21.840  27.063  1.00  0.00    -0.508 OA
ATOM     99  H   UNL A   1      39.666  20.980  27.434  1.00  0.00     0.293 HD
ENDBRANCH  97  98
ENDBRANCH  91  92
ENDBRANCH  79  91
ENDBRANCH  76  79
ENDBRANCH  74  75
BRANCH  74 100
ATOM    100  C   UNL A   1      32.892  27.977  22.477  1.00  0.00     0.191 C 
BRANCH 100 101
ATOM    101  O   UNL A   1      33.984  27.973  21.553  1.00  0.00    -0.394 OA
ATOM    102  H   UNL A   1      33.962  28.785  21.023  1.00  0.00     0.210 HD
ENDBRANCH 100 101
ENDBRANCH  74 100
ENDBRANCH  71  74
ENDBRANCH   1  70
TORSDOF 22
ENDMDL
MODEL 2
REMARK VINA RESULT:     -11.2      2.697      8.455
REMARK SMILES O=C(NCCCNC(=O)[C@H](CO)NC(=O)[C@H](Cc1ccc(O)cc1)NC(=O)c1ccc(F)cc1)c1ccc(-c2c3nc(c(-c4ccc(S(=O)(=O)[O-])cc4)c4ccc([nH]4)c(-c4ccc(S(=O)(=O)[O-])cc4)c4nc(c(-c5ccc(S(=O)(=O)[O-])cc5)c5ccc2[nH]5)C=C4)C=C3)cc1
REMARK SMILES IDX 6 1 5 2 4 3 3 4 1 5 2 6 35 8 36 9 94 10 37 11 93 12 38 13
REMARK SMILES IDX 39 14 40 15 87 16 41 17 92 18 86 19 88 20 42 21 91 22 85 23
REMARK SMILES IDX 84 24 43 26 73 27 54 28 72 29 55 30 58 31 71 32 89 33 56 34
REMARK SMILES IDX 57 35 70 37 90 38 59 39 44 40 45 41 53 42 46 43 52 44 47 45
REMARK SMILES IDX 48 46 49 47 50 48 51 49 74 50 75 51 83 52 76 53 82 54 77 55
REMARK SMILES IDX 78 56 79 57 80 58 81 59 60 60 61 61 69 62 62 63 68 64 63 65
REMARK SMILES IDX 64 66 65 67 66 68 67 69 7 70 8 71 9 73 10 74 13 75 14 76
REMARK SMILES IDX 15 78 16 79 25 80 26 81 27 83 28 84 29 85 34 86 30 87 33 88
REMARK SMILES IDX 31 89 32 90 17 91 18 92 19 93 24 94 20 95 23 96 21 97 22 98
REMARK SMILES IDX 11 100 12 101
REMARK H PARENT 3 7 88 25 58 36 7 72 13 77 25 82 22 99 12 102
REMARK Flexibility Score: inf
ROOT
ATOM      1  C   UNL A   1      31.764  27.542  25.447  1.00  0.00     0.117 C 
ENDROOT
BRANCH   1   2
ATOM      2  C   UNL A   1      32.957  27.496  26.378  1.00  0.00     0.042 C 
BRANCH   2   3
ATOM      3  C   UNL A   1      33.978  28.582  26.105  1.00  0.00     0.118 C 
BRANCH   3   4
ATOM      4  N   UNL A   1      33.745  29.806  26.868  1.00  0.00    -0.352 N 
ATOM      5  O   UNL A   1      34.079  31.440  28.380  1.00  0.00    -0.269 OA
ATOM      6  C   UNL A   1      34.538  30.471  27.778  1.00  0.00     0.251 C 
ATOM      7  H   UNL A   1      32.870  30.228  26.705  1.00  0.00     0.163 HD
BRANCH   6   8
ATOM      8  C   UNL A   1      35.915  30.008  28.062  1.00  0.00     0.039 A 
ATOM      9  C   UNL A   1      36.248  29.493  29.311  1.00  0.00     0.014 A 
ATOM     10  C   UNL A   1      36.900  30.096  27.072  1.00  0.00     0.014 A 
ATOM     11  C   UNL A   1      37.580  29.315  29.652  1.00  0.00     0.010 A 
ATOM     12  C   UNL A   1      38.226  29.757  27.371  1.00  0.00     0.010 A 
ATOM     13  C   UNL A   1      38.587  29.411  28.681  1.00  0.00    -0.014 A 
BRANCH  13  14
ATOM     14  C   UNL A   1      39.983  29.067  29.067  1.00  0.00     0.031 A 
ATOM     15  C   UNL A   1      40.842  30.016  29.861  1.00  0.00     0.074 A 
ATOM     16  C   UNL A   1      40.453  27.845  28.739  1.00  0.00     0.049 A 
ATOM     17  N   UNL A   1      42.061  29.840  30.305  1.00  0.00    -0.248 NA
ATOM     18  C   UNL A   1      40.270  31.331  30.194  1.00  0.00     0.031 C 
ATOM     19  C   UNL A   1      39.715  26.838  27.967  1.00  0.00     0.029 A 
ATOM     20  N   UNL A   1      41.638  27.223  29.037  1.00  0.00    -0.354 N 
ATOM     21  C   UNL A   1      42.415  31.024  30.940  1.00  0.00     0.074 A 
ATOM     22  C   UNL A   1      41.287  31.922  30.811  1.00  0.00     0.031 C 
ATOM     23  C   UNL A   1      40.428  25.706  27.919  1.00  0.00     0.029 A 
ATOM     24  C   UNL A   1      41.714  25.933  28.565  1.00  0.00     0.049 A 
ATOM     25  H   UNL A   1      42.364  27.657  29.540  1.00  0.00     0.167 HD
ATOM     26  C   UNL A   1      43.574  31.334  31.572  1.00  0.00     0.031 A 
ATOM     27  C   UNL A   1      42.713  25.033  28.613  1.00  0.00     0.031 A 
ATOM     28  C   UNL A   1      44.692  30.431  31.698  1.00  0.00     0.049 A 
ATOM     29  C   UNL A   1      43.994  25.413  29.292  1.00  0.00     0.074 A 
ATOM     30  C   UNL A   1      45.897  30.642  32.344  1.00  0.00     0.029 A 
ATOM     31  N   UNL A   1      44.745  29.152  31.164  1.00  0.00    -0.354 N 
ATOM     32  N   UNL A   1      44.296  26.532  29.906  1.00  0.00    -0.248 NA
ATOM     33  C   UNL A   1      45.068  24.414  29.284  1.00  0.00     0.031 C 
ATOM     34  C   UNL A   1      46.702  29.515  32.149  1.00  0.00     0.029 A 
ATOM     35  C   UNL A   1      45.973  28.573  31.441  1.00  0.00     0.049 A 
ATOM     36  H   UNL A   1      44.018  28.719  30.661  1.00  0.00     0.167 HD
ATOM     37  C   UNL A   1      45.594  26.368  30.369  1.00  0.00     0.074 A 
ATOM     38  C   UNL A   1      46.007  25.031  29.988  1.00  0.00     0.031 C 
ATOM     39  C   UNL A   1      46.374  27.245  31.048  1.00  0.00     0.031 A 
BRANCH  26  40
ATOM     40  C   UNL A   1      43.717  32.722  32.147  1.00  0.00    -0.014 A 
ATOM     41  C   UNL A   1      44.193  33.795  31.371  1.00  0.00     0.010 A 
ATOM     42  C   UNL A   1      43.305  32.970  33.471  1.00  0.00     0.010 A 
ATOM     43  C   UNL A   1      44.285  35.079  31.917  1.00  0.00     0.020 A 
ATOM     44  C   UNL A   1      43.370  34.257  34.011  1.00  0.00     0.020 A 
ATOM     45  C   UNL A   1      43.874  35.302  33.235  1.00  0.00     0.054 A 
BRANCH  45  46
ATOM     46  S   UNL A   1      43.979  36.984  33.907  1.00  0.00     0.124 S 
ATOM     47  O   UNL A   1      44.315  37.762  32.716  1.00  0.00    -0.237 OA
ATOM     48  O   UNL A   1      42.636  37.200  34.438  1.00  0.00    -0.237 OA
ATOM     49  O   UNL A   1      45.037  36.894  34.911  1.00  0.00    -0.744 OA
ENDBRANCH  45  46
ENDBRANCH  26  40
BRANCH  27  50
ATOM     50  C   UNL A   1      42.539  23.707  27.961  1.00  0.00    -0.014 A 
ATOM     51  C   UNL A   1      42.850  23.523  26.603  1.00  0.00     0.010 A 
ATOM     52  C   UNL A   1      42.095  22.605  28.718  1.00  0.00     0.010 A 
ATOM     53  C   UNL A   1      42.709  22.264  26.013  1.00  0.00     0.020 A 
ATOM     54  C   UNL A   1      41.987  21.338  28.140  1.00  0.00     0.020 A 
ATOM     55  C   UNL A   1      42.284  21.179  26.786  1.00  0.00     0.054 A 
BRANCH  55  56
ATOM     56  S   UNL A   1      42.166  19.544  26.012  1.00  0.00     0.124 S 
ATOM     57  O   UNL A   1      43.067  19.683  24.872  1.00  0.00    -0.237 OA
ATOM     58  O   UNL A   1      42.625  18.657  27.078  1.00  0.00    -0.237 OA
ATOM     59  O   UNL A   1      40.748  19.424  25.679  1.00  0.00    -0.744 OA
ENDBRANCH  55  56
ENDBRANCH  27  50
BRANCH  39  60
ATOM     60  C   UNL A   1      47.745  26.773  31.449  1.00  0.00    -0.014 A 
ATOM     61  C   UNL A   1      48.871  27.032  30.648  1.00  0.00     0.010 A 
ATOM     62  C   UNL A   1      47.912  26.088  32.666  1.00  0.00     0.010 A 
ATOM     63  C   UNL A   1      50.134  26.582  31.040  1.00  0.00     0.020 A 
ATOM     64  C   UNL A   1      49.177  25.664  33.077  1.00  0.00     0.020 A 
ATOM     65  C   UNL A   1      50.279  25.900  32.252  1.00  0.00     0.054 A 
BRANCH  65  66
ATOM     66  S   UNL A   1      51.934  25.356  32.756  1.00  0.00     0.124 S 
ATOM     67  O   UNL A   1      52.658  25.376  31.488  1.00  0.00    -0.237 OA
ATOM     68  O   UNL A   1      52.327  26.380  33.720  1.00  0.00    -0.237 OA
ATOM     69  O   UNL A   1      51.705  24.029  33.322  1.00  0.00    -0.744 OA
ENDBRANCH  65  66
ENDBRANCH  39  60
ENDBRANCH  13  14
ENDBRANCH   6   8
ENDBRANCH   3   4
ENDBRANCH   2   3
ENDBRANCH   1   2
BRANCH   1  70
ATOM     70  N   UNL A   1      31.946  26.814  24.203  1.00  0.00    -0.354 N 
ATOM     71  C   UNL A   1      31.496  25.553  23.900  1.00  0.00     0.244 C 
ATOM     72  H   UNL A   1      32.450  27.278  23.496  1.00  0.00     0.163 HD
ATOM     73  O   UNL A   1      31.624  25.134  22.748  1.00  0.00    -0.273 OA
BRANCH  71  74
ATOM     74  C   UNL A   1      30.944  24.663  25.025  1.00  0.00     0.197 C 
BRANCH  74  75
ATOM     75  N   UNL A   1      31.958  24.427  26.054  1.00  0.00    -0.340 N 
ATOM     76  C   UNL A   1      32.789  23.355  26.235  1.00  0.00     0.243 C 
ATOM     77  H   UNL A   1      32.056  25.150  26.715  1.00  0.00     0.164 HD
ATOM     78  O   UNL A   1      33.572  23.417  27.184  1.00  0.00    -0.273 OA
BRANCH  76  79
ATOM     79  C   UNL A   1      32.779  22.172  25.221  1.00  0.00     0.176 C 
BRANCH  79  80
ATOM     80  N   UNL A   1      33.376  22.582  23.942  1.00  0.00    -0.340 N 
ATOM     81  C   UNL A   1      34.578  23.096  23.535  1.00  0.00     0.251 C 
ATOM     82  H   UNL A   1      32.755  22.454  23.189  1.00  0.00     0.164 HD
ATOM     83  O   UNL A   1      34.592  23.598  22.406  1.00  0.00    -0.269 OA
BRANCH  81  84
ATOM     84  C   UNL A   1      35.871  23.044  24.291  1.00  0.00     0.040 A 
ATOM     85  C   UNL A   1      36.307  23.995  25.214  1.00  0.00     0.017 A 
ATOM     86  C   UNL A   1      36.640  21.866  24.168  1.00  0.00     0.017 A 
ATOM     87  C   UNL A   1      37.425  23.771  26.027  1.00  0.00     0.040 A 
ATOM     88  C   UNL A   1      37.770  21.644  24.968  1.00  0.00     0.040 A 
ATOM     89  C   UNL A   1      38.142  22.595  25.904  1.00  0.00     0.123 A 
ATOM     90  F   UNL A   1      39.190  22.376  26.707  1.00  0.00    -0.207 F 
ENDBRANCH  81  84
ENDBRANCH  79  80
BRANCH  79  91
ATOM     91  C   UNL A   1      33.408  20.870  25.769  1.00  0.00     0.070 C 
BRANCH  91  92
ATOM     92  C   UNL A   1      33.504  19.599  24.946  1.00  0.00    -0.045 A 
ATOM     93  C   UNL A   1      32.503  19.143  24.080  1.00  0.00     0.007 A 
ATOM     94  C   UNL A   1      34.713  18.879  24.989  1.00  0.00     0.007 A 
ATOM     95  C   UNL A   1      32.695  18.005  23.288  1.00  0.00     0.046 A 
ATOM     96  C   UNL A   1      34.907  17.740  24.205  1.00  0.00     0.046 A 
ATOM     97  C   UNL A   1      33.896  17.313  23.358  1.00  0.00     0.115 A 
BRANCH  97  98
ATOM     98  O   UNL A   1      34.121  16.203  22.597  1.00  0.00    -0.508 OA
ATOM     99  H   UNL A   1      34.593  15.477  22.955  1.00  0.00     0.293 HD
ENDBRANCH  97  98
ENDBRANCH  91  92
ENDBRANCH  79  91
ENDBRANCH  76  79
ENDBRANCH  74  75
BRANCH  74 100
ATOM    100  C   UNL A   1      29.683  25.337  25.591  1.00  0.00     0.191 C 
BRANCH 100 101
ATOM    101  O   UNL A   1      28.931  25.924  24.525  1.00  0.00    -0.394 OA
ATOM    102  H   UNL A   1      29.120  25.453  23.698  1.00  0.00     0.210 HD
ENDBRANCH 100 101
ENDBRANCH  74 100
ENDBRANCH  71  74
ENDBRANCH   1  70
TORSDOF 22
ENDMDL
MODEL 3
REMARK VINA RESULT:     -10.6      0.609      7.844
REMARK SMILES O=C(NCCCNC(=O)[C@H](CO)NC(=O)[C@H](Cc1ccc(O)cc1)NC(=O)c1ccc(F)cc1)c1ccc(-c2c3nc(c(-c4ccc(S(=O)(=O)[O-])cc4)c4ccc([nH]4)c(-c4ccc(S(=O)(=O)[O-])cc4)c4nc(c(-c5ccc(S(=O)(=O)[O-])cc5)c5ccc2[nH]5)C=C4)C=C3)cc1
REMARK SMILES IDX 6 1 5 2 4 3 3 4 1 5 2 6 35 8 36 9 94 10 37 11 93 12 38 13
REMARK SMILES IDX 39 14 40 15 87 16 41 17 92 18 86 19 88 20 42 21 91 22 85 23
REMARK SMILES IDX 84 24 43 26 73 27 54 28 72 29 55 30 58 31 71 32 89 33 56 34
REMARK SMILES IDX 57 35 70 37 90 38 59 39 44 40 45 41 53 42 46 43 52 44 47 45
REMARK SMILES IDX 48 46 49 47 50 48 51 49 74 50 75 51 83 52 76 53 82 54 77 55
REMARK SMILES IDX 78 56 79 57 80 58 81 59 60 60 61 61 69 62 62 63 68 64 63 65
REMARK SMILES IDX 64 66 65 67 66 68 67 69 7 70 8 71 9 73 10 74 13 75 14 76
REMARK SMILES IDX 15 78 16 79 25 80 26 81 27 83 28 84 29 85 34 86 30 87 33 88
REMARK SMILES IDX 31 89 32 90 17 91 18 92 19 93 24 94 20 95 23 96 21 97 22 98
REMARK SMILES IDX 11 100 12 101
REMARK H PARENT 3 7 88 25 58 36 7 72 13 77 25 82 22 99 12 102
REMARK Flexibility Score: inf
ROOT
ATOM      1  C   UNL A   1      32.809  27.058  26.548  1.00  0.00     0.117 C 
ENDROOT
BRANCH   1   2
ATOM      2  C   UNL A   1      32.590  28.459  27.076  1.00  0.00     0.042 C 
BRANCH   2   3
ATOM      3  C   UNL A   1      33.754  29.392  26.809  1.00  0.00     0.118 C 
BRANCH   3   4
ATOM      4  N   UNL A   1      33.524  30.759  27.272  1.00  0.00    -0.352 N 
ATOM      5  O   UNL A   1      33.822  32.671  28.422  1.00  0.00    -0.269 OA
ATOM      6  C   UNL A   1      34.277  31.580  28.082  1.00  0.00     0.251 C 
ATOM      7  H   UNL A   1      32.685  31.162  26.949  1.00  0.00     0.163 HD
BRANCH   6   8
ATOM      8  C   UNL A   1      35.606  31.148  28.572  1.00  0.00     0.039 A 
ATOM      9  C   UNL A   1      35.737  30.005  29.353  1.00  0.00     0.014 A 
ATOM     10  C   UNL A   1      36.745  31.898  28.257  1.00  0.00     0.014 A 
ATOM     11  C   UNL A   1      36.925  29.758  30.024  1.00  0.00     0.010 A 
ATOM     12  C   UNL A   1      37.986  31.550  28.807  1.00  0.00     0.010 A 
ATOM     13  C   UNL A   1      38.077  30.504  29.737  1.00  0.00    -0.014 A 
BRANCH  13  14
ATOM     14  C   UNL A   1      39.361  30.104  30.375  1.00  0.00     0.031 A 
ATOM     15  C   UNL A   1      39.872  30.781  31.620  1.00  0.00     0.074 A 
ATOM     16  C   UNL A   1      40.041  29.066  29.843  1.00  0.00     0.049 A 
ATOM     17  N   UNL A   1      40.952  30.516  32.311  1.00  0.00    -0.248 NA
ATOM     18  C   UNL A   1      39.082  31.902  32.154  1.00  0.00     0.031 C 
ATOM     19  C   UNL A   1      39.648  28.331  28.635  1.00  0.00     0.029 A 
ATOM     20  N   UNL A   1      41.179  28.423  30.260  1.00  0.00    -0.354 N 
ATOM     21  C   UNL A   1      40.990  31.449  33.340  1.00  0.00     0.074 A 
ATOM     22  C   UNL A   1      39.832  32.302  33.175  1.00  0.00     0.031 C 
ATOM     23  C   UNL A   1      40.480  27.298  28.454  1.00  0.00     0.029 A 
ATOM     24  C   UNL A   1      41.524  27.354  29.468  1.00  0.00     0.049 A 
ATOM     25  H   UNL A   1      41.697  28.701  31.049  1.00  0.00     0.167 HD
ATOM     26  C   UNL A   1      41.906  31.583  34.330  1.00  0.00     0.031 A 
ATOM     27  C   UNL A   1      42.580  26.520  29.523  1.00  0.00     0.031 A 
ATOM     28  C   UNL A   1      43.055  30.726  34.488  1.00  0.00     0.049 A 
ATOM     29  C   UNL A   1      43.593  26.709  30.611  1.00  0.00     0.074 A 
ATOM     30  C   UNL A   1      44.025  30.762  35.475  1.00  0.00     0.029 A 
ATOM     31  N   UNL A   1      43.394  29.684  33.636  1.00  0.00    -0.354 N 
ATOM     32  N   UNL A   1      43.594  27.586  31.586  1.00  0.00    -0.248 NA
ATOM     33  C   UNL A   1      44.746  25.802  30.606  1.00  0.00     0.031 C 
ATOM     34  C   UNL A   1      44.982  29.784  35.186  1.00  0.00     0.029 A 
ATOM     35  C   UNL A   1      44.573  29.090  34.058  1.00  0.00     0.049 A 
ATOM     36  H   UNL A   1      42.875  29.408  32.847  1.00  0.00     0.167 HD
ATOM     37  C   UNL A   1      44.743  27.327  32.321  1.00  0.00     0.074 A 
ATOM     38  C   UNL A   1      45.396  26.196  31.692  1.00  0.00     0.031 C 
ATOM     39  C   UNL A   1      45.216  27.971  33.417  1.00  0.00     0.031 A 
BRANCH  26  40
ATOM     40  C   UNL A   1      41.733  32.720  35.306  1.00  0.00    -0.014 A 
ATOM     41  C   UNL A   1      42.311  33.982  35.076  1.00  0.00     0.010 A 
ATOM     42  C   UNL A   1      40.920  32.541  36.442  1.00  0.00     0.010 A 
ATOM     43  C   UNL A   1      42.108  35.030  35.979  1.00  0.00     0.020 A 
ATOM     44  C   UNL A   1      40.692  33.595  37.333  1.00  0.00     0.020 A 
ATOM     45  C   UNL A   1      41.301  34.829  37.103  1.00  0.00     0.054 A 
BRANCH  45  46
ATOM     46  S   UNL A   1      41.033  36.216  38.242  1.00  0.00     0.124 S 
ATOM     47  O   UNL A   1      40.934  35.533  39.530  1.00  0.00    -0.237 OA
ATOM     48  O   UNL A   1      42.235  37.023  38.051  1.00  0.00    -0.237 OA
ATOM     49  O   UNL A   1      39.794  36.826  37.764  1.00  0.00    -0.744 OA
ENDBRANCH  45  46
ENDBRANCH  26  40
BRANCH  27  50
ATOM     50  C   UNL A   1      42.736  25.464  28.486  1.00  0.00    -0.014 A 
ATOM     51  C   UNL A   1      43.241  25.771  27.212  1.00  0.00     0.010 A 
ATOM     52  C   UNL A   1      42.413  24.127  28.791  1.00  0.00     0.010 A 
ATOM     53  C   UNL A   1      43.410  24.763  26.258  1.00  0.00     0.020 A 
ATOM     54  C   UNL A   1      42.613  23.112  27.853  1.00  0.00     0.020 A 
ATOM     55  C   UNL A   1      43.099  23.439  26.587  1.00  0.00     0.054 A 
BRANCH  55  56
ATOM     56  S   UNL A   1      43.383  22.141  25.354  1.00  0.00     0.124 S 
ATOM     57  O   UNL A   1      43.381  22.901  24.108  1.00  0.00    -0.237 OA
ATOM     58  O   UNL A   1      44.675  21.595  25.762  1.00  0.00    -0.237 OA
ATOM     59  O   UNL A   1      42.248  21.239  25.540  1.00  0.00    -0.744 OA
ENDBRANCH  55  56
ENDBRANCH  27  50
BRANCH  39  60
ATOM     60  C   UNL A   1      46.488  27.443  34.024  1.00  0.00    -0.014 A 
ATOM     61  C   UNL A   1      47.744  27.945  33.641  1.00  0.00     0.010 A 
ATOM     62  C   UNL A   1      46.420  26.453  35.020  1.00  0.00     0.010 A 
ATOM     63  C   UNL A   1      48.912  27.439  34.216  1.00  0.00     0.020 A 
ATOM     64  C   UNL A   1      47.582  25.966  35.621  1.00  0.00     0.020 A 
ATOM     65  C   UNL A   1      48.823  26.451  35.203  1.00  0.00     0.054 A 
BRANCH  65  66
ATOM     66  S   UNL A   1      50.351  25.835  35.961  1.00  0.00     0.124 S 
ATOM     67  O   UNL A   1      50.075  26.009  37.384  1.00  0.00    -0.237 OA
ATOM     68  O   UNL A   1      50.403  24.451  35.495  1.00  0.00    -0.237 OA
ATOM     69  O   UNL A   1      51.386  26.710  35.415  1.00  0.00    -0.744 OA
ENDBRANCH  65  66
ENDBRANCH  39  60
ENDBRANCH  13  14
ENDBRANCH   6   8
ENDBRANCH   3   4
ENDBRANCH   2   3
ENDBRANCH   1   2
BRANCH   1  70
ATOM     70  N   UNL A   1      31.632  26.454  25.945  1.00  0.00    -0.354 N 
ATOM     71  C   UNL A   1      31.462  26.083  24.635  1.00  0.00     0.244 C 
ATOM     72  H   UNL A   1      30.870  26.291  26.546  1.00  0.00     0.163 HD
ATOM     73  O   UNL A   1      30.446  25.461  24.317  1.00  0.00    -0.273 OA
BRANCH  71  74
ATOM     74  C   UNL A   1      32.487  26.543  23.586  1.00  0.00     0.197 C 
BRANCH  74  75
ATOM     75  N   UNL A   1      32.627  25.552  22.518  1.00  0.00    -0.340 N 
ATOM     76  C   UNL A   1      33.365  24.399  22.483  1.00  0.00     0.243 C 
ATOM     77  H   UNL A   1      32.112  25.743  21.702  1.00  0.00     0.164 HD
ATOM     78  O   UNL A   1      33.292  23.727  21.455  1.00  0.00    -0.273 OA
BRANCH  76  79
ATOM     79  C   UNL A   1      34.175  23.947  23.736  1.00  0.00     0.176 C 
BRANCH  79  80
ATOM     80  N   UNL A   1      33.273  23.461  24.789  1.00  0.00    -0.340 N 
ATOM     81  C   UNL A   1      32.609  22.293  25.055  1.00  0.00     0.251 C 
ATOM     82  H   UNL A   1      33.104  24.146  25.474  1.00  0.00     0.164 HD
ATOM     83  O   UNL A   1      31.697  22.372  25.885  1.00  0.00    -0.269 OA
BRANCH  81  84
ATOM     84  C   UNL A   1      32.927  20.940  24.496  1.00  0.00     0.040 A 
ATOM     85  C   UNL A   1      33.718  19.973  25.118  1.00  0.00     0.017 A 
ATOM     86  C   UNL A   1      32.254  20.558  23.314  1.00  0.00     0.017 A 
ATOM     87  C   UNL A   1      33.798  18.663  24.628  1.00  0.00     0.040 A 
ATOM     88  C   UNL A   1      32.344  19.254  22.810  1.00  0.00     0.040 A 
ATOM     89  C   UNL A   1      33.105  18.312  23.484  1.00  0.00     0.123 A 
ATOM     90  F   UNL A   1      33.163  17.051  23.041  1.00  0.00    -0.207 F 
ENDBRANCH  81  84
ENDBRANCH  79  80
BRANCH  79  91
ATOM     91  C   UNL A   1      35.305  22.938  23.421  1.00  0.00     0.070 C 
BRANCH  91  92
ATOM     92  C   UNL A   1      36.503  22.744  24.330  1.00  0.00    -0.045 A 
ATOM     93  C   UNL A   1      37.025  23.734  25.171  1.00  0.00     0.007 A 
ATOM     94  C   UNL A   1      37.074  21.458  24.398  1.00  0.00     0.007 A 
ATOM     95  C   UNL A   1      38.081  23.458  26.046  1.00  0.00     0.046 A 
ATOM     96  C   UNL A   1      38.133  21.180  25.265  1.00  0.00     0.046 A 
ATOM     97  C   UNL A   1      38.627  22.182  26.085  1.00  0.00     0.115 A 
BRANCH  97  98
ATOM     98  O   UNL A   1      39.654  21.875  26.928  1.00  0.00    -0.508 OA
ATOM     99  H   UNL A   1      40.411  21.429  26.602  1.00  0.00     0.293 HD
ENDBRANCH  97  98
ENDBRANCH  91  92
ENDBRANCH  79  91
ENDBRANCH  76  79
ENDBRANCH  74  75
BRANCH  74 100
ATOM    100  C   UNL A   1      32.043  27.916  23.054  1.00  0.00     0.191 C 
BRANCH 100 101
ATOM    101  O   UNL A   1      32.736  28.208  21.838  1.00  0.00    -0.394 OA
ATOM    102  H   UNL A   1      32.471  29.085  21.517  1.00  0.00     0.210 HD
ENDBRANCH 100 101
ENDBRANCH  74 100
ENDBRANCH  71  74
ENDBRANCH   1  70
TORSDOF 22
ENDMDL
