MODEL 1
REMARK VINA RESULT:     -11.8      0.000      0.000
REMARK SMILES COc1cccc(C(=O)N[C@H]2C=C[C@@H](C(=O)NCCCNC(=O)c3ccc(-c4c5nc(c(-c6ccc(S(=O)(=O)[O-])cc6)c6ccc([nH]6)c(-c6ccc(S(=O)(=O)[O-])cc6)c6nc(c(-c7ccc(S(=O)(=O)[O-])cc7)c7ccc4[nH]7)C=C6)C=C5)cc3)C2)c1
REMARK SMILES IDX 19 1 18 2 17 3 15 4 16 5 14 7 11 8 12 9 84 10 13 11 10 12
REMARK SMILES IDX 8 13 9 14 7 16 3 17 4 18 85 19 5 20 6 21 2 22 1 23 20 24
REMARK SMILES IDX 21 25 22 26 23 28 24 29 25 30 83 31 26 32 82 33 27 34 28 35
REMARK SMILES IDX 29 36 76 37 30 38 81 39 75 40 77 41 31 42 80 43 74 44 73 45
REMARK SMILES IDX 32 47 62 48 43 49 61 50 44 51 47 52 60 53 78 54 45 55 46 56
REMARK SMILES IDX 59 58 79 59 48 60 33 61 34 62 42 63 35 64 41 65 36 66 37 67
REMARK SMILES IDX 38 68 39 69 40 70 63 71 64 72 72 73 65 74 71 75 66 76 67 77
REMARK SMILES IDX 68 78 69 79 70 80 49 81 50 82 58 83 51 84 57 85 52 86 53 87
REMARK SMILES IDX 54 88 55 89 56 90
REMARK H PARENT 17 6 10 15 21 27 77 46 47 57
REMARK Flexibility Score: inf
ROOT
ATOM      1  C   UNL A   1      41.321  21.689  26.746  1.00  0.00     0.042 C 
ENDROOT
BRANCH   1   2
ATOM      2  C   UNL A   1      39.846  21.462  26.456  1.00  0.00     0.117 C 
BRANCH   2   3
ATOM      3  N   UNL A   1      39.046  22.654  26.675  1.00  0.00    -0.356 N 
ATOM      4  C   UNL A   1      37.920  23.095  26.050  1.00  0.00     0.227 C 
ATOM      5  O   UNL A   1      37.411  24.143  26.462  1.00  0.00    -0.274 OA
ATOM      6  H   UNL A   1      39.372  23.241  27.396  1.00  0.00     0.163 HD
BRANCH   4   7
ATOM      7  C   UNL A   1      37.296  22.355  24.866  1.00  0.00     0.103 C 
ATOM      8  C   UNL A   1      35.039  21.702  24.157  1.00  0.00     0.106 C 
ATOM      9  C   UNL A   1      35.518  22.921  23.439  1.00  0.00    -0.006 C 
ATOM     10  C   UNL A   1      36.094  21.494  25.257  1.00  0.00     0.047 C 
ATOM     11  C   UNL A   1      36.766  23.251  23.789  1.00  0.00    -0.016 C 
BRANCH   8  12
ATOM     12  N   UNL A   1      33.732  21.919  24.731  1.00  0.00    -0.346 N 
ATOM     13  C   UNL A   1      32.698  21.048  24.997  1.00  0.00     0.251 C 
ATOM     14  O   UNL A   1      31.714  21.495  25.581  1.00  0.00    -0.269 OA
ATOM     15  H   UNL A   1      33.547  22.855  24.976  1.00  0.00     0.164 HD
BRANCH  13  16
ATOM     16  C   UNL A   1      32.694  19.632  24.526  1.00  0.00     0.043 A 
ATOM     17  C   UNL A   1      33.243  17.281  24.803  1.00  0.00     0.119 A 
ATOM     18  C   UNL A   1      32.952  17.056  23.460  1.00  0.00     0.046 A 
ATOM     19  C   UNL A   1      33.028  18.549  25.341  1.00  0.00     0.060 A 
ATOM     20  C   UNL A   1      32.475  18.097  22.661  1.00  0.00     0.005 A 
ATOM     21  C   UNL A   1      32.365  19.386  23.187  1.00  0.00     0.014 A 
BRANCH  17  22
ATOM     22  O   UNL A   1      33.738  16.209  25.497  1.00  0.00    -0.497 OA
ATOM     23  C   UNL A   1      35.119  15.910  25.307  1.00  0.00     0.278 C 
ENDBRANCH  17  22
ENDBRANCH  13  16
ENDBRANCH   8  12
ENDBRANCH   4   7
ENDBRANCH   2   3
ENDBRANCH   1   2
BRANCH   1  24
ATOM     24  C   UNL A   1      41.635  23.109  27.189  1.00  0.00     0.118 C 
BRANCH  24  25
ATOM     25  N   UNL A   1      41.756  24.027  26.062  1.00  0.00    -0.352 N 
ATOM     26  C   UNL A   1      41.620  25.395  26.017  1.00  0.00     0.251 C 
ATOM     27  H   UNL A   1      41.967  23.602  25.199  1.00  0.00     0.163 HD
ATOM     28  O   UNL A   1      41.535  25.964  24.936  1.00  0.00    -0.269 OA
BRANCH  26  29
ATOM     29  C   UNL A   1      41.558  26.166  27.277  1.00  0.00     0.039 A 
ATOM     30  C   UNL A   1      42.612  27.022  27.604  1.00  0.00     0.014 A 
ATOM     31  C   UNL A   1      40.457  26.051  28.127  1.00  0.00     0.014 A 
ATOM     32  C   UNL A   1      42.515  27.833  28.737  1.00  0.00     0.010 A 
ATOM     33  C   UNL A   1      40.321  26.919  29.203  1.00  0.00     0.010 A 
ATOM     34  C   UNL A   1      41.345  27.825  29.515  1.00  0.00    -0.014 A 
BRANCH  34  35
ATOM     35  C   UNL A   1      41.150  28.774  30.640  1.00  0.00     0.031 A 
ATOM     36  C   UNL A   1      41.983  28.649  31.886  1.00  0.00     0.074 A 
ATOM     37  C   UNL A   1      40.160  29.686  30.573  1.00  0.00     0.049 A 
ATOM     38  N   UNL A   1      41.886  29.309  33.011  1.00  0.00    -0.248 NA
ATOM     39  C   UNL A   1      43.047  27.631  31.876  1.00  0.00     0.031 C 
ATOM     40  C   UNL A   1      39.261  29.881  29.432  1.00  0.00     0.029 A 
ATOM     41  N   UNL A   1      39.730  30.612  31.492  1.00  0.00    -0.354 N 
ATOM     42  C   UNL A   1      42.862  28.777  33.846  1.00  0.00     0.074 A 
ATOM     43  C   UNL A   1      43.507  27.709  33.116  1.00  0.00     0.031 C 
ATOM     44  C   UNL A   1      38.406  30.877  29.710  1.00  0.00     0.029 A 
ATOM     45  C   UNL A   1      38.654  31.355  31.066  1.00  0.00     0.049 A 
ATOM     46  H   UNL A   1      40.153  30.732  32.373  1.00  0.00     0.167 HD
ATOM     47  C   UNL A   1      43.200  29.158  35.101  1.00  0.00     0.031 A 
ATOM     48  C   UNL A   1      37.935  32.302  31.699  1.00  0.00     0.031 A 
ATOM     49  C   UNL A   1      42.554  30.224  35.819  1.00  0.00     0.049 A 
ATOM     50  C   UNL A   1      38.302  32.676  33.109  1.00  0.00     0.074 A 
ATOM     51  C   UNL A   1      42.858  30.722  37.073  1.00  0.00     0.029 A 
ATOM     52  N   UNL A   1      41.467  30.950  35.353  1.00  0.00    -0.354 N 
ATOM     53  N   UNL A   1      39.276  32.212  33.857  1.00  0.00    -0.248 NA
ATOM     54  C   UNL A   1      37.477  33.702  33.762  1.00  0.00     0.031 C 
ATOM     55  C   UNL A   1      41.917  31.705  37.392  1.00  0.00     0.029 A 
ATOM     56  C   UNL A   1      41.067  31.867  36.310  1.00  0.00     0.049 A 
ATOM     57  H   UNL A   1      41.045  30.831  34.471  1.00  0.00     0.167 HD
ATOM     58  C   UNL A   1      39.193  32.906  35.060  1.00  0.00     0.074 A 
ATOM     59  C   UNL A   1      38.087  33.832  34.933  1.00  0.00     0.031 C 
ATOM     60  C   UNL A   1      39.962  32.784  36.169  1.00  0.00     0.031 A 
BRANCH  47  61
ATOM     61  C   UNL A   1      44.314  28.407  35.783  1.00  0.00    -0.014 A 
ATOM     62  C   UNL A   1      44.053  27.265  36.563  1.00  0.00     0.010 A 
ATOM     63  C   UNL A   1      45.647  28.821  35.604  1.00  0.00     0.010 A 
ATOM     64  C   UNL A   1      45.098  26.577  37.183  1.00  0.00     0.020 A 
ATOM     65  C   UNL A   1      46.699  28.117  36.199  1.00  0.00     0.020 A 
ATOM     66  C   UNL A   1      46.416  27.008  36.998  1.00  0.00     0.054 A 
BRANCH  66  67
ATOM     67  S   UNL A   1      47.753  26.079  37.796  1.00  0.00     0.124 S 
ATOM     68  O   UNL A   1      47.170  25.773  39.100  1.00  0.00    -0.237 OA
ATOM     69  O   UNL A   1      47.926  24.937  36.902  1.00  0.00    -0.237 OA
ATOM     70  O   UNL A   1      48.867  27.024  37.820  1.00  0.00    -0.744 OA
ENDBRANCH  66  67
ENDBRANCH  47  61
BRANCH  48  71
ATOM     71  C   UNL A   1      36.791  32.957  31.006  1.00  0.00    -0.014 A 
ATOM     72  C   UNL A   1      35.470  32.709  31.417  1.00  0.00     0.010 A 
ATOM     73  C   UNL A   1      37.016  33.844  29.936  1.00  0.00     0.010 A 
ATOM     74  C   UNL A   1      34.396  33.319  30.762  1.00  0.00     0.020 A 
ATOM     75  C   UNL A   1      35.947  34.481  29.298  1.00  0.00     0.020 A 
ATOM     76  C   UNL A   1      34.642  34.203  29.707  1.00  0.00     0.054 A 
BRANCH  76  77
ATOM     77  S   UNL A   1      33.232  35.013  28.901  1.00  0.00     0.124 S 
ATOM     78  O   UNL A   1      33.852  36.206  28.334  1.00  0.00    -0.237 OA
ATOM     79  O   UNL A   1      32.799  34.005  27.937  1.00  0.00    -0.237 OA
ATOM     80  O   UNL A   1      32.300  35.255  30.001  1.00  0.00    -0.744 OA
ENDBRANCH  76  77
ENDBRANCH  48  71
BRANCH  60  81
ATOM     81  C   UNL A   1      39.656  33.686  37.334  1.00  0.00    -0.014 A 
ATOM     82  C   UNL A   1      38.800  33.270  38.369  1.00  0.00     0.010 A 
ATOM     83  C   UNL A   1      40.301  34.933  37.435  1.00  0.00     0.010 A 
ATOM     84  C   UNL A   1      38.583  34.091  39.479  1.00  0.00     0.020 A 
ATOM     85  C   UNL A   1      40.110  35.743  38.558  1.00  0.00     0.020 A 
ATOM     86  C   UNL A   1      39.246  35.320  39.570  1.00  0.00     0.054 A 
BRANCH  86  87
ATOM     87  S   UNL A   1      39.007  36.329  41.058  1.00  0.00     0.124 S 
ATOM     88  O   UNL A   1      37.896  35.648  41.713  1.00  0.00    -0.237 OA
ATOM     89  O   UNL A   1      40.300  36.216  41.730  1.00  0.00    -0.237 OA
ATOM     90  O   UNL A   1      38.700  37.657  40.530  1.00  0.00    -0.744 OA
ENDBRANCH  86  87
ENDBRANCH  60  81
ENDBRANCH  34  35
ENDBRANCH  26  29
ENDBRANCH  24  25
ENDBRANCH   1  24
TORSDOF 16
ENDMDL
MODEL 2
REMARK VINA RESULT:     -11.6      5.403     12.899
REMARK SMILES COc1cccc(C(=O)N[C@H]2C=C[C@@H](C(=O)NCCCNC(=O)c3ccc(-c4c5nc(c(-c6ccc(S(=O)(=O)[O-])cc6)c6ccc([nH]6)c(-c6ccc(S(=O)(=O)[O-])cc6)c6nc(c(-c7ccc(S(=O)(=O)[O-])cc7)c7ccc4[nH]7)C=C6)C=C5)cc3)C2)c1
REMARK SMILES IDX 19 1 18 2 17 3 15 4 16 5 14 7 11 8 12 9 84 10 13 11 10 12
REMARK SMILES IDX 8 13 9 14 7 16 3 17 4 18 85 19 5 20 6 21 2 22 1 23 20 24
REMARK SMILES IDX 21 25 22 26 23 28 24 29 25 30 83 31 26 32 82 33 27 34 28 35
REMARK SMILES IDX 29 36 76 37 30 38 81 39 75 40 77 41 31 42 80 43 74 44 73 45
REMARK SMILES IDX 32 47 62 48 43 49 61 50 44 51 47 52 60 53 78 54 45 55 46 56
REMARK SMILES IDX 59 58 79 59 48 60 33 61 34 62 42 63 35 64 41 65 36 66 37 67
REMARK SMILES IDX 38 68 39 69 40 70 63 71 64 72 72 73 65 74 71 75 66 76 67 77
REMARK SMILES IDX 68 78 69 79 70 80 49 81 50 82 58 83 51 84 57 85 52 86 53 87
REMARK SMILES IDX 54 88 55 89 56 90
REMARK H PARENT 17 6 10 15 21 27 77 46 47 57
REMARK Flexibility Score: inf
ROOT
ATOM      1  C   UNL A   1      34.524  34.643  27.970  1.00  0.00     0.042 C 
ENDROOT
BRANCH   1   2
ATOM      2  C   UNL A   1      33.187  34.686  28.691  1.00  0.00     0.117 C 
BRANCH   2   3
ATOM      3  N   UNL A   1      32.946  35.962  29.342  1.00  0.00    -0.356 N 
ATOM      4  C   UNL A   1      33.059  36.329  30.647  1.00  0.00     0.227 C 
ATOM      5  O   UNL A   1      32.823  37.507  30.932  1.00  0.00    -0.274 OA
ATOM      6  H   UNL A   1      32.653  36.682  28.737  1.00  0.00     0.163 HD
BRANCH   4   7
ATOM      7  C   UNL A   1      33.440  35.336  31.747  1.00  0.00     0.103 C 
ATOM      8  C   UNL A   1      35.515  34.515  32.769  1.00  0.00     0.106 C 
ATOM      9  C   UNL A   1      34.850  35.550  33.615  1.00  0.00    -0.006 C 
ATOM     10  C   UNL A   1      34.729  34.570  31.448  1.00  0.00     0.047 C 
ATOM     11  C   UNL A   1      33.694  35.965  33.083  1.00  0.00    -0.016 C 
BRANCH   8  12
ATOM     12  N   UNL A   1      36.906  34.838  32.554  1.00  0.00    -0.346 N 
ATOM     13  C   UNL A   1      38.061  34.196  32.945  1.00  0.00     0.251 C 
ATOM     14  O   UNL A   1      39.129  34.651  32.542  1.00  0.00    -0.269 OA
ATOM     15  H   UNL A   1      37.056  35.662  32.036  1.00  0.00     0.164 HD
BRANCH  13  16
ATOM     16  C   UNL A   1      38.063  33.047  33.897  1.00  0.00     0.043 A 
ATOM     17  C   UNL A   1      37.752  32.103  36.114  1.00  0.00     0.119 A 
ATOM     18  C   UNL A   1      38.397  30.938  35.707  1.00  0.00     0.046 A 
ATOM     19  C   UNL A   1      37.517  33.110  35.180  1.00  0.00     0.060 A 
ATOM     20  C   UNL A   1      38.823  30.796  34.385  1.00  0.00     0.005 A 
ATOM     21  C   UNL A   1      38.674  31.855  33.487  1.00  0.00     0.014 A 
BRANCH  17  22
ATOM     22  O   UNL A   1      37.404  32.164  37.438  1.00  0.00    -0.497 OA
ATOM     23  C   UNL A   1      38.178  33.033  38.261  1.00  0.00     0.278 C 
ENDBRANCH  17  22
ENDBRANCH  13  16
ENDBRANCH   8  12
ENDBRANCH   4   7
ENDBRANCH   2   3
ENDBRANCH   1   2
BRANCH   1  24
ATOM     24  C   UNL A   1      35.164  33.264  27.973  1.00  0.00     0.118 C 
BRANCH  24  25
ATOM     25  N   UNL A   1      34.177  32.195  27.892  1.00  0.00    -0.352 N 
ATOM     26  C   UNL A   1      34.350  30.830  27.866  1.00  0.00     0.251 C 
ATOM     27  H   UNL A   1      33.240  32.495  27.848  1.00  0.00     0.163 HD
ATOM     28  O   UNL A   1      33.412  30.102  27.568  1.00  0.00    -0.269 OA
BRANCH  26  29
ATOM     29  C   UNL A   1      35.675  30.255  28.182  1.00  0.00     0.039 A 
ATOM     30  C   UNL A   1      36.633  30.158  27.171  1.00  0.00     0.014 A 
ATOM     31  C   UNL A   1      35.971  29.824  29.476  1.00  0.00     0.014 A 
ATOM     32  C   UNL A   1      37.921  29.715  27.483  1.00  0.00     0.010 A 
ATOM     33  C   UNL A   1      37.274  29.468  29.804  1.00  0.00     0.010 A 
ATOM     34  C   UNL A   1      38.265  29.417  28.813  1.00  0.00    -0.014 A 
BRANCH  34  35
ATOM     35  C   UNL A   1      39.657  29.082  29.202  1.00  0.00     0.031 A 
ATOM     36  C   UNL A   1      40.531  30.123  29.846  1.00  0.00     0.074 A 
ATOM     37  C   UNL A   1      40.160  27.871  28.890  1.00  0.00     0.049 A 
ATOM     38  N   UNL A   1      41.800  30.056  30.155  1.00  0.00    -0.248 NA
ATOM     39  C   UNL A   1      39.904  31.418  30.159  1.00  0.00     0.031 C 
ATOM     40  C   UNL A   1      39.422  26.789  28.233  1.00  0.00     0.029 A 
ATOM     41  N   UNL A   1      41.418  27.350  29.069  1.00  0.00    -0.354 N 
ATOM     42  C   UNL A   1      42.127  31.300  30.683  1.00  0.00     0.074 A 
ATOM     43  C   UNL A   1      40.937  32.118  30.606  1.00  0.00     0.031 C 
ATOM     44  C   UNL A   1      40.231  25.729  28.086  1.00  0.00     0.029 A 
ATOM     45  C   UNL A   1      41.559  26.070  28.585  1.00  0.00     0.049 A 
ATOM     46  H   UNL A   1      42.150  27.845  29.503  1.00  0.00     0.167 HD
ATOM     47  C   UNL A   1      43.308  31.717  31.198  1.00  0.00     0.031 A 
ATOM     48  C   UNL A   1      42.639  25.266  28.529  1.00  0.00     0.031 A 
ATOM     49  C   UNL A   1      44.486  30.895  31.272  1.00  0.00     0.049 A 
ATOM     50  C   UNL A   1      43.950  25.768  29.069  1.00  0.00     0.074 A 
ATOM     51  C   UNL A   1      45.716  31.206  31.827  1.00  0.00     0.029 A 
ATOM     52  N   UNL A   1      44.589  29.606  30.769  1.00  0.00    -0.354 N 
ATOM     53  N   UNL A   1      44.221  26.922  29.631  1.00  0.00    -0.248 NA
ATOM     54  C   UNL A   1      45.101  24.860  28.971  1.00  0.00     0.031 C 
ATOM     55  C   UNL A   1      46.580  30.129  31.602  1.00  0.00     0.029 A 
ATOM     56  C   UNL A   1      45.871  29.122  30.968  1.00  0.00     0.049 A 
ATOM     57  H   UNL A   1      43.857  29.110  30.336  1.00  0.00     0.167 HD
ATOM     58  C   UNL A   1      45.569  26.870  29.972  1.00  0.00     0.074 A 
ATOM     59  C   UNL A   1      46.052  25.565  29.571  1.00  0.00     0.031 C 
ATOM     60  C   UNL A   1      46.336  27.818  30.562  1.00  0.00     0.031 A 
BRANCH  47  61
ATOM     61  C   UNL A   1      43.386  33.130  31.715  1.00  0.00    -0.014 A 
ATOM     62  C   UNL A   1      42.986  33.449  33.026  1.00  0.00     0.010 A 
ATOM     63  C   UNL A   1      43.911  34.146  30.895  1.00  0.00     0.010 A 
ATOM     64  C   UNL A   1      43.071  34.763  33.492  1.00  0.00     0.020 A 
ATOM     65  C   UNL A   1      44.026  35.457  31.368  1.00  0.00     0.020 A 
ATOM     66  C   UNL A   1      43.589  35.760  32.659  1.00  0.00     0.054 A 
BRANCH  66  67
ATOM     67  S   UNL A   1      43.710  37.451  33.302  1.00  0.00     0.124 S 
ATOM     68  O   UNL A   1      43.695  38.242  32.073  1.00  0.00    -0.237 OA
ATOM     69  O   UNL A   1      42.515  37.562  34.134  1.00  0.00    -0.237 OA
ATOM     70  O   UNL A   1      44.977  37.458  34.029  1.00  0.00    -0.744 OA
ENDBRANCH  66  67
ENDBRANCH  47  61
BRANCH  48  71
ATOM     71  C   UNL A   1      42.525  23.905  27.934  1.00  0.00    -0.014 A 
ATOM     72  C   UNL A   1      42.259  22.790  28.748  1.00  0.00     0.010 A 
ATOM     73  C   UNL A   1      42.671  23.717  26.547  1.00  0.00     0.010 A 
ATOM     74  C   UNL A   1      42.159  21.512  28.191  1.00  0.00     0.020 A 
ATOM     75  C   UNL A   1      42.541  22.444  25.982  1.00  0.00     0.020 A 
ATOM     76  C   UNL A   1      42.299  21.347  26.810  1.00  0.00     0.054 A 
BRANCH  76  77
ATOM     77  S   UNL A   1      42.123  19.684  26.108  1.00  0.00     0.124 S 
ATOM     78  O   UNL A   1      42.473  18.837  27.244  1.00  0.00    -0.237 OA
ATOM     79  O   UNL A   1      40.719  19.657  25.707  1.00  0.00    -0.237 OA
ATOM     80  O   UNL A   1      43.080  19.674  25.003  1.00  0.00    -0.744 OA
ENDBRANCH  76  77
ENDBRANCH  48  71
BRANCH  60  81
ATOM     81  C   UNL A   1      47.778  27.481  30.834  1.00  0.00    -0.014 A 
ATOM     82  C   UNL A   1      48.151  26.756  31.979  1.00  0.00     0.010 A 
ATOM     83  C   UNL A   1      48.762  27.823  29.887  1.00  0.00     0.010 A 
ATOM     84  C   UNL A   1      49.484  26.389  32.179  1.00  0.00     0.020 A 
ATOM     85  C   UNL A   1      50.091  27.432  30.068  1.00  0.00     0.020 A 
ATOM     86  C   UNL A   1      50.445  26.723  31.218  1.00  0.00     0.054 A 
BRANCH  86  87
ATOM     87  S   UNL A   1      52.153  26.166  31.465  1.00  0.00     0.124 S 
ATOM     88  O   UNL A   1      51.962  24.873  32.114  1.00  0.00    -0.237 OA
ATOM     89  O   UNL A   1      52.672  26.115  30.100  1.00  0.00    -0.237 OA
ATOM     90  O   UNL A   1      52.739  27.206  32.309  1.00  0.00    -0.744 OA
ENDBRANCH  86  87
ENDBRANCH  60  81
ENDBRANCH  34  35
ENDBRANCH  26  29
ENDBRANCH  24  25
ENDBRANCH   1  24
TORSDOF 16
ENDMDL
MODEL 3
REMARK VINA RESULT:     -11.6      5.099     10.423
REMARK SMILES COc1cccc(C(=O)N[C@H]2C=C[C@@H](C(=O)NCCCNC(=O)c3ccc(-c4c5nc(c(-c6ccc(S(=O)(=O)[O-])cc6)c6ccc([nH]6)c(-c6ccc(S(=O)(=O)[O-])cc6)c6nc(c(-c7ccc(S(=O)(=O)[O-])cc7)c7ccc4[nH]7)C=C6)C=C5)cc3)C2)c1
REMARK SMILES IDX 19 1 18 2 17 3 15 4 16 5 14 7 11 8 12 9 84 10 13 11 10 12
REMARK SMILES IDX 8 13 9 14 7 16 3 17 4 18 85 19 5 20 6 21 2 22 1 23 20 24
REMARK SMILES IDX 21 25 22 26 23 28 24 29 25 30 83 31 26 32 82 33 27 34 28 35
REMARK SMILES IDX 29 36 76 37 30 38 81 39 75 40 77 41 31 42 80 43 74 44 73 45
REMARK SMILES IDX 32 47 62 48 43 49 61 50 44 51 47 52 60 53 78 54 45 55 46 56
REMARK SMILES IDX 59 58 79 59 48 60 33 61 34 62 42 63 35 64 41 65 36 66 37 67
REMARK SMILES IDX 38 68 39 69 40 70 63 71 64 72 72 73 65 74 71 75 66 76 67 77
REMARK SMILES IDX 68 78 69 79 70 80 49 81 50 82 58 83 51 84 57 85 52 86 53 87
REMARK SMILES IDX 54 88 55 89 56 90
REMARK H PARENT 17 6 10 15 21 27 77 46 47 57
REMARK Flexibility Score: inf
ROOT
ATOM      1  C   UNL A   1      32.241  27.935  26.718  1.00  0.00     0.042 C 
ENDROOT
BRANCH   1   2
ATOM      2  C   UNL A   1      31.666  28.382  25.384  1.00  0.00     0.117 C 
BRANCH   2   3
ATOM      3  N   UNL A   1      32.686  28.883  24.479  1.00  0.00    -0.356 N 
ATOM      4  C   UNL A   1      33.261  28.314  23.385  1.00  0.00     0.227 C 
ATOM      5  O   UNL A   1      34.092  28.983  22.763  1.00  0.00    -0.274 OA
ATOM      6  H   UNL A   1      33.016  29.786  24.693  1.00  0.00     0.163 HD
BRANCH   4   7
ATOM      7  C   UNL A   1      32.926  26.893  22.929  1.00  0.00     0.103 C 
ATOM      8  C   UNL A   1      32.128  24.823  23.980  1.00  0.00     0.106 C 
ATOM      9  C   UNL A   1      31.028  25.553  23.281  1.00  0.00    -0.006 C 
ATOM     10  C   UNL A   1      33.295  25.826  23.961  1.00  0.00     0.047 C 
ATOM     11  C   UNL A   1      31.470  26.657  22.668  1.00  0.00    -0.016 C 
BRANCH   8  12
ATOM     12  N   UNL A   1      31.753  24.496  25.336  1.00  0.00    -0.346 N 
ATOM     13  C   UNL A   1      32.053  23.407  26.125  1.00  0.00     0.251 C 
ATOM     14  O   UNL A   1      31.668  23.428  27.292  1.00  0.00    -0.269 OA
ATOM     15  H   UNL A   1      31.182  25.168  25.772  1.00  0.00     0.164 HD
BRANCH  13  16
ATOM     16  C   UNL A   1      32.734  22.189  25.597  1.00  0.00     0.043 A 
ATOM     17  C   UNL A   1      32.727  19.856  24.920  1.00  0.00     0.119 A 
ATOM     18  C   UNL A   1      34.120  19.854  24.918  1.00  0.00     0.046 A 
ATOM     19  C   UNL A   1      32.051  21.047  25.177  1.00  0.00     0.060 A 
ATOM     20  C   UNL A   1      34.825  21.027  25.193  1.00  0.00     0.005 A 
ATOM     21  C   UNL A   1      34.134  22.187  25.551  1.00  0.00     0.014 A 
BRANCH  17  22
ATOM     22  O   UNL A   1      32.126  18.650  24.673  1.00  0.00    -0.497 OA
ATOM     23  C   UNL A   1      32.656  17.883  23.595  1.00  0.00     0.278 C 
ENDBRANCH  17  22
ENDBRANCH  13  16
ENDBRANCH   8  12
ENDBRANCH   4   7
ENDBRANCH   2   3
ENDBRANCH   1   2
BRANCH   1  24
ATOM     24  C   UNL A   1      33.636  28.477  26.984  1.00  0.00     0.118 C 
BRANCH  24  25
ATOM     25  N   UNL A   1      33.614  29.855  27.458  1.00  0.00    -0.352 N 
ATOM     26  C   UNL A   1      34.550  30.557  28.182  1.00  0.00     0.251 C 
ATOM     27  H   UNL A   1      32.803  30.363  27.225  1.00  0.00     0.163 HD
ATOM     28  O   UNL A   1      34.252  31.635  28.680  1.00  0.00    -0.269 OA
BRANCH  26  29
ATOM     29  C   UNL A   1      35.904  29.992  28.370  1.00  0.00     0.039 A 
ATOM     30  C   UNL A   1      36.837  30.104  27.338  1.00  0.00     0.014 A 
ATOM     31  C   UNL A   1      36.251  29.365  29.568  1.00  0.00     0.014 A 
ATOM     32  C   UNL A   1      38.148  29.670  27.545  1.00  0.00     0.010 A 
ATOM     33  C   UNL A   1      37.574  29.014  29.804  1.00  0.00     0.010 A 
ATOM     34  C   UNL A   1      38.539  29.169  28.798  1.00  0.00    -0.014 A 
BRANCH  34  35
ATOM     35  C   UNL A   1      39.952  28.833  29.097  1.00  0.00     0.031 A 
ATOM     36  C   UNL A   1      40.875  29.880  29.659  1.00  0.00     0.074 A 
ATOM     37  C   UNL A   1      40.427  27.612  28.776  1.00  0.00     0.049 A 
ATOM     38  N   UNL A   1      42.162  29.810  29.881  1.00  0.00    -0.248 NA
ATOM     39  C   UNL A   1      40.278  31.185  29.988  1.00  0.00     0.031 C 
ATOM     40  C   UNL A   1      39.638  26.523  28.193  1.00  0.00     0.029 A 
ATOM     41  N   UNL A   1      41.690  27.086  28.878  1.00  0.00    -0.354 N 
ATOM     42  C   UNL A   1      42.531  31.062  30.360  1.00  0.00     0.074 A 
ATOM     43  C   UNL A   1      41.343  31.886  30.349  1.00  0.00     0.031 C 
ATOM     44  C   UNL A   1      40.429  25.454  28.012  1.00  0.00     0.029 A 
ATOM     45  C   UNL A   1      41.791  25.795  28.411  1.00  0.00     0.049 A 
ATOM     46  H   UNL A   1      42.453  27.585  29.251  1.00  0.00     0.167 HD
ATOM     47  C   UNL A   1      43.747  31.480  30.785  1.00  0.00     0.031 A 
ATOM     48  C   UNL A   1      42.860  24.983  28.297  1.00  0.00     0.031 A 
ATOM     49  C   UNL A   1      44.924  30.652  30.794  1.00  0.00     0.049 A 
ATOM     50  C   UNL A   1      44.208  25.486  28.736  1.00  0.00     0.074 A 
ATOM     51  C   UNL A   1      46.190  30.965  31.256  1.00  0.00     0.029 A 
ATOM     52  N   UNL A   1      44.984  29.353  30.311  1.00  0.00    -0.354 N 
ATOM     53  N   UNL A   1      44.524  26.650  29.254  1.00  0.00    -0.248 NA
ATOM     54  C   UNL A   1      45.344  24.569  28.577  1.00  0.00     0.031 C 
ATOM     55  C   UNL A   1      47.030  29.878  30.994  1.00  0.00     0.029 A 
ATOM     56  C   UNL A   1      46.273  28.864  30.431  1.00  0.00     0.049 A 
ATOM     57  H   UNL A   1      44.221  28.853  29.939  1.00  0.00     0.167 HD
ATOM     58  C   UNL A   1      45.891  26.595  29.503  1.00  0.00     0.074 A 
ATOM     59  C   UNL A   1      46.338  25.279  29.096  1.00  0.00     0.031 C 
ATOM     60  C   UNL A   1      46.703  27.549  30.020  1.00  0.00     0.031 A 
BRANCH  47  61
ATOM     61  C   UNL A   1      43.869  32.903  31.267  1.00  0.00    -0.014 A 
ATOM     62  C   UNL A   1      44.293  33.930  30.404  1.00  0.00     0.010 A 
ATOM     63  C   UNL A   1      43.508  33.226  32.588  1.00  0.00     0.010 A 
ATOM     64  C   UNL A   1      44.395  35.245  30.865  1.00  0.00     0.020 A 
ATOM     65  C   UNL A   1      43.578  34.546  33.044  1.00  0.00     0.020 A 
ATOM     66  C   UNL A   1      44.037  35.545  32.183  1.00  0.00     0.054 A 
BRANCH  66  67
ATOM     67  S   UNL A   1      44.155  37.265  32.744  1.00  0.00     0.124 S 
ATOM     68  O   UNL A   1      45.559  37.357  33.138  1.00  0.00    -0.237 OA
ATOM     69  O   UNL A   1      43.788  38.017  31.547  1.00  0.00    -0.237 OA
ATOM     70  O   UNL A   1      43.195  37.339  33.844  1.00  0.00    -0.744 OA
ENDBRANCH  66  67
ENDBRANCH  47  61
BRANCH  48  71
ATOM     71  C   UNL A   1      42.698  23.612  27.739  1.00  0.00    -0.014 A 
ATOM     72  C   UNL A   1      42.334  22.540  28.573  1.00  0.00     0.010 A 
ATOM     73  C   UNL A   1      42.895  23.371  26.367  1.00  0.00     0.010 A 
ATOM     74  C   UNL A   1      42.189  21.252  28.051  1.00  0.00     0.020 A 
ATOM     75  C   UNL A   1      42.720  22.090  25.834  1.00  0.00     0.020 A 
ATOM     76  C   UNL A   1      42.381  21.035  26.683  1.00  0.00     0.054 A 
BRANCH  76  77
ATOM     77  S   UNL A   1      42.145  19.361  26.024  1.00  0.00     0.124 S 
ATOM     78  O   UNL A   1      42.598  18.531  27.135  1.00  0.00    -0.237 OA
ATOM     79  O   UNL A   1      40.710  19.328  25.753  1.00  0.00    -0.237 OA
ATOM     80  O   UNL A   1      42.998  19.336  24.837  1.00  0.00    -0.744 OA
ENDBRANCH  76  77
ENDBRANCH  48  71
BRANCH  60  81
ATOM     81  C   UNL A   1      48.158  27.207  30.199  1.00  0.00    -0.014 A 
ATOM     82  C   UNL A   1      49.104  27.514  29.204  1.00  0.00     0.010 A 
ATOM     83  C   UNL A   1      48.596  26.649  31.414  1.00  0.00     0.010 A 
ATOM     84  C   UNL A   1      50.460  27.255  29.417  1.00  0.00     0.020 A 
ATOM     85  C   UNL A   1      49.955  26.417  31.642  1.00  0.00     0.020 A 
ATOM     86  C   UNL A   1      50.878  26.716  30.638  1.00  0.00     0.054 A 
BRANCH  86  87
ATOM     87  S   UNL A   1      52.653  26.463  30.916  1.00  0.00     0.124 S 
ATOM     88  O   UNL A   1      52.666  25.241  31.713  1.00  0.00    -0.237 OA
ATOM     89  O   UNL A   1      53.173  26.334  29.556  1.00  0.00    -0.237 OA
ATOM     90  O   UNL A   1      53.069  27.673  31.623  1.00  0.00    -0.744 OA
ENDBRANCH  86  87
ENDBRANCH  60  81
ENDBRANCH  34  35
ENDBRANCH  26  29
ENDBRANCH  24  25
ENDBRANCH   1  24
TORSDOF 16
ENDMDL
