MODEL 1
REMARK VINA RESULT:     -11.2      0.000      0.000
REMARK SMILES [NH3+][C@@H](CCCCC(=O)NCCCNC(=O)c1ccc(-c2c3nc(c(-c4ccc(S(=O)(=O)[O-])cc4)c4ccc([nH]4)c(-c4ccc(S(=O)(=O)[O-])cc4)c4nc(c(-c5ccc(S(=O)(=O)[O-])cc5)c5ccc2[nH]5)C=C4)C=C3)cc1)c1ccc2[nH]c(=O)[nH]c2c1
REMARK SMILES IDX 10 1 9 2 7 3 8 4 6 6 5 7 4 8 3 9 2 10 1 11 76 15 77 16 85 17
REMARK SMILES IDX 78 18 84 19 79 20 83 21 80 22 81 23 82 26 11 27 12 28 13 29
REMARK SMILES IDX 14 30 15 32 16 33 17 34 75 35 18 36 74 37 19 38 20 39 21 40
REMARK SMILES IDX 68 41 22 42 73 43 67 44 69 45 23 46 72 47 66 48 65 49 24 51
REMARK SMILES IDX 54 52 35 53 53 54 36 55 39 56 52 57 70 58 37 59 38 60 51 62
REMARK SMILES IDX 71 63 40 64 25 65 26 66 34 67 27 68 33 69 28 70 29 71 30 72
REMARK SMILES IDX 31 73 32 74 55 75 56 76 64 77 57 78 63 79 58 80 59 81 60 82
REMARK SMILES IDX 61 83 62 84 41 85 42 86 50 87 43 88 49 89 44 90 45 91 46 92
REMARK SMILES IDX 47 93 48 94
REMARK H PARENT 9 5 1 12 1 13 1 14 83 24 80 25 13 31 69 50 39 61
REMARK Flexibility Score: inf
ROOT
ATOM      1  C   UNL A   1      38.966  22.782  26.621  1.00  0.00     0.117 C 
ENDROOT
BRANCH   1   2
ATOM      2  N   UNL A   1      38.380  22.515  25.326  1.00  0.00    -0.356 N 
ATOM      3  C   UNL A   1      37.190  22.934  24.815  1.00  0.00     0.219 C 
ATOM      4  O   UNL A   1      36.863  22.534  23.697  1.00  0.00    -0.275 OA
ATOM      5  H   UNL A   1      38.920  21.949  24.727  1.00  0.00     0.163 HD
BRANCH   3   6
ATOM      6  C   UNL A   1      36.315  23.895  25.594  1.00  0.00     0.100 C 
BRANCH   6   7
ATOM      7  C   UNL A   1      34.989  24.249  24.915  1.00  0.00     0.010 C 
BRANCH   7   8
ATOM      8  C   UNL A   1      33.687  23.554  25.361  1.00  0.00     0.007 C 
BRANCH   8   9
ATOM      9  C   UNL A   1      32.936  22.647  24.365  1.00  0.00     0.070 C 
BRANCH   9  10
ATOM     10  C   UNL A   1      32.022  21.561  24.976  1.00  0.00     0.212 C 
BRANCH  10  11
ATOM     11  N   UNL A   1      31.915  21.728  26.425  1.00  0.00    -0.351 N 
ATOM     12  H   UNL A   1      30.945  21.921  26.675  1.00  0.00     0.345 HD
ATOM     13  H   UNL A   1      32.503  22.507  26.722  1.00  0.00     0.345 HD
ATOM     14  H   UNL A   1      32.222  20.874  26.890  1.00  0.00     0.345 HD
ENDBRANCH  10  11
BRANCH  10  15
ATOM     15  C   UNL A   1      32.491  20.184  24.534  1.00  0.00     0.011 A 
ATOM     16  C   UNL A   1      32.300  19.715  23.204  1.00  0.00     0.012 A 
ATOM     17  C   UNL A   1      32.960  19.297  25.526  1.00  0.00     0.038 A 
ATOM     18  C   UNL A   1      32.481  18.368  22.866  1.00  0.00     0.029 A 
ATOM     19  C   UNL A   1      33.088  17.977  25.177  1.00  0.00     0.067 A 
ATOM     20  C   UNL A   1      32.844  17.523  23.884  1.00  0.00     0.066 A 
ATOM     21  N   UNL A   1      33.350  16.874  25.980  1.00  0.00    -0.306 N 
ATOM     22  N   UNL A   1      32.964  16.138  23.890  1.00  0.00    -0.306 N 
ATOM     23  C   UNL A   1      33.262  15.719  25.193  1.00  0.00     0.323 A 
ATOM     24  H   UNL A   1      33.562  16.901  26.941  1.00  0.00     0.171 HD
ATOM     25  H   UNL A   1      32.857  15.550  23.107  1.00  0.00     0.171 HD
ATOM     26  O   UNL A   1      33.400  14.568  25.575  1.00  0.00    -0.248 OA
ENDBRANCH  10  15
ENDBRANCH   9  10
ENDBRANCH   8   9
ENDBRANCH   7   8
ENDBRANCH   6   7
ENDBRANCH   3   6
ENDBRANCH   1   2
BRANCH   1  27
ATOM     27  C   UNL A   1      40.315  22.096  26.762  1.00  0.00     0.042 C 
BRANCH  27  28
ATOM     28  C   UNL A   1      41.435  23.035  27.163  1.00  0.00     0.118 C 
BRANCH  28  29
ATOM     29  N   UNL A   1      41.874  23.868  26.058  1.00  0.00    -0.352 N 
ATOM     30  C   UNL A   1      41.924  25.237  25.950  1.00  0.00     0.251 C 
ATOM     31  H   UNL A   1      42.184  23.377  25.262  1.00  0.00     0.163 HD
ATOM     32  O   UNL A   1      42.127  25.741  24.850  1.00  0.00    -0.269 OA
BRANCH  30  33
ATOM     33  C   UNL A   1      41.712  26.096  27.138  1.00  0.00     0.039 A 
ATOM     34  C   UNL A   1      42.581  27.169  27.355  1.00  0.00     0.014 A 
ATOM     35  C   UNL A   1      40.686  25.842  28.051  1.00  0.00     0.014 A 
ATOM     36  C   UNL A   1      42.387  28.009  28.455  1.00  0.00     0.010 A 
ATOM     37  C   UNL A   1      40.423  26.743  29.076  1.00  0.00     0.010 A 
ATOM     38  C   UNL A   1      41.286  27.822  29.308  1.00  0.00    -0.014 A 
BRANCH  38  39
ATOM     39  C   UNL A   1      41.044  28.718  30.466  1.00  0.00     0.031 A 
ATOM     40  C   UNL A   1      41.878  28.576  31.715  1.00  0.00     0.074 A 
ATOM     41  C   UNL A   1      40.045  29.622  30.417  1.00  0.00     0.049 A 
ATOM     42  N   UNL A   1      41.790  29.230  32.844  1.00  0.00    -0.248 NA
ATOM     43  C   UNL A   1      42.929  27.543  31.704  1.00  0.00     0.031 C 
ATOM     44  C   UNL A   1      39.141  29.827  29.282  1.00  0.00     0.029 A 
ATOM     45  N   UNL A   1      39.622  30.540  31.344  1.00  0.00    -0.354 N 
ATOM     46  C   UNL A   1      42.756  28.678  33.677  1.00  0.00     0.074 A 
ATOM     47  C   UNL A   1      43.376  27.595  32.949  1.00  0.00     0.031 C 
ATOM     48  C   UNL A   1      38.298  30.831  29.566  1.00  0.00     0.029 A 
ATOM     49  C   UNL A   1      38.566  31.310  30.918  1.00  0.00     0.049 A 
ATOM     50  H   UNL A   1      40.036  30.638  32.233  1.00  0.00     0.167 HD
ATOM     51  C   UNL A   1      43.115  29.054  34.928  1.00  0.00     0.031 A 
ATOM     52  C   UNL A   1      37.886  32.289  31.545  1.00  0.00     0.031 A 
ATOM     53  C   UNL A   1      42.504  30.144  35.642  1.00  0.00     0.049 A 
ATOM     54  C   UNL A   1      38.292  32.681  32.940  1.00  0.00     0.074 A 
ATOM     55  C   UNL A   1      42.831  30.643  36.890  1.00  0.00     0.029 A 
ATOM     56  N   UNL A   1      41.440  30.898  35.173  1.00  0.00    -0.354 N 
ATOM     57  N   UNL A   1      39.256  32.192  33.685  1.00  0.00    -0.248 NA
ATOM     58  C   UNL A   1      37.528  33.763  33.574  1.00  0.00     0.031 C 
ATOM     59  C   UNL A   1      41.923  31.660  37.202  1.00  0.00     0.029 A 
ATOM     60  C   UNL A   1      41.078  31.842  36.119  1.00  0.00     0.049 A 
ATOM     61  H   UNL A   1      41.007  30.781  34.297  1.00  0.00     0.167 HD
ATOM     62  C   UNL A   1      39.232  32.927  34.865  1.00  0.00     0.074 A 
ATOM     63  C   UNL A   1      38.171  33.904  34.726  1.00  0.00     0.031 C 
ATOM     64  C   UNL A   1      40.016  32.805  35.964  1.00  0.00     0.031 A 
BRANCH  51  65
ATOM     65  C   UNL A   1      44.216  28.277  35.604  1.00  0.00    -0.014 A 
ATOM     66  C   UNL A   1      43.932  27.146  36.394  1.00  0.00     0.010 A 
ATOM     67  C   UNL A   1      45.557  28.658  35.417  1.00  0.00     0.010 A 
ATOM     68  C   UNL A   1      44.964  26.441  37.019  1.00  0.00     0.020 A 
ATOM     69  C   UNL A   1      46.594  27.934  36.013  1.00  0.00     0.020 A 
ATOM     70  C   UNL A   1      46.289  26.840  36.825  1.00  0.00     0.054 A 
BRANCH  70  71
ATOM     71  S   UNL A   1      47.608  25.889  37.628  1.00  0.00     0.124 S 
ATOM     72  O   UNL A   1      47.275  26.048  39.043  1.00  0.00    -0.237 OA
ATOM     73  O   UNL A   1      47.411  24.548  37.084  1.00  0.00    -0.237 OA
ATOM     74  O   UNL A   1      48.832  26.561  37.199  1.00  0.00    -0.744 OA
ENDBRANCH  70  71
ENDBRANCH  51  65
BRANCH  52  75
ATOM     75  C   UNL A   1      36.758  32.974  30.854  1.00  0.00    -0.014 A 
ATOM     76  C   UNL A   1      37.005  33.972  29.895  1.00  0.00     0.010 A 
ATOM     77  C   UNL A   1      35.427  32.619  31.141  1.00  0.00     0.010 A 
ATOM     78  C   UNL A   1      35.944  34.616  29.251  1.00  0.00     0.020 A 
ATOM     79  C   UNL A   1      34.364  33.238  30.477  1.00  0.00     0.020 A 
ATOM     80  C   UNL A   1      34.630  34.241  29.544  1.00  0.00     0.054 A 
BRANCH  80  81
ATOM     81  S   UNL A   1      33.271  35.054  28.658  1.00  0.00     0.124 S 
ATOM     82  O   UNL A   1      33.982  36.037  27.847  1.00  0.00    -0.237 OA
ATOM     83  O   UNL A   1      32.666  33.945  27.926  1.00  0.00    -0.237 OA
ATOM     84  O   UNL A   1      32.446  35.606  29.731  1.00  0.00    -0.744 OA
ENDBRANCH  80  81
ENDBRANCH  52  75
BRANCH  64  85
ATOM     85  C   UNL A   1      39.782  33.773  37.095  1.00  0.00    -0.014 A 
ATOM     86  C   UNL A   1      39.007  33.418  38.212  1.00  0.00     0.010 A 
ATOM     87  C   UNL A   1      40.396  35.038  37.060  1.00  0.00     0.010 A 
ATOM     88  C   UNL A   1      38.823  34.325  39.260  1.00  0.00     0.020 A 
ATOM     89  C   UNL A   1      40.242  35.934  38.119  1.00  0.00     0.020 A 
ATOM     90  C   UNL A   1      39.443  35.577  39.207  1.00  0.00     0.054 A 
BRANCH  90  91
ATOM     91  S   UNL A   1      39.225  36.717  40.599  1.00  0.00     0.124 S 
ATOM     92  O   UNL A   1      40.596  36.882  41.074  1.00  0.00    -0.237 OA
ATOM     93  O   UNL A   1      38.635  37.891  39.962  1.00  0.00    -0.237 OA
ATOM     94  O   UNL A   1      38.335  35.993  41.505  1.00  0.00    -0.744 OA
ENDBRANCH  90  91
ENDBRANCH  64  85
ENDBRANCH  38  39
ENDBRANCH  30  33
ENDBRANCH  28  29
ENDBRANCH  27  28
ENDBRANCH   1  27
TORSDOF 19
ENDMDL
MODEL 2
REMARK VINA RESULT:     -11.2      5.795      8.033
REMARK SMILES [NH3+][C@@H](CCCCC(=O)NCCCNC(=O)c1ccc(-c2c3nc(c(-c4ccc(S(=O)(=O)[O-])cc4)c4ccc([nH]4)c(-c4ccc(S(=O)(=O)[O-])cc4)c4nc(c(-c5ccc(S(=O)(=O)[O-])cc5)c5ccc2[nH]5)C=C4)C=C3)cc1)c1ccc2[nH]c(=O)[nH]c2c1
REMARK SMILES IDX 10 1 9 2 7 3 8 4 6 6 5 7 4 8 3 9 2 10 1 11 76 15 77 16 85 17
REMARK SMILES IDX 78 18 84 19 79 20 83 21 80 22 81 23 82 26 11 27 12 28 13 29
REMARK SMILES IDX 14 30 15 32 16 33 17 34 75 35 18 36 74 37 19 38 20 39 21 40
REMARK SMILES IDX 68 41 22 42 73 43 67 44 69 45 23 46 72 47 66 48 65 49 24 51
REMARK SMILES IDX 54 52 35 53 53 54 36 55 39 56 52 57 70 58 37 59 38 60 51 62
REMARK SMILES IDX 71 63 40 64 25 65 26 66 34 67 27 68 33 69 28 70 29 71 30 72
REMARK SMILES IDX 31 73 32 74 55 75 56 76 64 77 57 78 63 79 58 80 59 81 60 82
REMARK SMILES IDX 61 83 62 84 41 85 42 86 50 87 43 88 49 89 44 90 45 91 46 92
REMARK SMILES IDX 47 93 48 94
REMARK H PARENT 9 5 1 12 1 13 1 14 83 24 80 25 13 31 69 50 39 61
REMARK Flexibility Score: inf
ROOT
ATOM      1  C   UNL A   1      36.638  20.864  25.359  1.00  0.00     0.117 C 
ENDROOT
BRANCH   1   2
ATOM      2  N   UNL A   1      36.813  22.177  25.941  1.00  0.00    -0.356 N 
ATOM      3  C   UNL A   1      36.394  23.387  25.481  1.00  0.00     0.219 C 
ATOM      4  O   UNL A   1      36.707  24.393  26.118  1.00  0.00    -0.275 OA
ATOM      5  H   UNL A   1      37.307  22.198  26.793  1.00  0.00     0.163 HD
BRANCH   3   6
ATOM      6  C   UNL A   1      35.534  23.480  24.237  1.00  0.00     0.100 C 
BRANCH   6   7
ATOM      7  C   UNL A   1      34.038  23.665  24.505  1.00  0.00     0.010 C 
BRANCH   7   8
ATOM      8  C   UNL A   1      33.034  23.615  23.335  1.00  0.00     0.007 C 
BRANCH   8   9
ATOM      9  C   UNL A   1      31.980  22.489  23.293  1.00  0.00     0.070 C 
BRANCH   9  10
ATOM     10  C   UNL A   1      32.421  21.157  22.645  1.00  0.00     0.212 C 
BRANCH  10  11
ATOM     11  N   UNL A   1      31.620  20.867  21.457  1.00  0.00    -0.351 N 
ATOM     12  H   UNL A   1      32.185  20.350  20.783  1.00  0.00     0.345 HD
ATOM     13  H   UNL A   1      31.306  21.742  21.036  1.00  0.00     0.345 HD
ATOM     14  H   UNL A   1      30.809  20.307  21.721  1.00  0.00     0.345 HD
ENDBRANCH  10  11
BRANCH  10  15
ATOM     15  C   UNL A   1      32.422  20.053  23.690  1.00  0.00     0.011 A 
ATOM     16  C   UNL A   1      32.669  20.318  25.066  1.00  0.00     0.012 A 
ATOM     17  C   UNL A   1      32.356  18.718  23.238  1.00  0.00     0.038 A 
ATOM     18  C   UNL A   1      32.937  19.289  25.978  1.00  0.00     0.029 A 
ATOM     19  C   UNL A   1      32.664  17.734  24.142  1.00  0.00     0.067 A 
ATOM     20  C   UNL A   1      32.957  18.013  25.473  1.00  0.00     0.066 A 
ATOM     21  N   UNL A   1      32.853  16.373  23.935  1.00  0.00    -0.306 N 
ATOM     22  N   UNL A   1      33.320  16.820  26.089  1.00  0.00    -0.306 N 
ATOM     23  C   UNL A   1      33.276  15.793  25.137  1.00  0.00     0.323 A 
ATOM     24  H   UNL A   1      32.713  15.897  23.084  1.00  0.00     0.171 HD
ATOM     25  H   UNL A   1      33.567  16.715  27.037  1.00  0.00     0.171 HD
ATOM     26  O   UNL A   1      33.568  14.622  25.315  1.00  0.00    -0.248 OA
ENDBRANCH  10  15
ENDBRANCH   9  10
ENDBRANCH   8   9
ENDBRANCH   7   8
ENDBRANCH   6   7
ENDBRANCH   3   6
ENDBRANCH   1   2
BRANCH   1  27
ATOM     27  C   UNL A   1      37.979  20.239  25.007  1.00  0.00     0.042 C 
BRANCH  27  28
ATOM     28  C   UNL A   1      39.131  20.765  25.839  1.00  0.00     0.118 C 
BRANCH  28  29
ATOM     29  N   UNL A   1      40.159  19.762  26.050  1.00  0.00    -0.352 N 
ATOM     30  C   UNL A   1      41.506  19.912  26.270  1.00  0.00     0.251 C 
ATOM     31  H   UNL A   1      39.841  18.829  26.032  1.00  0.00     0.163 HD
ATOM     32  O   UNL A   1      42.233  18.924  26.210  1.00  0.00    -0.269 OA
BRANCH  30  33
ATOM     33  C   UNL A   1      42.082  21.247  26.553  1.00  0.00     0.039 A 
ATOM     34  C   UNL A   1      42.449  22.063  25.479  1.00  0.00     0.014 A 
ATOM     35  C   UNL A   1      42.287  21.692  27.861  1.00  0.00     0.014 A 
ATOM     36  C   UNL A   1      42.970  23.337  25.721  1.00  0.00     0.010 A 
ATOM     37  C   UNL A   1      42.695  22.999  28.099  1.00  0.00     0.010 A 
ATOM     38  C   UNL A   1      43.068  23.829  27.033  1.00  0.00    -0.014 A 
BRANCH  38  39
ATOM     39  C   UNL A   1      43.593  25.189  27.312  1.00  0.00     0.031 A 
ATOM     40  C   UNL A   1      45.049  25.497  27.071  1.00  0.00     0.074 A 
ATOM     41  C   UNL A   1      42.778  26.129  27.829  1.00  0.00     0.049 A 
ATOM     42  N   UNL A   1      45.706  26.606  27.295  1.00  0.00    -0.248 NA
ATOM     43  C   UNL A   1      45.885  24.408  26.534  1.00  0.00     0.031 C 
ATOM     44  C   UNL A   1      41.360  25.940  28.147  1.00  0.00     0.029 A 
ATOM     45  N   UNL A   1      43.022  27.434  28.177  1.00  0.00    -0.354 N 
ATOM     46  C   UNL A   1      47.025  26.343  26.946  1.00  0.00     0.074 A 
ATOM     47  C   UNL A   1      47.091  24.953  26.556  1.00  0.00     0.031 C 
ATOM     48  C   UNL A   1      40.854  27.096  28.607  1.00  0.00     0.029 A 
ATOM     49  C   UNL A   1      41.918  28.093  28.663  1.00  0.00     0.049 A 
ATOM     50  H   UNL A   1      43.907  27.858  28.088  1.00  0.00     0.167 HD
ATOM     51  C   UNL A   1      48.084  27.186  26.926  1.00  0.00     0.031 A 
ATOM     52  C   UNL A   1      41.777  29.356  29.109  1.00  0.00     0.031 A 
ATOM     53  C   UNL A   1      48.009  28.574  27.302  1.00  0.00     0.049 A 
ATOM     54  C   UNL A   1      42.970  30.272  29.093  1.00  0.00     0.074 A 
ATOM     55  C   UNL A   1      49.009  29.529  27.264  1.00  0.00     0.029 A 
ATOM     56  N   UNL A   1      46.871  29.200  27.786  1.00  0.00    -0.354 N 
ATOM     57  N   UNL A   1      44.195  30.021  28.692  1.00  0.00    -0.248 NA
ATOM     58  C   UNL A   1      42.760  31.643  29.575  1.00  0.00     0.031 C 
ATOM     59  C   UNL A   1      48.491  30.720  27.785  1.00  0.00     0.029 A 
ATOM     60  C   UNL A   1      47.151  30.525  28.079  1.00  0.00     0.049 A 
ATOM     61  H   UNL A   1      45.994  28.769  27.903  1.00  0.00     0.167 HD
ATOM     62  C   UNL A   1      44.895  31.213  28.849  1.00  0.00     0.074 A 
ATOM     63  C   UNL A   1      43.952  32.186  29.362  1.00  0.00     0.031 C 
ATOM     64  C   UNL A   1      46.199  31.478  28.592  1.00  0.00     0.031 A 
BRANCH  51  65
ATOM     65  C   UNL A   1      49.415  26.629  26.490  1.00  0.00    -0.014 A 
ATOM     66  C   UNL A   1      49.836  26.709  25.149  1.00  0.00     0.010 A 
ATOM     67  C   UNL A   1      50.276  26.051  27.440  1.00  0.00     0.010 A 
ATOM     68  C   UNL A   1      51.070  26.181  24.760  1.00  0.00     0.020 A 
ATOM     69  C   UNL A   1      51.527  25.552  27.061  1.00  0.00     0.020 A 
ATOM     70  C   UNL A   1      51.907  25.606  25.719  1.00  0.00     0.054 A 
BRANCH  70  71
ATOM     71  S   UNL A   1      53.514  24.953  25.188  1.00  0.00     0.124 S 
ATOM     72  O   UNL A   1      53.632  25.504  23.839  1.00  0.00    -0.237 OA
ATOM     73  O   UNL A   1      54.429  25.516  26.178  1.00  0.00    -0.237 OA
ATOM     74  O   UNL A   1      53.340  23.504  25.255  1.00  0.00    -0.744 OA
ENDBRANCH  70  71
ENDBRANCH  51  65
BRANCH  52  75
ATOM     75  C   UNL A   1      40.452  29.830  29.597  1.00  0.00    -0.014 A 
ATOM     76  C   UNL A   1      39.449  30.213  28.690  1.00  0.00     0.010 A 
ATOM     77  C   UNL A   1      40.181  29.888  30.977  1.00  0.00     0.010 A 
ATOM     78  C   UNL A   1      38.207  30.662  29.153  1.00  0.00     0.020 A 
ATOM     79  C   UNL A   1      38.932  30.305  31.443  1.00  0.00     0.020 A 
ATOM     80  C   UNL A   1      37.956  30.701  30.526  1.00  0.00     0.054 A 
BRANCH  80  81
ATOM     81  S   UNL A   1      36.321  31.238  31.101  1.00  0.00     0.124 S 
ATOM     82  O   UNL A   1      36.043  30.279  32.165  1.00  0.00    -0.237 OA
ATOM     83  O   UNL A   1      36.575  32.610  31.533  1.00  0.00    -0.237 OA
ATOM     84  O   UNL A   1      35.483  31.114  29.910  1.00  0.00    -0.744 OA
ENDBRANCH  80  81
ENDBRANCH  52  75
BRANCH  64  85
ATOM     85  C   UNL A   1      46.681  32.886  28.829  1.00  0.00    -0.014 A 
ATOM     86  C   UNL A   1      47.430  33.221  29.969  1.00  0.00     0.010 A 
ATOM     87  C   UNL A   1      46.426  33.875  27.862  1.00  0.00     0.010 A 
ATOM     88  C   UNL A   1      47.885  34.529  30.156  1.00  0.00     0.020 A 
ATOM     89  C   UNL A   1      46.907  35.175  28.027  1.00  0.00     0.020 A 
ATOM     90  C   UNL A   1      47.623  35.497  29.182  1.00  0.00     0.054 A 
BRANCH  90  91
ATOM     91  S   UNL A   1      48.264  37.175  29.427  1.00  0.00     0.124 S 
ATOM     92  O   UNL A   1      49.283  36.964  30.452  1.00  0.00    -0.237 OA
ATOM     93  O   UNL A   1      48.769  37.521  28.101  1.00  0.00    -0.237 OA
ATOM     94  O   UNL A   1      47.094  37.935  29.860  1.00  0.00    -0.744 OA
ENDBRANCH  90  91
ENDBRANCH  64  85
ENDBRANCH  38  39
ENDBRANCH  30  33
ENDBRANCH  28  29
ENDBRANCH  27  28
ENDBRANCH   1  27
TORSDOF 19
ENDMDL
MODEL 3
REMARK VINA RESULT:     -11.0      6.005     10.811
REMARK SMILES [NH3+][C@@H](CCCCC(=O)NCCCNC(=O)c1ccc(-c2c3nc(c(-c4ccc(S(=O)(=O)[O-])cc4)c4ccc([nH]4)c(-c4ccc(S(=O)(=O)[O-])cc4)c4nc(c(-c5ccc(S(=O)(=O)[O-])cc5)c5ccc2[nH]5)C=C4)C=C3)cc1)c1ccc2[nH]c(=O)[nH]c2c1
REMARK SMILES IDX 10 1 9 2 7 3 8 4 6 6 5 7 4 8 3 9 2 10 1 11 76 15 77 16 85 17
REMARK SMILES IDX 78 18 84 19 79 20 83 21 80 22 81 23 82 26 11 27 12 28 13 29
REMARK SMILES IDX 14 30 15 32 16 33 17 34 75 35 18 36 74 37 19 38 20 39 21 40
REMARK SMILES IDX 68 41 22 42 73 43 67 44 69 45 23 46 72 47 66 48 65 49 24 51
REMARK SMILES IDX 54 52 35 53 53 54 36 55 39 56 52 57 70 58 37 59 38 60 51 62
REMARK SMILES IDX 71 63 40 64 25 65 26 66 34 67 27 68 33 69 28 70 29 71 30 72
REMARK SMILES IDX 31 73 32 74 55 75 56 76 64 77 57 78 63 79 58 80 59 81 60 82
REMARK SMILES IDX 61 83 62 84 41 85 42 86 50 87 43 88 49 89 44 90 45 91 46 92
REMARK SMILES IDX 47 93 48 94
REMARK H PARENT 9 5 1 12 1 13 1 14 83 24 80 25 13 31 69 50 39 61
REMARK Flexibility Score: inf
ROOT
ATOM      1  C   UNL A   1      37.190  20.711  25.149  1.00  0.00     0.117 C 
ENDROOT
BRANCH   1   2
ATOM      2  N   UNL A   1      37.353  21.780  24.188  1.00  0.00    -0.356 N 
ATOM      3  C   UNL A   1      36.437  22.678  23.734  1.00  0.00     0.219 C 
ATOM      4  O   UNL A   1      36.785  23.475  22.863  1.00  0.00    -0.275 OA
ATOM      5  H   UNL A   1      38.257  21.871  23.808  1.00  0.00     0.163 HD
BRANCH   3   6
ATOM      6  C   UNL A   1      35.039  22.711  24.318  1.00  0.00     0.100 C 
BRANCH   6   7
ATOM      7  C   UNL A   1      34.138  23.817  23.762  1.00  0.00     0.010 C 
BRANCH   7   8
ATOM      8  C   UNL A   1      33.087  23.485  22.684  1.00  0.00     0.007 C 
BRANCH   8   9
ATOM      9  C   UNL A   1      32.043  22.384  22.961  1.00  0.00     0.070 C 
BRANCH   9  10
ATOM     10  C   UNL A   1      32.328  20.995  22.347  1.00  0.00     0.212 C 
BRANCH  10  11
ATOM     11  N   UNL A   1      31.408  20.717  21.244  1.00  0.00    -0.351 N 
ATOM     12  H   UNL A   1      31.071  21.596  20.853  1.00  0.00     0.345 HD
ATOM     13  H   UNL A   1      30.617  20.173  21.590  1.00  0.00     0.345 HD
ATOM     14  H   UNL A   1      31.894  20.187  20.521  1.00  0.00     0.345 HD
ENDBRANCH  10  11
BRANCH  10  15
ATOM     15  C   UNL A   1      32.336  19.940  23.442  1.00  0.00     0.011 A 
ATOM     16  C   UNL A   1      32.473  20.283  24.816  1.00  0.00     0.012 A 
ATOM     17  C   UNL A   1      32.392  18.585  23.051  1.00  0.00     0.038 A 
ATOM     18  C   UNL A   1      32.751  19.317  25.791  1.00  0.00     0.029 A 
ATOM     19  C   UNL A   1      32.708  17.666  24.020  1.00  0.00     0.067 A 
ATOM     20  C   UNL A   1      32.893  18.024  25.351  1.00  0.00     0.066 A 
ATOM     21  N   UNL A   1      33.004  16.315  23.890  1.00  0.00    -0.306 N 
ATOM     22  N   UNL A   1      33.296  16.888  26.045  1.00  0.00    -0.306 N 
ATOM     23  C   UNL A   1      33.386  15.820  25.143  1.00  0.00     0.323 A 
ATOM     24  H   UNL A   1      32.953  15.793  23.056  1.00  0.00     0.171 HD
ATOM     25  H   UNL A   1      33.487  16.843  27.010  1.00  0.00     0.171 HD
ATOM     26  O   UNL A   1      33.746  14.682  25.395  1.00  0.00    -0.248 OA
ENDBRANCH  10  15
ENDBRANCH   9  10
ENDBRANCH   8   9
ENDBRANCH   7   8
ENDBRANCH   6   7
ENDBRANCH   3   6
ENDBRANCH   1   2
BRANCH   1  27
ATOM     27  C   UNL A   1      38.416  19.812  25.178  1.00  0.00     0.042 C 
BRANCH  27  28
ATOM     28  C   UNL A   1      39.520  20.320  26.083  1.00  0.00     0.118 C 
BRANCH  28  29
ATOM     29  N   UNL A   1      40.647  19.405  26.142  1.00  0.00    -0.352 N 
ATOM     30  C   UNL A   1      41.994  19.666  26.178  1.00  0.00     0.251 C 
ATOM     31  H   UNL A   1      40.407  18.449  26.159  1.00  0.00     0.163 HD
ATOM     32  O   UNL A   1      42.784  18.742  26.010  1.00  0.00    -0.269 OA
BRANCH  30  33
ATOM     33  C   UNL A   1      42.492  21.044  26.392  1.00  0.00     0.039 A 
ATOM     34  C   UNL A   1      42.653  21.505  27.702  1.00  0.00     0.014 A 
ATOM     35  C   UNL A   1      42.776  21.893  25.321  1.00  0.00     0.014 A 
ATOM     36  C   UNL A   1      43.145  22.793  27.930  1.00  0.00     0.010 A 
ATOM     37  C   UNL A   1      43.374  23.128  25.547  1.00  0.00     0.010 A 
ATOM     38  C   UNL A   1      43.540  23.605  26.854  1.00  0.00    -0.014 A 
BRANCH  38  39
ATOM     39  C   UNL A   1      44.091  24.966  27.072  1.00  0.00     0.031 A 
ATOM     40  C   UNL A   1      43.190  26.073  27.558  1.00  0.00     0.074 A 
ATOM     41  C   UNL A   1      45.383  25.219  26.787  1.00  0.00     0.049 A 
ATOM     42  N   UNL A   1      43.470  27.334  27.765  1.00  0.00    -0.248 NA
ATOM     43  C   UNL A   1      41.781  25.725  27.818  1.00  0.00     0.031 C 
ATOM     44  C   UNL A   1      46.346  24.243  26.270  1.00  0.00     0.029 A 
ATOM     45  N   UNL A   1      46.113  26.377  26.892  1.00  0.00    -0.354 N 
ATOM     46  C   UNL A   1      42.277  27.928  28.159  1.00  0.00     0.074 A 
ATOM     47  C   UNL A   1      41.256  26.907  28.101  1.00  0.00     0.031 C 
ATOM     48  C   UNL A   1      47.545  24.832  26.140  1.00  0.00     0.029 A 
ATOM     49  C   UNL A   1      47.428  26.237  26.516  1.00  0.00     0.049 A 
ATOM     50  H   UNL A   1      45.730  27.228  27.206  1.00  0.00     0.167 HD
ATOM     51  C   UNL A   1      42.052  29.202  28.558  1.00  0.00     0.031 A 
ATOM     52  C   UNL A   1      48.428  27.139  26.473  1.00  0.00     0.031 A 
ATOM     53  C   UNL A   1      43.077  30.211  28.628  1.00  0.00     0.049 A 
ATOM     54  C   UNL A   1      48.153  28.553  26.907  1.00  0.00     0.074 A 
ATOM     55  C   UNL A   1      42.967  31.516  29.072  1.00  0.00     0.029 A 
ATOM     56  N   UNL A   1      44.395  30.026  28.240  1.00  0.00    -0.354 N 
ATOM     57  N   UNL A   1      47.031  29.077  27.343  1.00  0.00    -0.248 NA
ATOM     58  C   UNL A   1      49.280  29.494  26.855  1.00  0.00     0.031 C 
ATOM     59  C   UNL A   1      44.207  32.140  28.894  1.00  0.00     0.029 A 
ATOM     60  C   UNL A   1      45.105  31.203  28.407  1.00  0.00     0.049 A 
ATOM     61  H   UNL A   1      44.771  29.184  27.897  1.00  0.00     0.167 HD
ATOM     62  C   UNL A   1      47.326  30.402  27.644  1.00  0.00     0.074 A 
ATOM     63  C   UNL A   1      48.733  30.592  27.358  1.00  0.00     0.031 C 
ATOM     64  C   UNL A   1      46.506  31.375  28.114  1.00  0.00     0.031 A 
BRANCH  51  65
ATOM     65  C   UNL A   1      40.645  29.577  28.944  1.00  0.00    -0.014 A 
ATOM     66  C   UNL A   1      39.580  29.457  28.031  1.00  0.00     0.010 A 
ATOM     67  C   UNL A   1      40.374  30.022  30.251  1.00  0.00     0.010 A 
ATOM     68  C   UNL A   1      38.281  29.816  28.403  1.00  0.00     0.020 A 
ATOM     69  C   UNL A   1      39.070  30.350  30.637  1.00  0.00     0.020 A 
ATOM     70  C   UNL A   1      38.035  30.261  29.704  1.00  0.00     0.054 A 
BRANCH  70  71
ATOM     71  S   UNL A   1      36.336  30.694  30.166  1.00  0.00     0.124 S 
ATOM     72  O   UNL A   1      36.530  31.955  30.879  1.00  0.00    -0.237 OA
ATOM     73  O   UNL A   1      35.671  30.802  28.870  1.00  0.00    -0.237 OA
ATOM     74  O   UNL A   1      35.903  29.572  30.995  1.00  0.00    -0.744 OA
ENDBRANCH  70  71
ENDBRANCH  51  65
BRANCH  52  75
ATOM     75  C   UNL A   1      49.784  26.727  26.013  1.00  0.00    -0.014 A 
ATOM     76  C   UNL A   1      50.342  27.276  24.846  1.00  0.00     0.010 A 
ATOM     77  C   UNL A   1      50.532  25.791  26.752  1.00  0.00     0.010 A 
ATOM     78  C   UNL A   1      51.613  26.883  24.414  1.00  0.00     0.020 A 
ATOM     79  C   UNL A   1      51.815  25.420  26.341  1.00  0.00     0.020 A 
ATOM     80  C   UNL A   1      52.342  25.960  25.168  1.00  0.00     0.054 A 
BRANCH  80  81
ATOM     81  S   UNL A   1      54.010  25.505  24.616  1.00  0.00     0.124 S 
ATOM     82  O   UNL A   1      54.847  26.108  25.649  1.00  0.00    -0.237 OA
ATOM     83  O   UNL A   1      53.953  24.046  24.617  1.00  0.00    -0.237 OA
ATOM     84  O   UNL A   1      54.111  26.116  23.292  1.00  0.00    -0.744 OA
ENDBRANCH  80  81
ENDBRANCH  52  75
BRANCH  64  85
ATOM     85  C   UNL A   1      47.114  32.726  28.383  1.00  0.00    -0.014 A 
ATOM     86  C   UNL A   1      47.707  33.028  29.621  1.00  0.00     0.010 A 
ATOM     87  C   UNL A   1      47.141  33.688  27.357  1.00  0.00     0.010 A 
ATOM     88  C   UNL A   1      48.285  34.281  29.839  1.00  0.00     0.020 A 
ATOM     89  C   UNL A   1      47.748  34.929  27.560  1.00  0.00     0.020 A 
ATOM     90  C   UNL A   1      48.304  35.223  28.806  1.00  0.00     0.054 A 
BRANCH  90  91
ATOM     91  S   UNL A   1      49.100  36.824  29.102  1.00  0.00     0.124 S 
ATOM     92  O   UNL A   1      50.362  36.673  28.382  1.00  0.00    -0.237 OA
ATOM     93  O   UNL A   1      48.152  37.767  28.514  1.00  0.00    -0.237 OA
ATOM     94  O   UNL A   1      49.218  36.892  30.557  1.00  0.00    -0.744 OA
ENDBRANCH  90  91
ENDBRANCH  64  85
ENDBRANCH  38  39
ENDBRANCH  30  33
ENDBRANCH  28  29
ENDBRANCH  27  28
ENDBRANCH   1  27
TORSDOF 19
ENDMDL
