MODEL 1
REMARK VINA RESULT:     -13.1      0.000      0.000
REMARK SMILES Cc1ncc(CO)c([C@H]2[NH2+][C@@H](C(=O)NCCCNC(=O)c3ccc(-c4c5nc(c(-c6ccc(S(=O)(=O)[O-])cc6)c6ccc([nH]6)c(-c6ccc(S(=O)(=O)[O-])cc6)c6nc(c(-c7ccc(S(=O)(=O)[O-])cc7)c7ccc4[nH]7)C=C6)C=C5)cc3)Cc3[nH]cnc32)c1O
REMARK SMILES IDX 16 1 15 2 14 3 12 4 13 5 11 7 9 8 10 9 86 10 82 13 85 14
REMARK SMILES IDX 81 15 83 16 84 17 8 19 1 20 2 21 3 22 87 23 4 24 5 25 88 26
REMARK SMILES IDX 6 28 7 29 17 31 18 32 19 33 20 35 21 36 22 37 80 38 23 39
REMARK SMILES IDX 79 40 24 41 25 42 26 43 73 44 27 45 78 46 72 47 74 48 28 49
REMARK SMILES IDX 77 50 71 51 70 52 29 54 59 55 40 56 58 57 41 58 44 59 57 60
REMARK SMILES IDX 75 61 42 62 43 63 56 65 76 66 45 67 30 68 31 69 39 70 32 71
REMARK SMILES IDX 38 72 33 73 34 74 35 75 36 76 37 77 60 78 61 79 69 80 62 81
REMARK SMILES IDX 68 82 63 83 64 84 65 85 66 86 67 87 46 88 47 89 55 90 48 91
REMARK SMILES IDX 54 92 49 93 50 94 51 95 52 96 53 97
REMARK H PARENT 14 6 10 11 10 12 83 18 88 27 7 30 18 34 74 53 44 64
REMARK Flexibility Score: inf
ROOT
ATOM      1  C   UNL A   1      37.826  19.684  24.894  1.00  0.00     0.042 C 
ENDROOT
BRANCH   1   2
ATOM      2  C   UNL A   1      36.596  20.584  25.059  1.00  0.00     0.118 C 
BRANCH   2   3
ATOM      3  N   UNL A   1      36.924  21.981  25.316  1.00  0.00    -0.351 N 
ATOM      4  C   UNL A   1      36.138  22.975  25.846  1.00  0.00     0.278 C 
ATOM      5  O   UNL A   1      36.641  24.071  26.078  1.00  0.00    -0.268 OA
ATOM      6  H   UNL A   1      37.840  22.251  25.077  1.00  0.00     0.163 HD
BRANCH   4   7
ATOM      7  C   UNL A   1      34.664  22.659  26.076  1.00  0.00     0.279 C 
ATOM      8  C   UNL A   1      32.867  21.241  25.417  1.00  0.00     0.270 C 
ATOM      9  N   UNL A   1      34.079  21.935  24.919  1.00  0.00    -0.324 N 
ATOM     10  C   UNL A   1      31.882  22.289  25.855  1.00  0.00     0.124 A 
ATOM     11  H   UNL A   1      33.828  22.594  24.182  1.00  0.00     0.347 HD
ATOM     12  H   UNL A   1      34.746  21.272  24.526  1.00  0.00     0.347 HD
ATOM     13  C   UNL A   1      32.363  23.485  26.388  1.00  0.00     0.051 A 
ATOM     14  N   UNL A   1      30.556  22.144  26.181  1.00  0.00    -0.235 NA
ATOM     15  C   UNL A   1      33.807  23.901  26.423  1.00  0.00     0.131 C 
ATOM     16  N   UNL A   1      31.299  24.102  26.967  1.00  0.00    -0.348 N 
ATOM     17  C   UNL A   1      30.232  23.254  26.817  1.00  0.00     0.197 A 
ATOM     18  H   UNL A   1      31.296  24.984  27.406  1.00  0.00     0.167 HD
BRANCH   8  19
ATOM     19  C   UNL A   1      32.555  20.043  24.562  1.00  0.00     0.066 A 
ATOM     20  C   UNL A   1      32.968  16.281  25.296  1.00  0.00     0.071 C 
ATOM     21  C   UNL A   1      32.656  17.572  24.594  1.00  0.00     0.079 A 
ATOM     22  N   UNL A   1      32.352  17.504  23.286  1.00  0.00    -0.257 NA
ATOM     23  C   UNL A   1      32.722  18.796  25.251  1.00  0.00     0.146 A 
ATOM     24  C   UNL A   1      32.197  18.681  22.628  1.00  0.00     0.118 A 
ATOM     25  C   UNL A   1      32.311  19.967  23.187  1.00  0.00     0.009 A 
BRANCH  23  26
ATOM     26  O   UNL A   1      33.065  18.771  26.588  1.00  0.00    -0.505 OA
ATOM     27  H   UNL A   1      32.642  18.172  27.170  1.00  0.00     0.293 HD
ENDBRANCH  23  26
BRANCH  25  28
ATOM     28  C   UNL A   1      32.190  21.123  22.241  1.00  0.00     0.194 C 
BRANCH  28  29
ATOM     29  O   UNL A   1      31.464  20.729  21.078  1.00  0.00    -0.392 OA
ATOM     30  H   UNL A   1      30.514  20.732  21.273  1.00  0.00     0.211 HD
ENDBRANCH  28  29
ENDBRANCH  25  28
ENDBRANCH   8  19
ENDBRANCH   4   7
ENDBRANCH   2   3
ENDBRANCH   1   2
BRANCH   1  31
ATOM     31  C   UNL A   1      39.014  20.205  25.684  1.00  0.00     0.118 C 
BRANCH  31  32
ATOM     32  N   UNL A   1      40.118  19.234  25.763  1.00  0.00    -0.352 N 
ATOM     33  C   UNL A   1      41.462  19.471  25.977  1.00  0.00     0.251 C 
ATOM     34  H   UNL A   1      39.864  18.291  25.648  1.00  0.00     0.163 HD
ATOM     35  O   UNL A   1      42.297  18.603  25.713  1.00  0.00    -0.269 OA
BRANCH  33  36
ATOM     36  C   UNL A   1      41.874  20.771  26.528  1.00  0.00     0.039 A 
ATOM     37  C   UNL A   1      42.399  21.800  25.741  1.00  0.00     0.014 A 
ATOM     38  C   UNL A   1      41.662  20.961  27.887  1.00  0.00     0.014 A 
ATOM     39  C   UNL A   1      42.634  23.039  26.337  1.00  0.00     0.010 A 
ATOM     40  C   UNL A   1      41.642  22.224  28.395  1.00  0.00     0.010 A 
ATOM     41  C   UNL A   1      42.233  23.242  27.667  1.00  0.00    -0.014 A 
BRANCH  41  42
ATOM     42  C   UNL A   1      42.324  24.531  28.334  1.00  0.00     0.031 A 
ATOM     43  C   UNL A   1      41.152  25.409  28.100  1.00  0.00     0.074 A 
ATOM     44  C   UNL A   1      43.255  24.787  29.282  1.00  0.00     0.049 A 
ATOM     45  N   UNL A   1      41.104  26.465  27.362  1.00  0.00    -0.248 NA
ATOM     46  C   UNL A   1      39.835  24.965  28.591  1.00  0.00     0.031 C 
ATOM     47  C   UNL A   1      44.274  23.878  29.835  1.00  0.00     0.029 A 
ATOM     48  N   UNL A   1      43.412  25.893  30.055  1.00  0.00    -0.354 N 
ATOM     49  C   UNL A   1      39.818  26.967  27.509  1.00  0.00     0.074 A 
ATOM     50  C   UNL A   1      39.033  25.899  28.074  1.00  0.00     0.031 C 
ATOM     51  C   UNL A   1      44.757  24.379  30.994  1.00  0.00     0.029 A 
ATOM     52  C   UNL A   1      44.231  25.719  31.168  1.00  0.00     0.049 A 
ATOM     53  H   UNL A   1      42.979  26.752  29.844  1.00  0.00     0.167 HD
ATOM     54  C   UNL A   1      39.573  28.305  27.427  1.00  0.00     0.031 A 
ATOM     55  C   UNL A   1      44.458  26.613  32.164  1.00  0.00     0.031 A 
ATOM     56  C   UNL A   1      40.719  29.017  26.916  1.00  0.00     0.049 A 
ATOM     57  C   UNL A   1      44.106  27.947  31.619  1.00  0.00     0.074 A 
ATOM     58  C   UNL A   1      41.438  28.994  25.739  1.00  0.00     0.029 A 
ATOM     59  N   UNL A   1      41.536  29.606  27.855  1.00  0.00    -0.354 N 
ATOM     60  N   UNL A   1      44.745  28.498  30.623  1.00  0.00    -0.248 NA
ATOM     61  C   UNL A   1      42.756  28.438  31.841  1.00  0.00     0.031 C 
ATOM     62  C   UNL A   1      42.799  29.147  26.137  1.00  0.00     0.029 A 
ATOM     63  C   UNL A   1      42.838  29.338  27.520  1.00  0.00     0.049 A 
ATOM     64  H   UNL A   1      41.236  30.130  28.633  1.00  0.00     0.167 HD
ATOM     65  C   UNL A   1      43.752  29.062  29.834  1.00  0.00     0.074 A 
ATOM     66  C   UNL A   1      42.562  29.084  30.686  1.00  0.00     0.031 C 
ATOM     67  C   UNL A   1      43.915  29.191  28.482  1.00  0.00     0.031 A 
BRANCH  54  68
ATOM     68  C   UNL A   1      38.494  29.014  28.210  1.00  0.00    -0.014 A 
ATOM     69  C   UNL A   1      37.560  29.801  27.506  1.00  0.00     0.010 A 
ATOM     70  C   UNL A   1      38.529  29.165  29.612  1.00  0.00     0.010 A 
ATOM     71  C   UNL A   1      36.756  30.740  28.164  1.00  0.00     0.020 A 
ATOM     72  C   UNL A   1      37.701  30.067  30.283  1.00  0.00     0.020 A 
ATOM     73  C   UNL A   1      36.843  30.874  29.549  1.00  0.00     0.054 A 
BRANCH  73  74
ATOM     74  S   UNL A   1      35.873  32.156  30.376  1.00  0.00     0.124 S 
ATOM     75  O   UNL A   1      34.720  32.280  29.491  1.00  0.00    -0.237 OA
ATOM     76  O   UNL A   1      35.613  31.551  31.680  1.00  0.00    -0.237 OA
ATOM     77  O   UNL A   1      36.774  33.306  30.398  1.00  0.00    -0.744 OA
ENDBRANCH  73  74
ENDBRANCH  54  68
BRANCH  55  78
ATOM     78  C   UNL A   1      44.644  26.353  33.617  1.00  0.00    -0.014 A 
ATOM     79  C   UNL A   1      45.679  26.960  34.355  1.00  0.00     0.010 A 
ATOM     80  C   UNL A   1      43.616  25.717  34.344  1.00  0.00     0.010 A 
ATOM     81  C   UNL A   1      45.662  26.966  35.764  1.00  0.00     0.020 A 
ATOM     82  C   UNL A   1      43.592  25.720  35.746  1.00  0.00     0.020 A 
ATOM     83  C   UNL A   1      44.607  26.361  36.452  1.00  0.00     0.054 A 
BRANCH  83  84
ATOM     84  S   UNL A   1      44.514  26.501  38.265  1.00  0.00     0.124 S 
ATOM     85  O   UNL A   1      44.981  27.864  38.497  1.00  0.00    -0.237 OA
ATOM     86  O   UNL A   1      43.097  26.266  38.532  1.00  0.00    -0.237 OA
ATOM     87  O   UNL A   1      45.411  25.450  38.739  1.00  0.00    -0.744 OA
ENDBRANCH  83  84
ENDBRANCH  55  78
BRANCH  67  88
ATOM     88  C   UNL A   1      45.295  28.963  27.900  1.00  0.00    -0.014 A 
ATOM     89  C   UNL A   1      46.262  29.977  27.738  1.00  0.00     0.010 A 
ATOM     90  C   UNL A   1      45.682  27.632  27.671  1.00  0.00     0.010 A 
ATOM     91  C   UNL A   1      47.575  29.663  27.348  1.00  0.00     0.020 A 
ATOM     92  C   UNL A   1      46.989  27.310  27.300  1.00  0.00     0.020 A 
ATOM     93  C   UNL A   1      47.931  28.328  27.134  1.00  0.00     0.054 A 
BRANCH  93  94
ATOM     94  S   UNL A   1      49.643  27.910  26.692  1.00  0.00     0.124 S 
ATOM     95  O   UNL A   1      50.309  27.881  27.991  1.00  0.00    -0.237 OA
ATOM     96  O   UNL A   1      49.502  26.617  26.028  1.00  0.00    -0.237 OA
ATOM     97  O   UNL A   1      50.052  29.005  25.812  1.00  0.00    -0.744 OA
ENDBRANCH  93  94
ENDBRANCH  67  88
ENDBRANCH  41  42
ENDBRANCH  33  36
ENDBRANCH  31  32
ENDBRANCH   1  31
TORSDOF 17
ENDMDL
MODEL 2
REMARK VINA RESULT:     -12.4      2.887      7.593
REMARK SMILES Cc1ncc(CO)c([C@H]2[NH2+][C@@H](C(=O)NCCCNC(=O)c3ccc(-c4c5nc(c(-c6ccc(S(=O)(=O)[O-])cc6)c6ccc([nH]6)c(-c6ccc(S(=O)(=O)[O-])cc6)c6nc(c(-c7ccc(S(=O)(=O)[O-])cc7)c7ccc4[nH]7)C=C6)C=C5)cc3)Cc3[nH]cnc32)c1O
REMARK SMILES IDX 16 1 15 2 14 3 12 4 13 5 11 7 9 8 10 9 86 10 82 13 85 14
REMARK SMILES IDX 81 15 83 16 84 17 8 19 1 20 2 21 3 22 87 23 4 24 5 25 88 26
REMARK SMILES IDX 6 28 7 29 17 31 18 32 19 33 20 35 21 36 22 37 80 38 23 39
REMARK SMILES IDX 79 40 24 41 25 42 26 43 73 44 27 45 78 46 72 47 74 48 28 49
REMARK SMILES IDX 77 50 71 51 70 52 29 54 59 55 40 56 58 57 41 58 44 59 57 60
REMARK SMILES IDX 75 61 42 62 43 63 56 65 76 66 45 67 30 68 31 69 39 70 32 71
REMARK SMILES IDX 38 72 33 73 34 74 35 75 36 76 37 77 60 78 61 79 69 80 62 81
REMARK SMILES IDX 68 82 63 83 64 84 65 85 66 86 67 87 46 88 47 89 55 90 48 91
REMARK SMILES IDX 54 92 49 93 50 94 51 95 52 96 53 97
REMARK H PARENT 14 6 10 11 10 12 83 18 88 27 7 30 18 34 74 53 44 64
REMARK Flexibility Score: inf
ROOT
ATOM      1  C   UNL A   1      39.158  21.029  25.885  1.00  0.00     0.042 C 
ENDROOT
BRANCH   1   2
ATOM      2  C   UNL A   1      38.106  22.143  25.928  1.00  0.00     0.118 C 
BRANCH   2   3
ATOM      3  N   UNL A   1      37.891  22.794  24.642  1.00  0.00    -0.351 N 
ATOM      4  C   UNL A   1      36.715  23.191  24.054  1.00  0.00     0.278 C 
ATOM      5  O   UNL A   1      36.759  23.820  23.000  1.00  0.00    -0.268 OA
ATOM      6  H   UNL A   1      38.706  22.977  24.120  1.00  0.00     0.163 HD
BRANCH   4   7
ATOM      7  C   UNL A   1      35.414  22.781  24.736  1.00  0.00     0.279 C 
ATOM      8  C   UNL A   1      33.598  21.242  24.666  1.00  0.00     0.270 C 
ATOM      9  N   UNL A   1      34.540  22.009  23.816  1.00  0.00    -0.324 N 
ATOM     10  C   UNL A   1      32.736  22.228  25.406  1.00  0.00     0.124 A 
ATOM     11  H   UNL A   1      34.026  22.644  23.206  1.00  0.00     0.347 HD
ATOM     12  H   UNL A   1      35.090  21.388  23.224  1.00  0.00     0.347 HD
ATOM     13  C   UNL A   1      33.283  23.457  25.774  1.00  0.00     0.051 A 
ATOM     14  N   UNL A   1      31.596  21.999  26.135  1.00  0.00    -0.235 NA
ATOM     15  C   UNL A   1      34.633  23.967  25.353  1.00  0.00     0.131 C 
ATOM     16  N   UNL A   1      32.421  24.009  26.667  1.00  0.00    -0.348 N 
ATOM     17  C   UNL A   1      31.419  23.091  26.854  1.00  0.00     0.197 A 
ATOM     18  H   UNL A   1      32.500  24.893  27.095  1.00  0.00     0.167 HD
BRANCH   8  19
ATOM     19  C   UNL A   1      33.108  20.019  23.940  1.00  0.00     0.066 A 
ATOM     20  C   UNL A   1      34.279  16.353  24.166  1.00  0.00     0.071 C 
ATOM     21  C   UNL A   1      33.533  17.589  23.753  1.00  0.00     0.079 A 
ATOM     22  N   UNL A   1      32.711  17.488  22.693  1.00  0.00    -0.257 NA
ATOM     23  C   UNL A   1      33.714  18.804  24.405  1.00  0.00     0.146 A 
ATOM     24  C   UNL A   1      32.139  18.634  22.247  1.00  0.00     0.118 A 
ATOM     25  C   UNL A   1      32.313  19.918  22.794  1.00  0.00     0.009 A 
BRANCH  23  26
ATOM     26  O   UNL A   1      34.595  18.819  25.468  1.00  0.00    -0.505 OA
ATOM     27  H   UNL A   1      34.532  18.168  26.138  1.00  0.00     0.293 HD
ENDBRANCH  23  26
BRANCH  25  28
ATOM     28  C   UNL A   1      31.651  21.052  22.071  1.00  0.00     0.194 C 
BRANCH  28  29
ATOM     29  O   UNL A   1      31.471  20.716  20.696  1.00  0.00    -0.392 OA
ATOM     30  H   UNL A   1      31.047  19.847  20.628  1.00  0.00     0.211 HD
ENDBRANCH  28  29
ENDBRANCH  25  28
ENDBRANCH   8  19
ENDBRANCH   4   7
ENDBRANCH   2   3
ENDBRANCH   1   2
BRANCH   1  31
ATOM     31  C   UNL A   1      40.404  21.401  26.670  1.00  0.00     0.118 C 
BRANCH  31  32
ATOM     32  N   UNL A   1      41.580  21.608  25.810  1.00  0.00    -0.352 N 
ATOM     33  C   UNL A   1      42.294  22.771  25.588  1.00  0.00     0.251 C 
ATOM     34  H   UNL A   1      41.902  20.813  25.329  1.00  0.00     0.163 HD
ATOM     35  O   UNL A   1      43.052  22.861  24.620  1.00  0.00    -0.269 OA
BRANCH  33  36
ATOM     36  C   UNL A   1      42.134  23.891  26.528  1.00  0.00     0.039 A 
ATOM     37  C   UNL A   1      42.824  23.972  27.740  1.00  0.00     0.014 A 
ATOM     38  C   UNL A   1      41.292  24.919  26.126  1.00  0.00     0.014 A 
ATOM     39  C   UNL A   1      42.704  25.137  28.497  1.00  0.00     0.010 A 
ATOM     40  C   UNL A   1      41.385  26.138  26.725  1.00  0.00     0.010 A 
ATOM     41  C   UNL A   1      41.990  26.223  27.967  1.00  0.00    -0.014 A 
BRANCH  41  42
ATOM     42  C   UNL A   1      41.912  27.518  28.625  1.00  0.00     0.031 A 
ATOM     43  C   UNL A   1      43.050  28.417  28.313  1.00  0.00     0.074 A 
ATOM     44  C   UNL A   1      40.784  27.947  29.238  1.00  0.00     0.049 A 
ATOM     45  N   UNL A   1      44.020  28.745  29.096  1.00  0.00    -0.248 NA
ATOM     46  C   UNL A   1      43.233  28.856  26.918  1.00  0.00     0.031 C 
ATOM     47  C   UNL A   1      39.479  27.272  29.331  1.00  0.00     0.029 A 
ATOM     48  N   UNL A   1      40.523  29.151  29.810  1.00  0.00    -0.354 N 
ATOM     49  C   UNL A   1      44.795  29.644  28.374  1.00  0.00     0.074 A 
ATOM     50  C   UNL A   1      44.404  29.494  26.996  1.00  0.00     0.031 C 
ATOM     51  C   UNL A   1      38.527  28.161  29.693  1.00  0.00     0.029 A 
ATOM     52  C   UNL A   1      39.174  29.410  30.040  1.00  0.00     0.049 A 
ATOM     53  H   UNL A   1      41.234  29.791  30.044  1.00  0.00     0.167 HD
ATOM     54  C   UNL A   1      45.482  30.640  29.001  1.00  0.00     0.031 A 
ATOM     55  C   UNL A   1      38.628  30.573  30.482  1.00  0.00     0.031 A 
ATOM     56  C   UNL A   1      45.505  30.441  30.430  1.00  0.00     0.049 A 
ATOM     57  C   UNL A   1      39.722  31.323  31.146  1.00  0.00     0.074 A 
ATOM     58  C   UNL A   1      45.992  29.462  31.272  1.00  0.00     0.029 A 
ATOM     59  N   UNL A   1      44.569  31.142  31.155  1.00  0.00    -0.354 N 
ATOM     60  N   UNL A   1      40.327  30.894  32.220  1.00  0.00    -0.248 NA
ATOM     61  C   UNL A   1      40.470  32.282  30.350  1.00  0.00     0.031 C 
ATOM     62  C   UNL A   1      45.007  29.335  32.296  1.00  0.00     0.029 A 
ATOM     63  C   UNL A   1      44.013  30.293  32.076  1.00  0.00     0.049 A 
ATOM     64  H   UNL A   1      44.338  32.093  31.034  1.00  0.00     0.167 HD
ATOM     65  C   UNL A   1      41.671  31.170  32.004  1.00  0.00     0.074 A 
ATOM     66  C   UNL A   1      41.684  32.116  30.887  1.00  0.00     0.031 C 
ATOM     67  C   UNL A   1      42.648  30.391  32.558  1.00  0.00     0.031 A 
BRANCH  54  68
ATOM     68  C   UNL A   1      45.740  31.998  28.394  1.00  0.00    -0.014 A 
ATOM     69  C   UNL A   1      46.965  32.637  28.676  1.00  0.00     0.010 A 
ATOM     70  C   UNL A   1      44.732  32.782  27.798  1.00  0.00     0.010 A 
ATOM     71  C   UNL A   1      47.142  34.007  28.440  1.00  0.00     0.020 A 
ATOM     72  C   UNL A   1      44.913  34.138  27.518  1.00  0.00     0.020 A 
ATOM     73  C   UNL A   1      46.108  34.749  27.873  1.00  0.00     0.054 A 
BRANCH  73  74
ATOM     74  S   UNL A   1      46.312  36.534  27.663  1.00  0.00     0.124 S 
ATOM     75  O   UNL A   1      46.536  36.645  26.225  1.00  0.00    -0.237 OA
ATOM     76  O   UNL A   1      45.033  37.047  28.150  1.00  0.00    -0.237 OA
ATOM     77  O   UNL A   1      47.464  36.847  28.504  1.00  0.00    -0.744 OA
ENDBRANCH  73  74
ENDBRANCH  54  68
BRANCH  55  78
ATOM     78  C   UNL A   1      37.337  31.197  30.089  1.00  0.00    -0.014 A 
ATOM     79  C   UNL A   1      36.408  31.649  31.046  1.00  0.00     0.010 A 
ATOM     80  C   UNL A   1      37.143  31.607  28.753  1.00  0.00     0.010 A 
ATOM     81  C   UNL A   1      35.353  32.512  30.687  1.00  0.00     0.020 A 
ATOM     82  C   UNL A   1      36.097  32.467  28.389  1.00  0.00     0.020 A 
ATOM     83  C   UNL A   1      35.214  32.930  29.361  1.00  0.00     0.054 A 
BRANCH  83  84
ATOM     84  S   UNL A   1      33.942  34.160  28.931  1.00  0.00     0.124 S 
ATOM     85  O   UNL A   1      33.337  34.449  30.227  1.00  0.00    -0.237 OA
ATOM     86  O   UNL A   1      34.728  35.243  28.347  1.00  0.00    -0.237 OA
ATOM     87  O   UNL A   1      33.080  33.449  27.989  1.00  0.00    -0.744 OA
ENDBRANCH  83  84
ENDBRANCH  55  78
BRANCH  67  88
ATOM     88  C   UNL A   1      42.250  29.393  33.628  1.00  0.00    -0.014 A 
ATOM     89  C   UNL A   1      41.760  28.099  33.358  1.00  0.00     0.010 A 
ATOM     90  C   UNL A   1      42.551  29.728  34.958  1.00  0.00     0.010 A 
ATOM     91  C   UNL A   1      41.570  27.172  34.397  1.00  0.00     0.020 A 
ATOM     92  C   UNL A   1      42.381  28.806  35.994  1.00  0.00     0.020 A 
ATOM     93  C   UNL A   1      41.885  27.533  35.711  1.00  0.00     0.054 A 
BRANCH  93  94
ATOM     94  S   UNL A   1      41.701  26.317  37.049  1.00  0.00     0.124 S 
ATOM     95  O   UNL A   1      41.699  25.048  36.328  1.00  0.00    -0.237 OA
ATOM     96  O   UNL A   1      42.877  26.567  37.880  1.00  0.00    -0.237 OA
ATOM     97  O   UNL A   1      40.428  26.676  37.673  1.00  0.00    -0.744 OA
ENDBRANCH  93  94
ENDBRANCH  67  88
ENDBRANCH  41  42
ENDBRANCH  33  36
ENDBRANCH  31  32
ENDBRANCH   1  31
TORSDOF 17
ENDMDL
MODEL 3
REMARK VINA RESULT:     -12.4      1.890      3.122
REMARK SMILES Cc1ncc(CO)c([C@H]2[NH2+][C@@H](C(=O)NCCCNC(=O)c3ccc(-c4c5nc(c(-c6ccc(S(=O)(=O)[O-])cc6)c6ccc([nH]6)c(-c6ccc(S(=O)(=O)[O-])cc6)c6nc(c(-c7ccc(S(=O)(=O)[O-])cc7)c7ccc4[nH]7)C=C6)C=C5)cc3)Cc3[nH]cnc32)c1O
REMARK SMILES IDX 16 1 15 2 14 3 12 4 13 5 11 7 9 8 10 9 86 10 82 13 85 14
REMARK SMILES IDX 81 15 83 16 84 17 8 19 1 20 2 21 3 22 87 23 4 24 5 25 88 26
REMARK SMILES IDX 6 28 7 29 17 31 18 32 19 33 20 35 21 36 22 37 80 38 23 39
REMARK SMILES IDX 79 40 24 41 25 42 26 43 73 44 27 45 78 46 72 47 74 48 28 49
REMARK SMILES IDX 77 50 71 51 70 52 29 54 59 55 40 56 58 57 41 58 44 59 57 60
REMARK SMILES IDX 75 61 42 62 43 63 56 65 76 66 45 67 30 68 31 69 39 70 32 71
REMARK SMILES IDX 38 72 33 73 34 74 35 75 36 76 37 77 60 78 61 79 69 80 62 81
REMARK SMILES IDX 68 82 63 83 64 84 65 85 66 86 67 87 46 88 47 89 55 90 48 91
REMARK SMILES IDX 54 92 49 93 50 94 51 95 52 96 53 97
REMARK H PARENT 14 6 10 11 10 12 83 18 88 27 7 30 18 34 74 53 44 64
REMARK Flexibility Score: inf
ROOT
ATOM      1  C   UNL A   1      37.670  19.891  24.856  1.00  0.00     0.042 C 
ENDROOT
BRANCH   1   2
ATOM      2  C   UNL A   1      36.765  21.091  24.561  1.00  0.00     0.118 C 
BRANCH   2   3
ATOM      3  N   UNL A   1      37.267  22.349  25.099  1.00  0.00    -0.351 N 
ATOM      4  C   UNL A   1      36.567  23.437  25.564  1.00  0.00     0.278 C 
ATOM      5  O   UNL A   1      37.185  24.367  26.076  1.00  0.00    -0.268 OA
ATOM      6  H   UNL A   1      38.247  22.431  25.138  1.00  0.00     0.163 HD
BRANCH   4   7
ATOM      7  C   UNL A   1      35.054  23.435  25.372  1.00  0.00     0.279 C 
ATOM      8  C   UNL A   1      33.195  24.749  24.676  1.00  0.00     0.270 C 
ATOM      9  N   UNL A   1      34.509  24.816  25.358  1.00  0.00    -0.324 N 
ATOM     10  C   UNL A   1      32.282  23.899  25.515  1.00  0.00     0.124 A 
ATOM     11  H   UNL A   1      34.393  25.157  26.312  1.00  0.00     0.347 HD
ATOM     12  H   UNL A   1      35.141  25.455  24.876  1.00  0.00     0.347 HD
ATOM     13  C   UNL A   1      32.828  22.844  26.247  1.00  0.00     0.051 A 
ATOM     14  N   UNL A   1      30.924  23.725  25.408  1.00  0.00    -0.235 NA
ATOM     15  C   UNL A   1      34.296  22.567  26.406  1.00  0.00     0.131 C 
ATOM     16  N   UNL A   1      31.782  22.077  26.653  1.00  0.00    -0.348 N 
ATOM     17  C   UNL A   1      30.654  22.649  26.122  1.00  0.00     0.197 A 
ATOM     18  H   UNL A   1      31.826  21.271  27.218  1.00  0.00     0.167 HD
BRANCH   8  19
ATOM     19  C   UNL A   1      32.845  26.081  24.071  1.00  0.00     0.066 A 
ATOM     20  C   UNL A   1      31.864  29.405  25.760  1.00  0.00     0.071 C 
ATOM     21  C   UNL A   1      32.173  28.374  24.713  1.00  0.00     0.079 A 
ATOM     22  N   UNL A   1      31.907  28.695  23.434  1.00  0.00    -0.257 NA
ATOM     23  C   UNL A   1      32.669  27.118  25.047  1.00  0.00     0.146 A 
ATOM     24  C   UNL A   1      32.068  27.717  22.508  1.00  0.00     0.118 A 
ATOM     25  C   UNL A   1      32.497  26.401  22.754  1.00  0.00     0.009 A 
BRANCH  23  26
ATOM     26  O   UNL A   1      32.889  26.868  26.387  1.00  0.00    -0.505 OA
ATOM     27  H   UNL A   1      33.040  25.992  26.681  1.00  0.00     0.293 HD
ENDBRANCH  23  26
BRANCH  25  28
ATOM     28  C   UNL A   1      32.508  25.467  21.582  1.00  0.00     0.194 C 
BRANCH  28  29
ATOM     29  O   UNL A   1      33.144  26.090  20.467  1.00  0.00    -0.392 OA
ATOM     30  H   UNL A   1      33.271  27.033  20.653  1.00  0.00     0.211 HD
ENDBRANCH  28  29
ENDBRANCH  25  28
ENDBRANCH   8  19
ENDBRANCH   4   7
ENDBRANCH   2   3
ENDBRANCH   1   2
BRANCH   1  31
ATOM     31  C   UNL A   1      38.843  20.275  25.741  1.00  0.00     0.118 C 
BRANCH  31  32
ATOM     32  N   UNL A   1      39.897  19.249  25.772  1.00  0.00    -0.352 N 
ATOM     33  C   UNL A   1      41.257  19.413  25.957  1.00  0.00     0.251 C 
ATOM     34  H   UNL A   1      39.594  18.322  25.644  1.00  0.00     0.163 HD
ATOM     35  O   UNL A   1      42.039  18.509  25.653  1.00  0.00    -0.269 OA
BRANCH  33  36
ATOM     36  C   UNL A   1      41.748  20.678  26.523  1.00  0.00     0.039 A 
ATOM     37  C   UNL A   1      42.360  21.671  25.753  1.00  0.00     0.014 A 
ATOM     38  C   UNL A   1      41.522  20.877  27.878  1.00  0.00     0.014 A 
ATOM     39  C   UNL A   1      42.669  22.887  26.361  1.00  0.00     0.010 A 
ATOM     40  C   UNL A   1      41.581  22.135  28.393  1.00  0.00     0.010 A 
ATOM     41  C   UNL A   1      42.257  23.113  27.683  1.00  0.00    -0.014 A 
BRANCH  41  42
ATOM     42  C   UNL A   1      42.425  24.389  28.360  1.00  0.00     0.031 A 
ATOM     43  C   UNL A   1      41.306  25.336  28.136  1.00  0.00     0.074 A 
ATOM     44  C   UNL A   1      43.371  24.583  29.308  1.00  0.00     0.049 A 
ATOM     45  N   UNL A   1      41.319  26.399  27.405  1.00  0.00    -0.248 NA
ATOM     46  C   UNL A   1      39.967  24.967  28.627  1.00  0.00     0.031 C 
ATOM     47  C   UNL A   1      44.335  23.610  29.851  1.00  0.00     0.029 A 
ATOM     48  N   UNL A   1      43.594  25.671  30.089  1.00  0.00    -0.354 N 
ATOM     49  C   UNL A   1      40.065  26.974  27.559  1.00  0.00     0.074 A 
ATOM     50  C   UNL A   1      39.220  25.950  28.118  1.00  0.00     0.031 C 
ATOM     51  C   UNL A   1      44.849  24.074  31.013  1.00  0.00     0.029 A 
ATOM     52  C   UNL A   1      44.404  25.441  31.198  1.00  0.00     0.049 A 
ATOM     53  H   UNL A   1      43.212  26.556  29.885  1.00  0.00     0.167 HD
ATOM     54  C   UNL A   1      39.899  28.325  27.488  1.00  0.00     0.031 A 
ATOM     55  C   UNL A   1      44.685  26.312  32.201  1.00  0.00     0.031 A 
ATOM     56  C   UNL A   1      41.084  28.972  26.980  1.00  0.00     0.049 A 
ATOM     57  C   UNL A   1      44.411  27.669  31.666  1.00  0.00     0.074 A 
ATOM     58  C   UNL A   1      41.798  28.915  25.800  1.00  0.00     0.029 A 
ATOM     59  N   UNL A   1      41.936  29.504  27.920  1.00  0.00    -0.354 N 
ATOM     60  N   UNL A   1      45.079  28.189  30.673  1.00  0.00    -0.248 NA
ATOM     61  C   UNL A   1      43.093  28.237  31.896  1.00  0.00     0.031 C 
ATOM     62  C   UNL A   1      43.166  28.985  26.196  1.00  0.00     0.029 A 
ATOM     63  C   UNL A   1      43.219  29.163  27.581  1.00  0.00     0.049 A 
ATOM     64  H   UNL A   1      41.669  30.039  28.703  1.00  0.00     0.167 HD
ATOM     65  C   UNL A   1      44.120  28.816  29.890  1.00  0.00     0.074 A 
ATOM     66  C   UNL A   1      42.935  28.901  30.745  1.00  0.00     0.031 C 
ATOM     67  C   UNL A   1      44.287  28.945  28.539  1.00  0.00     0.031 A 
BRANCH  54  68
ATOM     68  C   UNL A   1      38.865  29.090  28.279  1.00  0.00    -0.014 A 
ATOM     69  C   UNL A   1      37.862  29.786  27.575  1.00  0.00     0.010 A 
ATOM     70  C   UNL A   1      39.001  29.380  29.651  1.00  0.00     0.010 A 
ATOM     71  C   UNL A   1      37.087  30.773  28.198  1.00  0.00     0.020 A 
ATOM     72  C   UNL A   1      38.205  30.331  30.293  1.00  0.00     0.020 A 
ATOM     73  C   UNL A   1      37.274  31.046  29.552  1.00  0.00     0.054 A 
BRANCH  73  74
ATOM     74  S   UNL A   1      36.339  32.388  30.322  1.00  0.00     0.124 S 
ATOM     75  O   UNL A   1      34.970  32.061  29.936  1.00  0.00    -0.237 OA
ATOM     76  O   UNL A   1      36.660  32.213  31.736  1.00  0.00    -0.237 OA
ATOM     77  O   UNL A   1      36.895  33.590  29.706  1.00  0.00    -0.744 OA
ENDBRANCH  73  74
ENDBRANCH  54  68
BRANCH  55  78
ATOM     78  C   UNL A   1      44.858  26.031  33.651  1.00  0.00    -0.014 A 
ATOM     79  C   UNL A   1      45.726  26.792  34.458  1.00  0.00     0.010 A 
ATOM     80  C   UNL A   1      43.943  25.180  34.306  1.00  0.00     0.010 A 
ATOM     81  C   UNL A   1      45.650  26.735  35.865  1.00  0.00     0.020 A 
ATOM     82  C   UNL A   1      43.861  25.119  35.705  1.00  0.00     0.020 A 
ATOM     83  C   UNL A   1      44.705  25.910  36.480  1.00  0.00     0.054 A 
BRANCH  83  84
ATOM     84  S   UNL A   1      44.512  25.953  38.290  1.00  0.00     0.124 S 
ATOM     85  O   UNL A   1      43.158  26.476  38.447  1.00  0.00    -0.237 OA
ATOM     86  O   UNL A   1      44.695  24.553  38.664  1.00  0.00    -0.237 OA
ATOM     87  O   UNL A   1      45.578  26.851  38.729  1.00  0.00    -0.744 OA
ENDBRANCH  83  84
ENDBRANCH  55  78
BRANCH  67  88
ATOM     88  C   UNL A   1      45.651  28.641  27.953  1.00  0.00    -0.014 A 
ATOM     89  C   UNL A   1      46.069  27.356  27.548  1.00  0.00     0.010 A 
ATOM     90  C   UNL A   1      46.473  29.737  27.643  1.00  0.00     0.010 A 
ATOM     91  C   UNL A   1      47.282  27.178  26.861  1.00  0.00     0.020 A 
ATOM     92  C   UNL A   1      47.672  29.570  26.945  1.00  0.00     0.020 A 
ATOM     93  C   UNL A   1      48.075  28.290  26.561  1.00  0.00     0.054 A 
BRANCH  93  94
ATOM     94  S   UNL A   1      49.612  28.073  25.617  1.00  0.00     0.124 S 
ATOM     95  O   UNL A   1      50.224  26.917  26.267  1.00  0.00    -0.237 OA
ATOM     96  O   UNL A   1      49.130  27.848  24.257  1.00  0.00    -0.237 OA
ATOM     97  O   UNL A   1      50.322  29.338  25.811  1.00  0.00    -0.744 OA
ENDBRANCH  93  94
ENDBRANCH  67  88
ENDBRANCH  41  42
ENDBRANCH  33  36
ENDBRANCH  31  32
ENDBRANCH   1  31
TORSDOF 17
ENDMDL
