MODEL 1
REMARK VINA RESULT:     -11.7      0.000      0.000
REMARK SMILES O=C(CCCN1C(=O)C(=O)/C(=C(/[O-])c2ccc(Cl)cc2)[C@@H]1c1ccccc1[N+](=O)[O-])NCCCNC(=O)c1ccc(-c2c3nc(c(-c4ccc(S(=O)(=O)[O-])cc4)c4ccc([nH]4)c(-c4ccc(S(=O)(=O)[O-])cc4)c4nc(c(-c5ccc(S(=O)(=O)[O-])cc5)c5ccc2[nH]5)C=C4)C=C3)cc1
REMARK SMILES IDX 32 1 31 2 1 3 2 4 3 6 4 7 5 8 6 9 7 10 21 11 8 12 9 13 11 14
REMARK SMILES IDX 10 15 12 16 13 17 22 18 23 19 27 20 24 21 26 22 25 23 28 24
REMARK SMILES IDX 29 25 30 26 14 27 15 28 20 29 16 30 19 31 17 32 18 33 33 34
REMARK SMILES IDX 34 35 35 36 36 37 37 39 38 40 39 41 97 42 40 43 96 44 41 45
REMARK SMILES IDX 42 46 43 47 90 48 44 49 95 50 89 51 91 52 45 53 94 54 88 55
REMARK SMILES IDX 87 56 46 58 76 59 57 60 75 61 58 62 61 63 74 64 92 65 59 66
REMARK SMILES IDX 60 67 73 69 93 70 62 71 47 72 48 73 56 74 49 75 55 76 50 77
REMARK SMILES IDX 51 78 52 79 53 80 54 81 77 82 78 83 86 84 79 85 85 86 80 87
REMARK SMILES IDX 81 88 82 89 83 90 84 91 63 92 64 93 72 94 65 95 71 96 66 97
REMARK SMILES IDX 67 98 68 99 69 100 70 101
REMARK H PARENT 31 5 35 38 91 57 61 68
REMARK Flexibility Score: inf
ROOT
ATOM      1  C   UNL A   1      31.908  30.165  26.131  1.00  0.00     0.117 C 
ENDROOT
BRANCH   1   2
ATOM      2  N   UNL A   1      31.317  28.883  25.804  1.00  0.00    -0.356 N 
ATOM      3  O   UNL A   1      30.425  29.524  23.774  1.00  0.00    -0.275 OA
ATOM      4  C   UNL A   1      30.680  28.650  24.595  1.00  0.00     0.220 C 
ATOM      5  H   UNL A   1      31.371  28.153  26.462  1.00  0.00     0.163 HD
BRANCH   4   6
ATOM      6  C   UNL A   1      30.251  27.205  24.404  1.00  0.00     0.102 C 
BRANCH   6   7
ATOM      7  C   UNL A   1      30.524  26.214  25.557  1.00  0.00     0.031 C 
BRANCH   7   8
ATOM      8  C   UNL A   1      30.950  24.731  25.306  1.00  0.00     0.121 C 
BRANCH   8   9
ATOM      9  N   UNL A   1      32.375  24.414  25.339  1.00  0.00    -0.324 N 
ATOM     10  C   UNL A   1      32.869  23.464  26.216  1.00  0.00     0.295 C 
ATOM     11  C   UNL A   1      33.358  24.670  24.245  1.00  0.00     0.157 C 
ATOM     12  O   UNL A   1      32.286  22.651  26.895  1.00  0.00    -0.265 OA
ATOM     13  C   UNL A   1      34.374  23.580  26.141  1.00  0.00     0.248 C 
ATOM     14  C   UNL A   1      34.641  23.997  24.749  1.00  0.00     0.025 C 
ATOM     15  O   UNL A   1      35.127  23.426  27.071  1.00  0.00    -0.283 OA
ATOM     16  C   UNL A   1      35.732  23.549  24.108  1.00  0.00    -0.092 C 
ATOM     17  O   UNL A   1      35.839  23.635  22.737  1.00  0.00    -0.872 OA
BRANCH  11  18
ATOM     18  C   UNL A   1      33.580  26.096  23.705  1.00  0.00     0.057 A 
ATOM     19  C   UNL A   1      34.106  27.065  24.588  1.00  0.00     0.013 A 
ATOM     20  C   UNL A   1      33.280  26.595  22.427  1.00  0.00     0.275 A 
ATOM     21  C   UNL A   1      34.257  28.418  24.237  1.00  0.00     0.001 A 
ATOM     22  C   UNL A   1      33.497  27.930  22.032  1.00  0.00     0.086 A 
ATOM     23  C   UNL A   1      33.962  28.851  22.953  1.00  0.00     0.007 A 
BRANCH  20  24
ATOM     24  N   UNL A   1      32.600  25.783  21.466  1.00  0.00     0.063 N 
ATOM     25  O   UNL A   1      31.378  25.638  21.597  1.00  0.00    -0.258 OA
ATOM     26  O   UNL A   1      33.310  25.287  20.586  1.00  0.00    -0.258 OA
ENDBRANCH  20  24
ENDBRANCH  11  18
BRANCH  16  27
ATOM     27  C   UNL A   1      36.865  22.866  24.757  1.00  0.00    -0.033 A 
ATOM     28  C   UNL A   1      37.041  21.481  24.639  1.00  0.00     0.009 A 
ATOM     29  C   UNL A   1      37.788  23.616  25.503  1.00  0.00     0.009 A 
ATOM     30  C   UNL A   1      38.107  20.851  25.285  1.00  0.00     0.021 A 
ATOM     31  C   UNL A   1      38.860  22.985  26.140  1.00  0.00     0.021 A 
ATOM     32  C   UNL A   1      39.010  21.603  26.033  1.00  0.00     0.041 A 
ATOM     33  Cl  UNL A   1      40.316  20.818  26.829  1.00  0.00    -0.084 Cl
ENDBRANCH  16  27
ENDBRANCH   8   9
ENDBRANCH   7   8
ENDBRANCH   6   7
ENDBRANCH   4   6
ENDBRANCH   1   2
BRANCH   1  34
ATOM     34  C   UNL A   1      32.910  30.133  27.293  1.00  0.00     0.042 C 
BRANCH  34  35
ATOM     35  C   UNL A   1      33.869  31.321  27.446  1.00  0.00     0.118 C 
BRANCH  35  36
ATOM     36  N   UNL A   1      33.214  32.614  27.615  1.00  0.00    -0.352 N 
ATOM     37  C   UNL A   1      33.541  33.645  28.469  1.00  0.00     0.251 C 
ATOM     38  H   UNL A   1      32.431  32.772  27.040  1.00  0.00     0.163 HD
ATOM     39  O   UNL A   1      32.842  34.655  28.510  1.00  0.00    -0.269 OA
BRANCH  37  40
ATOM     40  C   UNL A   1      34.700  33.518  29.382  1.00  0.00     0.039 A 
ATOM     41  C   UNL A   1      34.541  32.763  30.549  1.00  0.00     0.014 A 
ATOM     42  C   UNL A   1      35.938  34.089  29.080  1.00  0.00     0.014 A 
ATOM     43  C   UNL A   1      35.650  32.477  31.349  1.00  0.00     0.010 A 
ATOM     44  C   UNL A   1      37.053  33.768  29.857  1.00  0.00     0.010 A 
ATOM     45  C   UNL A   1      36.927  32.924  30.974  1.00  0.00    -0.014 A 
BRANCH  45  46
ATOM     46  C   UNL A   1      38.148  32.435  31.666  1.00  0.00     0.031 A 
ATOM     47  C   UNL A   1      39.012  31.373  31.051  1.00  0.00     0.074 A 
ATOM     48  C   UNL A   1      38.423  32.890  32.906  1.00  0.00     0.049 A 
ATOM     49  N   UNL A   1      40.039  30.747  31.567  1.00  0.00    -0.248 NA
ATOM     50  C   UNL A   1      38.669  30.949  29.685  1.00  0.00     0.031 C 
ATOM     51  C   UNL A   1      37.649  33.905  33.628  1.00  0.00     0.029 A 
ATOM     52  N   UNL A   1      39.416  32.545  33.791  1.00  0.00    -0.354 N 
ATOM     53  C   UNL A   1      40.458  29.842  30.599  1.00  0.00     0.074 A 
ATOM     54  C   UNL A   1      39.554  29.983  29.475  1.00  0.00     0.031 C 
ATOM     55  C   UNL A   1      38.200  34.103  34.836  1.00  0.00     0.029 A 
ATOM     56  C   UNL A   1      39.335  33.201  34.997  1.00  0.00     0.049 A 
ATOM     57  H   UNL A   1      40.121  31.889  33.580  1.00  0.00     0.167 HD
ATOM     58  C   UNL A   1      41.504  28.982  30.639  1.00  0.00     0.031 A 
ATOM     59  C   UNL A   1      40.075  33.080  36.116  1.00  0.00     0.031 A 
ATOM     60  C   UNL A   1      42.400  28.843  31.757  1.00  0.00     0.049 A 
ATOM     61  C   UNL A   1      41.213  32.098  36.147  1.00  0.00     0.074 A 
ATOM     62  C   UNL A   1      43.507  28.019  31.875  1.00  0.00     0.029 A 
ATOM     63  N   UNL A   1      42.294  29.539  32.952  1.00  0.00    -0.354 N 
ATOM     64  N   UNL A   1      41.619  31.282  35.204  1.00  0.00    -0.248 NA
ATOM     65  C   UNL A   1      41.997  32.024  37.387  1.00  0.00     0.031 C 
ATOM     66  C   UNL A   1      44.046  28.188  33.154  1.00  0.00     0.029 A 
ATOM     67  C   UNL A   1      43.306  29.155  33.815  1.00  0.00     0.049 A 
ATOM     68  H   UNL A   1      41.602  30.209  33.155  1.00  0.00     0.167 HD
ATOM     69  C   UNL A   1      42.727  30.624  35.725  1.00  0.00     0.074 A 
ATOM     70  C   UNL A   1      42.929  31.137  37.064  1.00  0.00     0.031 C 
ATOM     71  C   UNL A   1      43.508  29.683  35.141  1.00  0.00     0.031 A 
BRANCH  58  72
ATOM     72  C   UNL A   1      41.727  28.107  29.435  1.00  0.00    -0.014 A 
ATOM     73  C   UNL A   1      42.637  28.477  28.430  1.00  0.00     0.010 A 
ATOM     74  C   UNL A   1      41.044  26.881  29.325  1.00  0.00     0.010 A 
ATOM     75  C   UNL A   1      42.826  27.661  27.311  1.00  0.00     0.020 A 
ATOM     76  C   UNL A   1      41.250  26.050  28.219  1.00  0.00     0.020 A 
ATOM     77  C   UNL A   1      42.124  26.456  27.209  1.00  0.00     0.054 A 
BRANCH  77  78
ATOM     78  S   UNL A   1      42.384  25.418  25.746  1.00  0.00     0.124 S 
ATOM     79  O   UNL A   1      42.391  24.077  26.329  1.00  0.00    -0.237 OA
ATOM     80  O   UNL A   1      41.226  25.735  24.914  1.00  0.00    -0.237 OA
ATOM     81  O   UNL A   1      43.669  25.874  25.220  1.00  0.00    -0.744 OA
ENDBRANCH  77  78
ENDBRANCH  58  72
BRANCH  59  82
ATOM     82  C   UNL A   1      39.763  33.920  37.306  1.00  0.00    -0.014 A 
ATOM     83  C   UNL A   1      39.071  33.373  38.400  1.00  0.00     0.010 A 
ATOM     84  C   UNL A   1      40.170  35.265  37.356  1.00  0.00     0.010 A 
ATOM     85  C   UNL A   1      38.777  34.161  39.517  1.00  0.00     0.020 A 
ATOM     86  C   UNL A   1      39.901  36.049  38.481  1.00  0.00     0.020 A 
ATOM     87  C   UNL A   1      39.196  35.494  39.551  1.00  0.00     0.054 A 
BRANCH  87  88
ATOM     88  S   UNL A   1      38.851  36.482  41.034  1.00  0.00     0.124 S 
ATOM     89  O   UNL A   1      38.449  37.761  40.458  1.00  0.00    -0.237 OA
ATOM     90  O   UNL A   1      37.789  35.717  41.683  1.00  0.00    -0.237 OA
ATOM     91  O   UNL A   1      40.128  36.486  41.745  1.00  0.00    -0.744 OA
ENDBRANCH  87  88
ENDBRANCH  59  82
BRANCH  71  92
ATOM     92  C   UNL A   1      44.695  29.181  35.919  1.00  0.00    -0.014 A 
ATOM     93  C   UNL A   1      44.598  28.058  36.758  1.00  0.00     0.010 A 
ATOM     94  C   UNL A   1      45.945  29.802  35.744  1.00  0.00     0.010 A 
ATOM     95  C   UNL A   1      45.730  27.573  37.421  1.00  0.00     0.020 A 
ATOM     96  C   UNL A   1      47.083  29.307  36.387  1.00  0.00     0.020 A 
ATOM     97  C   UNL A   1      46.966  28.201  37.229  1.00  0.00     0.054 A 
BRANCH  97  98
ATOM     98  S   UNL A   1      48.433  27.513  38.045  1.00  0.00     0.124 S 
ATOM     99  O   UNL A   1      47.874  26.377  38.772  1.00  0.00    -0.237 OA
ATOM    100  O   UNL A   1      49.300  27.174  36.918  1.00  0.00    -0.237 OA
ATOM    101  O   UNL A   1      48.912  28.613  38.880  1.00  0.00    -0.744 OA
ENDBRANCH  97  98
ENDBRANCH  71  92
ENDBRANCH  45  46
ENDBRANCH  37  40
ENDBRANCH  35  36
ENDBRANCH  34  35
ENDBRANCH   1  34
TORSDOF 19
ENDMDL
MODEL 2
REMARK VINA RESULT:     -11.6      0.615      7.746
REMARK SMILES O=C(CCCN1C(=O)C(=O)/C(=C(/[O-])c2ccc(Cl)cc2)[C@@H]1c1ccccc1[N+](=O)[O-])NCCCNC(=O)c1ccc(-c2c3nc(c(-c4ccc(S(=O)(=O)[O-])cc4)c4ccc([nH]4)c(-c4ccc(S(=O)(=O)[O-])cc4)c4nc(c(-c5ccc(S(=O)(=O)[O-])cc5)c5ccc2[nH]5)C=C4)C=C3)cc1
REMARK SMILES IDX 32 1 31 2 1 3 2 4 3 6 4 7 5 8 6 9 7 10 21 11 8 12 9 13 11 14
REMARK SMILES IDX 10 15 12 16 13 17 22 18 23 19 27 20 24 21 26 22 25 23 28 24
REMARK SMILES IDX 29 25 30 26 14 27 15 28 20 29 16 30 19 31 17 32 18 33 33 34
REMARK SMILES IDX 34 35 35 36 36 37 37 39 38 40 39 41 97 42 40 43 96 44 41 45
REMARK SMILES IDX 42 46 43 47 90 48 44 49 95 50 89 51 91 52 45 53 94 54 88 55
REMARK SMILES IDX 87 56 46 58 76 59 57 60 75 61 58 62 61 63 74 64 92 65 59 66
REMARK SMILES IDX 60 67 73 69 93 70 62 71 47 72 48 73 56 74 49 75 55 76 50 77
REMARK SMILES IDX 51 78 52 79 53 80 54 81 77 82 78 83 86 84 79 85 85 86 80 87
REMARK SMILES IDX 81 88 82 89 83 90 84 91 63 92 64 93 72 94 65 95 71 96 66 97
REMARK SMILES IDX 67 98 68 99 69 100 70 101
REMARK H PARENT 31 5 35 38 91 57 61 68
REMARK Flexibility Score: inf
ROOT
ATOM      1  C   UNL A   1      31.834  30.159  26.068  1.00  0.00     0.117 C 
ENDROOT
BRANCH   1   2
ATOM      2  N   UNL A   1      31.251  28.879  25.715  1.00  0.00    -0.356 N 
ATOM      3  O   UNL A   1      30.438  29.529  23.656  1.00  0.00    -0.275 OA
ATOM      4  C   UNL A   1      30.658  28.652  24.483  1.00  0.00     0.220 C 
ATOM      5  H   UNL A   1      31.278  28.148  26.374  1.00  0.00     0.163 HD
BRANCH   4   6
ATOM      6  C   UNL A   1      30.232  27.209  24.272  1.00  0.00     0.102 C 
BRANCH   6   7
ATOM      7  C   UNL A   1      30.473  26.210  25.426  1.00  0.00     0.031 C 
BRANCH   7   8
ATOM      8  C   UNL A   1      30.875  24.721  25.177  1.00  0.00     0.121 C 
BRANCH   8   9
ATOM      9  N   UNL A   1      32.293  24.377  25.233  1.00  0.00    -0.324 N 
ATOM     10  C   UNL A   1      32.751  23.402  26.103  1.00  0.00     0.295 C 
ATOM     11  C   UNL A   1      33.302  24.633  24.163  1.00  0.00     0.157 C 
ATOM     12  O   UNL A   1      32.140  22.589  26.756  1.00  0.00    -0.265 OA
ATOM     13  C   UNL A   1      34.260  23.492  26.060  1.00  0.00     0.248 C 
ATOM     14  C   UNL A   1      34.562  23.928  24.681  1.00  0.00     0.025 C 
ATOM     15  O   UNL A   1      34.990  23.308  27.001  1.00  0.00    -0.283 OA
ATOM     16  C   UNL A   1      35.657  23.470  24.054  1.00  0.00    -0.092 C 
ATOM     17  O   UNL A   1      35.794  23.578  22.687  1.00  0.00    -0.872 OA
BRANCH  11  18
ATOM     18  C   UNL A   1      33.562  26.064  23.652  1.00  0.00     0.057 A 
ATOM     19  C   UNL A   1      34.080  27.009  24.565  1.00  0.00     0.013 A 
ATOM     20  C   UNL A   1      33.303  26.588  22.376  1.00  0.00     0.275 A 
ATOM     21  C   UNL A   1      34.262  28.365  24.240  1.00  0.00     0.001 A 
ATOM     22  C   UNL A   1      33.552  27.925  22.009  1.00  0.00     0.086 A 
ATOM     23  C   UNL A   1      34.007  28.824  22.957  1.00  0.00     0.007 A 
BRANCH  20  24
ATOM     24  N   UNL A   1      32.635  25.803  21.384  1.00  0.00     0.063 N 
ATOM     25  O   UNL A   1      33.322  25.037  20.700  1.00  0.00    -0.258 OA
ATOM     26  O   UNL A   1      31.415  25.975  21.298  1.00  0.00    -0.258 OA
ENDBRANCH  20  24
ENDBRANCH  11  18
BRANCH  16  27
ATOM     27  C   UNL A   1      36.765  22.755  24.713  1.00  0.00    -0.033 A 
ATOM     28  C   UNL A   1      37.694  23.435  25.511  1.00  0.00     0.009 A 
ATOM     29  C   UNL A   1      36.888  21.367  24.544  1.00  0.00     0.009 A 
ATOM     30  C   UNL A   1      38.751  22.741  26.105  1.00  0.00     0.021 A 
ATOM     31  C   UNL A   1      37.941  20.673  25.147  1.00  0.00     0.021 A 
ATOM     32  C   UNL A   1      38.872  21.366  25.920  1.00  0.00     0.041 A 
ATOM     33  Cl  UNL A   1      40.179  20.522  26.651  1.00  0.00    -0.084 Cl
ENDBRANCH  16  27
ENDBRANCH   8   9
ENDBRANCH   7   8
ENDBRANCH   6   7
ENDBRANCH   4   6
ENDBRANCH   1   2
BRANCH   1  34
ATOM     34  C   UNL A   1      32.787  30.121  27.270  1.00  0.00     0.042 C 
BRANCH  34  35
ATOM     35  C   UNL A   1      33.790  31.272  27.426  1.00  0.00     0.118 C 
BRANCH  35  36
ATOM     36  N   UNL A   1      33.184  32.591  27.571  1.00  0.00    -0.352 N 
ATOM     37  C   UNL A   1      33.550  33.625  28.406  1.00  0.00     0.251 C 
ATOM     38  H   UNL A   1      32.408  32.768  26.992  1.00  0.00     0.163 HD
ATOM     39  O   UNL A   1      32.890  34.662  28.427  1.00  0.00    -0.269 OA
BRANCH  37  40
ATOM     40  C   UNL A   1      34.703  33.472  29.320  1.00  0.00     0.039 A 
ATOM     41  C   UNL A   1      34.522  32.731  30.494  1.00  0.00     0.014 A 
ATOM     42  C   UNL A   1      35.959  34.004  29.016  1.00  0.00     0.014 A 
ATOM     43  C   UNL A   1      35.620  32.420  31.298  1.00  0.00     0.010 A 
ATOM     44  C   UNL A   1      37.062  33.656  29.798  1.00  0.00     0.010 A 
ATOM     45  C   UNL A   1      36.910  32.826  30.921  1.00  0.00    -0.014 A 
BRANCH  45  46
ATOM     46  C   UNL A   1      38.115  32.307  31.619  1.00  0.00     0.031 A 
ATOM     47  C   UNL A   1      38.546  32.872  32.942  1.00  0.00     0.074 A 
ATOM     48  C   UNL A   1      38.880  31.381  31.004  1.00  0.00     0.049 A 
ATOM     49  N   UNL A   1      39.632  32.624  33.629  1.00  0.00    -0.248 NA
ATOM     50  C   UNL A   1      37.646  33.854  33.566  1.00  0.00     0.031 C 
ATOM     51  C   UNL A   1      38.588  30.767  29.705  1.00  0.00     0.029 A 
ATOM     52  N   UNL A   1      40.072  30.808  31.376  1.00  0.00    -0.354 N 
ATOM     53  C   UNL A   1      39.558  33.429  34.759  1.00  0.00     0.074 A 
ATOM     54  C   UNL A   1      38.333  34.194  34.649  1.00  0.00     0.031 C 
ATOM     55  C   UNL A   1      39.566  29.902  29.395  1.00  0.00     0.029 A 
ATOM     56  C   UNL A   1      40.578  29.930  30.446  1.00  0.00     0.049 A 
ATOM     57  H   UNL A   1      40.522  31.007  32.230  1.00  0.00     0.167 HD
ATOM     58  C   UNL A   1      40.426  33.515  35.796  1.00  0.00     0.031 A 
ATOM     59  C   UNL A   1      41.735  29.240  30.425  1.00  0.00     0.031 A 
ATOM     60  C   UNL A   1      41.644  32.755  35.901  1.00  0.00     0.049 A 
ATOM     61  C   UNL A   1      42.695  29.373  31.573  1.00  0.00     0.074 A 
ATOM     62  C   UNL A   1      42.570  32.753  36.931  1.00  0.00     0.029 A 
ATOM     63  N   UNL A   1      42.110  31.864  34.947  1.00  0.00    -0.354 N 
ATOM     64  N   UNL A   1      42.586  30.108  32.654  1.00  0.00    -0.248 NA
ATOM     65  C   UNL A   1      43.931  28.580  31.506  1.00  0.00     0.031 C 
ATOM     66  C   UNL A   1      43.615  31.893  36.581  1.00  0.00     0.029 A 
ATOM     67  C   UNL A   1      43.315  31.317  35.356  1.00  0.00     0.049 A 
ATOM     68  H   UNL A   1      41.651  31.650  34.102  1.00  0.00     0.167 HD
ATOM     69  C   UNL A   1      43.721  29.839  33.410  1.00  0.00     0.074 A 
ATOM     70  C   UNL A   1      44.503  28.873  32.666  1.00  0.00     0.031 C 
ATOM     71  C   UNL A   1      44.078  30.345  34.615  1.00  0.00     0.031 A 
BRANCH  58  72
ATOM     72  C   UNL A   1      40.094  34.484  36.898  1.00  0.00    -0.014 A 
ATOM     73  C   UNL A   1      40.441  35.843  36.796  1.00  0.00     0.010 A 
ATOM     74  C   UNL A   1      39.393  34.038  38.034  1.00  0.00     0.010 A 
ATOM     75  C   UNL A   1      40.136  36.730  37.832  1.00  0.00     0.020 A 
ATOM     76  C   UNL A   1      39.063  34.929  39.061  1.00  0.00     0.020 A 
ATOM     77  C   UNL A   1      39.457  36.265  38.962  1.00  0.00     0.054 A 
BRANCH  77  78
ATOM     78  S   UNL A   1      39.078  37.437  40.293  1.00  0.00     0.124 S 
ATOM     79  O   UNL A   1      38.400  36.577  41.262  1.00  0.00    -0.237 OA
ATOM     80  O   UNL A   1      40.400  37.911  40.693  1.00  0.00    -0.237 OA
ATOM     81  O   UNL A   1      38.230  38.435  39.647  1.00  0.00    -0.744 OA
ENDBRANCH  77  78
ENDBRANCH  58  72
BRANCH  59  82
ATOM     82  C   UNL A   1      42.046  28.350  29.272  1.00  0.00    -0.014 A 
ATOM     83  C   UNL A   1      41.526  27.046  29.220  1.00  0.00     0.010 A 
ATOM     84  C   UNL A   1      42.850  28.809  28.212  1.00  0.00     0.010 A 
ATOM     85  C   UNL A   1      41.818  26.209  28.139  1.00  0.00     0.020 A 
ATOM     86  C   UNL A   1      43.123  27.985  27.117  1.00  0.00     0.020 A 
ATOM     87  C   UNL A   1      42.613  26.685  27.093  1.00  0.00     0.054 A 
BRANCH  87  88
ATOM     88  S   UNL A   1      42.934  25.601  25.673  1.00  0.00     0.124 S 
ATOM     89  O   UNL A   1      43.152  24.312  26.320  1.00  0.00    -0.237 OA
ATOM     90  O   UNL A   1      41.700  25.721  24.899  1.00  0.00    -0.237 OA
ATOM     91  O   UNL A   1      44.112  26.198  25.048  1.00  0.00    -0.744 OA
ENDBRANCH  87  88
ENDBRANCH  59  82
BRANCH  71  92
ATOM     92  C   UNL A   1      45.343  29.825  35.243  1.00  0.00    -0.014 A 
ATOM     93  C   UNL A   1      46.576  30.473  35.051  1.00  0.00     0.010 A 
ATOM     94  C   UNL A   1      45.279  28.713  36.102  1.00  0.00     0.010 A 
ATOM     95  C   UNL A   1      47.725  30.007  35.695  1.00  0.00     0.020 A 
ATOM     96  C   UNL A   1      46.421  28.258  36.766  1.00  0.00     0.020 A 
ATOM     97  C   UNL A   1      47.640  28.903  36.551  1.00  0.00     0.054 A 
BRANCH  97  98
ATOM     98  S   UNL A   1      49.130  28.358  37.430  1.00  0.00     0.124 S 
ATOM     99  O   UNL A   1      50.128  28.351  36.364  1.00  0.00    -0.237 OA
ATOM    100  O   UNL A   1      49.303  29.395  38.446  1.00  0.00    -0.237 OA
ATOM    101  O   UNL A   1      48.764  27.043  37.950  1.00  0.00    -0.744 OA
ENDBRANCH  97  98
ENDBRANCH  71  92
ENDBRANCH  45  46
ENDBRANCH  37  40
ENDBRANCH  35  36
ENDBRANCH  34  35
ENDBRANCH   1  34
TORSDOF 19
ENDMDL
MODEL 3
REMARK VINA RESULT:     -11.4      5.747     10.099
REMARK SMILES O=C(CCCN1C(=O)C(=O)/C(=C(/[O-])c2ccc(Cl)cc2)[C@@H]1c1ccccc1[N+](=O)[O-])NCCCNC(=O)c1ccc(-c2c3nc(c(-c4ccc(S(=O)(=O)[O-])cc4)c4ccc([nH]4)c(-c4ccc(S(=O)(=O)[O-])cc4)c4nc(c(-c5ccc(S(=O)(=O)[O-])cc5)c5ccc2[nH]5)C=C4)C=C3)cc1
REMARK SMILES IDX 32 1 31 2 1 3 2 4 3 6 4 7 5 8 6 9 7 10 21 11 8 12 9 13 11 14
REMARK SMILES IDX 10 15 12 16 13 17 22 18 23 19 27 20 24 21 26 22 25 23 28 24
REMARK SMILES IDX 29 25 30 26 14 27 15 28 20 29 16 30 19 31 17 32 18 33 33 34
REMARK SMILES IDX 34 35 35 36 36 37 37 39 38 40 39 41 97 42 40 43 96 44 41 45
REMARK SMILES IDX 42 46 43 47 90 48 44 49 95 50 89 51 91 52 45 53 94 54 88 55
REMARK SMILES IDX 87 56 46 58 76 59 57 60 75 61 58 62 61 63 74 64 92 65 59 66
REMARK SMILES IDX 60 67 73 69 93 70 62 71 47 72 48 73 56 74 49 75 55 76 50 77
REMARK SMILES IDX 51 78 52 79 53 80 54 81 77 82 78 83 86 84 79 85 85 86 80 87
REMARK SMILES IDX 81 88 82 89 83 90 84 91 63 92 64 93 72 94 65 95 71 96 66 97
REMARK SMILES IDX 67 98 68 99 69 100 70 101
REMARK H PARENT 31 5 35 38 91 57 61 68
REMARK Flexibility Score: inf
ROOT
ATOM      1  C   UNL A   1      34.213  30.974  27.814  1.00  0.00     0.117 C 
ENDROOT
BRANCH   1   2
ATOM      2  N   UNL A   1      34.188  30.254  26.556  1.00  0.00    -0.356 N 
ATOM      3  O   UNL A   1      31.993  29.556  26.706  1.00  0.00    -0.275 OA
ATOM      4  C   UNL A   1      33.035  29.661  26.068  1.00  0.00     0.220 C 
ATOM      5  H   UNL A   1      35.019  30.186  26.032  1.00  0.00     0.163 HD
BRANCH   4   6
ATOM      6  C   UNL A   1      33.197  29.075  24.675  1.00  0.00     0.102 C 
BRANCH   6   7
ATOM      7  C   UNL A   1      34.294  28.007  24.466  1.00  0.00     0.031 C 
BRANCH   7   8
ATOM      8  C   UNL A   1      34.514  26.824  25.463  1.00  0.00     0.121 C 
BRANCH   8   9
ATOM      9  N   UNL A   1      34.094  25.490  25.046  1.00  0.00    -0.324 N 
ATOM     10  C   UNL A   1      35.012  24.459  24.941  1.00  0.00     0.295 C 
ATOM     11  C   UNL A   1      32.706  24.944  25.116  1.00  0.00     0.157 C 
ATOM     12  O   UNL A   1      36.156  24.390  25.326  1.00  0.00    -0.265 OA
ATOM     13  C   UNL A   1      34.277  23.324  24.264  1.00  0.00     0.248 C 
ATOM     14  C   UNL A   1      32.878  23.474  24.712  1.00  0.00     0.025 C 
ATOM     15  O   UNL A   1      34.771  22.550  23.482  1.00  0.00    -0.283 OA
ATOM     16  C   UNL A   1      32.121  22.387  24.934  1.00  0.00    -0.092 C 
ATOM     17  O   UNL A   1      30.952  22.468  25.660  1.00  0.00    -0.872 OA
BRANCH  11  18
ATOM     18  C   UNL A   1      31.545  25.651  24.390  1.00  0.00     0.057 A 
ATOM     19  C   UNL A   1      31.711  25.966  23.023  1.00  0.00     0.013 A 
ATOM     20  C   UNL A   1      30.322  26.083  24.928  1.00  0.00     0.275 A 
ATOM     21  C   UNL A   1      30.763  26.698  22.286  1.00  0.00     0.001 A 
ATOM     22  C   UNL A   1      29.326  26.748  24.186  1.00  0.00     0.086 A 
ATOM     23  C   UNL A   1      29.563  27.081  22.864  1.00  0.00     0.007 A 
BRANCH  20  24
ATOM     24  N   UNL A   1      30.063  25.979  26.331  1.00  0.00     0.063 N 
ATOM     25  O   UNL A   1      29.200  25.172  26.697  1.00  0.00    -0.258 OA
ATOM     26  O   UNL A   1      30.729  26.724  27.055  1.00  0.00    -0.258 OA
ENDBRANCH  20  24
ENDBRANCH  11  18
BRANCH  16  27
ATOM     27  C   UNL A   1      32.473  21.019  24.514  1.00  0.00    -0.033 A 
ATOM     28  C   UNL A   1      33.176  20.158  25.366  1.00  0.00     0.009 A 
ATOM     29  C   UNL A   1      32.094  20.569  23.240  1.00  0.00     0.009 A 
ATOM     30  C   UNL A   1      33.523  18.874  24.938  1.00  0.00     0.021 A 
ATOM     31  C   UNL A   1      32.434  19.281  22.816  1.00  0.00     0.021 A 
ATOM     32  C   UNL A   1      33.153  18.442  23.666  1.00  0.00     0.041 A 
ATOM     33  Cl  UNL A   1      33.589  16.862  23.145  1.00  0.00    -0.084 Cl
ENDBRANCH  16  27
ENDBRANCH   8   9
ENDBRANCH   7   8
ENDBRANCH   6   7
ENDBRANCH   4   6
ENDBRANCH   1   2
BRANCH   1  34
ATOM     34  C   UNL A   1      35.304  32.048  27.919  1.00  0.00     0.042 C 
BRANCH  34  35
ATOM     35  C   UNL A   1      35.911  32.323  29.301  1.00  0.00     0.118 C 
BRANCH  35  36
ATOM     36  N   UNL A   1      35.688  31.267  30.283  1.00  0.00    -0.352 N 
ATOM     37  C   UNL A   1      36.564  30.301  30.730  1.00  0.00     0.251 C 
ATOM     38  H   UNL A   1      34.788  31.240  30.682  1.00  0.00     0.163 HD
ATOM     39  O   UNL A   1      36.187  29.454  31.537  1.00  0.00    -0.269 OA
BRANCH  37  40
ATOM     40  C   UNL A   1      37.945  30.245  30.200  1.00  0.00     0.039 A 
ATOM     41  C   UNL A   1      39.002  30.480  31.087  1.00  0.00     0.014 A 
ATOM     42  C   UNL A   1      38.208  29.920  28.867  1.00  0.00     0.014 A 
ATOM     43  C   UNL A   1      40.319  30.270  30.671  1.00  0.00     0.010 A 
ATOM     44  C   UNL A   1      39.522  29.670  28.466  1.00  0.00     0.010 A 
ATOM     45  C   UNL A   1      40.585  29.801  29.375  1.00  0.00    -0.014 A 
BRANCH  45  46
ATOM     46  C   UNL A   1      41.944  29.341  28.987  1.00  0.00     0.031 A 
ATOM     47  C   UNL A   1      43.088  30.308  28.884  1.00  0.00     0.074 A 
ATOM     48  C   UNL A   1      42.122  28.051  28.633  1.00  0.00     0.049 A 
ATOM     49  N   UNL A   1      44.303  30.102  28.445  1.00  0.00    -0.248 NA
ATOM     50  C   UNL A   1      42.828  31.690  29.315  1.00  0.00     0.031 C 
ATOM     51  C   UNL A   1      41.087  27.012  28.666  1.00  0.00     0.029 A 
ATOM     52  N   UNL A   1      43.231  27.394  28.157  1.00  0.00    -0.354 N 
ATOM     53  C   UNL A   1      44.951  31.328  28.530  1.00  0.00     0.074 A 
ATOM     54  C   UNL A   1      43.983  32.279  29.037  1.00  0.00     0.031 C 
ATOM     55  C   UNL A   1      41.611  25.854  28.236  1.00  0.00     0.029 A 
ATOM     56  C   UNL A   1      43.002  26.071  27.854  1.00  0.00     0.049 A 
ATOM     57  H   UNL A   1      44.107  27.829  28.043  1.00  0.00     0.167 HD
ATOM     58  C   UNL A   1      46.236  31.630  28.224  1.00  0.00     0.031 A 
ATOM     59  C   UNL A   1      43.810  25.140  27.311  1.00  0.00     0.031 A 
ATOM     60  C   UNL A   1      47.196  30.683  27.719  1.00  0.00     0.049 A 
ATOM     61  C   UNL A   1      45.224  25.507  26.954  1.00  0.00     0.074 A 
ATOM     62  C   UNL A   1      48.530  30.893  27.410  1.00  0.00     0.029 A 
ATOM     63  N   UNL A   1      46.929  29.351  27.445  1.00  0.00    -0.354 N 
ATOM     64  N   UNL A   1      45.830  26.663  27.083  1.00  0.00    -0.248 NA
ATOM     65  C   UNL A   1      46.065  24.445  26.385  1.00  0.00     0.031 C 
ATOM     66  C   UNL A   1      49.058  29.698  26.912  1.00  0.00     0.029 A 
ATOM     67  C   UNL A   1      48.068  28.730  26.959  1.00  0.00     0.049 A 
ATOM     68  H   UNL A   1      46.058  28.910  27.577  1.00  0.00     0.167 HD
ATOM     69  C   UNL A   1      47.133  26.457  26.644  1.00  0.00     0.074 A 
ATOM     70  C   UNL A   1      47.228  25.067  26.247  1.00  0.00     0.031 C 
ATOM     71  C   UNL A   1      48.157  27.342  26.581  1.00  0.00     0.031 A 
BRANCH  58  72
ATOM     72  C   UNL A   1      46.675  33.057  28.414  1.00  0.00    -0.014 A 
ATOM     73  C   UNL A   1      46.929  33.572  29.697  1.00  0.00     0.010 A 
ATOM     74  C   UNL A   1      46.870  33.884  27.291  1.00  0.00     0.010 A 
ATOM     75  C   UNL A   1      47.325  34.902  29.860  1.00  0.00     0.020 A 
ATOM     76  C   UNL A   1      47.291  35.208  27.449  1.00  0.00     0.020 A 
ATOM     77  C   UNL A   1      47.495  35.714  28.734  1.00  0.00     0.054 A 
BRANCH  77  78
ATOM     78  S   UNL A   1      48.005  37.438  28.974  1.00  0.00     0.124 S 
ATOM     79  O   UNL A   1      46.716  38.124  29.032  1.00  0.00    -0.237 OA
ATOM     80  O   UNL A   1      48.745  37.384  30.233  1.00  0.00    -0.237 OA
ATOM     81  O   UNL A   1      48.812  37.729  27.793  1.00  0.00    -0.744 OA
ENDBRANCH  77  78
ENDBRANCH  58  72
BRANCH  59  82
ATOM     82  C   UNL A   1      43.300  23.761  27.078  1.00  0.00    -0.014 A 
ATOM     83  C   UNL A   1      42.826  23.384  25.809  1.00  0.00     0.010 A 
ATOM     84  C   UNL A   1      43.300  22.813  28.117  1.00  0.00     0.010 A 
ATOM     85  C   UNL A   1      42.346  22.090  25.588  1.00  0.00     0.020 A 
ATOM     86  C   UNL A   1      42.845  21.511  27.893  1.00  0.00     0.020 A 
ATOM     87  C   UNL A   1      42.361  21.161  26.631  1.00  0.00     0.054 A 
BRANCH  87  88
ATOM     88  S   UNL A   1      41.783  19.471  26.307  1.00  0.00     0.124 S 
ATOM     89  O   UNL A   1      42.545  19.115  25.115  1.00  0.00    -0.237 OA
ATOM     90  O   UNL A   1      42.158  18.769  27.532  1.00  0.00    -0.237 OA
ATOM     91  O   UNL A   1      40.344  19.635  26.108  1.00  0.00    -0.744 OA
ENDBRANCH  87  88
ENDBRANCH  59  82
BRANCH  71  92
ATOM     92  C   UNL A   1      49.495  26.829  26.120  1.00  0.00    -0.014 A 
ATOM     93  C   UNL A   1      49.870  26.876  24.767  1.00  0.00     0.010 A 
ATOM     94  C   UNL A   1      50.418  26.363  27.073  1.00  0.00     0.010 A 
ATOM     95  C   UNL A   1      51.142  26.451  24.373  1.00  0.00     0.020 A 
ATOM     96  C   UNL A   1      51.699  25.958  26.686  1.00  0.00     0.020 A 
ATOM     97  C   UNL A   1      52.050  25.997  25.336  1.00  0.00     0.054 A 
BRANCH  97  98
ATOM     98  S   UNL A   1      53.718  25.516  24.811  1.00  0.00     0.124 S 
ATOM     99  O   UNL A   1      54.544  26.044  25.893  1.00  0.00    -0.237 OA
ATOM    100  O   UNL A   1      53.628  24.059  24.742  1.00  0.00    -0.237 OA
ATOM    101  O   UNL A   1      53.880  26.183  23.521  1.00  0.00    -0.744 OA
ENDBRANCH  97  98
ENDBRANCH  71  92
ENDBRANCH  45  46
ENDBRANCH  37  40
ENDBRANCH  35  36
ENDBRANCH  34  35
ENDBRANCH   1  34
TORSDOF 19
ENDMDL
