MODEL 1
REMARK VINA RESULT:     -12.5      0.000      0.000
REMARK SMILES C[C@@H](C(=O)NCCCNC(=O)c1ccc(-c2c3nc(c(-c4ccc(S(=O)(=O)[O-])cc4)c4ccc([nH]4)c(-c4ccc(S(=O)(=O)[O-])cc4)c4nc(c(-c5ccc(S(=O)(=O)[O-])cc5)c5ccc2[nH]5)C=C4)C=C3)cc1)n1ccc(C(=O)N2CC[NH+](Cc3cccc(F)c3)CC2)n1
REMARK SMILES IDX 6 1 5 2 3 3 4 4 2 6 1 7 72 8 73 9 92 10 74 11 75 12 76 13
REMARK SMILES IDX 77 14 78 15 79 16 91 17 80 18 90 19 81 20 82 22 83 23 84 24
REMARK SMILES IDX 89 25 85 26 87 27 86 28 88 29 7 30 8 31 9 32 10 33 11 35
REMARK SMILES IDX 12 36 13 37 71 38 14 39 70 40 15 41 16 42 17 43 64 44 18 45
REMARK SMILES IDX 69 46 63 47 65 48 19 49 68 50 62 51 61 52 20 54 50 55 31 56
REMARK SMILES IDX 49 57 32 58 35 59 48 60 66 61 33 62 34 63 47 65 67 66 36 67
REMARK SMILES IDX 21 68 22 69 30 70 23 71 29 72 24 73 25 74 26 75 27 76 28 77
REMARK SMILES IDX 51 78 52 79 60 80 53 81 59 82 54 83 55 84 56 85 57 86 58 87
REMARK SMILES IDX 37 88 38 89 46 90 39 91 45 92 40 93 41 94 42 95 43 96 44 97
REMARK H PARENT 5 5 81 21 9 34 65 53 35 64
REMARK Flexibility Score: inf
ROOT
ATOM      1  C   UNL A   1      34.675  30.416  27.367  1.00  0.00     0.117 C 
ENDROOT
BRANCH   1   2
ATOM      2  N   UNL A   1      33.557  29.581  27.775  1.00  0.00    -0.354 N 
ATOM      3  C   UNL A   1      32.446  29.183  27.080  1.00  0.00     0.244 C 
ATOM      4  O   UNL A   1      31.631  28.489  27.690  1.00  0.00    -0.273 OA
ATOM      5  H   UNL A   1      33.607  29.248  28.699  1.00  0.00     0.163 HD
BRANCH   3   6
ATOM      6  C   UNL A   1      32.251  29.621  25.633  1.00  0.00     0.193 C 
ATOM      7  C   UNL A   1      31.260  30.776  25.523  1.00  0.00     0.044 C 
BRANCH   6   8
ATOM      8  N   UNL A   1      31.844  28.494  24.788  1.00  0.00    -0.260 N 
ATOM      9  C   UNL A   1      30.683  28.357  24.083  1.00  0.00     0.110 A 
ATOM     10  N   UNL A   1      32.741  27.519  24.526  1.00  0.00    -0.167 NA
ATOM     11  C   UNL A   1      30.847  27.247  23.291  1.00  0.00     0.056 A 
ATOM     12  C   UNL A   1      32.134  26.739  23.610  1.00  0.00     0.150 A 
BRANCH  12  13
ATOM     13  C   UNL A   1      32.789  25.584  22.976  1.00  0.00     0.274 C 
ATOM     14  O   UNL A   1      33.208  25.669  21.817  1.00  0.00    -0.267 OA
ATOM     15  N   UNL A   1      32.903  24.389  23.702  1.00  0.00    -0.326 N 
ATOM     16  C   UNL A   1      33.617  23.295  23.056  1.00  0.00     0.181 C 
ATOM     17  C   UNL A   1      31.954  24.013  24.754  1.00  0.00     0.181 C 
ATOM     18  C   UNL A   1      34.084  22.195  24.024  1.00  0.00     0.284 C 
ATOM     19  C   UNL A   1      32.455  22.885  25.675  1.00  0.00     0.284 C 
ATOM     20  N   UNL A   1      33.104  21.748  25.017  1.00  0.00    -0.328 N 
ATOM     21  H   UNL A   1      33.642  21.276  25.744  1.00  0.00     0.348 HD
BRANCH  20  22
ATOM     22  C   UNL A   1      32.239  20.633  24.630  1.00  0.00     0.299 C 
BRANCH  22  23
ATOM     23  C   UNL A   1      32.891  19.358  24.151  1.00  0.00     0.009 A 
ATOM     24  C   UNL A   1      32.354  18.640  23.069  1.00  0.00     0.010 A 
ATOM     25  C   UNL A   1      34.033  18.853  24.788  1.00  0.00     0.048 A 
ATOM     26  C   UNL A   1      32.971  17.474  22.606  1.00  0.00     0.004 A 
ATOM     27  C   UNL A   1      34.643  17.694  24.318  1.00  0.00     0.123 A 
ATOM     28  C   UNL A   1      34.126  17.004  23.229  1.00  0.00     0.039 A 
ATOM     29  F   UNL A   1      35.747  17.241  24.924  1.00  0.00    -0.207 F 
ENDBRANCH  22  23
ENDBRANCH  20  22
ENDBRANCH  12  13
ENDBRANCH   6   8
ENDBRANCH   3   6
ENDBRANCH   1   2
BRANCH   1  30
ATOM     30  C   UNL A   1      34.641  31.800  28.013  1.00  0.00     0.042 C 
BRANCH  30  31
ATOM     31  C   UNL A   1      35.790  32.088  28.976  1.00  0.00     0.118 C 
BRANCH  31  32
ATOM     32  N   UNL A   1      35.580  31.516  30.296  1.00  0.00    -0.352 N 
ATOM     33  C   UNL A   1      36.394  30.680  31.019  1.00  0.00     0.251 C 
ATOM     34  H   UNL A   1      34.734  31.764  30.733  1.00  0.00     0.163 HD
ATOM     35  O   UNL A   1      35.975  30.189  32.066  1.00  0.00    -0.269 OA
BRANCH  33  36
ATOM     36  C   UNL A   1      37.754  30.343  30.537  1.00  0.00     0.039 A 
ATOM     37  C   UNL A   1      38.755  30.090  31.483  1.00  0.00     0.014 A 
ATOM     38  C   UNL A   1      38.058  30.304  29.172  1.00  0.00     0.014 A 
ATOM     39  C   UNL A   1      40.041  29.742  31.062  1.00  0.00     0.010 A 
ATOM     40  C   UNL A   1      39.333  29.918  28.753  1.00  0.00     0.010 A 
ATOM     41  C   UNL A   1      40.334  29.631  29.694  1.00  0.00    -0.014 A 
BRANCH  41  42
ATOM     42  C   UNL A   1      41.680  29.214  29.232  1.00  0.00     0.031 A 
ATOM     43  C   UNL A   1      42.810  30.204  29.185  1.00  0.00     0.074 A 
ATOM     44  C   UNL A   1      41.875  27.954  28.798  1.00  0.00     0.049 A 
ATOM     45  N   UNL A   1      44.028  30.041  28.736  1.00  0.00    -0.248 NA
ATOM     46  C   UNL A   1      42.527  31.555  29.693  1.00  0.00     0.031 C 
ATOM     47  C   UNL A   1      40.857  26.901  28.759  1.00  0.00     0.029 A 
ATOM     48  N   UNL A   1      42.999  27.348  28.293  1.00  0.00    -0.354 N 
ATOM     49  C   UNL A   1      44.651  31.275  28.879  1.00  0.00     0.074 A 
ATOM     50  C   UNL A   1      43.671  32.179  29.446  1.00  0.00     0.031 C 
ATOM     51  C   UNL A   1      41.407  25.778  28.270  1.00  0.00     0.029 A 
ATOM     52  C   UNL A   1      42.805  26.036  27.939  1.00  0.00     0.049 A 
ATOM     53  H   UNL A   1      43.862  27.811  28.196  1.00  0.00     0.167 HD
ATOM     54  C   UNL A   1      45.921  31.626  28.570  1.00  0.00     0.031 A 
ATOM     55  C   UNL A   1      43.655  25.139  27.403  1.00  0.00     0.031 A 
ATOM     56  C   UNL A   1      46.908  30.732  28.030  1.00  0.00     0.049 A 
ATOM     57  C   UNL A   1      45.072  25.538  27.110  1.00  0.00     0.074 A 
ATOM     58  C   UNL A   1      48.232  30.994  27.718  1.00  0.00     0.029 A 
ATOM     59  N   UNL A   1      46.683  29.398  27.728  1.00  0.00    -0.354 N 
ATOM     60  N   UNL A   1      45.646  26.705  27.275  1.00  0.00    -0.248 NA
ATOM     61  C   UNL A   1      45.955  24.496  26.568  1.00  0.00     0.031 C 
ATOM     62  C   UNL A   1      48.804  29.818  27.215  1.00  0.00     0.029 A 
ATOM     63  C   UNL A   1      47.840  28.823  27.233  1.00  0.00     0.049 A 
ATOM     64  H   UNL A   1      45.826  28.930  27.848  1.00  0.00     0.167 HD
ATOM     65  C   UNL A   1      46.963  26.536  26.864  1.00  0.00     0.074 A 
ATOM     66  C   UNL A   1      47.103  25.154  26.453  1.00  0.00     0.031 C 
ATOM     67  C   UNL A   1      47.965  27.448  26.830  1.00  0.00     0.031 A 
BRANCH  54  68
ATOM     68  C   UNL A   1      46.305  33.059  28.805  1.00  0.00    -0.014 A 
ATOM     69  C   UNL A   1      46.855  33.464  30.033  1.00  0.00     0.010 A 
ATOM     70  C   UNL A   1      46.113  34.009  27.786  1.00  0.00     0.010 A 
ATOM     71  C   UNL A   1      47.167  34.808  30.256  1.00  0.00     0.020 A 
ATOM     72  C   UNL A   1      46.437  35.351  28.001  1.00  0.00     0.020 A 
ATOM     73  C   UNL A   1      46.942  35.745  29.242  1.00  0.00     0.054 A 
BRANCH  73  74
ATOM     74  S   UNL A   1      47.342  37.489  29.544  1.00  0.00     0.124 S 
ATOM     75  O   UNL A   1      48.643  37.613  28.890  1.00  0.00    -0.237 OA
ATOM     76  O   UNL A   1      46.243  38.197  28.892  1.00  0.00    -0.237 OA
ATOM     77  O   UNL A   1      47.362  37.586  31.001  1.00  0.00    -0.744 OA
ENDBRANCH  73  74
ENDBRANCH  54  68
BRANCH  55  78
ATOM     78  C   UNL A   1      43.181  23.761  27.123  1.00  0.00    -0.014 A 
ATOM     79  C   UNL A   1      42.844  23.385  25.811  1.00  0.00     0.010 A 
ATOM     80  C   UNL A   1      43.101  22.813  28.157  1.00  0.00     0.010 A 
ATOM     81  C   UNL A   1      42.433  22.078  25.536  1.00  0.00     0.020 A 
ATOM     82  C   UNL A   1      42.702  21.503  27.883  1.00  0.00     0.020 A 
ATOM     83  C   UNL A   1      42.365  21.145  26.575  1.00  0.00     0.054 A 
BRANCH  83  84
ATOM     84  S   UNL A   1      41.910  19.428  26.200  1.00  0.00     0.124 S 
ATOM     85  O   UNL A   1      42.713  19.155  25.013  1.00  0.00    -0.237 OA
ATOM     86  O   UNL A   1      42.308  18.714  27.412  1.00  0.00    -0.237 OA
ATOM     87  O   UNL A   1      40.467  19.508  25.983  1.00  0.00    -0.744 OA
ENDBRANCH  83  84
ENDBRANCH  55  78
BRANCH  67  88
ATOM     88  C   UNL A   1      49.304  26.972  26.349  1.00  0.00    -0.014 A 
ATOM     89  C   UNL A   1      50.251  26.460  27.253  1.00  0.00     0.010 A 
ATOM     90  C   UNL A   1      49.603  27.000  24.976  1.00  0.00     0.010 A 
ATOM     91  C   UNL A   1      51.487  26.002  26.792  1.00  0.00     0.020 A 
ATOM     92  C   UNL A   1      50.834  26.533  24.511  1.00  0.00     0.020 A 
ATOM     93  C   UNL A   1      51.774  26.047  25.425  1.00  0.00     0.054 A 
BRANCH  93  94
ATOM     94  S   UNL A   1      53.367  25.411  24.831  1.00  0.00     0.124 S 
ATOM     95  O   UNL A   1      54.317  26.195  25.616  1.00  0.00    -0.237 OA
ATOM     96  O   UNL A   1      53.299  23.990  25.163  1.00  0.00    -0.237 OA
ATOM     97  O   UNL A   1      53.340  25.710  23.401  1.00  0.00    -0.744 OA
ENDBRANCH  93  94
ENDBRANCH  67  88
ENDBRANCH  41  42
ENDBRANCH  33  36
ENDBRANCH  31  32
ENDBRANCH  30  31
ENDBRANCH   1  30
TORSDOF 17
ENDMDL
MODEL 2
REMARK VINA RESULT:     -12.3      3.194      4.811
REMARK SMILES C[C@@H](C(=O)NCCCNC(=O)c1ccc(-c2c3nc(c(-c4ccc(S(=O)(=O)[O-])cc4)c4ccc([nH]4)c(-c4ccc(S(=O)(=O)[O-])cc4)c4nc(c(-c5ccc(S(=O)(=O)[O-])cc5)c5ccc2[nH]5)C=C4)C=C3)cc1)n1ccc(C(=O)N2CC[NH+](Cc3cccc(F)c3)CC2)n1
REMARK SMILES IDX 6 1 5 2 3 3 4 4 2 6 1 7 72 8 73 9 92 10 74 11 75 12 76 13
REMARK SMILES IDX 77 14 78 15 79 16 91 17 80 18 90 19 81 20 82 22 83 23 84 24
REMARK SMILES IDX 89 25 85 26 87 27 86 28 88 29 7 30 8 31 9 32 10 33 11 35
REMARK SMILES IDX 12 36 13 37 71 38 14 39 70 40 15 41 16 42 17 43 64 44 18 45
REMARK SMILES IDX 69 46 63 47 65 48 19 49 68 50 62 51 61 52 20 54 50 55 31 56
REMARK SMILES IDX 49 57 32 58 35 59 48 60 66 61 33 62 34 63 47 65 67 66 36 67
REMARK SMILES IDX 21 68 22 69 30 70 23 71 29 72 24 73 25 74 26 75 27 76 28 77
REMARK SMILES IDX 51 78 52 79 60 80 53 81 59 82 54 83 55 84 56 85 57 86 58 87
REMARK SMILES IDX 37 88 38 89 46 90 39 91 45 92 40 93 41 94 42 95 43 96 44 97
REMARK H PARENT 5 5 81 21 9 34 65 53 35 64
REMARK Flexibility Score: inf
ROOT
ATOM      1  C   UNL A   1      36.352  34.644  33.242  1.00  0.00     0.117 C 
ENDROOT
BRANCH   1   2
ATOM      2  N   UNL A   1      35.102  33.935  33.455  1.00  0.00    -0.354 N 
ATOM      3  C   UNL A   1      33.868  34.121  32.892  1.00  0.00     0.244 C 
ATOM      4  O   UNL A   1      32.963  33.382  33.284  1.00  0.00    -0.273 OA
ATOM      5  H   UNL A   1      35.150  33.202  34.110  1.00  0.00     0.163 HD
BRANCH   3   6
ATOM      6  C   UNL A   1      33.658  35.217  31.853  1.00  0.00     0.193 C 
ATOM      7  C   UNL A   1      32.366  35.991  32.104  1.00  0.00     0.044 C 
BRANCH   6   8
ATOM      8  N   UNL A   1      33.692  34.673  30.493  1.00  0.00    -0.260 N 
ATOM      9  C   UNL A   1      33.213  35.250  29.351  1.00  0.00     0.110 A 
ATOM     10  N   UNL A   1      34.393  33.541  30.261  1.00  0.00    -0.167 NA
ATOM     11  C   UNL A   1      33.657  34.466  28.314  1.00  0.00     0.056 A 
ATOM     12  C   UNL A   1      34.371  33.400  28.921  1.00  0.00     0.150 A 
BRANCH  12  13
ATOM     13  C   UNL A   1      35.087  32.327  28.213  1.00  0.00     0.274 C 
ATOM     14  O   UNL A   1      36.296  32.436  27.983  1.00  0.00    -0.267 OA
ATOM     15  N   UNL A   1      34.368  31.199  27.790  1.00  0.00    -0.326 N 
ATOM     16  C   UNL A   1      35.133  30.135  27.153  1.00  0.00     0.181 C 
ATOM     17  C   UNL A   1      32.939  31.250  27.471  1.00  0.00     0.181 C 
ATOM     18  C   UNL A   1      34.403  28.782  27.106  1.00  0.00     0.284 C 
ATOM     19  C   UNL A   1      32.262  29.869  27.403  1.00  0.00     0.284 C 
ATOM     20  N   UNL A   1      32.998  28.819  26.693  1.00  0.00    -0.328 N 
ATOM     21  H   UNL A   1      32.594  27.936  27.007  1.00  0.00     0.348 HD
BRANCH  20  22
ATOM     22  C   UNL A   1      32.730  28.683  25.262  1.00  0.00     0.299 C 
BRANCH  22  23
ATOM     23  C   UNL A   1      31.502  27.914  24.836  1.00  0.00     0.009 A 
ATOM     24  C   UNL A   1      30.802  28.268  23.670  1.00  0.00     0.010 A 
ATOM     25  C   UNL A   1      31.023  26.844  25.605  1.00  0.00     0.048 A 
ATOM     26  C   UNL A   1      29.681  27.540  23.259  1.00  0.00     0.004 A 
ATOM     27  C   UNL A   1      29.909  26.124  25.186  1.00  0.00     0.123 A 
ATOM     28  C   UNL A   1      29.239  26.458  24.016  1.00  0.00     0.039 A 
ATOM     29  F   UNL A   1      29.481  25.090  25.921  1.00  0.00    -0.207 F 
ENDBRANCH  22  23
ENDBRANCH  20  22
ENDBRANCH  12  13
ENDBRANCH   6   8
ENDBRANCH   3   6
ENDBRANCH   1   2
BRANCH   1  30
ATOM     30  C   UNL A   1      37.136  34.107  32.047  1.00  0.00     0.042 C 
BRANCH  30  31
ATOM     31  C   UNL A   1      37.609  32.662  32.184  1.00  0.00     0.118 C 
BRANCH  31  32
ATOM     32  N   UNL A   1      36.587  31.694  31.824  1.00  0.00    -0.352 N 
ATOM     33  C   UNL A   1      36.700  30.553  31.068  1.00  0.00     0.251 C 
ATOM     34  H   UNL A   1      35.686  31.883  32.172  1.00  0.00     0.163 HD
ATOM     35  O   UNL A   1      35.683  29.935  30.758  1.00  0.00    -0.269 OA
BRANCH  33  36
ATOM     36  C   UNL A   1      38.024  30.080  30.602  1.00  0.00     0.039 A 
ATOM     37  C   UNL A   1      38.345  30.220  29.247  1.00  0.00     0.014 A 
ATOM     38  C   UNL A   1      38.933  29.475  31.476  1.00  0.00     0.014 A 
ATOM     39  C   UNL A   1      39.596  29.808  28.780  1.00  0.00     0.010 A 
ATOM     40  C   UNL A   1      40.197  29.102  31.017  1.00  0.00     0.010 A 
ATOM     41  C   UNL A   1      40.541  29.268  29.666  1.00  0.00    -0.014 A 
BRANCH  41  42
ATOM     42  C   UNL A   1      41.892  28.874  29.197  1.00  0.00     0.031 A 
ATOM     43  C   UNL A   1      43.011  29.876  29.172  1.00  0.00     0.074 A 
ATOM     44  C   UNL A   1      42.100  27.625  28.738  1.00  0.00     0.049 A 
ATOM     45  N   UNL A   1      44.231  29.735  28.721  1.00  0.00    -0.248 NA
ATOM     46  C   UNL A   1      42.713  31.213  29.707  1.00  0.00     0.031 C 
ATOM     47  C   UNL A   1      41.093  26.563  28.676  1.00  0.00     0.029 A 
ATOM     48  N   UNL A   1      43.231  27.041  28.223  1.00  0.00    -0.354 N 
ATOM     49  C   UNL A   1      44.841  30.972  28.891  1.00  0.00     0.074 A 
ATOM     50  C   UNL A   1      43.851  31.854  29.475  1.00  0.00     0.031 C 
ATOM     51  C   UNL A   1      41.655  25.455  28.165  1.00  0.00     0.029 A 
ATOM     52  C   UNL A   1      43.051  25.734  27.842  1.00  0.00     0.049 A 
ATOM     53  H   UNL A   1      44.090  27.515  28.136  1.00  0.00     0.167 HD
ATOM     54  C   UNL A   1      46.109  31.342  28.591  1.00  0.00     0.031 A 
ATOM     55  C   UNL A   1      43.911  24.858  27.289  1.00  0.00     0.031 A 
ATOM     56  C   UNL A   1      47.106  30.470  28.034  1.00  0.00     0.049 A 
ATOM     57  C   UNL A   1      45.324  25.277  27.006  1.00  0.00     0.074 A 
ATOM     58  C   UNL A   1      48.426  30.752  27.729  1.00  0.00     0.029 A 
ATOM     59  N   UNL A   1      46.894  29.140  27.705  1.00  0.00    -0.354 N 
ATOM     60  N   UNL A   1      45.886  26.446  27.195  1.00  0.00    -0.248 NA
ATOM     61  C   UNL A   1      46.219  24.256  26.443  1.00  0.00     0.031 C 
ATOM     62  C   UNL A   1      49.011  29.592  27.204  1.00  0.00     0.029 A 
ATOM     63  C   UNL A   1      48.058  28.587  27.200  1.00  0.00     0.049 A 
ATOM     64  H   UNL A   1      46.042  28.660  27.814  1.00  0.00     0.167 HD
ATOM     65  C   UNL A   1      47.205  26.299  26.783  1.00  0.00     0.074 A 
ATOM     66  C   UNL A   1      47.360  24.928  26.344  1.00  0.00     0.031 C 
ATOM     67  C   UNL A   1      48.198  27.222  26.769  1.00  0.00     0.031 A 
BRANCH  54  68
ATOM     68  C   UNL A   1      46.477  32.774  28.855  1.00  0.00    -0.014 A 
ATOM     69  C   UNL A   1      47.001  33.164  30.100  1.00  0.00     0.010 A 
ATOM     70  C   UNL A   1      46.297  33.739  27.848  1.00  0.00     0.010 A 
ATOM     71  C   UNL A   1      47.299  34.506  30.349  1.00  0.00     0.020 A 
ATOM     72  C   UNL A   1      46.608  35.079  28.090  1.00  0.00     0.020 A 
ATOM     73  C   UNL A   1      47.086  35.458  29.347  1.00  0.00     0.054 A 
BRANCH  73  74
ATOM     74  S   UNL A   1      47.467  37.199  29.684  1.00  0.00     0.124 S 
ATOM     75  O   UNL A   1      48.790  37.336  29.079  1.00  0.00    -0.237 OA
ATOM     76  O   UNL A   1      46.389  37.911  29.002  1.00  0.00    -0.237 OA
ATOM     77  O   UNL A   1      47.435  37.279  31.142  1.00  0.00    -0.744 OA
ENDBRANCH  73  74
ENDBRANCH  54  68
BRANCH  55  78
ATOM     78  C   UNL A   1      43.452  23.481  26.979  1.00  0.00    -0.014 A 
ATOM     79  C   UNL A   1      43.543  22.986  25.667  1.00  0.00     0.010 A 
ATOM     80  C   UNL A   1      42.958  22.651  28.000  1.00  0.00     0.010 A 
ATOM     81  C   UNL A   1      43.146  21.678  25.378  1.00  0.00     0.020 A 
ATOM     82  C   UNL A   1      42.572  21.339  27.716  1.00  0.00     0.020 A 
ATOM     83  C   UNL A   1      42.663  20.862  26.406  1.00  0.00     0.054 A 
BRANCH  83  84
ATOM     84  S   UNL A   1      42.227  19.138  26.042  1.00  0.00     0.124 S 
ATOM     85  O   UNL A   1      42.656  18.455  27.258  1.00  0.00    -0.237 OA
ATOM     86  O   UNL A   1      40.782  19.205  25.831  1.00  0.00    -0.237 OA
ATOM     87  O   UNL A   1      43.007  18.844  24.842  1.00  0.00    -0.744 OA
ENDBRANCH  83  84
ENDBRANCH  55  78
BRANCH  67  88
ATOM     88  C   UNL A   1      49.542  26.770  26.281  1.00  0.00    -0.014 A 
ATOM     89  C   UNL A   1      50.414  26.064  27.128  1.00  0.00     0.010 A 
ATOM     90  C   UNL A   1      49.922  27.019  24.950  1.00  0.00     0.010 A 
ATOM     91  C   UNL A   1      51.655  25.631  26.657  1.00  0.00     0.020 A 
ATOM     92  C   UNL A   1      51.158  26.577  24.474  1.00  0.00     0.020 A 
ATOM     93  C   UNL A   1      52.023  25.896  25.334  1.00  0.00     0.054 A 
BRANCH  93  94
ATOM     94  S   UNL A   1      53.621  25.293  24.719  1.00  0.00     0.124 S 
ATOM     95  O   UNL A   1      53.563  23.876  25.070  1.00  0.00    -0.237 OA
ATOM     96  O   UNL A   1      53.556  25.589  23.290  1.00  0.00    -0.237 OA
ATOM     97  O   UNL A   1      54.593  26.084  25.468  1.00  0.00    -0.744 OA
ENDBRANCH  93  94
ENDBRANCH  67  88
ENDBRANCH  41  42
ENDBRANCH  33  36
ENDBRANCH  31  32
ENDBRANCH  30  31
ENDBRANCH   1  30
TORSDOF 17
ENDMDL
MODEL 3
REMARK VINA RESULT:     -11.6      2.746      9.077
REMARK SMILES C[C@@H](C(=O)NCCCNC(=O)c1ccc(-c2c3nc(c(-c4ccc(S(=O)(=O)[O-])cc4)c4ccc([nH]4)c(-c4ccc(S(=O)(=O)[O-])cc4)c4nc(c(-c5ccc(S(=O)(=O)[O-])cc5)c5ccc2[nH]5)C=C4)C=C3)cc1)n1ccc(C(=O)N2CC[NH+](Cc3cccc(F)c3)CC2)n1
REMARK SMILES IDX 6 1 5 2 3 3 4 4 2 6 1 7 72 8 73 9 92 10 74 11 75 12 76 13
REMARK SMILES IDX 77 14 78 15 79 16 91 17 80 18 90 19 81 20 82 22 83 23 84 24
REMARK SMILES IDX 89 25 85 26 87 27 86 28 88 29 7 30 8 31 9 32 10 33 11 35
REMARK SMILES IDX 12 36 13 37 71 38 14 39 70 40 15 41 16 42 17 43 64 44 18 45
REMARK SMILES IDX 69 46 63 47 65 48 19 49 68 50 62 51 61 52 20 54 50 55 31 56
REMARK SMILES IDX 49 57 32 58 35 59 48 60 66 61 33 62 34 63 47 65 67 66 36 67
REMARK SMILES IDX 21 68 22 69 30 70 23 71 29 72 24 73 25 74 26 75 27 76 28 77
REMARK SMILES IDX 51 78 52 79 60 80 53 81 59 82 54 83 55 84 56 85 57 86 58 87
REMARK SMILES IDX 37 88 38 89 46 90 39 91 45 92 40 93 41 94 42 95 43 96 44 97
REMARK H PARENT 5 5 81 21 9 34 65 53 35 64
REMARK Flexibility Score: inf
ROOT
ATOM      1  C   UNL A   1      36.663  34.529  32.569  1.00  0.00     0.117 C 
ENDROOT
BRANCH   1   2
ATOM      2  N   UNL A   1      35.444  33.891  33.036  1.00  0.00    -0.354 N 
ATOM      3  C   UNL A   1      34.140  34.086  32.664  1.00  0.00     0.244 C 
ATOM      4  O   UNL A   1      33.290  33.417  33.255  1.00  0.00    -0.273 OA
ATOM      5  H   UNL A   1      35.576  33.208  33.732  1.00  0.00     0.163 HD
BRANCH   3   6
ATOM      6  C   UNL A   1      33.797  35.108  31.586  1.00  0.00     0.193 C 
ATOM      7  C   UNL A   1      32.482  35.822  31.886  1.00  0.00     0.044 C 
BRANCH   6   8
ATOM      8  N   UNL A   1      33.771  34.491  30.258  1.00  0.00    -0.260 N 
ATOM      9  C   UNL A   1      33.349  35.051  29.085  1.00  0.00     0.110 A 
ATOM     10  N   UNL A   1      34.352  33.283  30.088  1.00  0.00    -0.167 NA
ATOM     11  C   UNL A   1      33.706  34.171  28.093  1.00  0.00     0.056 A 
ATOM     12  C   UNL A   1      34.311  33.072  28.758  1.00  0.00     0.150 A 
BRANCH  12  13
ATOM     13  C   UNL A   1      34.912  31.895  28.111  1.00  0.00     0.274 C 
ATOM     14  O   UNL A   1      36.141  31.789  28.036  1.00  0.00    -0.267 OA
ATOM     15  N   UNL A   1      34.067  30.918  27.565  1.00  0.00    -0.326 N 
ATOM     16  C   UNL A   1      34.708  29.741  26.994  1.00  0.00     0.181 C 
ATOM     17  C   UNL A   1      32.721  31.227  27.072  1.00  0.00     0.181 C 
ATOM     18  C   UNL A   1      33.763  28.540  26.813  1.00  0.00     0.284 C 
ATOM     19  C   UNL A   1      31.827  29.990  26.875  1.00  0.00     0.284 C 
ATOM     20  N   UNL A   1      32.451  28.832  26.230  1.00  0.00    -0.328 N 
ATOM     21  H   UNL A   1      31.862  28.033  26.462  1.00  0.00     0.348 HD
BRANCH  20  22
ATOM     22  C   UNL A   1      32.350  28.760  24.772  1.00  0.00     0.299 C 
BRANCH  22  23
ATOM     23  C   UNL A   1      32.251  27.397  24.131  1.00  0.00     0.009 A 
ATOM     24  C   UNL A   1      33.381  26.789  23.557  1.00  0.00     0.010 A 
ATOM     25  C   UNL A   1      31.026  26.717  24.075  1.00  0.00     0.048 A 
ATOM     26  C   UNL A   1      33.298  25.515  22.987  1.00  0.00     0.004 A 
ATOM     27  C   UNL A   1      30.954  25.448  23.509  1.00  0.00     0.123 A 
ATOM     28  C   UNL A   1      32.080  24.838  22.972  1.00  0.00     0.039 A 
ATOM     29  F   UNL A   1      29.780  24.804  23.487  1.00  0.00    -0.207 F 
ENDBRANCH  22  23
ENDBRANCH  20  22
ENDBRANCH  12  13
ENDBRANCH   6   8
ENDBRANCH   3   6
ENDBRANCH   1   2
BRANCH   1  30
ATOM     30  C   UNL A   1      37.765  33.523  32.244  1.00  0.00     0.042 C 
BRANCH  30  31
ATOM     31  C   UNL A   1      37.725  32.237  33.065  1.00  0.00     0.118 C 
BRANCH  31  32
ATOM     32  N   UNL A   1      36.773  31.265  32.552  1.00  0.00    -0.352 N 
ATOM     33  C   UNL A   1      36.940  30.326  31.564  1.00  0.00     0.251 C 
ATOM     34  H   UNL A   1      35.883  31.284  32.971  1.00  0.00     0.163 HD
ATOM     35  O   UNL A   1      35.965  29.685  31.173  1.00  0.00    -0.269 OA
BRANCH  33  36
ATOM     36  C   UNL A   1      38.268  30.099  30.949  1.00  0.00     0.039 A 
ATOM     37  C   UNL A   1      39.265  29.488  31.719  1.00  0.00     0.014 A 
ATOM     38  C   UNL A   1      38.549  30.508  29.641  1.00  0.00     0.014 A 
ATOM     39  C   UNL A   1      40.521  29.235  31.161  1.00  0.00     0.010 A 
ATOM     40  C   UNL A   1      39.790  30.218  29.072  1.00  0.00     0.010 A 
ATOM     41  C   UNL A   1      40.786  29.576  29.826  1.00  0.00    -0.014 A 
BRANCH  41  42
ATOM     42  C   UNL A   1      42.096  29.268  29.202  1.00  0.00     0.031 A 
ATOM     43  C   UNL A   1      42.362  27.906  28.625  1.00  0.00     0.074 A 
ATOM     44  C   UNL A   1      43.071  30.198  29.205  1.00  0.00     0.049 A 
ATOM     45  N   UNL A   1      43.470  27.432  28.115  1.00  0.00    -0.248 NA
ATOM     46  C   UNL A   1      41.244  26.951  28.641  1.00  0.00     0.031 C 
ATOM     47  C   UNL A   1      42.956  31.548  29.761  1.00  0.00     0.029 A 
ATOM     48  N   UNL A   1      44.359  30.140  28.733  1.00  0.00    -0.354 N 
ATOM     49  C   UNL A   1      43.193  26.114  27.773  1.00  0.00     0.074 A 
ATOM     50  C   UNL A   1      41.816  25.861  28.146  1.00  0.00     0.031 C 
ATOM     51  C   UNL A   1      44.120  32.194  29.586  1.00  0.00     0.029 A 
ATOM     52  C   UNL A   1      45.069  31.299  28.930  1.00  0.00     0.049 A 
ATOM     53  H   UNL A   1      44.736  29.344  28.294  1.00  0.00     0.167 HD
ATOM     54  C   UNL A   1      44.007  25.196  27.200  1.00  0.00     0.031 A 
ATOM     55  C   UNL A   1      46.343  31.607  28.622  1.00  0.00     0.031 A 
ATOM     56  C   UNL A   1      45.367  25.443  26.804  1.00  0.00     0.049 A 
ATOM     57  C   UNL A   1      47.214  30.589  27.946  1.00  0.00     0.074 A 
ATOM     58  C   UNL A   1      46.255  24.580  26.185  1.00  0.00     0.029 A 
ATOM     59  N   UNL A   1      46.033  26.645  26.980  1.00  0.00    -0.354 N 
ATOM     60  N   UNL A   1      46.924  29.355  27.612  1.00  0.00    -0.248 NA
ATOM     61  C   UNL A   1      48.579  31.009  27.599  1.00  0.00     0.031 C 
ATOM     62  C   UNL A   1      47.466  25.260  25.997  1.00  0.00     0.029 A 
ATOM     63  C   UNL A   1      47.322  26.549  26.484  1.00  0.00     0.049 A 
ATOM     64  H   UNL A   1      45.647  27.449  27.398  1.00  0.00     0.167 HD
ATOM     65  C   UNL A   1      48.069  28.852  27.006  1.00  0.00     0.074 A 
ATOM     66  C   UNL A   1      49.052  29.916  27.011  1.00  0.00     0.031 C 
ATOM     67  C   UNL A   1      48.286  27.616  26.493  1.00  0.00     0.031 A 
BRANCH  54  68
ATOM     68  C   UNL A   1      43.435  23.825  26.981  1.00  0.00    -0.014 A 
ATOM     69  C   UNL A   1      43.225  22.952  28.063  1.00  0.00     0.010 A 
ATOM     70  C   UNL A   1      43.106  23.405  25.680  1.00  0.00     0.010 A 
ATOM     71  C   UNL A   1      42.733  21.663  27.842  1.00  0.00     0.020 A 
ATOM     72  C   UNL A   1      42.601  22.122  25.458  1.00  0.00     0.020 A 
ATOM     73  C   UNL A   1      42.439  21.251  26.538  1.00  0.00     0.054 A 
BRANCH  73  74
ATOM     74  S   UNL A   1      41.810  19.572  26.260  1.00  0.00     0.124 S 
ATOM     75  O   UNL A   1      42.286  18.876  27.454  1.00  0.00    -0.237 OA
ATOM     76  O   UNL A   1      40.364  19.769  26.184  1.00  0.00    -0.237 OA
ATOM     77  O   UNL A   1      42.446  19.173  25.008  1.00  0.00    -0.744 OA
ENDBRANCH  73  74
ENDBRANCH  54  68
BRANCH  55  78
ATOM     78  C   UNL A   1      46.865  32.958  28.942  1.00  0.00    -0.014 A 
ATOM     79  C   UNL A   1      46.754  33.999  28.004  1.00  0.00     0.010 A 
ATOM     80  C   UNL A   1      47.441  33.218  30.197  1.00  0.00     0.010 A 
ATOM     81  C   UNL A   1      47.212  35.281  28.315  1.00  0.00     0.020 A 
ATOM     82  C   UNL A   1      47.889  34.502  30.516  1.00  0.00     0.020 A 
ATOM     83  C   UNL A   1      47.777  35.525  29.571  1.00  0.00     0.054 A 
BRANCH  83  84
ATOM     84  S   UNL A   1      48.295  37.210  30.002  1.00  0.00     0.124 S 
ATOM     85  O   UNL A   1      47.020  37.919  30.034  1.00  0.00    -0.237 OA
ATOM     86  O   UNL A   1      48.951  37.028  31.295  1.00  0.00    -0.237 OA
ATOM     87  O   UNL A   1      49.192  37.572  28.906  1.00  0.00    -0.744 OA
ENDBRANCH  83  84
ENDBRANCH  55  78
BRANCH  67  88
ATOM     88  C   UNL A   1      49.631  27.358  25.880  1.00  0.00    -0.014 A 
ATOM     89  C   UNL A   1      49.868  27.649  24.525  1.00  0.00     0.010 A 
ATOM     90  C   UNL A   1      50.676  26.857  26.674  1.00  0.00     0.010 A 
ATOM     91  C   UNL A   1      51.130  27.423  23.969  1.00  0.00     0.020 A 
ATOM     92  C   UNL A   1      51.941  26.640  26.123  1.00  0.00     0.020 A 
ATOM     93  C   UNL A   1      52.156  26.913  24.769  1.00  0.00     0.054 A 
BRANCH  93  94
ATOM     94  S   UNL A   1      53.803  26.662  24.047  1.00  0.00     0.124 S 
ATOM     95  O   UNL A   1      53.558  25.570  23.110  1.00  0.00    -0.237 OA
ATOM     96  O   UNL A   1      54.097  27.958  23.439  1.00  0.00    -0.237 OA
ATOM     97  O   UNL A   1      54.631  26.323  25.201  1.00  0.00    -0.744 OA
ENDBRANCH  93  94
ENDBRANCH  67  88
ENDBRANCH  41  42
ENDBRANCH  33  36
ENDBRANCH  31  32
ENDBRANCH  30  31
ENDBRANCH   1  30
TORSDOF 17
ENDMDL
