MODEL 1
REMARK VINA RESULT:     -12.3      0.000      0.000
REMARK SMILES CCc1cc2c(=O)c(-c3nc(C)cs3)coc2cc1O[C@H](C)C(=O)NCCCNC(=O)c1ccc(-c2c3nc(c(-c4ccc(S(=O)(=O)[O-])cc4)c4ccc([nH]4)c(-c4ccc(S(=O)(=O)[O-])cc4)c4nc(c(-c5ccc(S(=O)(=O)[O-])cc5)c5ccc2[nH]5)C=C4)C=C3)cc1
REMARK SMILES IDX 27 1 26 2 25 3 23 4 24 5 21 7 22 8 20 9 19 10 3 11 4 12 5 13
REMARK SMILES IDX 18 14 6 15 17 16 7 17 8 18 16 19 15 20 2 21 1 22 9 23 10 24
REMARK SMILES IDX 14 25 11 26 13 27 12 28 28 29 29 30 30 31 31 33 32 34 33 35
REMARK SMILES IDX 91 36 34 37 90 38 35 39 36 40 37 41 84 42 38 43 89 44 83 45
REMARK SMILES IDX 85 46 39 47 88 48 82 49 81 50 40 52 70 53 51 54 69 55 52 56
REMARK SMILES IDX 55 57 68 58 86 59 53 60 54 61 67 63 87 64 56 65 41 66 42 67
REMARK SMILES IDX 50 68 43 69 49 70 44 71 45 72 46 73 47 74 48 75 71 76 72 77
REMARK SMILES IDX 80 78 73 79 79 80 74 81 75 82 76 83 77 84 78 85 57 86 58 87
REMARK SMILES IDX 66 88 59 89 65 90 60 91 61 92 62 93 63 94 64 95
REMARK H PARENT 25 6 29 32 85 51 55 62
REMARK Flexibility Score: inf
ROOT
ATOM      1  C   UNL A   1      38.320  23.486  26.439  1.00  0.00     0.042 C 
ENDROOT
BRANCH   1   2
ATOM      2  C   UNL A   1      37.661  22.308  25.731  1.00  0.00     0.118 C 
BRANCH   2   3
ATOM      3  N   UNL A   1      37.462  22.514  24.311  1.00  0.00    -0.353 N 
ATOM      4  C   UNL A   1      36.313  22.675  23.594  1.00  0.00     0.260 C 
ATOM      5  O   UNL A   1      36.431  22.951  22.396  1.00  0.00    -0.271 OA
ATOM      6  H   UNL A   1      38.289  22.542  23.778  1.00  0.00     0.163 HD
BRANCH   4   7
ATOM      7  C   UNL A   1      34.915  22.447  24.212  1.00  0.00     0.258 C 
ATOM      8  C   UNL A   1      34.810  21.011  24.705  1.00  0.00     0.064 C 
BRANCH   7   9
ATOM      9  O   UNL A   1      34.481  23.560  24.990  1.00  0.00    -0.480 OA
BRANCH   9  10
ATOM     10  C   UNL A   1      33.566  24.511  24.674  1.00  0.00     0.127 A 
ATOM     11  C   UNL A   1      32.221  24.175  24.957  1.00  0.00    -0.005 A 
ATOM     12  C   UNL A   1      31.193  25.099  24.690  1.00  0.00     0.023 A 
ATOM     13  C   UNL A   1      31.492  26.339  24.126  1.00  0.00     0.066 A 
ATOM     14  C   UNL A   1      33.843  25.771  24.149  1.00  0.00     0.094 A 
ATOM     15  C   UNL A   1      30.430  27.324  23.839  1.00  0.00     0.202 A 
ATOM     16  C   UNL A   1      32.811  26.662  23.843  1.00  0.00     0.141 A 
ATOM     17  O   UNL A   1      29.266  27.089  24.145  1.00  0.00    -0.288 OA
ATOM     18  C   UNL A   1      30.866  28.572  23.170  1.00  0.00     0.094 A 
ATOM     19  O   UNL A   1      33.177  27.847  23.255  1.00  0.00    -0.463 OA
ATOM     20  C   UNL A   1      32.175  28.719  22.910  1.00  0.00     0.211 A 
BRANCH  11  21
ATOM     21  C   UNL A   1      31.844  22.840  25.565  1.00  0.00     0.036 C 
ATOM     22  C   UNL A   1      31.473  22.975  27.035  1.00  0.00     0.009 C 
ENDBRANCH  11  21
BRANCH  18  23
ATOM     23  C   UNL A   1      29.962  29.590  22.766  1.00  0.00     0.130 A 
ATOM     24  N   UNL A   1      29.479  29.744  21.546  1.00  0.00    -0.241 NA
ATOM     25  S   UNL A   1      29.511  30.856  23.859  1.00  0.00    -0.122 S 
ATOM     26  C   UNL A   1      28.673  30.866  21.461  1.00  0.00     0.049 A 
ATOM     27  C   UNL A   1      28.596  31.603  22.623  1.00  0.00     0.090 A 
ATOM     28  C   UNL A   1      28.000  31.158  20.170  1.00  0.00     0.067 C 
ENDBRANCH  18  23
ENDBRANCH   9  10
ENDBRANCH   7   9
ENDBRANCH   4   7
ENDBRANCH   2   3
ENDBRANCH   1   2
BRANCH   1  29
ATOM     29  C   UNL A   1      39.744  23.236  26.922  1.00  0.00     0.118 C 
BRANCH  29  30
ATOM     30  N   UNL A   1      40.744  23.872  26.082  1.00  0.00    -0.352 N 
ATOM     31  C   UNL A   1      41.272  25.138  26.103  1.00  0.00     0.251 C 
ATOM     32  H   UNL A   1      41.108  23.293  25.374  1.00  0.00     0.163 HD
ATOM     33  O   UNL A   1      41.989  25.485  25.165  1.00  0.00    -0.269 OA
BRANCH  31  34
ATOM     34  C   UNL A   1      41.001  26.091  27.208  1.00  0.00     0.039 A 
ATOM     35  C   UNL A   1      41.776  27.256  27.279  1.00  0.00     0.014 A 
ATOM     36  C   UNL A   1      40.075  25.823  28.219  1.00  0.00     0.014 A 
ATOM     37  C   UNL A   1      41.606  28.152  28.339  1.00  0.00     0.010 A 
ATOM     38  C   UNL A   1      39.851  26.755  29.234  1.00  0.00     0.010 A 
ATOM     39  C   UNL A   1      40.634  27.915  29.322  1.00  0.00    -0.014 A 
BRANCH  39  40
ATOM     40  C   UNL A   1      40.469  28.844  30.470  1.00  0.00     0.031 A 
ATOM     41  C   UNL A   1      41.343  28.706  31.690  1.00  0.00     0.074 A 
ATOM     42  C   UNL A   1      39.509  29.785  30.440  1.00  0.00     0.049 A 
ATOM     43  N   UNL A   1      41.346  29.420  32.788  1.00  0.00    -0.248 NA
ATOM     44  C   UNL A   1      42.320  27.607  31.686  1.00  0.00     0.031 C 
ATOM     45  C   UNL A   1      38.553  29.985  29.349  1.00  0.00     0.029 A 
ATOM     46  N   UNL A   1      39.174  30.749  31.358  1.00  0.00    -0.354 N 
ATOM     47  C   UNL A   1      42.299  28.837  33.616  1.00  0.00     0.074 A 
ATOM     48  C   UNL A   1      42.824  27.688  32.909  1.00  0.00     0.031 C 
ATOM     49  C   UNL A   1      37.753  31.022  29.652  1.00  0.00     0.029 A 
ATOM     50  C   UNL A   1      38.128  31.547  30.962  1.00  0.00     0.049 A 
ATOM     51  H   UNL A   1      39.640  30.858  32.219  1.00  0.00     0.167 HD
ATOM     52  C   UNL A   1      42.716  29.227  34.845  1.00  0.00     0.031 A 
ATOM     53  C   UNL A   1      37.541  32.592  31.577  1.00  0.00     0.031 A 
ATOM     54  C   UNL A   1      42.214  30.381  35.541  1.00  0.00     0.049 A 
ATOM     55  C   UNL A   1      38.072  33.064  32.899  1.00  0.00     0.074 A 
ATOM     56  C   UNL A   1      42.614  30.897  36.762  1.00  0.00     0.029 A 
ATOM     57  N   UNL A   1      41.204  31.207  35.071  1.00  0.00    -0.354 N 
ATOM     58  N   UNL A   1      39.026  32.544  33.636  1.00  0.00    -0.248 NA
ATOM     59  C   UNL A   1      37.471  34.281  33.459  1.00  0.00     0.031 C 
ATOM     60  C   UNL A   1      41.827  32.021  37.041  1.00  0.00     0.029 A 
ATOM     61  C   UNL A   1      40.963  32.226  35.978  1.00  0.00     0.049 A 
ATOM     62  H   UNL A   1      40.728  31.086  34.218  1.00  0.00     0.167 HD
ATOM     63  C   UNL A   1      39.152  33.382  34.737  1.00  0.00     0.074 A 
ATOM     64  C   UNL A   1      38.187  34.449  34.562  1.00  0.00     0.031 C 
ATOM     65  C   UNL A   1      39.995  33.278  35.795  1.00  0.00     0.031 A 
BRANCH  52  66
ATOM     66  C   UNL A   1      43.761  28.372  35.510  1.00  0.00    -0.014 A 
ATOM     67  C   UNL A   1      45.107  28.780  35.564  1.00  0.00     0.010 A 
ATOM     68  C   UNL A   1      43.400  27.129  36.059  1.00  0.00     0.010 A 
ATOM     69  C   UNL A   1      46.085  27.929  36.087  1.00  0.00     0.020 A 
ATOM     70  C   UNL A   1      44.372  26.285  36.607  1.00  0.00     0.020 A 
ATOM     71  C   UNL A   1      45.712  26.679  36.589  1.00  0.00     0.054 A 
BRANCH  71  72
ATOM     72  S   UNL A   1      46.997  25.569  37.227  1.00  0.00     0.124 S 
ATOM     73  O   UNL A   1      48.215  26.314  36.914  1.00  0.00    -0.237 OA
ATOM     74  O   UNL A   1      46.670  25.471  38.647  1.00  0.00    -0.237 OA
ATOM     75  O   UNL A   1      46.803  24.341  36.460  1.00  0.00    -0.744 OA
ENDBRANCH  71  72
ENDBRANCH  52  66
BRANCH  53  76
ATOM     76  C   UNL A   1      36.416  33.288  30.903  1.00  0.00    -0.014 A 
ATOM     77  C   UNL A   1      35.153  33.360  31.517  1.00  0.00     0.010 A 
ATOM     78  C   UNL A   1      36.622  33.949  29.678  1.00  0.00     0.010 A 
ATOM     79  C   UNL A   1      34.118  34.085  30.922  1.00  0.00     0.020 A 
ATOM     80  C   UNL A   1      35.594  34.690  29.089  1.00  0.00     0.020 A 
ATOM     81  C   UNL A   1      34.347  34.752  29.714  1.00  0.00     0.054 A 
BRANCH  81  82
ATOM     82  S   UNL A   1      33.024  35.776  29.012  1.00  0.00     0.124 S 
ATOM     83  O   UNL A   1      32.351  34.836  28.122  1.00  0.00    -0.237 OA
ATOM     84  O   UNL A   1      32.268  36.179  30.197  1.00  0.00    -0.237 OA
ATOM     85  O   UNL A   1      33.748  36.860  28.351  1.00  0.00    -0.744 OA
ENDBRANCH  81  82
ENDBRANCH  53  76
BRANCH  65  86
ATOM     86  C   UNL A   1      39.929  34.364  36.833  1.00  0.00    -0.014 A 
ATOM     87  C   UNL A   1      39.116  34.230  37.972  1.00  0.00     0.010 A 
ATOM     88  C   UNL A   1      40.711  35.521  36.678  1.00  0.00     0.010 A 
ATOM     89  C   UNL A   1      39.056  35.256  38.919  1.00  0.00     0.020 A 
ATOM     90  C   UNL A   1      40.670  36.540  37.633  1.00  0.00     0.020 A 
ATOM     91  C   UNL A   1      39.827  36.409  38.739  1.00  0.00     0.054 A 
BRANCH  91  92
ATOM     92  S   UNL A   1      39.753  37.723  39.988  1.00  0.00     0.124 S 
ATOM     93  O   UNL A   1      40.978  38.470  39.714  1.00  0.00    -0.237 OA
ATOM     94  O   UNL A   1      38.509  38.415  39.659  1.00  0.00    -0.237 OA
ATOM     95  O   UNL A   1      39.736  36.994  41.254  1.00  0.00    -0.744 OA
ENDBRANCH  91  92
ENDBRANCH  65  86
ENDBRANCH  39  40
ENDBRANCH  31  34
ENDBRANCH  29  30
ENDBRANCH   1  29
TORSDOF 17
ENDMDL
MODEL 2
REMARK VINA RESULT:     -12.3      6.631     11.823
REMARK SMILES CCc1cc2c(=O)c(-c3nc(C)cs3)coc2cc1O[C@H](C)C(=O)NCCCNC(=O)c1ccc(-c2c3nc(c(-c4ccc(S(=O)(=O)[O-])cc4)c4ccc([nH]4)c(-c4ccc(S(=O)(=O)[O-])cc4)c4nc(c(-c5ccc(S(=O)(=O)[O-])cc5)c5ccc2[nH]5)C=C4)C=C3)cc1
REMARK SMILES IDX 27 1 26 2 25 3 23 4 24 5 21 7 22 8 20 9 19 10 3 11 4 12 5 13
REMARK SMILES IDX 18 14 6 15 17 16 7 17 8 18 16 19 15 20 2 21 1 22 9 23 10 24
REMARK SMILES IDX 14 25 11 26 13 27 12 28 28 29 29 30 30 31 31 33 32 34 33 35
REMARK SMILES IDX 91 36 34 37 90 38 35 39 36 40 37 41 84 42 38 43 89 44 83 45
REMARK SMILES IDX 85 46 39 47 88 48 82 49 81 50 40 52 70 53 51 54 69 55 52 56
REMARK SMILES IDX 55 57 68 58 86 59 53 60 54 61 67 63 87 64 56 65 41 66 42 67
REMARK SMILES IDX 50 68 43 69 49 70 44 71 45 72 46 73 47 74 48 75 71 76 72 77
REMARK SMILES IDX 80 78 73 79 79 80 74 81 75 82 76 83 77 84 78 85 57 86 58 87
REMARK SMILES IDX 66 88 59 89 65 90 60 91 61 92 62 93 63 94 64 95
REMARK H PARENT 25 6 29 32 85 51 55 62
REMARK Flexibility Score: inf
ROOT
ATOM      1  C   UNL A   1      34.110  28.603  27.190  1.00  0.00     0.042 C 
ENDROOT
BRANCH   1   2
ATOM      2  C   UNL A   1      32.675  29.116  27.207  1.00  0.00     0.118 C 
BRANCH   2   3
ATOM      3  N   UNL A   1      31.680  28.071  27.346  1.00  0.00    -0.353 N 
ATOM      4  C   UNL A   1      31.204  27.178  26.433  1.00  0.00     0.260 C 
ATOM      5  O   UNL A   1      30.431  26.308  26.847  1.00  0.00    -0.271 OA
ATOM      6  H   UNL A   1      31.285  27.995  28.244  1.00  0.00     0.163 HD
BRANCH   4   7
ATOM      7  C   UNL A   1      31.540  27.277  24.928  1.00  0.00     0.258 C 
ATOM      8  C   UNL A   1      31.423  28.726  24.480  1.00  0.00     0.064 C 
BRANCH   7   9
ATOM      9  O   UNL A   1      32.641  26.447  24.564  1.00  0.00    -0.480 OA
BRANCH   9  10
ATOM     10  C   UNL A   1      32.691  25.094  24.475  1.00  0.00     0.127 A 
ATOM     11  C   UNL A   1      32.103  24.542  23.313  1.00  0.00    -0.005 A 
ATOM     12  C   UNL A   1      32.121  23.149  23.108  1.00  0.00     0.023 A 
ATOM     13  C   UNL A   1      32.696  22.307  24.059  1.00  0.00     0.066 A 
ATOM     14  C   UNL A   1      33.296  24.236  25.390  1.00  0.00     0.094 A 
ATOM     15  C   UNL A   1      32.728  20.844  23.864  1.00  0.00     0.202 A 
ATOM     16  C   UNL A   1      33.265  22.851  25.201  1.00  0.00     0.141 A 
ATOM     17  O   UNL A   1      32.294  20.345  22.831  1.00  0.00    -0.288 OA
ATOM     18  C   UNL A   1      33.298  20.053  24.980  1.00  0.00     0.094 A 
ATOM     19  O   UNL A   1      33.818  22.083  26.196  1.00  0.00    -0.463 OA
ATOM     20  C   UNL A   1      33.762  20.720  26.048  1.00  0.00     0.211 A 
BRANCH  11  21
ATOM     21  C   UNL A   1      31.461  25.413  22.253  1.00  0.00     0.036 C 
ATOM     22  C   UNL A   1      32.483  25.920  21.245  1.00  0.00     0.009 C 
ENDBRANCH  11  21
BRANCH  18  23
ATOM     23  C   UNL A   1      33.340  18.633  24.979  1.00  0.00     0.130 A 
ATOM     24  N   UNL A   1      32.473  17.841  25.585  1.00  0.00    -0.241 NA
ATOM     25  S   UNL A   1      34.678  17.789  24.271  1.00  0.00    -0.122 S 
ATOM     26  C   UNL A   1      32.826  16.510  25.449  1.00  0.00     0.049 A 
ATOM     27  C   UNL A   1      34.012  16.298  24.780  1.00  0.00     0.090 A 
ATOM     28  C   UNL A   1      31.925  15.477  26.022  1.00  0.00     0.067 C 
ENDBRANCH  18  23
ENDBRANCH   9  10
ENDBRANCH   7   9
ENDBRANCH   4   7
ENDBRANCH   2   3
ENDBRANCH   1   2
BRANCH   1  29
ATOM     29  C   UNL A   1      35.175  29.651  27.493  1.00  0.00     0.118 C 
BRANCH  29  30
ATOM     30  N   UNL A   1      35.274  29.962  28.908  1.00  0.00    -0.352 N 
ATOM     31  C   UNL A   1      36.308  29.816  29.798  1.00  0.00     0.251 C 
ATOM     32  H   UNL A   1      34.455  30.344  29.298  1.00  0.00     0.163 HD
ATOM     33  O   UNL A   1      36.078  29.998  30.992  1.00  0.00    -0.269 OA
BRANCH  31  34
ATOM     34  C   UNL A   1      37.678  29.444  29.365  1.00  0.00     0.039 A 
ATOM     35  C   UNL A   1      38.558  28.934  30.328  1.00  0.00     0.014 A 
ATOM     36  C   UNL A   1      38.142  29.669  28.066  1.00  0.00     0.014 A 
ATOM     37  C   UNL A   1      39.880  28.632  29.987  1.00  0.00     0.010 A 
ATOM     38  C   UNL A   1      39.438  29.296  27.706  1.00  0.00     0.010 A 
ATOM     39  C   UNL A   1      40.330  28.801  28.669  1.00  0.00    -0.014 A 
BRANCH  39  40
ATOM     40  C   UNL A   1      41.742  28.515  28.303  1.00  0.00     0.031 A 
ATOM     41  C   UNL A   1      42.143  27.136  27.847  1.00  0.00     0.074 A 
ATOM     42  C   UNL A   1      42.674  29.478  28.418  1.00  0.00     0.049 A 
ATOM     43  N   UNL A   1      43.323  26.696  27.489  1.00  0.00    -0.248 NA
ATOM     44  C   UNL A   1      41.087  26.113  27.818  1.00  0.00     0.031 C 
ATOM     45  C   UNL A   1      42.433  30.836  28.907  1.00  0.00     0.029 A 
ATOM     46  N   UNL A   1      44.017  29.458  28.136  1.00  0.00    -0.354 N 
ATOM     47  C   UNL A   1      43.158  25.341  27.224  1.00  0.00     0.074 A 
ATOM     48  C   UNL A   1      41.773  25.024  27.502  1.00  0.00     0.031 C 
ATOM     49  C   UNL A   1      43.586  31.526  28.872  1.00  0.00     0.029 A 
ATOM     50  C   UNL A   1      44.647  30.655  28.374  1.00  0.00     0.049 A 
ATOM     51  H   UNL A   1      44.485  28.661  27.795  1.00  0.00     0.167 HD
ATOM     52  C   UNL A   1      44.067  24.441  26.774  1.00  0.00     0.031 A 
ATOM     53  C   UNL A   1      45.933  31.019  28.201  1.00  0.00     0.031 A 
ATOM     54  C   UNL A   1      45.437  24.757  26.473  1.00  0.00     0.049 A 
ATOM     55  C   UNL A   1      46.907  30.035  27.620  1.00  0.00     0.074 A 
ATOM     56  C   UNL A   1      46.421  23.933  25.954  1.00  0.00     0.029 A 
ATOM     57  N   UNL A   1      46.017  26.003  26.659  1.00  0.00    -0.354 N 
ATOM     58  N   UNL A   1      46.715  28.775  27.306  1.00  0.00    -0.248 NA
ATOM     59  C   UNL A   1      48.262  30.529  27.342  1.00  0.00     0.031 C 
ATOM     60  C   UNL A   1      47.604  24.676  25.849  1.00  0.00     0.029 A 
ATOM     61  C   UNL A   1      47.346  25.971  26.270  1.00  0.00     0.049 A 
ATOM     62  H   UNL A   1      45.553  26.794  27.016  1.00  0.00     0.167 HD
ATOM     63  C   UNL A   1      47.919  28.331  26.773  1.00  0.00     0.074 A 
ATOM     64  C   UNL A   1      48.828  29.460  26.796  1.00  0.00     0.031 C 
ATOM     65  C   UNL A   1      48.241  27.100  26.304  1.00  0.00     0.031 A 
BRANCH  52  66
ATOM     66  C   UNL A   1      43.589  23.024  26.599  1.00  0.00    -0.014 A 
ATOM     67  C   UNL A   1      42.984  22.325  27.660  1.00  0.00     0.010 A 
ATOM     68  C   UNL A   1      43.779  22.371  25.369  1.00  0.00     0.010 A 
ATOM     69  C   UNL A   1      42.645  20.978  27.518  1.00  0.00     0.020 A 
ATOM     70  C   UNL A   1      43.416  21.029  25.214  1.00  0.00     0.020 A 
ATOM     71  C   UNL A   1      42.880  20.333  26.301  1.00  0.00     0.054 A 
BRANCH  71  72
ATOM     72  S   UNL A   1      42.472  18.573  26.144  1.00  0.00     0.124 S 
ATOM     73  O   UNL A   1      43.386  18.149  25.085  1.00  0.00    -0.237 OA
ATOM     74  O   UNL A   1      42.768  18.048  27.475  1.00  0.00    -0.237 OA
ATOM     75  O   UNL A   1      41.057  18.579  25.781  1.00  0.00    -0.744 OA
ENDBRANCH  71  72
ENDBRANCH  52  66
BRANCH  53  76
ATOM     76  C   UNL A   1      46.343  32.406  28.537  1.00  0.00    -0.014 A 
ATOM     77  C   UNL A   1      47.051  32.670  29.723  1.00  0.00     0.010 A 
ATOM     78  C   UNL A   1      46.094  33.458  27.637  1.00  0.00     0.010 A 
ATOM     79  C   UNL A   1      47.510  33.961  30.000  1.00  0.00     0.020 A 
ATOM     80  C   UNL A   1      46.566  34.746  27.902  1.00  0.00     0.020 A 
ATOM     81  C   UNL A   1      47.270  34.990  29.084  1.00  0.00     0.054 A 
BRANCH  81  82
ATOM     82  S   UNL A   1      47.965  36.634  29.409  1.00  0.00     0.124 S 
ATOM     83  O   UNL A   1      49.400  36.368  29.388  1.00  0.00    -0.237 OA
ATOM     84  O   UNL A   1      47.453  37.425  28.291  1.00  0.00    -0.237 OA
ATOM     85  O   UNL A   1      47.409  36.987  30.713  1.00  0.00    -0.744 OA
ENDBRANCH  81  82
ENDBRANCH  53  76
BRANCH  65  86
ATOM     86  C   UNL A   1      49.628  26.918  25.751  1.00  0.00    -0.014 A 
ATOM     87  C   UNL A   1      50.688  26.500  26.574  1.00  0.00     0.010 A 
ATOM     88  C   UNL A   1      49.865  27.143  24.385  1.00  0.00     0.010 A 
ATOM     89  C   UNL A   1      51.973  26.351  26.046  1.00  0.00     0.020 A 
ATOM     90  C   UNL A   1      51.144  26.975  23.848  1.00  0.00     0.020 A 
ATOM     91  C   UNL A   1      52.195  26.597  24.687  1.00  0.00     0.054 A 
BRANCH  91  92
ATOM     92  S   UNL A   1      53.865  26.379  24.013  1.00  0.00     0.124 S 
ATOM     93  O   UNL A   1      54.315  25.173  24.703  1.00  0.00    -0.237 OA
ATOM     94  O   UNL A   1      53.621  26.230  22.580  1.00  0.00    -0.237 OA
ATOM     95  O   UNL A   1      54.553  27.610  24.395  1.00  0.00    -0.744 OA
ENDBRANCH  91  92
ENDBRANCH  65  86
ENDBRANCH  39  40
ENDBRANCH  31  34
ENDBRANCH  29  30
ENDBRANCH   1  29
TORSDOF 17
ENDMDL
MODEL 3
REMARK VINA RESULT:     -12.1      4.844      6.118
REMARK SMILES CCc1cc2c(=O)c(-c3nc(C)cs3)coc2cc1O[C@H](C)C(=O)NCCCNC(=O)c1ccc(-c2c3nc(c(-c4ccc(S(=O)(=O)[O-])cc4)c4ccc([nH]4)c(-c4ccc(S(=O)(=O)[O-])cc4)c4nc(c(-c5ccc(S(=O)(=O)[O-])cc5)c5ccc2[nH]5)C=C4)C=C3)cc1
REMARK SMILES IDX 27 1 26 2 25 3 23 4 24 5 21 7 22 8 20 9 19 10 3 11 4 12 5 13
REMARK SMILES IDX 18 14 6 15 17 16 7 17 8 18 16 19 15 20 2 21 1 22 9 23 10 24
REMARK SMILES IDX 14 25 11 26 13 27 12 28 28 29 29 30 30 31 31 33 32 34 33 35
REMARK SMILES IDX 91 36 34 37 90 38 35 39 36 40 37 41 84 42 38 43 89 44 83 45
REMARK SMILES IDX 85 46 39 47 88 48 82 49 81 50 40 52 70 53 51 54 69 55 52 56
REMARK SMILES IDX 55 57 68 58 86 59 53 60 54 61 67 63 87 64 56 65 41 66 42 67
REMARK SMILES IDX 50 68 43 69 49 70 44 71 45 72 46 73 47 74 48 75 71 76 72 77
REMARK SMILES IDX 80 78 73 79 79 80 74 81 75 82 76 83 77 84 78 85 57 86 58 87
REMARK SMILES IDX 66 88 59 89 65 90 60 91 61 92 62 93 63 94 64 95
REMARK H PARENT 25 6 29 32 85 51 55 62
REMARK Flexibility Score: inf
ROOT
ATOM      1  C   UNL A   1      35.619  22.433  26.105  1.00  0.00     0.042 C 
ENDROOT
BRANCH   1   2
ATOM      2  C   UNL A   1      35.443  21.186  25.247  1.00  0.00     0.118 C 
BRANCH   2   3
ATOM      3  N   UNL A   1      34.182  20.503  25.458  1.00  0.00    -0.353 N 
ATOM      4  C   UNL A   1      32.958  20.714  24.896  1.00  0.00     0.260 C 
ATOM      5  O   UNL A   1      32.066  19.905  25.170  1.00  0.00    -0.271 OA
ATOM      6  H   UNL A   1      34.215  19.768  26.112  1.00  0.00     0.163 HD
BRANCH   4   7
ATOM      7  C   UNL A   1      32.655  21.948  24.016  1.00  0.00     0.258 C 
ATOM      8  C   UNL A   1      31.920  21.503  22.760  1.00  0.00     0.064 C 
BRANCH   7   9
ATOM      9  O   UNL A   1      32.245  23.074  24.787  1.00  0.00    -0.480 OA
BRANCH   9  10
ATOM     10  C   UNL A   1      31.839  24.296  24.357  1.00  0.00     0.127 A 
ATOM     11  C   UNL A   1      32.878  25.185  23.995  1.00  0.00    -0.005 A 
ATOM     12  C   UNL A   1      32.568  26.471  23.512  1.00  0.00     0.023 A 
ATOM     13  C   UNL A   1      31.239  26.881  23.410  1.00  0.00     0.066 A 
ATOM     14  C   UNL A   1      30.519  24.714  24.207  1.00  0.00     0.094 A 
ATOM     15  C   UNL A   1      30.891  28.224  22.905  1.00  0.00     0.202 A 
ATOM     16  C   UNL A   1      30.224  26.009  23.773  1.00  0.00     0.141 A 
ATOM     17  O   UNL A   1      31.768  28.987  22.512  1.00  0.00    -0.288 OA
ATOM     18  C   UNL A   1      29.450  28.568  22.916  1.00  0.00     0.094 A 
ATOM     19  O   UNL A   1      28.896  26.355  23.733  1.00  0.00    -0.463 OA
ATOM     20  C   UNL A   1      28.587  27.636  23.347  1.00  0.00     0.211 A 
BRANCH  11  21
ATOM     21  C   UNL A   1      34.337  24.789  24.092  1.00  0.00     0.036 C 
ATOM     22  C   UNL A   1      34.813  24.081  22.832  1.00  0.00     0.009 C 
ENDBRANCH  11  21
BRANCH  18  23
ATOM     23  C   UNL A   1      28.956  29.841  22.526  1.00  0.00     0.130 A 
ATOM     24  N   UNL A   1      28.689  30.213  21.286  1.00  0.00    -0.241 NA
ATOM     25  S   UNL A   1      28.790  31.118  23.686  1.00  0.00    -0.122 S 
ATOM     26  C   UNL A   1      28.282  31.534  21.232  1.00  0.00     0.049 A 
ATOM     27  C   UNL A   1      28.300  32.188  22.445  1.00  0.00     0.090 A 
ATOM     28  C   UNL A   1      27.887  32.099  19.917  1.00  0.00     0.067 C 
ENDBRANCH  18  23
ENDBRANCH   9  10
ENDBRANCH   7   9
ENDBRANCH   4   7
ENDBRANCH   2   3
ENDBRANCH   1   2
BRANCH   1  29
ATOM     29  C   UNL A   1      37.017  23.040  26.085  1.00  0.00     0.118 C 
BRANCH  29  30
ATOM     30  N   UNL A   1      38.067  22.043  26.205  1.00  0.00    -0.352 N 
ATOM     31  C   UNL A   1      39.415  22.170  26.423  1.00  0.00     0.251 C 
ATOM     32  H   UNL A   1      37.756  21.114  26.114  1.00  0.00     0.163 HD
ATOM     33  O   UNL A   1      40.119  21.167  26.311  1.00  0.00    -0.269 OA
BRANCH  31  34
ATOM     34  C   UNL A   1      40.041  23.467  26.780  1.00  0.00     0.039 A 
ATOM     35  C   UNL A   1      40.741  23.550  27.991  1.00  0.00     0.014 A 
ATOM     36  C   UNL A   1      39.879  24.618  26.005  1.00  0.00     0.014 A 
ATOM     37  C   UNL A   1      41.291  24.767  28.406  1.00  0.00     0.010 A 
ATOM     38  C   UNL A   1      40.494  25.813  26.380  1.00  0.00     0.010 A 
ATOM     39  C   UNL A   1      41.181  25.908  27.599  1.00  0.00    -0.014 A 
BRANCH  39  40
ATOM     40  C   UNL A   1      41.733  27.214  28.046  1.00  0.00     0.031 A 
ATOM     41  C   UNL A   1      43.214  27.479  27.967  1.00  0.00     0.074 A 
ATOM     42  C   UNL A   1      40.915  28.148  28.562  1.00  0.00     0.049 A 
ATOM     43  N   UNL A   1      43.881  28.553  28.310  1.00  0.00    -0.248 NA
ATOM     44  C   UNL A   1      44.058  26.385  27.463  1.00  0.00     0.031 C 
ATOM     45  C   UNL A   1      39.471  27.996  28.755  1.00  0.00     0.029 A 
ATOM     46  N   UNL A   1      41.183  29.412  29.025  1.00  0.00    -0.354 N 
ATOM     47  C   UNL A   1      45.221  28.252  28.094  1.00  0.00     0.074 A 
ATOM     48  C   UNL A   1      45.275  26.882  27.630  1.00  0.00     0.031 C 
ATOM     49  C   UNL A   1      38.978  29.132  29.279  1.00  0.00     0.029 A 
ATOM     50  C   UNL A   1      40.069  30.082  29.472  1.00  0.00     0.049 A 
ATOM     51  H   UNL A   1      42.087  29.801  29.037  1.00  0.00     0.167 HD
ATOM     52  C   UNL A   1      46.310  29.044  28.251  1.00  0.00     0.031 A 
ATOM     53  C   UNL A   1      39.937  31.327  29.971  1.00  0.00     0.031 A 
ATOM     54  C   UNL A   1      46.258  30.412  28.689  1.00  0.00     0.049 A 
ATOM     55  C   UNL A   1      41.140  32.220  30.056  1.00  0.00     0.074 A 
ATOM     56  C   UNL A   1      47.297  31.318  28.821  1.00  0.00     0.029 A 
ATOM     57  N   UNL A   1      45.099  31.077  29.062  1.00  0.00    -0.354 N 
ATOM     58  N   UNL A   1      42.392  31.942  29.778  1.00  0.00    -0.248 NA
ATOM     59  C   UNL A   1      40.909  33.603  30.492  1.00  0.00     0.031 C 
ATOM     60  C   UNL A   1      46.768  32.525  29.297  1.00  0.00     0.029 A 
ATOM     61  C   UNL A   1      45.396  32.380  29.427  1.00  0.00     0.049 A 
ATOM     62  H   UNL A   1      44.198  30.681  29.066  1.00  0.00     0.167 HD
ATOM     63  C   UNL A   1      43.096  33.122  29.987  1.00  0.00     0.074 A 
ATOM     64  C   UNL A   1      42.128  34.118  30.401  1.00  0.00     0.031 C 
ATOM     65  C   UNL A   1      44.424  33.359  29.843  1.00  0.00     0.031 A 
BRANCH  52  66
ATOM     66  C   UNL A   1      47.649  28.423  27.954  1.00  0.00    -0.014 A 
ATOM     67  C   UNL A   1      48.190  28.448  26.655  1.00  0.00     0.010 A 
ATOM     68  C   UNL A   1      48.361  27.776  28.980  1.00  0.00     0.010 A 
ATOM     69  C   UNL A   1      49.380  27.775  26.371  1.00  0.00     0.020 A 
ATOM     70  C   UNL A   1      49.567  27.124  28.705  1.00  0.00     0.020 A 
ATOM     71  C   UNL A   1      50.051  27.101  27.395  1.00  0.00     0.054 A 
BRANCH  71  72
ATOM     72  S   UNL A   1      51.575  26.198  27.002  1.00  0.00     0.124 S 
ATOM     73  O   UNL A   1      51.138  24.809  27.130  1.00  0.00    -0.237 OA
ATOM     74  O   UNL A   1      51.875  26.637  25.642  1.00  0.00    -0.237 OA
ATOM     75  O   UNL A   1      52.517  26.651  28.022  1.00  0.00    -0.744 OA
ENDBRANCH  71  72
ENDBRANCH  52  66
BRANCH  53  76
ATOM     76  C   UNL A   1      38.589  31.804  30.372  1.00  0.00    -0.014 A 
ATOM     77  C   UNL A   1      38.175  31.720  31.713  1.00  0.00     0.010 A 
ATOM     78  C   UNL A   1      37.742  32.414  29.429  1.00  0.00     0.010 A 
ATOM     79  C   UNL A   1      36.941  32.245  32.107  1.00  0.00     0.020 A 
ATOM     80  C   UNL A   1      36.515  32.955  29.822  1.00  0.00     0.020 A 
ATOM     81  C   UNL A   1      36.121  32.866  31.159  1.00  0.00     0.054 A 
BRANCH  81  82
ATOM     82  S   UNL A   1      34.572  33.635  31.708  1.00  0.00     0.124 S 
ATOM     83  O   UNL A   1      35.054  34.817  32.416  1.00  0.00    -0.237 OA
ATOM     84  O   UNL A   1      33.879  33.893  30.447  1.00  0.00    -0.237 OA
ATOM     85  O   UNL A   1      33.959  32.606  32.544  1.00  0.00    -0.744 OA
ENDBRANCH  81  82
ENDBRANCH  53  76
BRANCH  65  86
ATOM     86  C   UNL A   1      44.903  34.759  30.112  1.00  0.00    -0.014 A 
ATOM     87  C   UNL A   1      45.325  35.149  31.395  1.00  0.00     0.010 A 
ATOM     88  C   UNL A   1      44.956  35.688  29.058  1.00  0.00     0.010 A 
ATOM     89  C   UNL A   1      45.753  36.459  31.628  1.00  0.00     0.020 A 
ATOM     90  C   UNL A   1      45.403  36.993  29.283  1.00  0.00     0.020 A 
ATOM     91  C   UNL A   1      45.781  37.375  30.572  1.00  0.00     0.054 A 
BRANCH  91  92
ATOM     92  S   UNL A   1      46.359  39.066  30.887  1.00  0.00     0.124 S 
ATOM     93  O   UNL A   1      47.809  38.893  30.898  1.00  0.00    -0.237 OA
ATOM     94  O   UNL A   1      45.823  39.810  29.749  1.00  0.00    -0.237 OA
ATOM     95  O   UNL A   1      45.759  39.398  32.177  1.00  0.00    -0.744 OA
ENDBRANCH  91  92
ENDBRANCH  65  86
ENDBRANCH  39  40
ENDBRANCH  31  34
ENDBRANCH  29  30
ENDBRANCH   1  29
TORSDOF 17
ENDMDL
