MODEL 1
REMARK VINA RESULT:     -11.6      0.000      0.000
REMARK SMILES C[C@H]1OCC[C@@H]1C(=O)Nc1ccc(Cl)c(C(=O)NCCCNC(=O)c2ccc(-c3c4nc(c(-c5ccc(S(=O)(=O)[O-])cc5)c5ccc([nH]5)c(-c5ccc(S(=O)(=O)[O-])cc5)c5nc(c(-c6ccc(S(=O)(=O)[O-])cc6)c6ccc3[nH]6)C=C5)C=C4)cc2)c1
REMARK SMILES IDX 20 1 19 2 18 3 16 4 17 5 15 7 10 8 11 9 85 10 12 11 13 12
REMARK SMILES IDX 14 13 9 14 7 15 8 16 6 18 1 19 2 20 3 21 4 22 5 23 21 24
REMARK SMILES IDX 22 25 23 26 24 28 25 29 26 30 84 31 27 32 83 33 28 34 29 35
REMARK SMILES IDX 30 36 77 37 31 38 82 39 76 40 78 41 32 42 81 43 75 44 74 45
REMARK SMILES IDX 33 47 63 48 44 49 62 50 45 51 48 52 61 53 79 54 46 55 47 56
REMARK SMILES IDX 60 58 80 59 49 60 34 61 35 62 43 63 36 64 42 65 37 66 38 67
REMARK SMILES IDX 39 68 40 69 41 70 64 71 65 72 73 73 66 74 72 75 67 76 68 77
REMARK SMILES IDX 69 78 70 79 71 80 50 81 51 82 59 83 52 84 58 85 53 86 54 87
REMARK SMILES IDX 55 88 56 89 57 90
REMARK H PARENT 18 6 9 17 22 27 78 46 48 57
REMARK Flexibility Score: inf
ROOT
ATOM      1  C   UNL A   1      32.928  28.304  25.949  1.00  0.00     0.042 C 
ENDROOT
BRANCH   1   2
ATOM      2  C   UNL A   1      33.122  29.427  24.954  1.00  0.00     0.118 C 
BRANCH   2   3
ATOM      3  N   UNL A   1      33.821  29.077  23.727  1.00  0.00    -0.352 N 
ATOM      4  C   UNL A   1      33.456  28.244  22.691  1.00  0.00     0.252 C 
ATOM      5  O   UNL A   1      34.189  28.180  21.704  1.00  0.00    -0.269 OA
ATOM      6  H   UNL A   1      34.702  29.505  23.619  1.00  0.00     0.163 HD
BRANCH   4   7
ATOM      7  C   UNL A   1      32.292  27.325  22.781  1.00  0.00     0.060 A 
ATOM      8  C   UNL A   1      31.512  25.044  22.878  1.00  0.00     0.042 A 
ATOM      9  C   UNL A   1      30.310  25.483  23.408  1.00  0.00     0.028 A 
ATOM     10  C   UNL A   1      32.564  25.946  22.733  1.00  0.00     0.041 A 
ATOM     11  C   UNL A   1      30.012  26.836  23.379  1.00  0.00     0.023 A 
ATOM     12  C   UNL A   1      30.959  27.726  22.882  1.00  0.00     0.053 A 
ATOM     13  Cl  UNL A   1      30.344  29.185  22.175  1.00  0.00    -0.083 Cl
BRANCH   8  14
ATOM     14  N   UNL A   1      31.645  23.735  22.415  1.00  0.00    -0.326 N 
ATOM     15  C   UNL A   1      32.105  22.639  23.104  1.00  0.00     0.230 C 
ATOM     16  O   UNL A   1      32.240  21.589  22.461  1.00  0.00    -0.274 OA
ATOM     17  H   UNL A   1      31.378  23.577  21.482  1.00  0.00     0.169 HD
BRANCH  15  18
ATOM     18  C   UNL A   1      32.348  22.600  24.629  1.00  0.00     0.110 C 
ATOM     19  C   UNL A   1      33.553  24.301  26.089  1.00  0.00     0.039 C 
ATOM     20  C   UNL A   1      33.694  23.172  25.072  1.00  0.00     0.127 C 
ATOM     21  O   UNL A   1      34.414  22.105  25.706  1.00  0.00    -0.378 OA
ATOM     22  C   UNL A   1      33.472  21.147  26.189  1.00  0.00     0.161 C 
ATOM     23  C   UNL A   1      32.222  21.267  25.338  1.00  0.00     0.044 C 
ENDBRANCH  15  18
ENDBRANCH   8  14
ENDBRANCH   4   7
ENDBRANCH   2   3
ENDBRANCH   1   2
BRANCH   1  24
ATOM     24  C   UNL A   1      33.593  28.528  27.292  1.00  0.00     0.118 C 
BRANCH  24  25
ATOM     25  N   UNL A   1      33.621  29.928  27.703  1.00  0.00    -0.352 N 
ATOM     26  C   UNL A   1      34.609  30.686  28.287  1.00  0.00     0.251 C 
ATOM     27  H   UNL A   1      32.784  30.417  27.531  1.00  0.00     0.163 HD
ATOM     28  O   UNL A   1      34.344  31.821  28.680  1.00  0.00    -0.269 OA
BRANCH  26  29
ATOM     29  C   UNL A   1      35.972  30.142  28.482  1.00  0.00     0.039 A 
ATOM     30  C   UNL A   1      36.892  30.198  27.429  1.00  0.00     0.014 A 
ATOM     31  C   UNL A   1      36.350  29.570  29.694  1.00  0.00     0.014 A 
ATOM     32  C   UNL A   1      38.209  29.769  27.630  1.00  0.00     0.010 A 
ATOM     33  C   UNL A   1      37.684  29.267  29.933  1.00  0.00     0.010 A 
ATOM     34  C   UNL A   1      38.629  29.347  28.901  1.00  0.00    -0.014 A 
BRANCH  34  35
ATOM     35  C   UNL A   1      40.030  28.944  29.189  1.00  0.00     0.031 A 
ATOM     36  C   UNL A   1      40.987  29.956  29.767  1.00  0.00     0.074 A 
ATOM     37  C   UNL A   1      40.471  27.719  28.839  1.00  0.00     0.049 A 
ATOM     38  N   UNL A   1      42.282  29.871  29.931  1.00  0.00    -0.248 NA
ATOM     39  C   UNL A   1      40.418  31.254  30.175  1.00  0.00     0.031 C 
ATOM     40  C   UNL A   1      39.657  26.658  28.238  1.00  0.00     0.029 A 
ATOM     41  N   UNL A   1      41.724  27.163  28.923  1.00  0.00    -0.354 N 
ATOM     42  C   UNL A   1      42.683  31.109  30.422  1.00  0.00     0.074 A 
ATOM     43  C   UNL A   1      41.506  31.945  30.476  1.00  0.00     0.031 C 
ATOM     44  C   UNL A   1      40.424  25.575  28.033  1.00  0.00     0.029 A 
ATOM     45  C   UNL A   1      41.794  25.878  28.435  1.00  0.00     0.049 A 
ATOM     46  H   UNL A   1      42.501  27.639  29.298  1.00  0.00     0.167 HD
ATOM     47  C   UNL A   1      43.914  31.508  30.818  1.00  0.00     0.031 A 
ATOM     48  C   UNL A   1      42.845  25.043  28.311  1.00  0.00     0.031 A 
ATOM     49  C   UNL A   1      45.074  30.660  30.799  1.00  0.00     0.049 A 
ATOM     50  C   UNL A   1      44.205  25.506  28.762  1.00  0.00     0.074 A 
ATOM     51  C   UNL A   1      46.356  30.947  31.235  1.00  0.00     0.029 A 
ATOM     52  N   UNL A   1      45.090  29.354  30.333  1.00  0.00    -0.354 N 
ATOM     53  N   UNL A   1      44.553  26.666  29.266  1.00  0.00    -0.248 NA
ATOM     54  C   UNL A   1      45.310  24.546  28.636  1.00  0.00     0.031 C 
ATOM     55  C   UNL A   1      47.158  29.829  30.989  1.00  0.00     0.029 A 
ATOM     56  C   UNL A   1      46.363  28.826  30.457  1.00  0.00     0.049 A 
ATOM     57  H   UNL A   1      44.312  28.874  29.967  1.00  0.00     0.167 HD
ATOM     58  C   UNL A   1      45.910  26.560  29.554  1.00  0.00     0.074 A 
ATOM     59  C   UNL A   1      46.317  25.224  29.172  1.00  0.00     0.031 C 
ATOM     60  C   UNL A   1      46.742  27.485  30.091  1.00  0.00     0.031 A 
BRANCH  47  61
ATOM     61  C   UNL A   1      44.066  32.923  31.310  1.00  0.00    -0.014 A 
ATOM     62  C   UNL A   1      44.442  33.960  30.438  1.00  0.00     0.010 A 
ATOM     63  C   UNL A   1      43.792  33.229  32.656  1.00  0.00     0.010 A 
ATOM     64  C   UNL A   1      44.583  35.268  30.910  1.00  0.00     0.020 A 
ATOM     65  C   UNL A   1      43.901  34.542  33.125  1.00  0.00     0.020 A 
ATOM     66  C   UNL A   1      44.313  35.549  32.251  1.00  0.00     0.054 A 
BRANCH  66  67
ATOM     67  S   UNL A   1      44.477  37.261  32.828  1.00  0.00     0.124 S 
ATOM     68  O   UNL A   1      45.915  37.361  33.066  1.00  0.00    -0.237 OA
ATOM     69  O   UNL A   1      43.974  38.031  31.693  1.00  0.00    -0.237 OA
ATOM     70  O   UNL A   1      43.644  37.305  34.027  1.00  0.00    -0.744 OA
ENDBRANCH  66  67
ENDBRANCH  47  61
BRANCH  48  71
ATOM     71  C   UNL A   1      42.652  23.675  27.751  1.00  0.00    -0.014 A 
ATOM     72  C   UNL A   1      42.319  22.601  28.596  1.00  0.00     0.010 A 
ATOM     73  C   UNL A   1      42.798  23.440  26.372  1.00  0.00     0.010 A 
ATOM     74  C   UNL A   1      42.160  21.313  28.076  1.00  0.00     0.020 A 
ATOM     75  C   UNL A   1      42.610  22.158  25.844  1.00  0.00     0.020 A 
ATOM     76  C   UNL A   1      42.306  21.100  26.703  1.00  0.00     0.054 A 
BRANCH  76  77
ATOM     77  S   UNL A   1      42.057  19.427  26.046  1.00  0.00     0.124 S 
ATOM     78  O   UNL A   1      42.908  19.436  24.860  1.00  0.00    -0.237 OA
ATOM     79  O   UNL A   1      42.512  18.583  27.148  1.00  0.00    -0.237 OA
ATOM     80  O   UNL A   1      40.620  19.374  25.785  1.00  0.00    -0.744 OA
ENDBRANCH  76  77
ENDBRANCH  48  71
BRANCH  60  81
ATOM     81  C   UNL A   1      48.165  27.077  30.358  1.00  0.00    -0.014 A 
ATOM     82  C   UNL A   1      49.192  27.348  29.438  1.00  0.00     0.010 A 
ATOM     83  C   UNL A   1      48.489  26.491  31.597  1.00  0.00     0.010 A 
ATOM     84  C   UNL A   1      50.516  27.026  29.745  1.00  0.00     0.020 A 
ATOM     85  C   UNL A   1      49.814  26.193  31.919  1.00  0.00     0.020 A 
ATOM     86  C   UNL A   1      50.819  26.455  30.986  1.00  0.00     0.054 A 
BRANCH  86  87
ATOM     87  S   UNL A   1      52.555  26.115  31.389  1.00  0.00     0.124 S 
ATOM     88  O   UNL A   1      52.884  27.225  32.279  1.00  0.00    -0.237 OA
ATOM     89  O   UNL A   1      52.485  24.800  32.022  1.00  0.00    -0.237 OA
ATOM     90  O   UNL A   1      53.224  26.138  30.089  1.00  0.00    -0.744 OA
ENDBRANCH  86  87
ENDBRANCH  60  81
ENDBRANCH  34  35
ENDBRANCH  26  29
ENDBRANCH  24  25
ENDBRANCH   1  24
TORSDOF 15
ENDMDL
MODEL 2
REMARK VINA RESULT:     -11.4      1.600      2.537
REMARK SMILES C[C@H]1OCC[C@@H]1C(=O)Nc1ccc(Cl)c(C(=O)NCCCNC(=O)c2ccc(-c3c4nc(c(-c5ccc(S(=O)(=O)[O-])cc5)c5ccc([nH]5)c(-c5ccc(S(=O)(=O)[O-])cc5)c5nc(c(-c6ccc(S(=O)(=O)[O-])cc6)c6ccc3[nH]6)C=C5)C=C4)cc2)c1
REMARK SMILES IDX 20 1 19 2 18 3 16 4 17 5 15 7 10 8 11 9 85 10 12 11 13 12
REMARK SMILES IDX 14 13 9 14 7 15 8 16 6 18 1 19 2 20 3 21 4 22 5 23 21 24
REMARK SMILES IDX 22 25 23 26 24 28 25 29 26 30 84 31 27 32 83 33 28 34 29 35
REMARK SMILES IDX 30 36 77 37 31 38 82 39 76 40 78 41 32 42 81 43 75 44 74 45
REMARK SMILES IDX 33 47 63 48 44 49 62 50 45 51 48 52 61 53 79 54 46 55 47 56
REMARK SMILES IDX 60 58 80 59 49 60 34 61 35 62 43 63 36 64 42 65 37 66 38 67
REMARK SMILES IDX 39 68 40 69 41 70 64 71 65 72 73 73 66 74 72 75 67 76 68 77
REMARK SMILES IDX 69 78 70 79 71 80 50 81 51 82 59 83 52 84 58 85 53 86 54 87
REMARK SMILES IDX 55 88 56 89 57 90
REMARK H PARENT 18 6 9 17 22 27 78 46 48 57
REMARK Flexibility Score: inf
ROOT
ATOM      1  C   UNL A   1      32.070  27.746  26.511  1.00  0.00     0.042 C 
ENDROOT
BRANCH   1   2
ATOM      2  C   UNL A   1      32.111  26.294  26.088  1.00  0.00     0.118 C 
BRANCH   2   3
ATOM      3  N   UNL A   1      31.120  25.423  26.704  1.00  0.00    -0.352 N 
ATOM      4  C   UNL A   1      30.872  24.079  26.528  1.00  0.00     0.252 C 
ATOM      5  O   UNL A   1      30.026  23.541  27.242  1.00  0.00    -0.269 OA
ATOM      6  H   UNL A   1      30.528  25.869  27.353  1.00  0.00     0.163 HD
BRANCH   4   7
ATOM      7  C   UNL A   1      31.485  23.294  25.425  1.00  0.00     0.060 A 
ATOM      8  C   UNL A   1      32.877  21.427  24.798  1.00  0.00     0.042 A 
ATOM      9  C   UNL A   1      32.323  21.446  23.528  1.00  0.00     0.028 A 
ATOM     10  C   UNL A   1      32.331  22.232  25.794  1.00  0.00     0.041 A 
ATOM     11  C   UNL A   1      31.557  22.535  23.142  1.00  0.00     0.023 A 
ATOM     12  C   UNL A   1      31.305  23.545  24.064  1.00  0.00     0.053 A 
ATOM     13  Cl  UNL A   1      31.042  25.130  23.413  1.00  0.00    -0.083 Cl
BRANCH   8  14
ATOM     14  N   UNL A   1      34.022  20.673  25.058  1.00  0.00    -0.326 N 
ATOM     15  C   UNL A   1      35.333  21.030  24.851  1.00  0.00     0.230 C 
ATOM     16  O   UNL A   1      36.189  20.159  25.055  1.00  0.00    -0.274 OA
ATOM     17  H   UNL A   1      33.873  19.776  25.435  1.00  0.00     0.169 HD
BRANCH  15  18
ATOM     18  C   UNL A   1      35.809  22.457  24.500  1.00  0.00     0.110 C 
ATOM     19  C   UNL A   1      37.141  24.084  25.934  1.00  0.00     0.039 C 
ATOM     20  C   UNL A   1      35.783  23.440  25.670  1.00  0.00     0.127 C 
ATOM     21  O   UNL A   1      34.868  24.487  25.315  1.00  0.00    -0.378 OA
ATOM     22  C   UNL A   1      34.779  24.549  23.892  1.00  0.00     0.161 C 
ATOM     23  C   UNL A   1      35.128  23.174  23.353  1.00  0.00     0.044 C 
ENDBRANCH  15  18
ENDBRANCH   8  14
ENDBRANCH   4   7
ENDBRANCH   2   3
ENDBRANCH   1   2
BRANCH   1  24
ATOM     24  C   UNL A   1      33.302  28.224  27.250  1.00  0.00     0.118 C 
BRANCH  24  25
ATOM     25  N   UNL A   1      33.332  29.668  27.462  1.00  0.00    -0.352 N 
ATOM     26  C   UNL A   1      34.320  30.498  27.936  1.00  0.00     0.251 C 
ATOM     27  H   UNL A   1      32.495  30.129  27.225  1.00  0.00     0.163 HD
ATOM     28  O   UNL A   1      34.056  31.677  28.167  1.00  0.00    -0.269 OA
BRANCH  26  29
ATOM     29  C   UNL A   1      35.683  29.986  28.204  1.00  0.00     0.039 A 
ATOM     30  C   UNL A   1      36.657  30.065  27.204  1.00  0.00     0.014 A 
ATOM     31  C   UNL A   1      36.007  29.419  29.435  1.00  0.00     0.014 A 
ATOM     32  C   UNL A   1      37.971  29.665  27.476  1.00  0.00     0.010 A 
ATOM     33  C   UNL A   1      37.332  29.146  29.746  1.00  0.00     0.010 A 
ATOM     34  C   UNL A   1      38.330  29.251  28.768  1.00  0.00    -0.014 A 
BRANCH  34  35
ATOM     35  C   UNL A   1      39.722  28.879  29.132  1.00  0.00     0.031 A 
ATOM     36  C   UNL A   1      40.621  29.909  29.770  1.00  0.00     0.074 A 
ATOM     37  C   UNL A   1      40.212  27.667  28.799  1.00  0.00     0.049 A 
ATOM     38  N   UNL A   1      41.905  29.854  30.007  1.00  0.00    -0.248 NA
ATOM     39  C   UNL A   1      39.997  31.189  30.154  1.00  0.00     0.031 C 
ATOM     40  C   UNL A   1      39.459  26.593  28.147  1.00  0.00     0.029 A 
ATOM     41  N   UNL A   1      41.472  27.141  28.950  1.00  0.00    -0.354 N 
ATOM     42  C   UNL A   1      42.248  31.097  30.528  1.00  0.00     0.074 A 
ATOM     43  C   UNL A   1      41.049  31.904  30.520  1.00  0.00     0.031 C 
ATOM     44  C   UNL A   1      40.263  25.530  27.978  1.00  0.00     0.029 A 
ATOM     45  C   UNL A   1      41.600  25.862  28.458  1.00  0.00     0.049 A 
ATOM     46  H   UNL A   1      42.214  27.632  29.371  1.00  0.00     0.167 HD
ATOM     47  C   UNL A   1      43.445  31.522  30.995  1.00  0.00     0.031 A 
ATOM     48  C   UNL A   1      42.676  25.053  28.389  1.00  0.00     0.031 A 
ATOM     49  C   UNL A   1      44.624  30.702  31.036  1.00  0.00     0.049 A 
ATOM     50  C   UNL A   1      43.997  25.546  28.919  1.00  0.00     0.074 A 
ATOM     51  C   UNL A   1      45.872  31.016  31.545  1.00  0.00     0.029 A 
ATOM     52  N   UNL A   1      44.698  29.401  30.562  1.00  0.00    -0.354 N 
ATOM     53  N   UNL A   1      44.288  26.709  29.450  1.00  0.00    -0.248 NA
ATOM     54  C   UNL A   1      45.131  24.613  28.849  1.00  0.00     0.031 C 
ATOM     55  C   UNL A   1      46.713  29.920  31.337  1.00  0.00     0.029 A 
ATOM     56  C   UNL A   1      45.974  28.903  30.755  1.00  0.00     0.049 A 
ATOM     57  H   UNL A   1      43.954  28.906  30.150  1.00  0.00     0.167 HD
ATOM     58  C   UNL A   1      45.629  26.634  29.813  1.00  0.00     0.074 A 
ATOM     59  C   UNL A   1      46.089  25.311  29.446  1.00  0.00     0.031 C 
ATOM     60  C   UNL A   1      46.407  27.574  30.402  1.00  0.00     0.031 A 
BRANCH  47  61
ATOM     61  C   UNL A   1      43.534  32.937  31.504  1.00  0.00    -0.014 A 
ATOM     62  C   UNL A   1      43.178  33.257  32.827  1.00  0.00     0.010 A 
ATOM     63  C   UNL A   1      44.017  33.955  30.662  1.00  0.00     0.010 A 
ATOM     64  C   UNL A   1      43.262  34.574  33.285  1.00  0.00     0.020 A 
ATOM     65  C   UNL A   1      44.132  35.269  31.126  1.00  0.00     0.020 A 
ATOM     66  C   UNL A   1      43.737  35.572  32.430  1.00  0.00     0.054 A 
BRANCH  66  67
ATOM     67  S   UNL A   1      43.861  37.267  33.062  1.00  0.00     0.124 S 
ATOM     68  O   UNL A   1      42.717  37.335  33.968  1.00  0.00    -0.237 OA
ATOM     69  O   UNL A   1      45.173  37.274  33.705  1.00  0.00    -0.237 OA
ATOM     70  O   UNL A   1      43.754  38.093  31.862  1.00  0.00    -0.744 OA
ENDBRANCH  66  67
ENDBRANCH  47  61
BRANCH  48  71
ATOM     71  C   UNL A   1      42.549  23.686  27.810  1.00  0.00    -0.014 A 
ATOM     72  C   UNL A   1      42.206  22.595  28.629  1.00  0.00     0.010 A 
ATOM     73  C   UNL A   1      42.766  23.467  26.438  1.00  0.00     0.010 A 
ATOM     74  C   UNL A   1      42.109  21.308  28.093  1.00  0.00     0.020 A 
ATOM     75  C   UNL A   1      42.640  22.186  25.892  1.00  0.00     0.020 A 
ATOM     76  C   UNL A   1      42.326  21.112  26.726  1.00  0.00     0.054 A 
BRANCH  76  77
ATOM     77  S   UNL A   1      42.155  19.438  26.046  1.00  0.00     0.124 S 
ATOM     78  O   UNL A   1      42.644  18.612  27.144  1.00  0.00    -0.237 OA
ATOM     79  O   UNL A   1      40.722  19.352  25.775  1.00  0.00    -0.237 OA
ATOM     80  O   UNL A   1      43.004  19.466  24.856  1.00  0.00    -0.744 OA
ENDBRANCH  76  77
ENDBRANCH  48  71
BRANCH  60  81
ATOM     81  C   UNL A   1      47.822  27.198  30.747  1.00  0.00    -0.014 A 
ATOM     82  C   UNL A   1      48.144  26.601  31.977  1.00  0.00     0.010 A 
ATOM     83  C   UNL A   1      48.831  27.365  29.779  1.00  0.00     0.010 A 
ATOM     84  C   UNL A   1      49.453  26.193  32.240  1.00  0.00     0.020 A 
ATOM     85  C   UNL A   1      50.134  26.933  30.027  1.00  0.00     0.020 A 
ATOM     86  C   UNL A   1      50.440  26.357  31.261  1.00  0.00     0.054 A 
BRANCH  86  87
ATOM     87  S   UNL A   1      52.115  25.751  31.600  1.00  0.00     0.124 S 
ATOM     88  O   UNL A   1      51.865  24.365  31.987  1.00  0.00    -0.237 OA
ATOM     89  O   UNL A   1      52.789  25.935  30.317  1.00  0.00    -0.237 OA
ATOM     90  O   UNL A   1      52.588  26.622  32.675  1.00  0.00    -0.744 OA
ENDBRANCH  86  87
ENDBRANCH  60  81
ENDBRANCH  34  35
ENDBRANCH  26  29
ENDBRANCH  24  25
ENDBRANCH   1  24
TORSDOF 15
ENDMDL
MODEL 3
REMARK VINA RESULT:     -11.3      1.857      2.666
REMARK SMILES C[C@H]1OCC[C@@H]1C(=O)Nc1ccc(Cl)c(C(=O)NCCCNC(=O)c2ccc(-c3c4nc(c(-c5ccc(S(=O)(=O)[O-])cc5)c5ccc([nH]5)c(-c5ccc(S(=O)(=O)[O-])cc5)c5nc(c(-c6ccc(S(=O)(=O)[O-])cc6)c6ccc3[nH]6)C=C5)C=C4)cc2)c1
REMARK SMILES IDX 20 1 19 2 18 3 16 4 17 5 15 7 10 8 11 9 85 10 12 11 13 12
REMARK SMILES IDX 14 13 9 14 7 15 8 16 6 18 1 19 2 20 3 21 4 22 5 23 21 24
REMARK SMILES IDX 22 25 23 26 24 28 25 29 26 30 84 31 27 32 83 33 28 34 29 35
REMARK SMILES IDX 30 36 77 37 31 38 82 39 76 40 78 41 32 42 81 43 75 44 74 45
REMARK SMILES IDX 33 47 63 48 44 49 62 50 45 51 48 52 61 53 79 54 46 55 47 56
REMARK SMILES IDX 60 58 80 59 49 60 34 61 35 62 43 63 36 64 42 65 37 66 38 67
REMARK SMILES IDX 39 68 40 69 41 70 64 71 65 72 73 73 66 74 72 75 67 76 68 77
REMARK SMILES IDX 69 78 70 79 71 80 50 81 51 82 59 83 52 84 58 85 53 86 54 87
REMARK SMILES IDX 55 88 56 89 57 90
REMARK H PARENT 18 6 9 17 22 27 78 46 48 57
REMARK Flexibility Score: inf
ROOT
ATOM      1  C   UNL A   1      32.164  27.783  26.782  1.00  0.00     0.042 C 
ENDROOT
BRANCH   1   2
ATOM      2  C   UNL A   1      32.147  26.435  26.095  1.00  0.00     0.118 C 
BRANCH   2   3
ATOM      3  N   UNL A   1      31.366  25.396  26.751  1.00  0.00    -0.352 N 
ATOM      4  C   UNL A   1      31.507  24.026  26.742  1.00  0.00     0.252 C 
ATOM      5  O   UNL A   1      30.766  23.355  27.460  1.00  0.00    -0.269 OA
ATOM      6  H   UNL A   1      30.612  25.728  27.291  1.00  0.00     0.163 HD
BRANCH   4   7
ATOM      7  C   UNL A   1      32.421  23.326  25.801  1.00  0.00     0.060 A 
ATOM      8  C   UNL A   1      32.667  22.167  23.700  1.00  0.00     0.042 A 
ATOM      9  C   UNL A   1      34.030  22.413  23.729  1.00  0.00     0.028 A 
ATOM     10  C   UNL A   1      31.843  22.776  24.643  1.00  0.00     0.041 A 
ATOM     11  C   UNL A   1      34.608  22.878  24.900  1.00  0.00     0.023 A 
ATOM     12  C   UNL A   1      33.792  23.153  25.993  1.00  0.00     0.053 A 
ATOM     13  Cl  UNL A   1      34.525  22.992  27.557  1.00  0.00    -0.083 Cl
BRANCH   8  14
ATOM     14  N   UNL A   1      32.133  21.254  22.791  1.00  0.00    -0.326 N 
ATOM     15  C   UNL A   1      32.371  19.903  22.712  1.00  0.00     0.230 C 
ATOM     16  O   UNL A   1      31.869  19.300  21.753  1.00  0.00    -0.274 OA
ATOM     17  H   UNL A   1      31.511  21.622  22.123  1.00  0.00     0.169 HD
BRANCH  15  18
ATOM     18  C   UNL A   1      33.112  19.079  23.788  1.00  0.00     0.110 C 
ATOM     19  C   UNL A   1      34.450  16.932  23.502  1.00  0.00     0.039 C 
ATOM     20  C   UNL A   1      33.063  17.566  23.574  1.00  0.00     0.127 C 
ATOM     21  O   UNL A   1      32.389  17.006  24.710  1.00  0.00    -0.378 OA
ATOM     22  C   UNL A   1      32.527  17.905  25.810  1.00  0.00     0.161 C 
ATOM     23  C   UNL A   1      32.734  19.295  25.239  1.00  0.00     0.044 C 
ENDBRANCH  15  18
ENDBRANCH   8  14
ENDBRANCH   4   7
ENDBRANCH   2   3
ENDBRANCH   1   2
BRANCH   1  24
ATOM     24  C   UNL A   1      33.548  28.333  27.060  1.00  0.00     0.118 C 
BRANCH  24  25
ATOM     25  N   UNL A   1      33.547  29.732  27.476  1.00  0.00    -0.352 N 
ATOM     26  C   UNL A   1      34.512  30.503  28.082  1.00  0.00     0.251 C 
ATOM     27  H   UNL A   1      32.706  30.209  27.290  1.00  0.00     0.163 HD
ATOM     28  O   UNL A   1      34.221  31.632  28.473  1.00  0.00    -0.269 OA
BRANCH  26  29
ATOM     29  C   UNL A   1      35.878  29.979  28.301  1.00  0.00     0.039 A 
ATOM     30  C   UNL A   1      36.818  30.052  27.267  1.00  0.00     0.014 A 
ATOM     31  C   UNL A   1      36.242  29.409  29.519  1.00  0.00     0.014 A 
ATOM     32  C   UNL A   1      38.137  29.642  27.492  1.00  0.00     0.010 A 
ATOM     33  C   UNL A   1      37.575  29.125  29.783  1.00  0.00     0.010 A 
ATOM     34  C   UNL A   1      38.538  29.223  28.769  1.00  0.00    -0.014 A 
BRANCH  34  35
ATOM     35  C   UNL A   1      39.940  28.840  29.083  1.00  0.00     0.031 A 
ATOM     36  C   UNL A   1      40.875  29.868  29.668  1.00  0.00     0.074 A 
ATOM     37  C   UNL A   1      40.402  27.617  28.750  1.00  0.00     0.049 A 
ATOM     38  N   UNL A   1      42.167  29.801  29.855  1.00  0.00    -0.248 NA
ATOM     39  C   UNL A   1      40.282  31.162  30.057  1.00  0.00     0.031 C 
ATOM     40  C   UNL A   1      39.611  26.542  28.146  1.00  0.00     0.029 A 
ATOM     41  N   UNL A   1      41.660  27.078  28.860  1.00  0.00    -0.354 N 
ATOM     42  C   UNL A   1      42.544  31.048  30.342  1.00  0.00     0.074 A 
ATOM     43  C   UNL A   1      41.356  31.870  30.369  1.00  0.00     0.031 C 
ATOM     44  C   UNL A   1      40.395  25.467  27.962  1.00  0.00     0.029 A 
ATOM     45  C   UNL A   1      41.754  25.790  28.383  1.00  0.00     0.049 A 
ATOM     46  H   UNL A   1      42.424  27.567  29.243  1.00  0.00     0.167 HD
ATOM     47  C   UNL A   1      43.764  31.466  30.754  1.00  0.00     0.031 A 
ATOM     48  C   UNL A   1      42.817  24.967  28.284  1.00  0.00     0.031 A 
ATOM     49  C   UNL A   1      44.935  30.632  30.761  1.00  0.00     0.049 A 
ATOM     50  C   UNL A   1      44.164  25.452  28.753  1.00  0.00     0.074 A 
ATOM     51  C   UNL A   1      46.206  30.939  31.215  1.00  0.00     0.029 A 
ATOM     52  N   UNL A   1      44.974  29.324  30.306  1.00  0.00    -0.354 N 
ATOM     53  N   UNL A   1      44.489  26.620  29.253  1.00  0.00    -0.248 NA
ATOM     54  C   UNL A   1      45.283  24.505  28.653  1.00  0.00     0.031 C 
ATOM     55  C   UNL A   1      47.025  29.830  30.991  1.00  0.00     0.029 A 
ATOM     56  C   UNL A   1      46.252  28.813  30.455  1.00  0.00     0.049 A 
ATOM     57  H   UNL A   1      44.209  28.831  29.931  1.00  0.00     0.167 HD
ATOM     58  C   UNL A   1      45.842  26.534  29.564  1.00  0.00     0.074 A 
ATOM     59  C   UNL A   1      46.273  25.200  29.199  1.00  0.00     0.031 C 
ATOM     60  C   UNL A   1      46.654  27.473  30.106  1.00  0.00     0.031 A 
BRANCH  47  61
ATOM     61  C   UNL A   1      43.890  32.887  31.238  1.00  0.00    -0.014 A 
ATOM     62  C   UNL A   1      44.304  33.915  30.372  1.00  0.00     0.010 A 
ATOM     63  C   UNL A   1      43.553  33.206  32.566  1.00  0.00     0.010 A 
ATOM     64  C   UNL A   1      44.421  35.228  30.835  1.00  0.00     0.020 A 
ATOM     65  C   UNL A   1      43.638  34.525  33.024  1.00  0.00     0.020 A 
ATOM     66  C   UNL A   1      44.088  35.524  32.160  1.00  0.00     0.054 A 
BRANCH  66  67
ATOM     67  S   UNL A   1      44.222  37.242  32.724  1.00  0.00     0.124 S 
ATOM     68  O   UNL A   1      45.560  37.262  33.310  1.00  0.00    -0.237 OA
ATOM     69  O   UNL A   1      44.066  37.999  31.485  1.00  0.00    -0.237 OA
ATOM     70  O   UNL A   1      43.124  37.380  33.678  1.00  0.00    -0.744 OA
ENDBRANCH  66  67
ENDBRANCH  47  61
BRANCH  48  71
ATOM     71  C   UNL A   1      42.651  23.594  27.732  1.00  0.00    -0.014 A 
ATOM     72  C   UNL A   1      42.893  23.340  26.369  1.00  0.00     0.010 A 
ATOM     73  C   UNL A   1      42.254  22.531  28.563  1.00  0.00     0.010 A 
ATOM     74  C   UNL A   1      42.715  22.057  25.844  1.00  0.00     0.020 A 
ATOM     75  C   UNL A   1      42.105  21.239  28.048  1.00  0.00     0.020 A 
ATOM     76  C   UNL A   1      42.323  21.014  26.688  1.00  0.00     0.054 A 
BRANCH  76  77
ATOM     77  S   UNL A   1      42.138  19.348  25.991  1.00  0.00     0.124 S 
ATOM     78  O   UNL A   1      40.698  19.270  25.770  1.00  0.00    -0.237 OA
ATOM     79  O   UNL A   1      42.963  19.416  24.787  1.00  0.00    -0.237 OA
ATOM     80  O   UNL A   1      42.659  18.479  27.044  1.00  0.00    -0.744 OA
ENDBRANCH  76  77
ENDBRANCH  48  71
BRANCH  60  81
ATOM     81  C   UNL A   1      48.078  27.085  30.400  1.00  0.00    -0.014 A 
ATOM     82  C   UNL A   1      49.112  27.340  29.484  1.00  0.00     0.010 A 
ATOM     83  C   UNL A   1      48.393  26.537  31.658  1.00  0.00     0.010 A 
ATOM     84  C   UNL A   1      50.435  27.039  29.814  1.00  0.00     0.020 A 
ATOM     85  C   UNL A   1      49.717  26.260  32.002  1.00  0.00     0.020 A 
ATOM     86  C   UNL A   1      50.730  26.505  31.074  1.00  0.00     0.054 A 
BRANCH  86  87
ATOM     87  S   UNL A   1      52.463  26.191  31.504  1.00  0.00     0.124 S 
ATOM     88  O   UNL A   1      52.759  27.302  32.405  1.00  0.00    -0.237 OA
ATOM     89  O   UNL A   1      52.405  24.872  32.129  1.00  0.00    -0.237 OA
ATOM     90  O   UNL A   1      53.154  26.234  30.216  1.00  0.00    -0.744 OA
ENDBRANCH  86  87
ENDBRANCH  60  81
ENDBRANCH  34  35
ENDBRANCH  26  29
ENDBRANCH  24  25
ENDBRANCH   1  24
TORSDOF 15
ENDMDL
