MODEL 1
REMARK VINA RESULT:     -11.1      0.000      0.000
REMARK SMILES COc1ccccc1[C@H](C)NC(=O)[C@@H]1CC=CC[C@@H]1C(=O)NCCCNC(=O)c1ccc(-c2c3nc(c(-c4ccc(S(=O)(=O)[O-])cc4)c4ccc([nH]4)c(-c4ccc(S(=O)(=O)[O-])cc4)c4nc(c(-c5ccc(S(=O)(=O)[O-])cc5)c5ccc2[nH]5)C=C4)C=C3)cc1
REMARK SMILES IDX 23 1 22 2 20 3 21 4 19 6 14 7 15 8 16 9 18 10 17 11 12 12
REMARK SMILES IDX 11 13 13 15 9 16 10 17 8 18 3 19 4 20 5 21 7 22 6 23 2 24
REMARK SMILES IDX 1 25 24 26 25 27 26 28 27 29 28 31 29 32 30 33 88 34 31 35
REMARK SMILES IDX 87 36 32 37 33 38 34 39 81 40 35 41 86 42 80 43 82 44 36 45
REMARK SMILES IDX 85 46 79 47 78 48 37 50 67 51 48 52 66 53 49 54 52 55 65 56
REMARK SMILES IDX 83 57 50 58 51 59 64 61 84 62 53 63 38 64 39 65 47 66 40 67
REMARK SMILES IDX 46 68 41 69 42 70 43 71 44 72 45 73 68 74 69 75 77 76 70 77
REMARK SMILES IDX 76 78 71 79 72 80 73 81 74 82 75 83 54 84 55 85 63 86 56 87
REMARK SMILES IDX 62 88 57 89 58 90 59 91 60 92 61 93
REMARK H PARENT 22 5 11 14 26 30 82 49 52 60
REMARK Flexibility Score: inf
ROOT
ATOM      1  C   UNL A   1      33.970  26.808  26.049  1.00  0.00     0.117 C 
ENDROOT
BRANCH   1   2
ATOM      2  N   UNL A   1      33.186  25.587  26.144  1.00  0.00    -0.356 N 
ATOM      3  C   UNL A   1      33.386  24.357  25.583  1.00  0.00     0.224 C 
ATOM      4  O   UNL A   1      32.593  23.468  25.891  1.00  0.00    -0.275 OA
ATOM      5  H   UNL A   1      32.378  25.658  26.703  1.00  0.00     0.163 HD
BRANCH   3   6
ATOM      6  C   UNL A   1      34.502  24.143  24.561  1.00  0.00     0.095 C 
ATOM      7  C   UNL A   1      34.228  22.955  23.611  1.00  0.00     0.095 C 
ATOM      8  C   UNL A   1      34.322  21.604  24.379  1.00  0.00     0.041 C 
ATOM      9  C   UNL A   1      35.460  21.509  25.345  1.00  0.00    -0.030 C 
ATOM     10  C   UNL A   1      35.896  23.950  25.215  1.00  0.00     0.041 C 
ATOM     11  C   UNL A   1      36.192  22.568  25.703  1.00  0.00    -0.030 C 
BRANCH   7  12
ATOM     12  C   UNL A   1      32.980  22.882  22.717  1.00  0.00     0.224 C 
ATOM     13  N   UNL A   1      32.719  23.712  21.685  1.00  0.00    -0.349 N 
ATOM     14  H   UNL A   1      32.305  23.244  20.923  1.00  0.00     0.164 HD
ATOM     15  O   UNL A   1      32.247  21.881  22.754  1.00  0.00    -0.275 OA
BRANCH  13  16
ATOM     16  C   UNL A   1      32.903  25.131  21.430  1.00  0.00     0.113 C 
ATOM     17  C   UNL A   1      32.579  25.445  19.966  1.00  0.00     0.036 C 
BRANCH  16  18
ATOM     18  C   UNL A   1      32.011  25.960  22.347  1.00  0.00     0.016 A 
ATOM     19  C   UNL A   1      32.164  27.352  22.506  1.00  0.00     0.124 A 
ATOM     20  C   UNL A   1      31.358  28.070  23.394  1.00  0.00     0.047 A 
ATOM     21  C   UNL A   1      30.375  27.410  24.129  1.00  0.00     0.004 A 
ATOM     22  C   UNL A   1      31.016  25.315  23.102  1.00  0.00     0.010 A 
ATOM     23  C   UNL A   1      30.204  26.035  23.983  1.00  0.00     0.001 A 
BRANCH  19  24
ATOM     24  O   UNL A   1      33.190  27.990  21.852  1.00  0.00    -0.496 OA
ATOM     25  C   UNL A   1      34.177  28.487  22.761  1.00  0.00     0.278 C 
ENDBRANCH  19  24
ENDBRANCH  16  18
ENDBRANCH  13  16
ENDBRANCH   7  12
ENDBRANCH   3   6
ENDBRANCH   1   2
BRANCH   1  26
ATOM     26  C   UNL A   1      33.284  28.033  26.634  1.00  0.00     0.042 C 
BRANCH  26  27
ATOM     27  C   UNL A   1      33.724  29.369  26.048  1.00  0.00     0.118 C 
BRANCH  27  28
ATOM     28  N   UNL A   1      33.574  30.493  26.963  1.00  0.00    -0.352 N 
ATOM     29  C   UNL A   1      34.382  30.928  27.990  1.00  0.00     0.251 C 
ATOM     30  H   UNL A   1      32.759  31.029  26.825  1.00  0.00     0.163 HD
ATOM     31  O   UNL A   1      33.996  31.844  28.713  1.00  0.00    -0.269 OA
BRANCH  29  32
ATOM     32  C   UNL A   1      35.683  30.275  28.261  1.00  0.00     0.039 A 
ATOM     33  C   UNL A   1      36.648  30.247  27.249  1.00  0.00     0.014 A 
ATOM     34  C   UNL A   1      35.968  29.708  29.504  1.00  0.00     0.014 A 
ATOM     35  C   UNL A   1      37.931  29.762  27.523  1.00  0.00     0.010 A 
ATOM     36  C   UNL A   1      37.269  29.313  29.804  1.00  0.00     0.010 A 
ATOM     37  C   UNL A   1      38.272  29.355  28.822  1.00  0.00    -0.014 A 
BRANCH  37  38
ATOM     38  C   UNL A   1      39.671  29.016  29.194  1.00  0.00     0.031 A 
ATOM     39  C   UNL A   1      40.571  30.052  29.813  1.00  0.00     0.074 A 
ATOM     40  C   UNL A   1      40.166  27.800  28.879  1.00  0.00     0.049 A 
ATOM     41  N   UNL A   1      41.848  29.977  30.086  1.00  0.00    -0.248 NA
ATOM     42  C   UNL A   1      39.961  31.351  30.141  1.00  0.00     0.031 C 
ATOM     43  C   UNL A   1      39.415  26.718  28.235  1.00  0.00     0.029 A 
ATOM     44  N   UNL A   1      41.424  27.274  29.040  1.00  0.00    -0.354 N 
ATOM     45  C   UNL A   1      42.199  31.220  30.599  1.00  0.00     0.074 A 
ATOM     46  C   UNL A   1      41.012  32.045  30.556  1.00  0.00     0.031 C 
ATOM     47  C   UNL A   1      40.220  25.656  28.074  1.00  0.00     0.029 A 
ATOM     48  C   UNL A   1      41.556  25.994  28.552  1.00  0.00     0.049 A 
ATOM     49  H   UNL A   1      42.164  27.767  29.464  1.00  0.00     0.167 HD
ATOM     50  C   UNL A   1      43.397  31.633  31.079  1.00  0.00     0.031 A 
ATOM     51  C   UNL A   1      42.632  25.186  28.476  1.00  0.00     0.031 A 
ATOM     52  C   UNL A   1      44.575  30.808  31.132  1.00  0.00     0.049 A 
ATOM     53  C   UNL A   1      43.956  25.674  28.993  1.00  0.00     0.074 A 
ATOM     54  C   UNL A   1      45.816  31.116  31.661  1.00  0.00     0.029 A 
ATOM     55  N   UNL A   1      44.661  29.515  30.637  1.00  0.00    -0.354 N 
ATOM     56  N   UNL A   1      44.250  26.831  29.538  1.00  0.00    -0.248 NA
ATOM     57  C   UNL A   1      45.095  24.751  28.885  1.00  0.00     0.031 C 
ATOM     58  C   UNL A   1      46.668  30.029  31.437  1.00  0.00     0.029 A 
ATOM     59  C   UNL A   1      45.942  29.024  30.818  1.00  0.00     0.049 A 
ATOM     60  H   UNL A   1      43.920  29.021  30.218  1.00  0.00     0.167 HD
ATOM     61  C   UNL A   1      45.604  26.769  29.848  1.00  0.00     0.074 A 
ATOM     62  C   UNL A   1      46.066  25.455  29.450  1.00  0.00     0.031 C 
ATOM     63  C   UNL A   1      46.392  27.717  30.409  1.00  0.00     0.031 A 
BRANCH  50  64
ATOM     64  C   UNL A   1      43.494  33.048  31.584  1.00  0.00    -0.014 A 
ATOM     65  C   UNL A   1      43.180  33.363  32.919  1.00  0.00     0.010 A 
ATOM     66  C   UNL A   1      43.943  34.070  30.729  1.00  0.00     0.010 A 
ATOM     67  C   UNL A   1      43.271  34.680  33.376  1.00  0.00     0.020 A 
ATOM     68  C   UNL A   1      44.063  35.384  31.190  1.00  0.00     0.020 A 
ATOM     69  C   UNL A   1      43.709  35.683  32.507  1.00  0.00     0.054 A 
BRANCH  69  70
ATOM     70  S   UNL A   1      43.834  37.381  33.133  1.00  0.00     0.124 S 
ATOM     71  O   UNL A   1      45.162  37.379  33.741  1.00  0.00    -0.237 OA
ATOM     72  O   UNL A   1      43.702  38.181  31.918  1.00  0.00    -0.237 OA
ATOM     73  O   UNL A   1      42.721  37.489  34.071  1.00  0.00    -0.744 OA
ENDBRANCH  69  70
ENDBRANCH  50  64
BRANCH  51  74
ATOM     74  C   UNL A   1      42.500  23.831  27.872  1.00  0.00    -0.014 A 
ATOM     75  C   UNL A   1      42.782  23.626  26.511  1.00  0.00     0.010 A 
ATOM     76  C   UNL A   1      42.114  22.735  28.665  1.00  0.00     0.010 A 
ATOM     77  C   UNL A   1      42.668  22.350  25.949  1.00  0.00     0.020 A 
ATOM     78  C   UNL A   1      42.023  21.454  28.113  1.00  0.00     0.020 A 
ATOM     79  C   UNL A   1      42.292  21.272  26.755  1.00  0.00     0.054 A 
BRANCH  79  80
ATOM     80  S   UNL A   1      42.213  19.614  26.021  1.00  0.00     0.124 S 
ATOM     81  O   UNL A   1      42.653  18.771  27.128  1.00  0.00    -0.237 OA
ATOM     82  O   UNL A   1      40.803  19.497  25.657  1.00  0.00    -0.237 OA
ATOM     83  O   UNL A   1      43.134  19.698  24.890  1.00  0.00    -0.744 OA
ENDBRANCH  79  80
ENDBRANCH  51  74
BRANCH  63  84
ATOM     84  C   UNL A   1      47.840  27.375  30.634  1.00  0.00    -0.014 A 
ATOM     85  C   UNL A   1      48.219  26.473  31.643  1.00  0.00     0.010 A 
ATOM     86  C   UNL A   1      48.823  27.903  29.778  1.00  0.00     0.010 A 
ATOM     87  C   UNL A   1      49.560  26.115  31.802  1.00  0.00     0.020 A 
ATOM     88  C   UNL A   1      50.162  27.528  29.918  1.00  0.00     0.020 A 
ATOM     89  C   UNL A   1      50.523  26.641  30.935  1.00  0.00     0.054 A 
BRANCH  89  90
ATOM     90  S   UNL A   1      52.246  26.105  31.119  1.00  0.00     0.124 S 
ATOM     91  O   UNL A   1      52.664  25.944  29.730  1.00  0.00    -0.237 OA
ATOM     92  O   UNL A   1      52.854  27.223  31.834  1.00  0.00    -0.237 OA
ATOM     93  O   UNL A   1      52.142  24.865  31.885  1.00  0.00    -0.744 OA
ENDBRANCH  89  90
ENDBRANCH  63  84
ENDBRANCH  37  38
ENDBRANCH  29  32
ENDBRANCH  27  28
ENDBRANCH  26  27
ENDBRANCH   1  26
TORSDOF 17
ENDMDL
MODEL 2
REMARK VINA RESULT:     -10.3      3.923      8.704
REMARK SMILES COc1ccccc1[C@H](C)NC(=O)[C@@H]1CC=CC[C@@H]1C(=O)NCCCNC(=O)c1ccc(-c2c3nc(c(-c4ccc(S(=O)(=O)[O-])cc4)c4ccc([nH]4)c(-c4ccc(S(=O)(=O)[O-])cc4)c4nc(c(-c5ccc(S(=O)(=O)[O-])cc5)c5ccc2[nH]5)C=C4)C=C3)cc1
REMARK SMILES IDX 23 1 22 2 20 3 21 4 19 6 14 7 15 8 16 9 18 10 17 11 12 12
REMARK SMILES IDX 11 13 13 15 9 16 10 17 8 18 3 19 4 20 5 21 7 22 6 23 2 24
REMARK SMILES IDX 1 25 24 26 25 27 26 28 27 29 28 31 29 32 30 33 88 34 31 35
REMARK SMILES IDX 87 36 32 37 33 38 34 39 81 40 35 41 86 42 80 43 82 44 36 45
REMARK SMILES IDX 85 46 79 47 78 48 37 50 67 51 48 52 66 53 49 54 52 55 65 56
REMARK SMILES IDX 83 57 50 58 51 59 64 61 84 62 53 63 38 64 39 65 47 66 40 67
REMARK SMILES IDX 46 68 41 69 42 70 43 71 44 72 45 73 68 74 69 75 77 76 70 77
REMARK SMILES IDX 76 78 71 79 72 80 73 81 74 82 75 83 54 84 55 85 63 86 56 87
REMARK SMILES IDX 62 88 57 89 58 90 59 91 60 92 61 93
REMARK H PARENT 22 5 11 14 26 30 82 49 52 60
REMARK Flexibility Score: inf
ROOT
ATOM      1  C   UNL A   1      35.526  32.212  32.227  1.00  0.00     0.117 C 
ENDROOT
BRANCH   1   2
ATOM      2  N   UNL A   1      36.764  32.974  32.254  1.00  0.00    -0.356 N 
ATOM      3  C   UNL A   1      37.942  32.732  32.902  1.00  0.00     0.224 C 
ATOM      4  O   UNL A   1      38.866  33.516  32.692  1.00  0.00    -0.275 OA
ATOM      5  H   UNL A   1      36.751  33.801  31.718  1.00  0.00     0.163 HD
BRANCH   3   6
ATOM      6  C   UNL A   1      38.055  31.580  33.901  1.00  0.00     0.095 C 
ATOM      7  C   UNL A   1      38.321  32.059  35.345  1.00  0.00     0.095 C 
ATOM      8  C   UNL A   1      39.755  32.651  35.474  1.00  0.00     0.041 C 
ATOM      9  C   UNL A   1      40.819  31.876  34.762  1.00  0.00    -0.030 C 
ATOM     10  C   UNL A   1      39.141  30.542  33.509  1.00  0.00     0.041 C 
ATOM     11  C   UNL A   1      40.540  30.901  33.893  1.00  0.00    -0.030 C 
BRANCH   7  12
ATOM     12  C   UNL A   1      37.371  33.011  36.088  1.00  0.00     0.224 C 
ATOM     13  N   UNL A   1      37.670  33.669  37.229  1.00  0.00    -0.349 N 
ATOM     14  H   UNL A   1      37.302  34.582  37.244  1.00  0.00     0.164 HD
ATOM     15  O   UNL A   1      36.337  33.417  35.533  1.00  0.00    -0.275 OA
BRANCH  13  16
ATOM     16  C   UNL A   1      38.409  33.350  38.440  1.00  0.00     0.113 C 
ATOM     17  C   UNL A   1      39.043  34.620  39.015  1.00  0.00     0.036 C 
BRANCH  16  18
ATOM     18  C   UNL A   1      37.490  32.714  39.476  1.00  0.00     0.016 A 
ATOM     19  C   UNL A   1      37.976  32.032  40.610  1.00  0.00     0.124 A 
ATOM     20  C   UNL A   1      37.102  31.419  41.513  1.00  0.00     0.047 A 
ATOM     21  C   UNL A   1      35.726  31.490  41.303  1.00  0.00     0.004 A 
ATOM     22  C   UNL A   1      36.099  32.768  39.284  1.00  0.00     0.010 A 
ATOM     23  C   UNL A   1      35.225  32.163  40.191  1.00  0.00     0.001 A 
BRANCH  19  24
ATOM     24  O   UNL A   1      39.332  31.883  40.771  1.00  0.00    -0.496 OA
ATOM     25  C   UNL A   1      39.720  31.949  42.146  1.00  0.00     0.278 C 
ENDBRANCH  19  24
ENDBRANCH  16  18
ENDBRANCH  13  16
ENDBRANCH   7  12
ENDBRANCH   3   6
ENDBRANCH   1   2
BRANCH   1  26
ATOM     26  C   UNL A   1      34.484  32.756  31.262  1.00  0.00     0.042 C 
BRANCH  26  27
ATOM     27  C   UNL A   1      34.924  32.840  29.806  1.00  0.00     0.118 C 
BRANCH  27  28
ATOM     28  N   UNL A   1      34.144  32.003  28.903  1.00  0.00    -0.352 N 
ATOM     29  C   UNL A   1      34.476  30.838  28.247  1.00  0.00     0.251 C 
ATOM     30  H   UNL A   1      33.229  32.325  28.733  1.00  0.00     0.163 HD
ATOM     31  O   UNL A   1      33.687  30.359  27.436  1.00  0.00    -0.269 OA
BRANCH  29  32
ATOM     32  C   UNL A   1      35.787  30.188  28.471  1.00  0.00     0.039 A 
ATOM     33  C   UNL A   1      36.700  30.127  27.413  1.00  0.00     0.014 A 
ATOM     34  C   UNL A   1      36.133  29.656  29.714  1.00  0.00     0.014 A 
ATOM     35  C   UNL A   1      37.994  29.645  27.636  1.00  0.00     0.010 A 
ATOM     36  C   UNL A   1      37.447  29.264  29.959  1.00  0.00     0.010 A 
ATOM     37  C   UNL A   1      38.398  29.273  28.928  1.00  0.00    -0.014 A 
BRANCH  37  38
ATOM     38  C   UNL A   1      39.814  28.939  29.239  1.00  0.00     0.031 A 
ATOM     39  C   UNL A   1      40.738  29.981  29.810  1.00  0.00     0.074 A 
ATOM     40  C   UNL A   1      40.296  27.723  28.909  1.00  0.00     0.049 A 
ATOM     41  N   UNL A   1      42.026  29.910  30.026  1.00  0.00    -0.248 NA
ATOM     42  C   UNL A   1      40.141  31.280  30.158  1.00  0.00     0.031 C 
ATOM     43  C   UNL A   1      39.520  26.635  28.306  1.00  0.00     0.029 A 
ATOM     44  N   UNL A   1      41.562  27.200  29.016  1.00  0.00    -0.354 N 
ATOM     45  C   UNL A   1      42.398  31.157  30.515  1.00  0.00     0.074 A 
ATOM     46  C   UNL A   1      41.208  31.979  30.521  1.00  0.00     0.031 C 
ATOM     47  C   UNL A   1      40.319  25.574  28.115  1.00  0.00     0.029 A 
ATOM     48  C   UNL A   1      41.675  25.917  28.531  1.00  0.00     0.049 A 
ATOM     49  H   UNL A   1      42.319  27.697  29.404  1.00  0.00     0.167 HD
ATOM     50  C   UNL A   1      43.615  31.575  30.938  1.00  0.00     0.031 A 
ATOM     51  C   UNL A   1      42.748  25.110  28.412  1.00  0.00     0.031 A 
ATOM     52  C   UNL A   1      44.796  30.752  30.943  1.00  0.00     0.049 A 
ATOM     53  C   UNL A   1      44.093  25.605  28.866  1.00  0.00     0.074 A 
ATOM     54  C   UNL A   1      46.059  31.066  31.415  1.00  0.00     0.029 A 
ATOM     55  N   UNL A   1      44.862  29.457  30.453  1.00  0.00    -0.354 N 
ATOM     56  N   UNL A   1      44.408  26.765  29.390  1.00  0.00    -0.248 NA
ATOM     57  C   UNL A   1      45.227  24.682  28.713  1.00  0.00     0.031 C 
ATOM     58  C   UNL A   1      46.902  29.979  31.159  1.00  0.00     0.029 A 
ATOM     59  C   UNL A   1      46.152  28.969  30.579  1.00  0.00     0.049 A 
ATOM     60  H   UNL A   1      44.104  28.958  30.071  1.00  0.00     0.167 HD
ATOM     61  C   UNL A   1      45.775  26.707  29.639  1.00  0.00     0.074 A 
ATOM     62  C   UNL A   1      46.221  25.392  29.229  1.00  0.00     0.031 C 
ATOM     63  C   UNL A   1      46.585  27.661  30.159  1.00  0.00     0.031 A 
BRANCH  50  64
ATOM     64  C   UNL A   1      43.731  32.993  31.430  1.00  0.00    -0.014 A 
ATOM     65  C   UNL A   1      43.959  34.054  30.534  1.00  0.00     0.010 A 
ATOM     66  C   UNL A   1      43.570  33.278  32.798  1.00  0.00     0.010 A 
ATOM     67  C   UNL A   1      44.068  35.366  31.002  1.00  0.00     0.020 A 
ATOM     68  C   UNL A   1      43.649  34.592  33.267  1.00  0.00     0.020 A 
ATOM     69  C   UNL A   1      43.916  35.626  32.367  1.00  0.00     0.054 A 
BRANCH  69  70
ATOM     70  S   UNL A   1      44.044  37.341  32.944  1.00  0.00     0.124 S 
ATOM     71  O   UNL A   1      45.354  37.342  33.591  1.00  0.00    -0.237 OA
ATOM     72  O   UNL A   1      43.956  38.104  31.702  1.00  0.00    -0.237 OA
ATOM     73  O   UNL A   1      42.905  37.490  33.846  1.00  0.00    -0.744 OA
ENDBRANCH  69  70
ENDBRANCH  50  64
BRANCH  51  74
ATOM     74  C   UNL A   1      42.592  23.752  27.823  1.00  0.00    -0.014 A 
ATOM     75  C   UNL A   1      42.834  23.534  26.456  1.00  0.00     0.010 A 
ATOM     76  C   UNL A   1      42.222  22.663  28.635  1.00  0.00     0.010 A 
ATOM     77  C   UNL A   1      42.697  22.255  25.908  1.00  0.00     0.020 A 
ATOM     78  C   UNL A   1      42.110  21.379  28.096  1.00  0.00     0.020 A 
ATOM     79  C   UNL A   1      42.339  21.185  26.733  1.00  0.00     0.054 A 
BRANCH  79  80
ATOM     80  S   UNL A   1      42.230  19.521  26.014  1.00  0.00     0.124 S 
ATOM     81  O   UNL A   1      40.818  19.439  25.657  1.00  0.00    -0.237 OA
ATOM     82  O   UNL A   1      43.165  19.599  24.895  1.00  0.00    -0.237 OA
ATOM     83  O   UNL A   1      42.653  18.650  27.108  1.00  0.00    -0.744 OA
ENDBRANCH  79  80
ENDBRANCH  51  74
BRANCH  63  84
ATOM     84  C   UNL A   1      48.042  27.323  30.320  1.00  0.00    -0.014 A 
ATOM     85  C   UNL A   1      48.982  27.698  29.345  1.00  0.00     0.010 A 
ATOM     86  C   UNL A   1      48.486  26.690  31.496  1.00  0.00     0.010 A 
ATOM     87  C   UNL A   1      50.341  27.433  29.536  1.00  0.00     0.020 A 
ATOM     88  C   UNL A   1      49.846  26.446  31.702  1.00  0.00     0.020 A 
ATOM     89  C   UNL A   1      50.765  26.813  30.716  1.00  0.00     0.054 A 
BRANCH  89  90
ATOM     90  S   UNL A   1      52.541  26.546  30.968  1.00  0.00     0.124 S 
ATOM     91  O   UNL A   1      52.549  25.481  31.967  1.00  0.00    -0.237 OA
ATOM     92  O   UNL A   1      53.000  26.162  29.636  1.00  0.00    -0.237 OA
ATOM     93  O   UNL A   1      53.023  27.843  31.437  1.00  0.00    -0.744 OA
ENDBRANCH  89  90
ENDBRANCH  63  84
ENDBRANCH  37  38
ENDBRANCH  29  32
ENDBRANCH  27  28
ENDBRANCH  26  27
ENDBRANCH   1  26
TORSDOF 17
ENDMDL
MODEL 3
REMARK VINA RESULT:     -10.3      4.210      9.721
REMARK SMILES COc1ccccc1[C@H](C)NC(=O)[C@@H]1CC=CC[C@@H]1C(=O)NCCCNC(=O)c1ccc(-c2c3nc(c(-c4ccc(S(=O)(=O)[O-])cc4)c4ccc([nH]4)c(-c4ccc(S(=O)(=O)[O-])cc4)c4nc(c(-c5ccc(S(=O)(=O)[O-])cc5)c5ccc2[nH]5)C=C4)C=C3)cc1
REMARK SMILES IDX 23 1 22 2 20 3 21 4 19 6 14 7 15 8 16 9 18 10 17 11 12 12
REMARK SMILES IDX 11 13 13 15 9 16 10 17 8 18 3 19 4 20 5 21 7 22 6 23 2 24
REMARK SMILES IDX 1 25 24 26 25 27 26 28 27 29 28 31 29 32 30 33 88 34 31 35
REMARK SMILES IDX 87 36 32 37 33 38 34 39 81 40 35 41 86 42 80 43 82 44 36 45
REMARK SMILES IDX 85 46 79 47 78 48 37 50 67 51 48 52 66 53 49 54 52 55 65 56
REMARK SMILES IDX 83 57 50 58 51 59 64 61 84 62 53 63 38 64 39 65 47 66 40 67
REMARK SMILES IDX 46 68 41 69 42 70 43 71 44 72 45 73 68 74 69 75 77 76 70 77
REMARK SMILES IDX 76 78 71 79 72 80 73 81 74 82 75 83 54 84 55 85 63 86 56 87
REMARK SMILES IDX 62 88 57 89 58 90 59 91 60 92 61 93
REMARK H PARENT 22 5 11 14 26 30 82 49 52 60
REMARK Flexibility Score: inf
ROOT
ATOM      1  C   UNL A   1      37.625  22.164  25.676  1.00  0.00     0.117 C 
ENDROOT
BRANCH   1   2
ATOM      2  N   UNL A   1      36.372  22.138  26.414  1.00  0.00    -0.356 N 
ATOM      3  C   UNL A   1      35.160  21.596  26.089  1.00  0.00     0.224 C 
ATOM      4  O   UNL A   1      34.275  21.658  26.941  1.00  0.00    -0.275 OA
ATOM      5  H   UNL A   1      36.401  22.584  27.292  1.00  0.00     0.163 HD
BRANCH   3   6
ATOM      6  C   UNL A   1      34.918  21.020  24.694  1.00  0.00     0.095 C 
ATOM      7  C   UNL A   1      33.849  21.801  23.897  1.00  0.00     0.095 C 
ATOM      8  C   UNL A   1      32.435  21.584  24.513  1.00  0.00     0.041 C 
ATOM      9  C   UNL A   1      32.142  20.176  24.929  1.00  0.00    -0.030 C 
ATOM     10  C   UNL A   1      34.527  19.518  24.717  1.00  0.00     0.041 C 
ATOM     11  C   UNL A   1      33.086  19.233  24.994  1.00  0.00    -0.030 C 
BRANCH   7  12
ATOM     12  C   UNL A   1      33.981  23.300  23.587  1.00  0.00     0.224 C 
ATOM     13  N   UNL A   1      33.422  24.292  24.312  1.00  0.00    -0.349 N 
ATOM     14  H   UNL A   1      34.011  25.078  24.390  1.00  0.00     0.164 HD
ATOM     15  O   UNL A   1      34.826  23.694  22.768  1.00  0.00    -0.275 OA
BRANCH  13  16
ATOM     16  C   UNL A   1      32.158  24.477  25.007  1.00  0.00     0.113 C 
ATOM     17  C   UNL A   1      32.409  24.670  26.505  1.00  0.00     0.036 C 
BRANCH  16  18
ATOM     18  C   UNL A   1      31.410  25.681  24.446  1.00  0.00     0.016 A 
ATOM     19  C   UNL A   1      32.054  26.890  24.112  1.00  0.00     0.124 A 
ATOM     20  C   UNL A   1      31.327  27.989  23.646  1.00  0.00     0.047 A 
ATOM     21  C   UNL A   1      29.945  27.894  23.493  1.00  0.00     0.004 A 
ATOM     22  C   UNL A   1      30.016  25.609  24.288  1.00  0.00     0.010 A 
ATOM     23  C   UNL A   1      29.290  26.706  23.814  1.00  0.00     0.001 A 
BRANCH  19  24
ATOM     24  O   UNL A   1      33.401  27.017  24.347  1.00  0.00    -0.496 OA
ATOM     25  C   UNL A   1      33.681  28.011  25.337  1.00  0.00     0.278 C 
ENDBRANCH  19  24
ENDBRANCH  16  18
ENDBRANCH  13  16
ENDBRANCH   7  12
ENDBRANCH   3   6
ENDBRANCH   1   2
BRANCH   1  26
ATOM     26  C   UNL A   1      38.498  23.372  25.978  1.00  0.00     0.042 C 
BRANCH  26  27
ATOM     27  C   UNL A   1      39.695  23.102  26.881  1.00  0.00     0.118 C 
BRANCH  27  28
ATOM     28  N   UNL A   1      40.981  23.370  26.251  1.00  0.00    -0.352 N 
ATOM     29  C   UNL A   1      41.817  24.461  26.344  1.00  0.00     0.251 C 
ATOM     30  H   UNL A   1      41.306  22.652  25.660  1.00  0.00     0.163 HD
ATOM     31  O   UNL A   1      42.813  24.520  25.625  1.00  0.00    -0.269 OA
BRANCH  29  32
ATOM     32  C   UNL A   1      41.504  25.581  27.261  1.00  0.00     0.039 A 
ATOM     33  C   UNL A   1      40.530  25.394  28.247  1.00  0.00     0.014 A 
ATOM     34  C   UNL A   1      42.171  26.803  27.171  1.00  0.00     0.014 A 
ATOM     35  C   UNL A   1      40.316  26.383  29.211  1.00  0.00     0.010 A 
ATOM     36  C   UNL A   1      42.025  27.748  28.183  1.00  0.00     0.010 A 
ATOM     37  C   UNL A   1      41.110  27.541  29.227  1.00  0.00    -0.014 A 
BRANCH  37  38
ATOM     38  C   UNL A   1      41.041  28.522  30.342  1.00  0.00     0.031 A 
ATOM     39  C   UNL A   1      41.945  28.385  31.538  1.00  0.00     0.074 A 
ATOM     40  C   UNL A   1      40.091  29.480  30.326  1.00  0.00     0.049 A 
ATOM     41  N   UNL A   1      41.942  29.066  32.655  1.00  0.00    -0.248 NA
ATOM     42  C   UNL A   1      42.966  27.326  31.482  1.00  0.00     0.031 C 
ATOM     43  C   UNL A   1      39.120  29.696  29.249  1.00  0.00     0.029 A 
ATOM     44  N   UNL A   1      39.771  30.443  31.252  1.00  0.00    -0.354 N 
ATOM     45  C   UNL A   1      42.943  28.508  33.442  1.00  0.00     0.074 A 
ATOM     46  C   UNL A   1      43.502  27.404  32.692  1.00  0.00     0.031 C 
ATOM     47  C   UNL A   1      38.329  30.732  29.567  1.00  0.00     0.029 A 
ATOM     48  C   UNL A   1      38.698  31.225  30.890  1.00  0.00     0.049 A 
ATOM     49  H   UNL A   1      40.263  30.562  32.097  1.00  0.00     0.167 HD
ATOM     50  C   UNL A   1      43.372  28.891  34.668  1.00  0.00     0.031 A 
ATOM     51  C   UNL A   1      38.064  32.213  31.552  1.00  0.00     0.031 A 
ATOM     52  C   UNL A   1      42.824  29.997  35.408  1.00  0.00     0.049 A 
ATOM     53  C   UNL A   1      38.542  32.604  32.922  1.00  0.00     0.074 A 
ATOM     54  C   UNL A   1      43.236  30.503  36.629  1.00  0.00     0.029 A 
ATOM     55  N   UNL A   1      41.746  30.767  34.999  1.00  0.00    -0.354 N 
ATOM     56  N   UNL A   1      39.536  32.108  33.619  1.00  0.00    -0.248 NA
ATOM     57  C   UNL A   1      37.813  33.688  33.597  1.00  0.00     0.031 C 
ATOM     58  C   UNL A   1      42.372  31.544  36.984  1.00  0.00     0.029 A 
ATOM     59  C   UNL A   1      41.457  31.722  35.959  1.00  0.00     0.049 A 
ATOM     60  H   UNL A   1      41.257  30.652  34.153  1.00  0.00     0.167 HD
ATOM     61  C   UNL A   1      39.560  32.827  34.809  1.00  0.00     0.074 A 
ATOM     62  C   UNL A   1      38.495  33.805  34.728  1.00  0.00     0.031 C 
ATOM     63  C   UNL A   1      40.388  32.685  35.871  1.00  0.00     0.031 A 
BRANCH  50  64
ATOM     64  C   UNL A   1      44.492  28.101  35.292  1.00  0.00    -0.014 A 
ATOM     65  C   UNL A   1      45.837  28.451  35.070  1.00  0.00     0.010 A 
ATOM     66  C   UNL A   1      44.200  27.020  36.144  1.00  0.00     0.010 A 
ATOM     67  C   UNL A   1      46.867  27.709  35.652  1.00  0.00     0.020 A 
ATOM     68  C   UNL A   1      45.228  26.293  36.751  1.00  0.00     0.020 A 
ATOM     69  C   UNL A   1      46.556  26.632  36.486  1.00  0.00     0.054 A 
BRANCH  69  70
ATOM     70  S   UNL A   1      47.915  25.698  37.242  1.00  0.00     0.124 S 
ATOM     71  O   UNL A   1      48.949  26.721  37.366  1.00  0.00    -0.237 OA
ATOM     72  O   UNL A   1      47.329  25.242  38.500  1.00  0.00    -0.237 OA
ATOM     73  O   UNL A   1      48.195  24.645  36.270  1.00  0.00    -0.744 OA
ENDBRANCH  69  70
ENDBRANCH  50  64
BRANCH  51  74
ATOM     74  C   UNL A   1      36.895  32.892  30.928  1.00  0.00    -0.014 A 
ATOM     75  C   UNL A   1      37.085  33.916  29.984  1.00  0.00     0.010 A 
ATOM     76  C   UNL A   1      35.585  32.500  31.259  1.00  0.00     0.010 A 
ATOM     77  C   UNL A   1      35.985  34.545  29.392  1.00  0.00     0.020 A 
ATOM     78  C   UNL A   1      34.484  33.108  30.650  1.00  0.00     0.020 A 
ATOM     79  C   UNL A   1      34.692  34.134  29.726  1.00  0.00     0.054 A 
BRANCH  79  80
ATOM     80  S   UNL A   1      33.280  34.919  28.898  1.00  0.00     0.124 S 
ATOM     81  O   UNL A   1      33.902  36.087  28.282  1.00  0.00    -0.237 OA
ATOM     82  O   UNL A   1      32.836  33.877  27.976  1.00  0.00    -0.237 OA
ATOM     83  O   UNL A   1      32.357  35.203  29.994  1.00  0.00    -0.744 OA
ENDBRANCH  79  80
ENDBRANCH  51  74
BRANCH  63  84
ATOM     84  C   UNL A   1      40.185  33.611  37.040  1.00  0.00    -0.014 A 
ATOM     85  C   UNL A   1      39.332  33.258  38.100  1.00  0.00     0.010 A 
ATOM     86  C   UNL A   1      40.912  34.813  37.113  1.00  0.00     0.010 A 
ATOM     87  C   UNL A   1      39.200  34.098  39.209  1.00  0.00     0.020 A 
ATOM     88  C   UNL A   1      40.802  35.643  38.231  1.00  0.00     0.020 A 
ATOM     89  C   UNL A   1      39.939  35.283  39.270  1.00  0.00     0.054 A 
BRANCH  89  90
ATOM     90  S   UNL A   1      39.801  36.320  40.752  1.00  0.00     0.124 S 
ATOM     91  O   UNL A   1      39.827  35.327  41.821  1.00  0.00    -0.237 OA
ATOM     92  O   UNL A   1      40.982  37.173  40.657  1.00  0.00    -0.237 OA
ATOM     93  O   UNL A   1      38.525  37.010  40.574  1.00  0.00    -0.744 OA
ENDBRANCH  89  90
ENDBRANCH  63  84
ENDBRANCH  37  38
ENDBRANCH  29  32
ENDBRANCH  27  28
ENDBRANCH  26  27
ENDBRANCH   1  26
TORSDOF 17
ENDMDL
