MODEL 1
REMARK VINA RESULT:      -9.7      0.000      0.000
REMARK SMILES Cn1cc(CCC(=O)N2CCCC2)cc1C(=O)NCCCNC(=O)c1ccc(-c2c3nc(c(-c4ccc(S(=O)(=O)[O-])cc4)c4ccc([nH]4)c(-c4ccc(S(=O)(=O)[O-])cc4)c4nc(c(-c5ccc(S(=O)(=O)[O-])cc5)c5ccc2[nH]5)C=C4)C=C3)cc1
REMARK SMILES IDX 20 1 19 2 18 3 16 4 17 5 15 7 1 8 2 9 3 10 4 11 14 12 5 13
REMARK SMILES IDX 6 14 7 15 8 16 9 17 10 18 13 19 11 20 12 21 21 22 22 23
REMARK SMILES IDX 23 24 24 26 25 27 26 28 84 29 27 30 83 31 28 32 29 33 30 34
REMARK SMILES IDX 77 35 31 36 82 37 76 38 78 39 32 40 81 41 75 42 74 43 33 45
REMARK SMILES IDX 63 46 44 47 62 48 45 49 48 50 61 51 79 52 46 53 47 54 60 56
REMARK SMILES IDX 80 57 49 58 34 59 35 60 43 61 36 62 42 63 37 64 38 65 39 66
REMARK SMILES IDX 40 67 41 68 64 69 65 70 73 71 66 72 72 73 67 74 68 75 69 76
REMARK SMILES IDX 70 77 71 78 50 79 51 80 59 81 52 82 58 83 53 84 54 85 55 86
REMARK SMILES IDX 56 87 57 88
REMARK H PARENT 18 6 22 25 78 44 48 55
REMARK Flexibility Score: inf
ROOT
ATOM      1  C   UNL A   1      34.930  34.182  29.001  1.00  0.00     0.042 C 
ENDROOT
BRANCH   1   2
ATOM      2  C   UNL A   1      35.418  33.761  30.380  1.00  0.00     0.118 C 
BRANCH   2   3
ATOM      3  N   UNL A   1      34.369  33.581  31.361  1.00  0.00    -0.351 N 
ATOM      4  C   UNL A   1      34.404  33.051  32.627  1.00  0.00     0.267 C 
ATOM      5  O   UNL A   1      33.324  32.951  33.205  1.00  0.00    -0.268 OA
ATOM      6  H   UNL A   1      33.480  33.890  31.070  1.00  0.00     0.163 HD
BRANCH   4   7
ATOM      7  C   UNL A   1      35.638  32.554  33.212  1.00  0.00     0.107 A 
ATOM      8  C   UNL A   1      36.094  34.154  35.140  1.00  0.00     0.150 C 
ATOM      9  N   UNL A   1      36.359  33.007  34.299  1.00  0.00    -0.346 N 
ATOM     10  C   UNL A   1      37.473  32.224  34.488  1.00  0.00     0.089 A 
ATOM     11  C   UNL A   1      37.519  31.273  33.495  1.00  0.00    -0.029 A 
ATOM     12  C   UNL A   1      36.306  31.413  32.768  1.00  0.00     0.037 A 
BRANCH  11  13
ATOM     13  C   UNL A   1      38.644  30.330  33.223  1.00  0.00     0.047 C 
BRANCH  13  14
ATOM     14  C   UNL A   1      39.962  30.760  33.861  1.00  0.00     0.105 C 
BRANCH  14  15
ATOM     15  C   UNL A   1      40.437  29.895  35.021  1.00  0.00     0.222 C 
ATOM     16  O   UNL A   1      39.719  29.759  36.016  1.00  0.00    -0.275 OA
ATOM     17  N   UNL A   1      41.627  29.212  34.888  1.00  0.00    -0.343 N 
ATOM     18  C   UNL A   1      42.704  29.479  33.958  1.00  0.00     0.119 C 
ATOM     19  C   UNL A   1      41.990  28.125  35.786  1.00  0.00     0.119 C 
ATOM     20  C   UNL A   1      43.563  28.232  33.982  1.00  0.00     0.023 C 
ATOM     21  C   UNL A   1      43.433  27.780  35.430  1.00  0.00     0.023 C 
ENDBRANCH  14  15
ENDBRANCH  13  14
ENDBRANCH  11  13
ENDBRANCH   4   7
ENDBRANCH   2   3
ENDBRANCH   1   2
BRANCH   1  22
ATOM     22  C   UNL A   1      35.225  33.204  27.870  1.00  0.00     0.118 C 
BRANCH  22  23
ATOM     23  N   UNL A   1      34.281  32.097  27.780  1.00  0.00    -0.352 N 
ATOM     24  C   UNL A   1      34.470  30.734  27.847  1.00  0.00     0.251 C 
ATOM     25  H   UNL A   1      33.346  32.371  27.647  1.00  0.00     0.163 HD
ATOM     26  O   UNL A   1      33.517  29.992  27.621  1.00  0.00    -0.269 OA
BRANCH  24  27
ATOM     27  C   UNL A   1      35.801  30.154  28.147  1.00  0.00     0.039 A 
ATOM     28  C   UNL A   1      36.754  30.081  27.126  1.00  0.00     0.014 A 
ATOM     29  C   UNL A   1      36.118  29.672  29.417  1.00  0.00     0.014 A 
ATOM     30  C   UNL A   1      38.045  29.621  27.407  1.00  0.00     0.010 A 
ATOM     31  C   UNL A   1      37.430  29.321  29.721  1.00  0.00     0.010 A 
ATOM     32  C   UNL A   1      38.412  29.288  28.721  1.00  0.00    -0.014 A 
BRANCH  32  33
ATOM     33  C   UNL A   1      39.808  28.909  29.075  1.00  0.00     0.031 A 
ATOM     34  C   UNL A   1      40.727  29.913  29.721  1.00  0.00     0.074 A 
ATOM     35  C   UNL A   1      40.276  27.688  28.740  1.00  0.00     0.049 A 
ATOM     36  N   UNL A   1      41.996  29.796  30.022  1.00  0.00    -0.248 NA
ATOM     37  C   UNL A   1      40.157  31.232  30.042  1.00  0.00     0.031 C 
ATOM     38  C   UNL A   1      39.508  26.639  28.065  1.00  0.00     0.029 A 
ATOM     39  N   UNL A   1      41.517  27.125  28.913  1.00  0.00    -0.354 N 
ATOM     40  C   UNL A   1      42.378  31.029  30.540  1.00  0.00     0.074 A 
ATOM     41  C   UNL A   1      41.224  31.896  30.461  1.00  0.00     0.031 C 
ATOM     42  C   UNL A   1      40.281  25.552  27.914  1.00  0.00     0.029 A 
ATOM     43  C   UNL A   1      41.615  25.840  28.431  1.00  0.00     0.049 A 
ATOM     44  H   UNL A   1      42.267  27.598  29.341  1.00  0.00     0.167 HD
ATOM     45  C   UNL A   1      43.575  31.402  31.056  1.00  0.00     0.031 A 
ATOM     46  C   UNL A   1      42.658  24.988  28.401  1.00  0.00     0.031 A 
ATOM     47  C   UNL A   1      44.715  30.531  31.153  1.00  0.00     0.049 A 
ATOM     48  C   UNL A   1      43.977  25.423  28.980  1.00  0.00     0.074 A 
ATOM     49  C   UNL A   1      45.950  30.793  31.721  1.00  0.00     0.029 A 
ATOM     50  N   UNL A   1      44.765  29.232  30.670  1.00  0.00    -0.354 N 
ATOM     51  N   UNL A   1      44.296  26.571  29.528  1.00  0.00    -0.248 NA
ATOM     52  C   UNL A   1      45.073  24.444  28.945  1.00  0.00     0.031 C 
ATOM     53  C   UNL A   1      46.765  29.673  31.528  1.00  0.00     0.029 A 
ATOM     54  C   UNL A   1      46.017  28.689  30.901  1.00  0.00     0.049 A 
ATOM     55  H   UNL A   1      44.020  28.765  30.227  1.00  0.00     0.167 HD
ATOM     56  C   UNL A   1      45.621  26.442  29.931  1.00  0.00     0.074 A 
ATOM     57  C   UNL A   1      46.037  25.101  29.577  1.00  0.00     0.031 C 
ATOM     58  C   UNL A   1      46.419  27.352  30.542  1.00  0.00     0.031 A 
BRANCH  45  59
ATOM     59  C   UNL A   1      43.712  32.818  31.552  1.00  0.00    -0.014 A 
ATOM     60  C   UNL A   1      44.136  33.854  30.699  1.00  0.00     0.010 A 
ATOM     61  C   UNL A   1      43.370  33.127  32.883  1.00  0.00     0.010 A 
ATOM     62  C   UNL A   1      44.259  35.162  31.178  1.00  0.00     0.020 A 
ATOM     63  C   UNL A   1      43.460  34.440  33.356  1.00  0.00     0.020 A 
ATOM     64  C   UNL A   1      43.920  35.446  32.504  1.00  0.00     0.054 A 
BRANCH  64  65
ATOM     65  S   UNL A   1      44.063  37.157  33.087  1.00  0.00     0.124 S 
ATOM     66  O   UNL A   1      44.128  37.899  31.830  1.00  0.00    -0.237 OA
ATOM     67  O   UNL A   1      42.836  37.335  33.859  1.00  0.00    -0.237 OA
ATOM     68  O   UNL A   1      45.296  37.155  33.872  1.00  0.00    -0.744 OA
ENDBRANCH  64  65
ENDBRANCH  45  59
BRANCH  46  69
ATOM     69  C   UNL A   1      42.492  23.628  27.813  1.00  0.00    -0.014 A 
ATOM     70  C   UNL A   1      42.857  23.378  26.478  1.00  0.00     0.010 A 
ATOM     71  C   UNL A   1      41.986  22.571  28.592  1.00  0.00     0.010 A 
ATOM     72  C   UNL A   1      42.706  22.102  25.929  1.00  0.00     0.020 A 
ATOM     73  C   UNL A   1      41.863  21.286  28.055  1.00  0.00     0.020 A 
ATOM     74  C   UNL A   1      42.215  21.062  26.723  1.00  0.00     0.054 A 
BRANCH  74  75
ATOM     75  S   UNL A   1      42.088  19.400  26.006  1.00  0.00     0.124 S 
ATOM     76  O   UNL A   1      42.579  18.561  27.096  1.00  0.00    -0.237 OA
ATOM     77  O   UNL A   1      40.662  19.291  25.714  1.00  0.00    -0.237 OA
ATOM     78  O   UNL A   1      42.954  19.469  24.830  1.00  0.00    -0.744 OA
ENDBRANCH  74  75
ENDBRANCH  46  69
BRANCH  58  79
ATOM     79  C   UNL A   1      47.817  26.921  30.902  1.00  0.00    -0.014 A 
ATOM     80  C   UNL A   1      48.922  27.285  30.113  1.00  0.00     0.010 A 
ATOM     81  C   UNL A   1      48.031  26.189  32.085  1.00  0.00     0.010 A 
ATOM     82  C   UNL A   1      50.212  26.897  30.484  1.00  0.00     0.020 A 
ATOM     83  C   UNL A   1      49.322  25.827  32.475  1.00  0.00     0.020 A 
ATOM     84  C   UNL A   1      50.404  26.172  31.664  1.00  0.00     0.054 A 
BRANCH  84  85
ATOM     85  S   UNL A   1      52.093  25.720  32.145  1.00  0.00     0.124 S 
ATOM     86  O   UNL A   1      52.329  26.597  33.289  1.00  0.00    -0.237 OA
ATOM     87  O   UNL A   1      51.967  24.299  32.458  1.00  0.00    -0.237 OA
ATOM     88  O   UNL A   1      52.885  26.022  30.955  1.00  0.00    -0.744 OA
ENDBRANCH  84  85
ENDBRANCH  58  79
ENDBRANCH  32  33
ENDBRANCH  24  27
ENDBRANCH  22  23
ENDBRANCH   1  22
TORSDOF 16
ENDMDL
MODEL 2
REMARK VINA RESULT:      -9.6      3.517      6.443
REMARK SMILES Cn1cc(CCC(=O)N2CCCC2)cc1C(=O)NCCCNC(=O)c1ccc(-c2c3nc(c(-c4ccc(S(=O)(=O)[O-])cc4)c4ccc([nH]4)c(-c4ccc(S(=O)(=O)[O-])cc4)c4nc(c(-c5ccc(S(=O)(=O)[O-])cc5)c5ccc2[nH]5)C=C4)C=C3)cc1
REMARK SMILES IDX 20 1 19 2 18 3 16 4 17 5 15 7 1 8 2 9 3 10 4 11 14 12 5 13
REMARK SMILES IDX 6 14 7 15 8 16 9 17 10 18 13 19 11 20 12 21 21 22 22 23
REMARK SMILES IDX 23 24 24 26 25 27 26 28 84 29 27 30 83 31 28 32 29 33 30 34
REMARK SMILES IDX 77 35 31 36 82 37 76 38 78 39 32 40 81 41 75 42 74 43 33 45
REMARK SMILES IDX 63 46 44 47 62 48 45 49 48 50 61 51 79 52 46 53 47 54 60 56
REMARK SMILES IDX 80 57 49 58 34 59 35 60 43 61 36 62 42 63 37 64 38 65 39 66
REMARK SMILES IDX 40 67 41 68 64 69 65 70 73 71 66 72 72 73 67 74 68 75 69 76
REMARK SMILES IDX 70 77 71 78 50 79 51 80 59 81 52 82 58 83 53 84 54 85 55 86
REMARK SMILES IDX 56 87 57 88
REMARK H PARENT 18 6 22 25 78 44 48 55
REMARK Flexibility Score: inf
ROOT
ATOM      1  C   UNL A   1      32.027  27.939  27.299  1.00  0.00     0.042 C 
ENDROOT
BRANCH   1   2
ATOM      2  C   UNL A   1      31.839  26.694  26.444  1.00  0.00     0.118 C 
BRANCH   2   3
ATOM      3  N   UNL A   1      30.918  26.856  25.339  1.00  0.00    -0.351 N 
ATOM      4  C   UNL A   1      30.829  26.193  24.139  1.00  0.00     0.267 C 
ATOM      5  O   UNL A   1      29.982  26.608  23.350  1.00  0.00    -0.268 OA
ATOM      6  H   UNL A   1      30.243  27.560  25.470  1.00  0.00     0.163 HD
BRANCH   4   7
ATOM      7  C   UNL A   1      31.746  25.122  23.790  1.00  0.00     0.107 A 
ATOM      8  C   UNL A   1      33.511  26.268  22.356  1.00  0.00     0.150 C 
ATOM      9  N   UNL A   1      32.908  25.147  23.043  1.00  0.00    -0.346 N 
ATOM     10  C   UNL A   1      33.452  23.886  22.971  1.00  0.00     0.089 A 
ATOM     11  C   UNL A   1      32.625  23.009  23.634  1.00  0.00    -0.029 A 
ATOM     12  C   UNL A   1      31.620  23.809  24.241  1.00  0.00     0.037 A 
BRANCH  11  13
ATOM     13  C   UNL A   1      32.746  21.522  23.656  1.00  0.00     0.047 C 
BRANCH  13  14
ATOM     14  C   UNL A   1      33.257  20.976  24.987  1.00  0.00     0.105 C 
BRANCH  14  15
ATOM     15  C   UNL A   1      34.685  20.446  24.968  1.00  0.00     0.222 C 
ATOM     16  O   UNL A   1      34.898  19.274  24.646  1.00  0.00    -0.275 OA
ATOM     17  N   UNL A   1      35.716  21.323  25.230  1.00  0.00    -0.343 N 
ATOM     18  C   UNL A   1      35.642  22.606  25.898  1.00  0.00     0.119 C 
ATOM     19  C   UNL A   1      37.098  20.994  24.916  1.00  0.00     0.119 C 
ATOM     20  C   UNL A   1      36.953  23.292  25.579  1.00  0.00     0.023 C 
ATOM     21  C   UNL A   1      37.925  22.121  25.529  1.00  0.00     0.023 C 
ENDBRANCH  14  15
ENDBRANCH  13  14
ENDBRANCH  11  13
ENDBRANCH   4   7
ENDBRANCH   2   3
ENDBRANCH   1   2
BRANCH   1  22
ATOM     22  C   UNL A   1      33.435  28.523  27.315  1.00  0.00     0.118 C 
BRANCH  22  23
ATOM     23  N   UNL A   1      33.488  29.935  27.669  1.00  0.00    -0.352 N 
ATOM     24  C   UNL A   1      34.500  30.699  28.208  1.00  0.00     0.251 C 
ATOM     25  H   UNL A   1      32.656  30.430  27.494  1.00  0.00     0.163 HD
ATOM     26  O   UNL A   1      34.258  31.860  28.532  1.00  0.00    -0.269 OA
BRANCH  24  27
ATOM     27  C   UNL A   1      35.852  30.138  28.437  1.00  0.00     0.039 A 
ATOM     28  C   UNL A   1      36.770  30.129  27.381  1.00  0.00     0.014 A 
ATOM     29  C   UNL A   1      36.226  29.612  29.674  1.00  0.00     0.014 A 
ATOM     30  C   UNL A   1      38.080  29.688  27.598  1.00  0.00     0.010 A 
ATOM     31  C   UNL A   1      37.555  29.280  29.918  1.00  0.00     0.010 A 
ATOM     32  C   UNL A   1      38.501  29.311  28.883  1.00  0.00    -0.014 A 
BRANCH  32  33
ATOM     33  C   UNL A   1      39.917  28.950  29.172  1.00  0.00     0.031 A 
ATOM     34  C   UNL A   1      40.855  29.970  29.763  1.00  0.00     0.074 A 
ATOM     35  C   UNL A   1      40.381  27.731  28.827  1.00  0.00     0.049 A 
ATOM     36  N   UNL A   1      42.138  29.870  30.003  1.00  0.00    -0.248 NA
ATOM     37  C   UNL A   1      40.287  31.287  30.098  1.00  0.00     0.031 C 
ATOM     38  C   UNL A   1      39.592  26.666  28.201  1.00  0.00     0.029 A 
ATOM     39  N   UNL A   1      41.635  27.182  28.945  1.00  0.00    -0.354 N 
ATOM     40  C   UNL A   1      42.531  31.112  30.489  1.00  0.00     0.074 A 
ATOM     41  C   UNL A   1      41.365  31.966  30.458  1.00  0.00     0.031 C 
ATOM     42  C   UNL A   1      40.369  25.586  28.023  1.00  0.00     0.029 A 
ATOM     43  C   UNL A   1      41.724  25.894  28.472  1.00  0.00     0.049 A 
ATOM     44  H   UNL A   1      42.400  27.668  29.331  1.00  0.00     0.167 HD
ATOM     45  C   UNL A   1      43.748  31.503  30.942  1.00  0.00     0.031 A 
ATOM     46  C   UNL A   1      42.774  25.052  28.399  1.00  0.00     0.031 A 
ATOM     47  C   UNL A   1      44.901  30.645  30.992  1.00  0.00     0.049 A 
ATOM     48  C   UNL A   1      44.114  25.508  28.908  1.00  0.00     0.074 A 
ATOM     49  C   UNL A   1      46.159  30.926  31.496  1.00  0.00     0.029 A 
ATOM     50  N   UNL A   1      44.942  29.342  30.520  1.00  0.00    -0.354 N 
ATOM     51  N   UNL A   1      44.447  26.664  29.429  1.00  0.00    -0.248 NA
ATOM     52  C   UNL A   1      45.218  24.540  28.830  1.00  0.00     0.031 C 
ATOM     53  C   UNL A   1      46.976  29.813  31.275  1.00  0.00     0.029 A 
ATOM     54  C   UNL A   1      46.209  28.814  30.695  1.00  0.00     0.049 A 
ATOM     55  H   UNL A   1      44.181  28.862  30.119  1.00  0.00     0.167 HD
ATOM     56  C   UNL A   1      45.791  26.553  29.767  1.00  0.00     0.074 A 
ATOM     57  C   UNL A   1      46.204  25.213  29.407  1.00  0.00     0.031 C 
ATOM     58  C   UNL A   1      46.608  27.478  30.330  1.00  0.00     0.031 A 
BRANCH  45  59
ATOM     59  C   UNL A   1      43.893  32.926  31.417  1.00  0.00    -0.014 A 
ATOM     60  C   UNL A   1      44.339  33.943  30.553  1.00  0.00     0.010 A 
ATOM     61  C   UNL A   1      43.539  33.260  32.738  1.00  0.00     0.010 A 
ATOM     62  C   UNL A   1      44.468  35.257  31.011  1.00  0.00     0.020 A 
ATOM     63  C   UNL A   1      43.636  34.579  33.191  1.00  0.00     0.020 A 
ATOM     64  C   UNL A   1      44.117  35.567  32.328  1.00  0.00     0.054 A 
BRANCH  64  65
ATOM     65  S   UNL A   1      44.271  37.285  32.886  1.00  0.00     0.124 S 
ATOM     66  O   UNL A   1      45.694  37.373  33.201  1.00  0.00    -0.237 OA
ATOM     67  O   UNL A   1      43.840  38.041  31.713  1.00  0.00    -0.237 OA
ATOM     68  O   UNL A   1      43.374  37.359  34.037  1.00  0.00    -0.744 OA
ENDBRANCH  64  65
ENDBRANCH  45  59
BRANCH  46  69
ATOM     69  C   UNL A   1      42.594  23.685  27.833  1.00  0.00    -0.014 A 
ATOM     70  C   UNL A   1      42.010  22.664  28.605  1.00  0.00     0.010 A 
ATOM     71  C   UNL A   1      42.986  23.403  26.512  1.00  0.00     0.010 A 
ATOM     72  C   UNL A   1      41.835  21.384  28.072  1.00  0.00     0.020 A 
ATOM     73  C   UNL A   1      42.785  22.131  25.965  1.00  0.00     0.020 A 
ATOM     74  C   UNL A   1      42.220  21.127  26.753  1.00  0.00     0.054 A 
BRANCH  74  75
ATOM     75  S   UNL A   1      41.924  19.475  26.063  1.00  0.00     0.124 S 
ATOM     76  O   UNL A   1      42.404  18.607  27.134  1.00  0.00    -0.237 OA
ATOM     77  O   UNL A   1      40.480  19.478  25.846  1.00  0.00    -0.237 OA
ATOM     78  O   UNL A   1      42.729  19.467  24.842  1.00  0.00    -0.744 OA
ENDBRANCH  74  75
ENDBRANCH  46  69
BRANCH  58  79
ATOM     79  C   UNL A   1      48.027  27.066  30.625  1.00  0.00    -0.014 A 
ATOM     80  C   UNL A   1      49.059  27.268  29.692  1.00  0.00     0.010 A 
ATOM     81  C   UNL A   1      48.340  26.521  31.885  1.00  0.00     0.010 A 
ATOM     82  C   UNL A   1      50.371  26.903  30.001  1.00  0.00     0.020 A 
ATOM     83  C   UNL A   1      49.656  26.185  32.209  1.00  0.00     0.020 A 
ATOM     84  C   UNL A   1      50.661  26.366  31.259  1.00  0.00     0.054 A 
BRANCH  84  85
ATOM     85  S   UNL A   1      52.381  25.943  31.651  1.00  0.00     0.124 S 
ATOM     86  O   UNL A   1      52.695  26.896  32.711  1.00  0.00    -0.237 OA
ATOM     87  O   UNL A   1      52.280  24.547  32.069  1.00  0.00    -0.237 OA
ATOM     88  O   UNL A   1      53.087  26.159  30.389  1.00  0.00    -0.744 OA
ENDBRANCH  84  85
ENDBRANCH  58  79
ENDBRANCH  32  33
ENDBRANCH  24  27
ENDBRANCH  22  23
ENDBRANCH   1  22
TORSDOF 16
ENDMDL
MODEL 3
REMARK VINA RESULT:      -9.1      4.070     10.467
REMARK SMILES Cn1cc(CCC(=O)N2CCCC2)cc1C(=O)NCCCNC(=O)c1ccc(-c2c3nc(c(-c4ccc(S(=O)(=O)[O-])cc4)c4ccc([nH]4)c(-c4ccc(S(=O)(=O)[O-])cc4)c4nc(c(-c5ccc(S(=O)(=O)[O-])cc5)c5ccc2[nH]5)C=C4)C=C3)cc1
REMARK SMILES IDX 20 1 19 2 18 3 16 4 17 5 15 7 1 8 2 9 3 10 4 11 14 12 5 13
REMARK SMILES IDX 6 14 7 15 8 16 9 17 10 18 13 19 11 20 12 21 21 22 22 23
REMARK SMILES IDX 23 24 24 26 25 27 26 28 84 29 27 30 83 31 28 32 29 33 30 34
REMARK SMILES IDX 77 35 31 36 82 37 76 38 78 39 32 40 81 41 75 42 74 43 33 45
REMARK SMILES IDX 63 46 44 47 62 48 45 49 48 50 61 51 79 52 46 53 47 54 60 56
REMARK SMILES IDX 80 57 49 58 34 59 35 60 43 61 36 62 42 63 37 64 38 65 39 66
REMARK SMILES IDX 40 67 41 68 64 69 65 70 73 71 66 72 72 73 67 74 68 75 69 76
REMARK SMILES IDX 70 77 71 78 50 79 51 80 59 81 52 82 58 83 53 84 54 85 55 86
REMARK SMILES IDX 56 87 57 88
REMARK H PARENT 18 6 22 25 78 44 48 55
REMARK Flexibility Score: inf
ROOT
ATOM      1  C   UNL A   1      34.210  30.438  27.290  1.00  0.00     0.042 C 
ENDROOT
BRANCH   1   2
ATOM      2  C   UNL A   1      34.190  29.193  26.414  1.00  0.00     0.118 C 
BRANCH   2   3
ATOM      3  N   UNL A   1      33.513  29.361  25.146  1.00  0.00    -0.351 N 
ATOM      4  C   UNL A   1      33.048  28.433  24.246  1.00  0.00     0.267 C 
ATOM      5  O   UNL A   1      32.579  28.877  23.200  1.00  0.00    -0.268 OA
ATOM      6  H   UNL A   1      33.360  30.298  24.885  1.00  0.00     0.163 HD
BRANCH   4   7
ATOM      7  C   UNL A   1      33.187  27.006  24.482  1.00  0.00     0.107 A 
ATOM      8  C   UNL A   1      31.530  26.527  26.355  1.00  0.00     0.150 C 
ATOM      9  N   UNL A   1      32.528  26.177  25.369  1.00  0.00    -0.346 N 
ATOM     10  C   UNL A   1      32.990  24.888  25.244  1.00  0.00     0.089 A 
ATOM     11  C   UNL A   1      33.993  24.866  24.303  1.00  0.00    -0.029 A 
ATOM     12  C   UNL A   1      34.031  26.173  23.748  1.00  0.00     0.037 A 
BRANCH  11  13
ATOM     13  C   UNL A   1      34.881  23.710  23.981  1.00  0.00     0.047 C 
BRANCH  13  14
ATOM     14  C   UNL A   1      34.738  22.547  24.959  1.00  0.00     0.105 C 
BRANCH  14  15
ATOM     15  C   UNL A   1      36.010  21.748  25.212  1.00  0.00     0.222 C 
ATOM     16  O   UNL A   1      36.053  20.554  24.902  1.00  0.00    -0.275 OA
ATOM     17  N   UNL A   1      37.115  22.408  25.702  1.00  0.00    -0.343 N 
ATOM     18  C   UNL A   1      37.156  23.687  26.381  1.00  0.00     0.119 C 
ATOM     19  C   UNL A   1      38.443  21.813  25.663  1.00  0.00     0.119 C 
ATOM     20  C   UNL A   1      38.612  24.100  26.355  1.00  0.00     0.023 C 
ATOM     21  C   UNL A   1      39.329  22.762  26.465  1.00  0.00     0.023 C 
ENDBRANCH  14  15
ENDBRANCH  13  14
ENDBRANCH  11  13
ENDBRANCH   4   7
ENDBRANCH   2   3
ENDBRANCH   1   2
BRANCH   1  22
ATOM     22  C   UNL A   1      35.518  30.708  28.024  1.00  0.00     0.118 C 
BRANCH  22  23
ATOM     23  N   UNL A   1      35.516  30.287  29.419  1.00  0.00    -0.352 N 
ATOM     24  C   UNL A   1      36.520  29.788  30.219  1.00  0.00     0.251 C 
ATOM     25  H   UNL A   1      34.644  30.374  29.867  1.00  0.00     0.163 HD
ATOM     26  O   UNL A   1      36.235  29.389  31.346  1.00  0.00    -0.269 OA
BRANCH  24  27
ATOM     27  C   UNL A   1      37.917  29.691  29.734  1.00  0.00     0.039 A 
ATOM     28  C   UNL A   1      38.956  29.630  30.669  1.00  0.00     0.014 A 
ATOM     29  C   UNL A   1      38.218  29.670  28.372  1.00  0.00     0.014 A 
ATOM     30  C   UNL A   1      40.274  29.447  30.237  1.00  0.00     0.010 A 
ATOM     31  C   UNL A   1      39.511  29.376  27.949  1.00  0.00     0.010 A 
ATOM     32  C   UNL A   1      40.558  29.263  28.875  1.00  0.00    -0.014 A 
BRANCH  32  33
ATOM     33  C   UNL A   1      41.932  28.948  28.393  1.00  0.00     0.031 A 
ATOM     34  C   UNL A   1      42.283  27.548  27.961  1.00  0.00     0.074 A 
ATOM     35  C   UNL A   1      42.886  29.902  28.423  1.00  0.00     0.049 A 
ATOM     36  N   UNL A   1      43.443  27.064  27.596  1.00  0.00    -0.248 NA
ATOM     37  C   UNL A   1      41.198  26.553  27.971  1.00  0.00     0.031 C 
ATOM     38  C   UNL A   1      42.694  31.285  28.868  1.00  0.00     0.029 A 
ATOM     39  N   UNL A   1      44.216  29.850  28.082  1.00  0.00    -0.354 N 
ATOM     40  C   UNL A   1      43.232  25.710  27.360  1.00  0.00     0.074 A 
ATOM     41  C   UNL A   1      41.848  25.437  27.676  1.00  0.00     0.031 C 
ATOM     42  C   UNL A   1      43.849  31.956  28.739  1.00  0.00     0.029 A 
ATOM     43  C   UNL A   1      44.879  31.043  28.253  1.00  0.00     0.049 A 
ATOM     44  H   UNL A   1      44.654  29.034  27.746  1.00  0.00     0.167 HD
ATOM     45  C   UNL A   1      44.104  24.780  26.901  1.00  0.00     0.031 A 
ATOM     46  C   UNL A   1      46.171  31.370  28.050  1.00  0.00     0.031 A 
ATOM     47  C   UNL A   1      45.475  25.058  26.566  1.00  0.00     0.049 A 
ATOM     48  C   UNL A   1      47.121  30.321  27.539  1.00  0.00     0.074 A 
ATOM     49  C   UNL A   1      46.419  24.201  26.029  1.00  0.00     0.029 A 
ATOM     50  N   UNL A   1      46.101  26.284  26.737  1.00  0.00    -0.354 N 
ATOM     51  N   UNL A   1      46.882  29.063  27.257  1.00  0.00    -0.248 NA
ATOM     52  C   UNL A   1      48.511  30.740  27.310  1.00  0.00     0.031 C 
ATOM     53  C   UNL A   1      47.631  24.891  25.932  1.00  0.00     0.029 A 
ATOM     54  C   UNL A   1      47.425  26.199  26.343  1.00  0.00     0.049 A 
ATOM     55  H   UNL A   1      45.667  27.095  27.088  1.00  0.00     0.167 HD
ATOM     56  C   UNL A   1      48.086  28.547  26.788  1.00  0.00     0.074 A 
ATOM     57  C   UNL A   1      49.044  29.632  26.811  1.00  0.00     0.031 C 
ATOM     58  C   UNL A   1      48.369  27.287  26.373  1.00  0.00     0.031 A 
BRANCH  45  59
ATOM     59  C   UNL A   1      43.600  23.369  26.736  1.00  0.00    -0.014 A 
ATOM     60  C   UNL A   1      43.486  22.777  25.465  1.00  0.00     0.010 A 
ATOM     61  C   UNL A   1      43.275  22.607  27.875  1.00  0.00     0.010 A 
ATOM     62  C   UNL A   1      43.016  21.467  25.331  1.00  0.00     0.020 A 
ATOM     63  C   UNL A   1      42.835  21.286  27.747  1.00  0.00     0.020 A 
ATOM     64  C   UNL A   1      42.692  20.730  26.474  1.00  0.00     0.054 A 
BRANCH  64  65
ATOM     65  S   UNL A   1      42.110  19.025  26.270  1.00  0.00     0.124 S 
ATOM     66  O   UNL A   1      43.076  18.491  25.313  1.00  0.00    -0.237 OA
ATOM     67  O   UNL A   1      42.208  18.491  27.626  1.00  0.00    -0.237 OA
ATOM     68  O   UNL A   1      40.750  19.180  25.761  1.00  0.00    -0.744 OA
ENDBRANCH  64  65
ENDBRANCH  45  59
BRANCH  46  69
ATOM     69  C   UNL A   1      46.637  32.760  28.317  1.00  0.00    -0.014 A 
ATOM     70  C   UNL A   1      47.252  33.084  29.541  1.00  0.00     0.010 A 
ATOM     71  C   UNL A   1      46.487  33.763  27.342  1.00  0.00     0.010 A 
ATOM     72  C   UNL A   1      47.695  34.387  29.788  1.00  0.00     0.020 A 
ATOM     73  C   UNL A   1      46.956  35.060  27.575  1.00  0.00     0.020 A 
ATOM     74  C   UNL A   1      47.549  35.365  28.801  1.00  0.00     0.054 A 
BRANCH  74  75
ATOM     75  S   UNL A   1      48.189  37.033  29.122  1.00  0.00     0.124 S 
ATOM     76  O   UNL A   1      49.484  36.749  29.733  1.00  0.00    -0.237 OA
ATOM     77  O   UNL A   1      48.232  37.616  27.784  1.00  0.00    -0.237 OA
ATOM     78  O   UNL A   1      47.188  37.616  30.014  1.00  0.00    -0.744 OA
ENDBRANCH  74  75
ENDBRANCH  46  69
BRANCH  58  79
ATOM     79  C   UNL A   1      49.765  27.016  25.874  1.00  0.00    -0.014 A 
ATOM     80  C   UNL A   1      50.735  26.420  26.698  1.00  0.00     0.010 A 
ATOM     81  C   UNL A   1      50.090  27.312  24.536  1.00  0.00     0.010 A 
ATOM     82  C   UNL A   1      52.013  26.153  26.203  1.00  0.00     0.020 A 
ATOM     83  C   UNL A   1      51.357  27.018  24.030  1.00  0.00     0.020 A 
ATOM     84  C   UNL A   1      52.316  26.452  24.870  1.00  0.00     0.054 A 
BRANCH  84  85
ATOM     85  S   UNL A   1      53.969  26.054  24.241  1.00  0.00     0.124 S 
ATOM     86  O   UNL A   1      54.777  27.131  24.805  1.00  0.00    -0.237 OA
ATOM     87  O   UNL A   1      54.213  24.727  24.800  1.00  0.00    -0.237 OA
ATOM     88  O   UNL A   1      53.806  26.091  22.789  1.00  0.00    -0.744 OA
ENDBRANCH  84  85
ENDBRANCH  58  79
ENDBRANCH  32  33
ENDBRANCH  24  27
ENDBRANCH  22  23
ENDBRANCH   1  22
TORSDOF 16
ENDMDL
