MODEL 1
REMARK VINA RESULT:     -10.7      0.000      0.000
REMARK SMILES O=C(NCCCNC(=O)[C@@H]1CS[C@@H](c2cc(Br)ccc2O)[NH2+]1)c1ccc(-c2c3nc(c(-c4ccc(S(=O)(=O)[O-])cc4)c4ccc([nH]4)c(-c4ccc(S(=O)(=O)[O-])cc4)c4nc(c(-c5ccc(S(=O)(=O)[O-])cc5)c5ccc2[nH]5)C=C4)C=C3)cc1
REMARK SMILES IDX 4 1 3 2 1 3 2 4 23 6 24 7 82 8 25 9 81 10 26 11 27 12 28 13
REMARK SMILES IDX 75 14 29 15 80 16 74 17 76 18 30 19 79 20 73 21 72 22 31 24
REMARK SMILES IDX 61 25 42 26 60 27 43 28 46 29 59 30 77 31 44 32 45 33 58 35
REMARK SMILES IDX 78 36 47 37 32 38 33 39 41 40 34 41 40 42 35 43 36 44 37 45
REMARK SMILES IDX 38 46 39 47 62 48 63 49 71 50 64 51 70 52 65 53 66 54 67 55
REMARK SMILES IDX 68 56 69 57 48 58 49 59 57 60 50 61 56 62 51 63 52 64 53 65
REMARK SMILES IDX 54 66 55 67 5 68 6 69 7 70 8 71 9 73 10 74 11 75 22 76 12 77
REMARK SMILES IDX 13 78 14 81 15 82 20 83 16 84 19 85 17 86 18 87 21 88
REMARK H PARENT 3 5 76 23 46 34 7 72 22 79 22 80 21 89
REMARK Flexibility Score: inf
ROOT
ATOM      1  C   UNL A   1      34.663  32.497  28.822  1.00  0.00     0.118 C 
ENDROOT
BRANCH   1   2
ATOM      2  N   UNL A   1      33.975  31.307  28.346  1.00  0.00    -0.352 N 
ATOM      3  O   UNL A   1      33.771  29.282  27.393  1.00  0.00    -0.269 OA
ATOM      4  C   UNL A   1      34.492  30.093  27.971  1.00  0.00     0.251 C 
ATOM      5  H   UNL A   1      32.996  31.385  28.284  1.00  0.00     0.163 HD
BRANCH   4   6
ATOM      6  C   UNL A   1      35.906  29.766  28.248  1.00  0.00     0.039 A 
ATOM      7  C   UNL A   1      36.883  29.929  27.263  1.00  0.00     0.014 A 
ATOM      8  C   UNL A   1      36.267  29.326  29.525  1.00  0.00     0.014 A 
ATOM      9  C   UNL A   1      38.194  29.537  27.514  1.00  0.00     0.010 A 
ATOM     10  C   UNL A   1      37.600  29.011  29.802  1.00  0.00     0.010 A 
ATOM     11  C   UNL A   1      38.572  29.094  28.793  1.00  0.00    -0.014 A 
BRANCH  11  12
ATOM     12  C   UNL A   1      40.001  28.807  29.073  1.00  0.00     0.031 A 
ATOM     13  C   UNL A   1      40.887  29.827  29.732  1.00  0.00     0.074 A 
ATOM     14  C   UNL A   1      40.494  27.600  28.732  1.00  0.00     0.049 A 
ATOM     15  N   UNL A   1      42.153  29.731  30.048  1.00  0.00    -0.248 NA
ATOM     16  C   UNL A   1      40.279  31.121  30.078  1.00  0.00     0.031 C 
ATOM     17  C   UNL A   1      39.729  26.530  28.082  1.00  0.00     0.029 A 
ATOM     18  N   UNL A   1      41.744  27.060  28.892  1.00  0.00    -0.354 N 
ATOM     19  C   UNL A   1      42.500  30.953  30.613  1.00  0.00     0.074 A 
ATOM     20  C   UNL A   1      41.315  31.784  30.573  1.00  0.00     0.031 C 
ATOM     21  C   UNL A   1      40.513  25.453  27.938  1.00  0.00     0.029 A 
ATOM     22  C   UNL A   1      41.851  25.773  28.421  1.00  0.00     0.049 A 
ATOM     23  H   UNL A   1      42.493  27.547  29.306  1.00  0.00     0.167 HD
ATOM     24  C   UNL A   1      43.695  31.342  31.120  1.00  0.00     0.031 A 
ATOM     25  C   UNL A   1      42.911  24.946  28.359  1.00  0.00     0.031 A 
ATOM     26  C   UNL A   1      44.871  30.509  31.147  1.00  0.00     0.049 A 
ATOM     27  C   UNL A   1      44.234  25.419  28.887  1.00  0.00     0.074 A 
ATOM     28  C   UNL A   1      46.120  30.802  31.667  1.00  0.00     0.029 A 
ATOM     29  N   UNL A   1      44.948  29.227  30.626  1.00  0.00    -0.354 N 
ATOM     30  N   UNL A   1      44.530  26.565  29.451  1.00  0.00    -0.248 NA
ATOM     31  C   UNL A   1      45.365  24.489  28.768  1.00  0.00     0.031 C 
ATOM     32  C   UNL A   1      46.968  29.720  31.407  1.00  0.00     0.029 A 
ATOM     33  C   UNL A   1      46.231  28.727  30.784  1.00  0.00     0.049 A 
ATOM     34  H   UNL A   1      44.201  28.742  30.206  1.00  0.00     0.167 HD
ATOM     35  C   UNL A   1      45.880  26.488  29.773  1.00  0.00     0.074 A 
ATOM     36  C   UNL A   1      46.335  25.176  29.358  1.00  0.00     0.031 C 
ATOM     37  C   UNL A   1      46.671  27.421  30.359  1.00  0.00     0.031 A 
BRANCH  24  38
ATOM     38  C   UNL A   1      43.805  32.744  31.664  1.00  0.00    -0.014 A 
ATOM     39  C   UNL A   1      44.151  33.826  30.833  1.00  0.00     0.010 A 
ATOM     40  C   UNL A   1      43.503  32.993  33.016  1.00  0.00     0.010 A 
ATOM     41  C   UNL A   1      44.231  35.121  31.353  1.00  0.00     0.020 A 
ATOM     42  C   UNL A   1      43.557  34.290  33.533  1.00  0.00     0.020 A 
ATOM     43  C   UNL A   1      43.937  35.344  32.702  1.00  0.00     0.054 A 
BRANCH  43  44
ATOM     44  S   UNL A   1      44.033  37.039  33.344  1.00  0.00     0.124 S 
ATOM     45  O   UNL A   1      45.212  36.968  34.203  1.00  0.00    -0.237 OA
ATOM     46  O   UNL A   1      44.188  37.834  32.129  1.00  0.00    -0.237 OA
ATOM     47  O   UNL A   1      42.763  37.218  34.045  1.00  0.00    -0.744 OA
ENDBRANCH  43  44
ENDBRANCH  24  38
BRANCH  25  48
ATOM     48  C   UNL A   1      42.757  23.595  27.754  1.00  0.00    -0.014 A 
ATOM     49  C   UNL A   1      43.124  23.360  26.418  1.00  0.00     0.010 A 
ATOM     50  C   UNL A   1      42.269  22.525  28.528  1.00  0.00     0.010 A 
ATOM     51  C   UNL A   1      42.994  22.083  25.864  1.00  0.00     0.020 A 
ATOM     52  C   UNL A   1      42.167  21.242  27.987  1.00  0.00     0.020 A 
ATOM     53  C   UNL A   1      42.518  21.032  26.654  1.00  0.00     0.054 A 
BRANCH  53  54
ATOM     54  S   UNL A   1      42.409  19.373  25.929  1.00  0.00     0.124 S 
ATOM     55  O   UNL A   1      40.977  19.245  25.680  1.00  0.00    -0.237 OA
ATOM     56  O   UNL A   1      43.252  19.491  24.742  1.00  0.00    -0.237 OA
ATOM     57  O   UNL A   1      42.942  18.506  26.978  1.00  0.00    -0.744 OA
ENDBRANCH  53  54
ENDBRANCH  25  48
BRANCH  37  58
ATOM     58  C   UNL A   1      48.106  27.046  30.610  1.00  0.00    -0.014 A 
ATOM     59  C   UNL A   1      49.117  27.375  29.690  1.00  0.00     0.010 A 
ATOM     60  C   UNL A   1      48.454  26.399  31.810  1.00  0.00     0.010 A 
ATOM     61  C   UNL A   1      50.448  27.039  29.952  1.00  0.00     0.020 A 
ATOM     62  C   UNL A   1      49.787  26.087  32.089  1.00  0.00     0.020 A 
ATOM     63  C   UNL A   1      50.774  26.398  31.152  1.00  0.00     0.054 A 
BRANCH  63  64
ATOM     64  S   UNL A   1      52.514  26.017  31.491  1.00  0.00     0.124 S 
ATOM     65  O   UNL A   1      53.106  26.080  30.158  1.00  0.00    -0.237 OA
ATOM     66  O   UNL A   1      52.905  27.089  32.404  1.00  0.00    -0.237 OA
ATOM     67  O   UNL A   1      52.467  24.685  32.090  1.00  0.00    -0.744 OA
ENDBRANCH  63  64
ENDBRANCH  37  58
ENDBRANCH  11  12
ENDBRANCH   4   6
ENDBRANCH   1   2
BRANCH   1  68
ATOM     68  C   UNL A   1      34.358  33.726  27.970  1.00  0.00     0.042 C 
BRANCH  68  69
ATOM     69  C   UNL A   1      33.049  34.427  28.340  1.00  0.00     0.118 C 
BRANCH  69  70
ATOM     70  N   UNL A   1      33.291  35.798  28.741  1.00  0.00    -0.351 N 
ATOM     71  C   UNL A   1      33.076  36.459  29.910  1.00  0.00     0.279 C 
ATOM     72  H   UNL A   1      33.687  36.356  28.034  1.00  0.00     0.163 HD
ATOM     73  O   UNL A   1      33.285  37.676  29.867  1.00  0.00    -0.268 OA
BRANCH  71  74
ATOM     74  C   UNL A   1      32.725  35.709  31.227  1.00  0.00     0.283 C 
ATOM     75  C   UNL A   1      32.436  36.574  32.460  1.00  0.00     0.151 C 
ATOM     76  N   UNL A   1      33.824  34.762  31.576  1.00  0.00    -0.320 N 
ATOM     77  S   UNL A   1      33.844  36.378  33.580  1.00  0.00    -0.087 SA
ATOM     78  C   UNL A   1      34.823  35.564  32.299  1.00  0.00     0.278 C 
ATOM     79  H   UNL A   1      34.232  34.362  30.731  1.00  0.00     0.348 HD
ATOM     80  H   UNL A   1      33.486  33.982  32.141  1.00  0.00     0.348 HD
BRANCH  78  81
ATOM     81  C   UNL A   1      35.999  34.741  32.767  1.00  0.00     0.063 A 
ATOM     82  C   UNL A   1      36.222  34.406  34.115  1.00  0.00     0.030 A 
ATOM     83  C   UNL A   1      36.899  34.233  31.812  1.00  0.00     0.125 A 
ATOM     84  C   UNL A   1      37.313  33.612  34.478  1.00  0.00     0.018 A 
ATOM     85  C   UNL A   1      37.979  33.429  32.171  1.00  0.00     0.048 A 
ATOM     86  Br  UNL A   1      37.610  33.200  36.299  1.00  0.00    -0.051 Br
ATOM     87  C   UNL A   1      38.188  33.119  33.512  1.00  0.00     0.019 A 
BRANCH  83  88
ATOM     88  O   UNL A   1      36.713  34.557  30.497  1.00  0.00    -0.507 OA
ATOM     89  H   UNL A   1      37.349  35.078  30.048  1.00  0.00     0.293 HD
ENDBRANCH  83  88
ENDBRANCH  78  81
ENDBRANCH  71  74
ENDBRANCH  69  70
ENDBRANCH  68  69
ENDBRANCH   1  68
TORSDOF 15
ENDMDL
MODEL 2
REMARK VINA RESULT:     -10.7      0.814      8.434
REMARK SMILES O=C(NCCCNC(=O)[C@@H]1CS[C@@H](c2cc(Br)ccc2O)[NH2+]1)c1ccc(-c2c3nc(c(-c4ccc(S(=O)(=O)[O-])cc4)c4ccc([nH]4)c(-c4ccc(S(=O)(=O)[O-])cc4)c4nc(c(-c5ccc(S(=O)(=O)[O-])cc5)c5ccc2[nH]5)C=C4)C=C3)cc1
REMARK SMILES IDX 4 1 3 2 1 3 2 4 23 6 24 7 82 8 25 9 81 10 26 11 27 12 28 13
REMARK SMILES IDX 75 14 29 15 80 16 74 17 76 18 30 19 79 20 73 21 72 22 31 24
REMARK SMILES IDX 61 25 42 26 60 27 43 28 46 29 59 30 77 31 44 32 45 33 58 35
REMARK SMILES IDX 78 36 47 37 32 38 33 39 41 40 34 41 40 42 35 43 36 44 37 45
REMARK SMILES IDX 38 46 39 47 62 48 63 49 71 50 64 51 70 52 65 53 66 54 67 55
REMARK SMILES IDX 68 56 69 57 48 58 49 59 57 60 50 61 56 62 51 63 52 64 53 65
REMARK SMILES IDX 54 66 55 67 5 68 6 69 7 70 8 71 9 73 10 74 11 75 22 76 12 77
REMARK SMILES IDX 13 78 14 81 15 82 20 83 16 84 19 85 17 86 18 87 21 88
REMARK H PARENT 3 5 76 23 46 34 7 72 22 79 22 80 21 89
REMARK Flexibility Score: inf
ROOT
ATOM      1  C   UNL A   1      34.858  32.451  28.954  1.00  0.00     0.118 C 
ENDROOT
BRANCH   1   2
ATOM      2  N   UNL A   1      34.164  31.272  28.462  1.00  0.00    -0.352 N 
ATOM      3  O   UNL A   1      33.947  29.268  27.466  1.00  0.00    -0.269 OA
ATOM      4  C   UNL A   1      34.676  30.067  28.051  1.00  0.00     0.251 C 
ATOM      5  H   UNL A   1      33.184  31.348  28.418  1.00  0.00     0.163 HD
BRANCH   4   6
ATOM      6  C   UNL A   1      36.096  29.737  28.297  1.00  0.00     0.039 A 
ATOM      7  C   UNL A   1      37.055  29.918  27.296  1.00  0.00     0.014 A 
ATOM      8  C   UNL A   1      36.480  29.275  29.559  1.00  0.00     0.014 A 
ATOM      9  C   UNL A   1      38.370  29.522  27.517  1.00  0.00     0.010 A 
ATOM     10  C   UNL A   1      37.818  28.957  29.805  1.00  0.00     0.010 A 
ATOM     11  C   UNL A   1      38.771  29.058  28.780  1.00  0.00    -0.014 A 
BRANCH  11  12
ATOM     12  C   UNL A   1      40.205  28.767  29.030  1.00  0.00     0.031 A 
ATOM     13  C   UNL A   1      40.811  27.446  28.645  1.00  0.00     0.074 A 
ATOM     14  C   UNL A   1      40.965  29.719  29.606  1.00  0.00     0.049 A 
ATOM     15  N   UNL A   1      42.045  27.036  28.792  1.00  0.00    -0.248 NA
ATOM     16  C   UNL A   1      39.920  26.456  28.019  1.00  0.00     0.031 C 
ATOM     17  C   UNL A   1      40.485  31.039  30.027  1.00  0.00     0.029 A 
ATOM     18  N   UNL A   1      42.298  29.736  29.924  1.00  0.00    -0.354 N 
ATOM     19  C   UNL A   1      42.079  25.738  28.295  1.00  0.00     0.074 A 
ATOM     20  C   UNL A   1      40.733  25.419  27.864  1.00  0.00     0.031 C 
ATOM     21  C   UNL A   1      41.515  31.749  30.510  1.00  0.00     0.029 A 
ATOM     22  C   UNL A   1      42.712  30.917  30.495  1.00  0.00     0.049 A 
ATOM     23  H   UNL A   1      42.902  28.976  29.760  1.00  0.00     0.167 HD
ATOM     24  C   UNL A   1      43.135  24.894  28.203  1.00  0.00     0.031 A 
ATOM     25  C   UNL A   1      43.913  31.285  30.977  1.00  0.00     0.031 A 
ATOM     26  C   UNL A   1      44.468  25.218  28.642  1.00  0.00     0.049 A 
ATOM     27  C   UNL A   1      45.055  30.314  30.904  1.00  0.00     0.074 A 
ATOM     28  C   UNL A   1      45.612  24.442  28.564  1.00  0.00     0.029 A 
ATOM     29  N   UNL A   1      44.838  26.410  29.248  1.00  0.00    -0.354 N 
ATOM     30  N   UNL A   1      45.074  29.105  30.395  1.00  0.00    -0.248 NA
ATOM     31  C   UNL A   1      46.337  30.755  31.470  1.00  0.00     0.031 C 
ATOM     32  C   UNL A   1      46.658  25.140  29.176  1.00  0.00     0.029 A 
ATOM     33  C   UNL A   1      46.183  26.378  29.578  1.00  0.00     0.049 A 
ATOM     34  H   UNL A   1      44.233  27.167  29.419  1.00  0.00     0.167 HD
ATOM     35  C   UNL A   1      46.375  28.647  30.564  1.00  0.00     0.074 A 
ATOM     36  C   UNL A   1      47.116  29.715  31.203  1.00  0.00     0.031 C 
ATOM     37  C   UNL A   1      46.906  27.447  30.221  1.00  0.00     0.031 A 
BRANCH  24  38
ATOM     38  C   UNL A   1      42.890  23.520  27.631  1.00  0.00    -0.014 A 
ATOM     39  C   UNL A   1      43.173  23.228  26.284  1.00  0.00     0.010 A 
ATOM     40  C   UNL A   1      42.419  22.491  28.468  1.00  0.00     0.010 A 
ATOM     41  C   UNL A   1      42.954  21.943  25.777  1.00  0.00     0.020 A 
ATOM     42  C   UNL A   1      42.223  21.199  27.971  1.00  0.00     0.020 A 
ATOM     43  C   UNL A   1      42.477  20.937  26.624  1.00  0.00     0.054 A 
BRANCH  43  44
ATOM     44  S   UNL A   1      42.218  19.276  25.942  1.00  0.00     0.124 S 
ATOM     45  O   UNL A   1      43.030  19.319  24.729  1.00  0.00    -0.237 OA
ATOM     46  O   UNL A   1      42.723  18.411  27.005  1.00  0.00    -0.237 OA
ATOM     47  O   UNL A   1      40.775  19.211  25.722  1.00  0.00    -0.744 OA
ENDBRANCH  43  44
ENDBRANCH  24  38
BRANCH  25  48
ATOM     48  C   UNL A   1      44.080  32.632  31.587  1.00  0.00    -0.014 A 
ATOM     49  C   UNL A   1      43.882  32.826  32.965  1.00  0.00     0.010 A 
ATOM     50  C   UNL A   1      44.472  33.725  30.791  1.00  0.00     0.010 A 
ATOM     51  C   UNL A   1      44.059  34.092  33.532  1.00  0.00     0.020 A 
ATOM     52  C   UNL A   1      44.681  34.983  31.360  1.00  0.00     0.020 A 
ATOM     53  C   UNL A   1      44.460  35.161  32.725  1.00  0.00     0.054 A 
BRANCH  53  54
ATOM     54  S   UNL A   1      44.737  36.781  33.494  1.00  0.00     0.124 S 
ATOM     55  O   UNL A   1      46.191  36.811  33.621  1.00  0.00    -0.237 OA
ATOM     56  O   UNL A   1      44.167  37.699  32.510  1.00  0.00    -0.237 OA
ATOM     57  O   UNL A   1      44.000  36.692  34.752  1.00  0.00    -0.744 OA
ENDBRANCH  53  54
ENDBRANCH  25  48
BRANCH  37  58
ATOM     58  C   UNL A   1      48.368  27.235  30.506  1.00  0.00    -0.014 A 
ATOM     59  C   UNL A   1      48.799  26.668  31.718  1.00  0.00     0.010 A 
ATOM     60  C   UNL A   1      49.321  27.564  29.524  1.00  0.00     0.010 A 
ATOM     61  C   UNL A   1      50.161  26.458  31.954  1.00  0.00     0.020 A 
ATOM     62  C   UNL A   1      50.680  27.329  29.746  1.00  0.00     0.020 A 
ATOM     63  C   UNL A   1      51.092  26.788  30.965  1.00  0.00     0.054 A 
BRANCH  63  64
ATOM     64  S   UNL A   1      52.848  26.460  31.277  1.00  0.00     0.124 S 
ATOM     65  O   UNL A   1      53.412  26.514  29.931  1.00  0.00    -0.237 OA
ATOM     66  O   UNL A   1      53.227  27.559  32.163  1.00  0.00    -0.237 OA
ATOM     67  O   UNL A   1      52.848  25.138  31.900  1.00  0.00    -0.744 OA
ENDBRANCH  63  64
ENDBRANCH  37  58
ENDBRANCH  11  12
ENDBRANCH   4   6
ENDBRANCH   1   2
BRANCH   1  68
ATOM     68  C   UNL A   1      34.669  33.661  28.042  1.00  0.00     0.042 C 
BRANCH  68  69
ATOM     69  C   UNL A   1      33.304  34.335  28.183  1.00  0.00     0.118 C 
BRANCH  69  70
ATOM     70  N   UNL A   1      33.451  35.734  28.533  1.00  0.00    -0.351 N 
ATOM     71  C   UNL A   1      33.119  36.436  29.649  1.00  0.00     0.279 C 
ATOM     72  H   UNL A   1      33.872  36.278  27.829  1.00  0.00     0.163 HD
ATOM     73  O   UNL A   1      33.273  37.659  29.562  1.00  0.00    -0.268 OA
BRANCH  71  74
ATOM     74  C   UNL A   1      32.706  35.731  30.973  1.00  0.00     0.283 C 
ATOM     75  C   UNL A   1      32.604  36.612  32.224  1.00  0.00     0.151 C 
ATOM     76  N   UNL A   1      33.657  34.619  31.269  1.00  0.00    -0.320 N 
ATOM     77  S   UNL A   1      34.007  36.181  33.284  1.00  0.00    -0.087 SA
ATOM     78  C   UNL A   1      34.796  35.244  31.957  1.00  0.00     0.278 C 
ATOM     79  H   UNL A   1      33.964  34.172  30.405  1.00  0.00     0.348 HD
ATOM     80  H   UNL A   1      33.223  33.893  31.840  1.00  0.00     0.348 HD
BRANCH  78  81
ATOM     81  C   UNL A   1      35.846  34.241  32.370  1.00  0.00     0.063 A 
ATOM     82  C   UNL A   1      37.211  34.559  32.499  1.00  0.00     0.030 A 
ATOM     83  C   UNL A   1      35.449  32.932  32.694  1.00  0.00     0.125 A 
ATOM     84  C   UNL A   1      38.128  33.591  32.919  1.00  0.00     0.018 A 
ATOM     85  C   UNL A   1      36.360  31.970  33.127  1.00  0.00     0.048 A 
ATOM     86  Br  UNL A   1      39.962  34.032  33.056  1.00  0.00    -0.051 Br
ATOM     87  C   UNL A   1      37.707  32.301  33.237  1.00  0.00     0.019 A 
BRANCH  83  88
ATOM     88  O   UNL A   1      34.131  32.594  32.563  1.00  0.00    -0.507 OA
ATOM     89  H   UNL A   1      33.618  32.966  31.872  1.00  0.00     0.293 HD
ENDBRANCH  83  88
ENDBRANCH  78  81
ENDBRANCH  71  74
ENDBRANCH  69  70
ENDBRANCH  68  69
ENDBRANCH   1  68
TORSDOF 15
ENDMDL
MODEL 3
REMARK VINA RESULT:     -10.3      3.013      3.719
REMARK SMILES O=C(NCCCNC(=O)[C@@H]1CS[C@@H](c2cc(Br)ccc2O)[NH2+]1)c1ccc(-c2c3nc(c(-c4ccc(S(=O)(=O)[O-])cc4)c4ccc([nH]4)c(-c4ccc(S(=O)(=O)[O-])cc4)c4nc(c(-c5ccc(S(=O)(=O)[O-])cc5)c5ccc2[nH]5)C=C4)C=C3)cc1
REMARK SMILES IDX 4 1 3 2 1 3 2 4 23 6 24 7 82 8 25 9 81 10 26 11 27 12 28 13
REMARK SMILES IDX 75 14 29 15 80 16 74 17 76 18 30 19 79 20 73 21 72 22 31 24
REMARK SMILES IDX 61 25 42 26 60 27 43 28 46 29 59 30 77 31 44 32 45 33 58 35
REMARK SMILES IDX 78 36 47 37 32 38 33 39 41 40 34 41 40 42 35 43 36 44 37 45
REMARK SMILES IDX 38 46 39 47 62 48 63 49 71 50 64 51 70 52 65 53 66 54 67 55
REMARK SMILES IDX 68 56 69 57 48 58 49 59 57 60 50 61 56 62 51 63 52 64 53 65
REMARK SMILES IDX 54 66 55 67 5 68 6 69 7 70 8 71 9 73 10 74 11 75 22 76 12 77
REMARK SMILES IDX 13 78 14 81 15 82 20 83 16 84 19 85 17 86 18 87 21 88
REMARK H PARENT 3 5 76 23 46 34 7 72 22 79 22 80 21 89
REMARK Flexibility Score: inf
ROOT
ATOM      1  C   UNL A   1      36.457  32.913  29.139  1.00  0.00     0.118 C 
ENDROOT
BRANCH   1   2
ATOM      2  N   UNL A   1      36.073  32.042  30.238  1.00  0.00    -0.352 N 
ATOM      3  O   UNL A   1      36.084  30.183  31.502  1.00  0.00    -0.269 OA
ATOM      4  C   UNL A   1      36.678  30.900  30.699  1.00  0.00     0.251 C 
ATOM      5  H   UNL A   1      35.259  32.310  30.722  1.00  0.00     0.163 HD
BRANCH   4   6
ATOM      6  C   UNL A   1      38.028  30.528  30.225  1.00  0.00     0.039 A 
ATOM      7  C   UNL A   1      39.113  30.505  31.105  1.00  0.00     0.014 A 
ATOM      8  C   UNL A   1      38.203  30.159  28.888  1.00  0.00     0.014 A 
ATOM      9  C   UNL A   1      40.390  30.235  30.624  1.00  0.00     0.010 A 
ATOM     10  C   UNL A   1      39.473  29.807  28.425  1.00  0.00     0.010 A 
ATOM     11  C   UNL A   1      40.582  29.862  29.284  1.00  0.00    -0.014 A 
BRANCH  11  12
ATOM     12  C   UNL A   1      41.933  29.451  28.826  1.00  0.00     0.031 A 
ATOM     13  C   UNL A   1      43.068  30.435  28.767  1.00  0.00     0.074 A 
ATOM     14  C   UNL A   1      42.130  28.167  28.469  1.00  0.00     0.049 A 
ATOM     15  N   UNL A   1      44.307  30.236  28.394  1.00  0.00    -0.248 NA
ATOM     16  C   UNL A   1      42.779  31.819  29.174  1.00  0.00     0.031 C 
ATOM     17  C   UNL A   1      41.100  27.122  28.481  1.00  0.00     0.029 A 
ATOM     18  N   UNL A   1      43.256  27.514  28.041  1.00  0.00    -0.354 N 
ATOM     19  C   UNL A   1      44.942  31.468  28.503  1.00  0.00     0.074 A 
ATOM     20  C   UNL A   1      43.944  32.415  28.955  1.00  0.00     0.031 C 
ATOM     21  C   UNL A   1      41.652  25.955  28.120  1.00  0.00     0.029 A 
ATOM     22  C   UNL A   1      43.054  26.178  27.786  1.00  0.00     0.049 A 
ATOM     23  H   UNL A   1      44.127  27.959  27.928  1.00  0.00     0.167 HD
ATOM     24  C   UNL A   1      46.237  31.778  28.254  1.00  0.00     0.031 A 
ATOM     25  C   UNL A   1      43.892  25.238  27.313  1.00  0.00     0.031 A 
ATOM     26  C   UNL A   1      47.221  30.829  27.797  1.00  0.00     0.049 A 
ATOM     27  C   UNL A   1      45.311  25.618  27.002  1.00  0.00     0.074 A 
ATOM     28  C   UNL A   1      48.566  31.038  27.544  1.00  0.00     0.029 A 
ATOM     29  N   UNL A   1      46.967  29.495  27.515  1.00  0.00    -0.354 N 
ATOM     30  N   UNL A   1      45.900  26.781  27.148  1.00  0.00    -0.248 NA
ATOM     31  C   UNL A   1      46.176  24.562  26.461  1.00  0.00     0.031 C 
ATOM     32  C   UNL A   1      49.111  29.847  27.053  1.00  0.00     0.029 A 
ATOM     33  C   UNL A   1      48.122  28.877  27.061  1.00  0.00     0.049 A 
ATOM     34  H   UNL A   1      46.095  29.052  27.621  1.00  0.00     0.167 HD
ATOM     35  C   UNL A   1      47.213  26.592  26.735  1.00  0.00     0.074 A 
ATOM     36  C   UNL A   1      47.334  25.200  26.351  1.00  0.00     0.031 C 
ATOM     37  C   UNL A   1      48.226  27.492  26.676  1.00  0.00     0.031 A 
BRANCH  24  38
ATOM     38  C   UNL A   1      46.666  33.212  28.440  1.00  0.00    -0.014 A 
ATOM     39  C   UNL A   1      47.189  33.665  29.665  1.00  0.00     0.010 A 
ATOM     40  C   UNL A   1      46.595  34.106  27.356  1.00  0.00     0.010 A 
ATOM     41  C   UNL A   1      47.596  34.994  29.812  1.00  0.00     0.020 A 
ATOM     42  C   UNL A   1      47.026  35.429  27.492  1.00  0.00     0.020 A 
ATOM     43  C   UNL A   1      47.508  35.869  28.725  1.00  0.00     0.054 A 
BRANCH  43  44
ATOM     44  S   UNL A   1      48.060  37.584  28.942  1.00  0.00     0.124 S 
ATOM     45  O   UNL A   1      49.297  37.602  28.165  1.00  0.00    -0.237 OA
ATOM     46  O   UNL A   1      46.953  38.351  28.376  1.00  0.00    -0.237 OA
ATOM     47  O   UNL A   1      48.231  37.715  30.387  1.00  0.00    -0.744 OA
ENDBRANCH  43  44
ENDBRANCH  24  38
BRANCH  25  48
ATOM     48  C   UNL A   1      43.396  23.853  27.091  1.00  0.00    -0.014 A 
ATOM     49  C   UNL A   1      43.209  22.974  28.172  1.00  0.00     0.010 A 
ATOM     50  C   UNL A   1      43.077  23.417  25.790  1.00  0.00     0.010 A 
ATOM     51  C   UNL A   1      42.725  21.681  27.954  1.00  0.00     0.020 A 
ATOM     52  C   UNL A   1      42.564  22.137  25.574  1.00  0.00     0.020 A 
ATOM     53  C   UNL A   1      42.403  21.272  26.656  1.00  0.00     0.054 A 
BRANCH  53  54
ATOM     54  S   UNL A   1      41.725  19.608  26.406  1.00  0.00     0.124 S 
ATOM     55  O   UNL A   1      40.291  19.872  26.346  1.00  0.00    -0.237 OA
ATOM     56  O   UNL A   1      42.349  19.198  25.150  1.00  0.00    -0.237 OA
ATOM     57  O   UNL A   1      42.178  18.874  27.586  1.00  0.00    -0.744 OA
ENDBRANCH  53  54
ENDBRANCH  25  48
BRANCH  37  58
ATOM     58  C   UNL A   1      49.564  26.992  26.204  1.00  0.00    -0.014 A 
ATOM     59  C   UNL A   1      49.921  27.037  24.845  1.00  0.00     0.010 A 
ATOM     60  C   UNL A   1      50.497  26.516  27.143  1.00  0.00     0.010 A 
ATOM     61  C   UNL A   1      51.177  26.589  24.429  1.00  0.00     0.020 A 
ATOM     62  C   UNL A   1      51.765  26.094  26.735  1.00  0.00     0.020 A 
ATOM     63  C   UNL A   1      52.092  26.123  25.378  1.00  0.00     0.054 A 
BRANCH  63  64
ATOM     64  S   UNL A   1      53.734  25.594  24.819  1.00  0.00     0.124 S 
ATOM     65  O   UNL A   1      54.580  25.981  25.945  1.00  0.00    -0.237 OA
ATOM     66  O   UNL A   1      53.560  24.156  24.629  1.00  0.00    -0.237 OA
ATOM     67  O   UNL A   1      53.944  26.356  23.590  1.00  0.00    -0.744 OA
ENDBRANCH  63  64
ENDBRANCH  37  58
ENDBRANCH  11  12
ENDBRANCH   4   6
ENDBRANCH   1   2
BRANCH   1  68
ATOM     68  C   UNL A   1      35.343  33.078  28.109  1.00  0.00     0.042 C 
BRANCH  68  69
ATOM     69  C   UNL A   1      34.012  33.537  28.705  1.00  0.00     0.118 C 
BRANCH  69  70
ATOM     70  N   UNL A   1      33.917  34.983  28.708  1.00  0.00    -0.351 N 
ATOM     71  C   UNL A   1      33.375  35.861  29.595  1.00  0.00     0.279 C 
ATOM     72  H   UNL A   1      34.321  35.411  27.920  1.00  0.00     0.163 HD
ATOM     73  O   UNL A   1      33.357  37.038  29.219  1.00  0.00    -0.268 OA
BRANCH  71  74
ATOM     74  C   UNL A   1      32.941  35.425  31.024  1.00  0.00     0.283 C 
ATOM     75  C   UNL A   1      32.742  36.541  32.057  1.00  0.00     0.151 C 
ATOM     76  N   UNL A   1      33.932  34.456  31.578  1.00  0.00    -0.320 N 
ATOM     77  S   UNL A   1      34.117  36.423  33.229  1.00  0.00    -0.087 SA
ATOM     78  C   UNL A   1      35.007  35.276  32.155  1.00  0.00     0.278 C 
ATOM     79  H   UNL A   1      34.298  33.857  30.838  1.00  0.00     0.348 HD
ATOM     80  H   UNL A   1      33.510  33.842  32.275  1.00  0.00     0.348 HD
BRANCH  78  81
ATOM     81  C   UNL A   1      36.088  34.444  32.803  1.00  0.00     0.063 A 
ATOM     82  C   UNL A   1      37.446  34.525  32.447  1.00  0.00     0.030 A 
ATOM     83  C   UNL A   1      35.741  33.575  33.854  1.00  0.00     0.125 A 
ATOM     84  C   UNL A   1      38.401  33.750  33.111  1.00  0.00     0.018 A 
ATOM     85  C   UNL A   1      36.694  32.813  34.527  1.00  0.00     0.048 A 
ATOM     86  Br  UNL A   1      40.218  33.854  32.595  1.00  0.00    -0.051 Br
ATOM     87  C   UNL A   1      38.032  32.900  34.151  1.00  0.00     0.019 A 
BRANCH  83  88
ATOM     88  O   UNL A   1      34.425  33.466  34.209  1.00  0.00    -0.507 OA
ATOM     89  H   UNL A   1      33.958  34.219  34.514  1.00  0.00     0.293 HD
ENDBRANCH  83  88
ENDBRANCH  78  81
ENDBRANCH  71  74
ENDBRANCH  69  70
ENDBRANCH  68  69
ENDBRANCH   1  68
TORSDOF 15
ENDMDL
