MODEL 1
REMARK VINA RESULT:     -12.3      0.000      0.000
REMARK SMILES O=C(Cn1cc(NC(=O)N2CC[N@@H+]3CCC[C@@H]3C2)cn1)NCCCNC(=O)c1ccc(-c2c3nc(c(-c4ccc(S(=O)(=O)[O-])cc4)c4ccc([nH]4)c(-c4ccc(S(=O)(=O)[O-])cc4)c4nc(c(-c5ccc(S(=O)(=O)[O-])cc5)c5ccc2[nH]5)C=C4)C=C3)cc1
REMARK SMILES IDX 23 1 22 2 21 3 1 4 2 5 3 7 4 8 5 9 20 10 6 11 19 12 7 13
REMARK SMILES IDX 8 14 9 16 10 17 11 18 18 19 12 20 17 21 13 22 16 23 14 24
REMARK SMILES IDX 15 26 24 27 25 28 26 29 27 31 28 32 29 33 87 34 30 35 86 36
REMARK SMILES IDX 31 37 32 38 33 39 80 40 34 41 85 42 79 43 81 44 35 45 84 46
REMARK SMILES IDX 78 47 77 48 36 50 66 51 47 52 65 53 48 54 51 55 64 56 82 57
REMARK SMILES IDX 49 58 50 59 63 61 83 62 52 63 37 64 38 65 46 66 39 67 45 68
REMARK SMILES IDX 40 69 41 70 42 71 43 72 44 73 67 74 68 75 76 76 69 77 75 78
REMARK SMILES IDX 70 79 71 80 72 81 73 82 74 83 53 84 54 85 62 86 55 87 61 88
REMARK SMILES IDX 56 89 57 90 58 91 59 92 60 93
REMARK H PARENT 21 6 7 15 13 25 25 30 81 49 51 60
REMARK Flexibility Score: inf
ROOT
ATOM      1  C   UNL A   1      39.652  22.729  26.973  1.00  0.00     0.042 C 
ENDROOT
BRANCH   1   2
ATOM      2  C   UNL A   1      38.748  21.832  26.125  1.00  0.00     0.117 C 
BRANCH   2   3
ATOM      3  N   UNL A   1      38.153  22.502  24.981  1.00  0.00    -0.354 N 
ATOM      4  O   UNL A   1      36.540  20.923  24.563  1.00  0.00    -0.273 OA
ATOM      5  C   UNL A   1      37.028  22.028  24.333  1.00  0.00     0.241 C 
ATOM      6  H   UNL A   1      38.570  23.332  24.652  1.00  0.00     0.163 HD
BRANCH   5   7
ATOM      7  C   UNL A   1      36.441  22.947  23.282  1.00  0.00     0.244 C 
BRANCH   7   8
ATOM      8  N   UNL A   1      35.012  23.107  23.469  1.00  0.00    -0.261 N 
ATOM      9  C   UNL A   1      34.332  23.160  24.655  1.00  0.00     0.135 A 
ATOM     10  N   UNL A   1      34.230  23.330  22.393  1.00  0.00    -0.179 NA
ATOM     11  C   UNL A   1      33.005  23.293  24.325  1.00  0.00     0.081 A 
ATOM     12  C   UNL A   1      33.002  23.403  22.913  1.00  0.00     0.161 A 
BRANCH  11  13
ATOM     13  N   UNL A   1      31.969  23.359  25.240  1.00  0.00    -0.305 N 
ATOM     14  C   UNL A   1      31.740  24.386  26.115  1.00  0.00     0.322 C 
ATOM     15  H   UNL A   1      31.342  22.600  25.262  1.00  0.00     0.171 HD
ATOM     16  O   UNL A   1      31.337  24.133  27.251  1.00  0.00    -0.248 OA
BRANCH  14  17
ATOM     17  N   UNL A   1      31.946  25.669  25.659  1.00  0.00    -0.313 N 
ATOM     18  C   UNL A   1      30.871  26.429  25.005  1.00  0.00     0.183 C 
ATOM     19  C   UNL A   1      33.098  26.429  26.127  1.00  0.00     0.186 C 
ATOM     20  C   UNL A   1      31.156  27.934  24.850  1.00  0.00     0.284 C 
ATOM     21  C   UNL A   1      32.714  27.773  26.766  1.00  0.00     0.204 C 
ATOM     22  N   UNL A   1      31.704  28.584  26.047  1.00  0.00    -0.330 N 
ATOM     23  C   UNL A   1      33.934  28.680  26.941  1.00  0.00     0.073 C 
ATOM     24  C   UNL A   1      32.310  29.883  25.718  1.00  0.00     0.262 C 
ATOM     25  H   UNL A   1      30.902  28.704  26.663  1.00  0.00     0.348 HD
ATOM     26  C   UNL A   1      33.375  30.079  26.777  1.00  0.00     0.068 C 
ENDBRANCH  14  17
ENDBRANCH  11  13
ENDBRANCH   7   8
ENDBRANCH   5   7
ENDBRANCH   2   3
ENDBRANCH   1   2
BRANCH   1  27
ATOM     27  C   UNL A   1      40.925  22.034  27.422  1.00  0.00     0.118 C 
BRANCH  27  28
ATOM     28  N   UNL A   1      42.018  22.052  26.436  1.00  0.00    -0.352 N 
ATOM     29  C   UNL A   1      42.528  23.131  25.711  1.00  0.00     0.251 C 
ATOM     30  H   UNL A   1      42.449  21.184  26.265  1.00  0.00     0.163 HD
ATOM     31  O   UNL A   1      43.191  22.945  24.708  1.00  0.00    -0.269 OA
BRANCH  29  32
ATOM     32  C   UNL A   1      42.243  24.503  26.188  1.00  0.00     0.039 A 
ATOM     33  C   UNL A   1      41.395  25.402  25.533  1.00  0.00     0.014 A 
ATOM     34  C   UNL A   1      42.850  24.876  27.374  1.00  0.00     0.014 A 
ATOM     35  C   UNL A   1      41.164  26.647  26.126  1.00  0.00     0.010 A 
ATOM     36  C   UNL A   1      42.330  25.891  28.109  1.00  0.00     0.010 A 
ATOM     37  C   UNL A   1      41.650  26.872  27.422  1.00  0.00    -0.014 A 
BRANCH  37  38
ATOM     38  C   UNL A   1      41.508  28.118  28.151  1.00  0.00     0.031 A 
ATOM     39  C   UNL A   1      42.530  29.131  27.838  1.00  0.00     0.074 A 
ATOM     40  C   UNL A   1      40.378  28.437  28.824  1.00  0.00     0.049 A 
ATOM     41  N   UNL A   1      43.536  29.455  28.571  1.00  0.00    -0.248 NA
ATOM     42  C   UNL A   1      42.538  29.737  26.499  1.00  0.00     0.031 C 
ATOM     43  C   UNL A   1      39.110  27.696  28.921  1.00  0.00     0.029 A 
ATOM     44  N   UNL A   1      40.091  29.591  29.476  1.00  0.00    -0.354 N 
ATOM     45  C   UNL A   1      44.189  30.474  27.892  1.00  0.00     0.074 A 
ATOM     46  C   UNL A   1      43.667  30.450  26.548  1.00  0.00     0.031 C 
ATOM     47  C   UNL A   1      38.141  28.516  29.392  1.00  0.00     0.029 A 
ATOM     48  C   UNL A   1      38.749  29.776  29.782  1.00  0.00     0.049 A 
ATOM     49  H   UNL A   1      40.783  30.249  29.715  1.00  0.00     0.167 HD
ATOM     50  C   UNL A   1      44.928  31.403  28.557  1.00  0.00     0.031 A 
ATOM     51  C   UNL A   1      38.188  30.907  30.282  1.00  0.00     0.031 A 
ATOM     52  C   UNL A   1      45.043  31.071  29.959  1.00  0.00     0.049 A 
ATOM     53  C   UNL A   1      39.291  31.679  30.917  1.00  0.00     0.074 A 
ATOM     54  C   UNL A   1      45.564  30.004  30.663  1.00  0.00     0.029 A 
ATOM     55  N   UNL A   1      44.167  31.703  30.817  1.00  0.00    -0.354 N 
ATOM     56  N   UNL A   1      39.947  31.252  31.961  1.00  0.00    -0.248 NA
ATOM     57  C   UNL A   1      39.990  32.671  30.113  1.00  0.00     0.031 C 
ATOM     58  C   UNL A   1      44.628  29.766  31.712  1.00  0.00     0.029 A 
ATOM     59  C   UNL A   1      43.635  30.748  31.646  1.00  0.00     0.049 A 
ATOM     60  H   UNL A   1      43.961  32.666  30.832  1.00  0.00     0.167 HD
ATOM     61  C   UNL A   1      41.276  31.561  31.702  1.00  0.00     0.074 A 
ATOM     62  C   UNL A   1      41.227  32.526  30.602  1.00  0.00     0.031 C 
ATOM     63  C   UNL A   1      42.294  30.794  32.195  1.00  0.00     0.031 A 
BRANCH  50  64
ATOM     64  C   UNL A   1      45.224  32.790  28.060  1.00  0.00    -0.014 A 
ATOM     65  C   UNL A   1      46.482  33.350  28.364  1.00  0.00     0.010 A 
ATOM     66  C   UNL A   1      44.247  33.656  27.531  1.00  0.00     0.010 A 
ATOM     67  C   UNL A   1      46.721  34.721  28.224  1.00  0.00     0.020 A 
ATOM     68  C   UNL A   1      44.490  35.018  27.345  1.00  0.00     0.020 A 
ATOM     69  C   UNL A   1      45.714  35.549  27.730  1.00  0.00     0.054 A 
BRANCH  69  70
ATOM     70  S   UNL A   1      45.995  37.334  27.667  1.00  0.00     0.124 S 
ATOM     71  O   UNL A   1      46.645  37.580  28.950  1.00  0.00    -0.237 OA
ATOM     72  O   UNL A   1      46.845  37.470  26.487  1.00  0.00    -0.237 OA
ATOM     73  O   UNL A   1      44.650  37.886  27.528  1.00  0.00    -0.744 OA
ENDBRANCH  69  70
ENDBRANCH  50  64
BRANCH  51  74
ATOM     74  C   UNL A   1      36.862  31.494  29.955  1.00  0.00    -0.014 A 
ATOM     75  C   UNL A   1      36.022  32.008  30.963  1.00  0.00     0.010 A 
ATOM     76  C   UNL A   1      36.544  31.819  28.619  1.00  0.00     0.010 A 
ATOM     77  C   UNL A   1      34.961  32.879  30.652  1.00  0.00     0.020 A 
ATOM     78  C   UNL A   1      35.486  32.678  28.301  1.00  0.00     0.020 A 
ATOM     79  C   UNL A   1      34.718  33.230  29.322  1.00  0.00     0.054 A 
BRANCH  79  80
ATOM     80  S   UNL A   1      33.495  34.523  28.939  1.00  0.00     0.124 S 
ATOM     81  O   UNL A   1      34.327  35.581  28.374  1.00  0.00    -0.237 OA
ATOM     82  O   UNL A   1      32.602  33.849  28.001  1.00  0.00    -0.237 OA
ATOM     83  O   UNL A   1      32.902  34.829  30.240  1.00  0.00    -0.744 OA
ENDBRANCH  79  80
ENDBRANCH  51  74
BRANCH  63  84
ATOM     84  C   UNL A   1      41.966  29.738  33.232  1.00  0.00    -0.014 A 
ATOM     85  C   UNL A   1      41.445  28.466  32.917  1.00  0.00     0.010 A 
ATOM     86  C   UNL A   1      42.361  29.984  34.558  1.00  0.00     0.010 A 
ATOM     87  C   UNL A   1      41.302  27.481  33.907  1.00  0.00     0.020 A 
ATOM     88  C   UNL A   1      42.239  29.003  35.545  1.00  0.00     0.020 A 
ATOM     89  C   UNL A   1      41.700  27.759  35.217  1.00  0.00     0.054 A 
BRANCH  89  90
ATOM     90  S   UNL A   1      41.551  26.470  36.489  1.00  0.00     0.124 S 
ATOM     91  O   UNL A   1      42.932  26.307  36.936  1.00  0.00    -0.237 OA
ATOM     92  O   UNL A   1      40.643  27.076  37.461  1.00  0.00    -0.237 OA
ATOM     93  O   UNL A   1      40.997  25.328  35.765  1.00  0.00    -0.744 OA
ENDBRANCH  89  90
ENDBRANCH  63  84
ENDBRANCH  37  38
ENDBRANCH  29  32
ENDBRANCH  27  28
ENDBRANCH   1  27
TORSDOF 16
ENDMDL
MODEL 2
REMARK VINA RESULT:     -12.0      1.712      2.288
REMARK SMILES O=C(Cn1cc(NC(=O)N2CC[N@@H+]3CCC[C@@H]3C2)cn1)NCCCNC(=O)c1ccc(-c2c3nc(c(-c4ccc(S(=O)(=O)[O-])cc4)c4ccc([nH]4)c(-c4ccc(S(=O)(=O)[O-])cc4)c4nc(c(-c5ccc(S(=O)(=O)[O-])cc5)c5ccc2[nH]5)C=C4)C=C3)cc1
REMARK SMILES IDX 23 1 22 2 21 3 1 4 2 5 3 7 4 8 5 9 20 10 6 11 19 12 7 13
REMARK SMILES IDX 8 14 9 16 10 17 11 18 18 19 12 20 17 21 13 22 16 23 14 24
REMARK SMILES IDX 15 26 24 27 25 28 26 29 27 31 28 32 29 33 87 34 30 35 86 36
REMARK SMILES IDX 31 37 32 38 33 39 80 40 34 41 85 42 79 43 81 44 35 45 84 46
REMARK SMILES IDX 78 47 77 48 36 50 66 51 47 52 65 53 48 54 51 55 64 56 82 57
REMARK SMILES IDX 49 58 50 59 63 61 83 62 52 63 37 64 38 65 46 66 39 67 45 68
REMARK SMILES IDX 40 69 41 70 42 71 43 72 44 73 67 74 68 75 76 76 69 77 75 78
REMARK SMILES IDX 70 79 71 80 72 81 73 82 74 83 53 84 54 85 62 86 55 87 61 88
REMARK SMILES IDX 56 89 57 90 58 91 59 92 60 93
REMARK H PARENT 21 6 7 15 13 25 25 30 81 49 51 60
REMARK Flexibility Score: inf
ROOT
ATOM      1  C   UNL A   1      37.206  21.668  24.689  1.00  0.00     0.042 C 
ENDROOT
BRANCH   1   2
ATOM      2  C   UNL A   1      36.540  20.444  25.322  1.00  0.00     0.117 C 
BRANCH   2   3
ATOM      3  N   UNL A   1      35.116  20.337  25.049  1.00  0.00    -0.354 N 
ATOM      4  O   UNL A   1      34.404  21.389  26.962  1.00  0.00    -0.273 OA
ATOM      5  C   UNL A   1      34.150  20.899  25.863  1.00  0.00     0.241 C 
ATOM      6  H   UNL A   1      34.826  19.842  24.248  1.00  0.00     0.163 HD
BRANCH   5   7
ATOM      7  C   UNL A   1      32.734  20.847  25.330  1.00  0.00     0.244 C 
BRANCH   7   8
ATOM      8  N   UNL A   1      32.486  21.933  24.402  1.00  0.00    -0.261 N 
ATOM      9  C   UNL A   1      31.401  22.768  24.373  1.00  0.00     0.135 A 
ATOM     10  N   UNL A   1      33.440  22.264  23.509  1.00  0.00    -0.179 NA
ATOM     11  C   UNL A   1      31.602  23.613  23.308  1.00  0.00     0.081 A 
ATOM     12  C   UNL A   1      32.884  23.262  22.817  1.00  0.00     0.161 A 
BRANCH  11  13
ATOM     13  N   UNL A   1      30.721  24.602  22.910  1.00  0.00    -0.305 N 
ATOM     14  C   UNL A   1      30.443  25.749  23.603  1.00  0.00     0.322 C 
ATOM     15  H   UNL A   1      30.253  24.468  22.055  1.00  0.00     0.171 HD
ATOM     16  O   UNL A   1      29.290  26.183  23.616  1.00  0.00    -0.248 OA
BRANCH  14  17
ATOM     17  N   UNL A   1      31.492  26.384  24.231  1.00  0.00    -0.313 N 
ATOM     18  C   UNL A   1      32.591  26.985  23.462  1.00  0.00     0.183 C 
ATOM     19  C   UNL A   1      31.364  26.792  25.624  1.00  0.00     0.186 C 
ATOM     20  C   UNL A   1      33.501  27.923  24.275  1.00  0.00     0.284 C 
ATOM     21  C   UNL A   1      31.619  28.293  25.838  1.00  0.00     0.204 C 
ATOM     22  N   UNL A   1      32.791  28.872  25.142  1.00  0.00    -0.330 N 
ATOM     23  C   UNL A   1      31.804  28.624  27.321  1.00  0.00     0.073 C 
ATOM     24  C   UNL A   1      33.689  29.443  26.157  1.00  0.00     0.262 C 
ATOM     25  H   UNL A   1      32.454  29.595  24.508  1.00  0.00     0.348 HD
ATOM     26  C   UNL A   1      32.776  29.786  27.315  1.00  0.00     0.068 C 
ENDBRANCH  14  17
ENDBRANCH  11  13
ENDBRANCH   7   8
ENDBRANCH   5   7
ENDBRANCH   2   3
ENDBRANCH   1   2
BRANCH   1  27
ATOM     27  C   UNL A   1      38.091  22.429  25.660  1.00  0.00     0.118 C 
BRANCH  27  28
ATOM     28  N   UNL A   1      39.377  21.778  25.962  1.00  0.00    -0.352 N 
ATOM     29  C   UNL A   1      40.583  22.361  26.357  1.00  0.00     0.251 C 
ATOM     30  H   UNL A   1      39.387  20.798  25.875  1.00  0.00     0.163 HD
ATOM     31  O   UNL A   1      41.630  21.750  26.249  1.00  0.00    -0.269 OA
BRANCH  29  32
ATOM     32  C   UNL A   1      40.560  23.735  26.906  1.00  0.00     0.039 A 
ATOM     33  C   UNL A   1      39.476  24.611  26.788  1.00  0.00     0.014 A 
ATOM     34  C   UNL A   1      41.691  24.136  27.596  1.00  0.00     0.014 A 
ATOM     35  C   UNL A   1      39.564  25.861  27.408  1.00  0.00     0.010 A 
ATOM     36  C   UNL A   1      41.611  25.154  28.490  1.00  0.00     0.010 A 
ATOM     37  C   UNL A   1      40.651  26.114  28.256  1.00  0.00    -0.014 A 
BRANCH  37  38
ATOM     38  C   UNL A   1      40.885  27.368  28.945  1.00  0.00     0.031 A 
ATOM     39  C   UNL A   1      41.895  28.235  28.314  1.00  0.00     0.074 A 
ATOM     40  C   UNL A   1      40.047  27.837  29.899  1.00  0.00     0.049 A 
ATOM     41  N   UNL A   1      43.102  28.422  28.717  1.00  0.00    -0.248 NA
ATOM     42  C   UNL A   1      41.596  28.832  27.006  1.00  0.00     0.031 C 
ATOM     43  C   UNL A   1      38.777  27.273  30.382  1.00  0.00     0.029 A 
ATOM     44  N   UNL A   1      40.110  29.019  30.559  1.00  0.00    -0.354 N 
ATOM     45  C   UNL A   1      43.657  29.343  27.840  1.00  0.00     0.074 A 
ATOM     46  C   UNL A   1      42.772  29.388  26.702  1.00  0.00     0.031 C 
ATOM     47  C   UNL A   1      38.097  28.215  31.077  1.00  0.00     0.029 A 
ATOM     48  C   UNL A   1      38.948  29.383  31.227  1.00  0.00     0.049 A 
ATOM     49  H   UNL A   1      40.919  29.579  30.565  1.00  0.00     0.167 HD
ATOM     50  C   UNL A   1      44.669  30.166  28.230  1.00  0.00     0.031 A 
ATOM     51  C   UNL A   1      38.704  30.580  31.821  1.00  0.00     0.031 A 
ATOM     52  C   UNL A   1      45.139  29.823  29.553  1.00  0.00     0.049 A 
ATOM     53  C   UNL A   1      40.032  31.198  32.084  1.00  0.00     0.074 A 
ATOM     54  C   UNL A   1      45.699  28.696  30.121  1.00  0.00     0.029 A 
ATOM     55  N   UNL A   1      44.635  30.568  30.599  1.00  0.00    -0.354 N 
ATOM     56  N   UNL A   1      40.900  30.688  32.915  1.00  0.00    -0.248 NA
ATOM     57  C   UNL A   1      40.592  32.086  31.076  1.00  0.00     0.031 C 
ATOM     58  C   UNL A   1      45.082  28.587  31.402  1.00  0.00     0.029 A 
ATOM     59  C   UNL A   1      44.246  29.693  31.583  1.00  0.00     0.049 A 
ATOM     60  H   UNL A   1      44.567  31.550  30.634  1.00  0.00     0.167 HD
ATOM     61  C   UNL A   1      42.126  30.815  32.276  1.00  0.00     0.074 A 
ATOM     62  C   UNL A   1      41.888  31.777  31.197  1.00  0.00     0.031 C 
ATOM     63  C   UNL A   1      43.137  29.919  32.488  1.00  0.00     0.031 A 
BRANCH  50  64
ATOM     64  C   UNL A   1      44.985  31.500  27.615  1.00  0.00    -0.014 A 
ATOM     65  C   UNL A   1      46.306  31.735  27.180  1.00  0.00     0.010 A 
ATOM     66  C   UNL A   1      44.121  32.611  27.670  1.00  0.00     0.010 A 
ATOM     67  C   UNL A   1      46.759  33.028  26.897  1.00  0.00     0.020 A 
ATOM     68  C   UNL A   1      44.551  33.899  27.346  1.00  0.00     0.020 A 
ATOM     69  C   UNL A   1      45.879  34.104  26.999  1.00  0.00     0.054 A 
BRANCH  69  70
ATOM     70  S   UNL A   1      46.508  35.780  26.747  1.00  0.00     0.124 S 
ATOM     71  O   UNL A   1      45.291  36.577  26.860  1.00  0.00    -0.237 OA
ATOM     72  O   UNL A   1      47.463  35.919  27.844  1.00  0.00    -0.237 OA
ATOM     73  O   UNL A   1      47.101  35.725  25.413  1.00  0.00    -0.744 OA
ENDBRANCH  69  70
ENDBRANCH  50  64
BRANCH  51  74
ATOM     74  C   UNL A   1      37.426  31.339  31.861  1.00  0.00    -0.014 A 
ATOM     75  C   UNL A   1      36.768  31.595  33.081  1.00  0.00     0.010 A 
ATOM     76  C   UNL A   1      37.002  32.067  30.730  1.00  0.00     0.010 A 
ATOM     77  C   UNL A   1      35.786  32.600  33.180  1.00  0.00     0.020 A 
ATOM     78  C   UNL A   1      36.021  33.062  30.819  1.00  0.00     0.020 A 
ATOM     79  C   UNL A   1      35.439  33.346  32.051  1.00  0.00     0.054 A 
BRANCH  79  80
ATOM     80  S   UNL A   1      34.339  34.785  32.225  1.00  0.00     0.124 S 
ATOM     81  O   UNL A   1      33.211  34.227  32.964  1.00  0.00    -0.237 OA
ATOM     82  O   UNL A   1      35.170  35.735  32.958  1.00  0.00    -0.237 OA
ATOM     83  O   UNL A   1      34.049  35.163  30.842  1.00  0.00    -0.744 OA
ENDBRANCH  79  80
ENDBRANCH  51  74
BRANCH  63  84
ATOM     84  C   UNL A   1      42.988  28.918  33.617  1.00  0.00    -0.014 A 
ATOM     85  C   UNL A   1      43.491  29.125  34.918  1.00  0.00     0.010 A 
ATOM     86  C   UNL A   1      42.159  27.806  33.395  1.00  0.00     0.010 A 
ATOM     87  C   UNL A   1      43.192  28.228  35.957  1.00  0.00     0.020 A 
ATOM     88  C   UNL A   1      41.842  26.920  34.427  1.00  0.00     0.020 A 
ATOM     89  C   UNL A   1      42.368  27.129  35.702  1.00  0.00     0.054 A 
BRANCH  89  90
ATOM     90  S   UNL A   1      41.950  25.992  37.055  1.00  0.00     0.124 S 
ATOM     91  O   UNL A   1      42.999  26.268  38.034  1.00  0.00    -0.237 OA
ATOM     92  O   UNL A   1      40.606  26.421  37.436  1.00  0.00    -0.237 OA
ATOM     93  O   UNL A   1      42.017  24.671  36.433  1.00  0.00    -0.744 OA
ENDBRANCH  89  90
ENDBRANCH  63  84
ENDBRANCH  37  38
ENDBRANCH  29  32
ENDBRANCH  27  28
ENDBRANCH   1  27
TORSDOF 16
ENDMDL
MODEL 3
REMARK VINA RESULT:     -11.8      3.305      7.902
REMARK SMILES O=C(Cn1cc(NC(=O)N2CC[N@@H+]3CCC[C@@H]3C2)cn1)NCCCNC(=O)c1ccc(-c2c3nc(c(-c4ccc(S(=O)(=O)[O-])cc4)c4ccc([nH]4)c(-c4ccc(S(=O)(=O)[O-])cc4)c4nc(c(-c5ccc(S(=O)(=O)[O-])cc5)c5ccc2[nH]5)C=C4)C=C3)cc1
REMARK SMILES IDX 23 1 22 2 21 3 1 4 2 5 3 7 4 8 5 9 20 10 6 11 19 12 7 13
REMARK SMILES IDX 8 14 9 16 10 17 11 18 18 19 12 20 17 21 13 22 16 23 14 24
REMARK SMILES IDX 15 26 24 27 25 28 26 29 27 31 28 32 29 33 87 34 30 35 86 36
REMARK SMILES IDX 31 37 32 38 33 39 80 40 34 41 85 42 79 43 81 44 35 45 84 46
REMARK SMILES IDX 78 47 77 48 36 50 66 51 47 52 65 53 48 54 51 55 64 56 82 57
REMARK SMILES IDX 49 58 50 59 63 61 83 62 52 63 37 64 38 65 46 66 39 67 45 68
REMARK SMILES IDX 40 69 41 70 42 71 43 72 44 73 67 74 68 75 76 76 69 77 75 78
REMARK SMILES IDX 70 79 71 80 72 81 73 82 74 83 53 84 54 85 62 86 55 87 61 88
REMARK SMILES IDX 56 89 57 90 58 91 59 92 60 93
REMARK H PARENT 21 6 7 15 13 25 25 30 81 49 51 60
REMARK Flexibility Score: inf
ROOT
ATOM      1  C   UNL A   1      37.760  19.900  24.469  1.00  0.00     0.042 C 
ENDROOT
BRANCH   1   2
ATOM      2  C   UNL A   1      36.399  19.344  24.896  1.00  0.00     0.117 C 
BRANCH   2   3
ATOM      3  N   UNL A   1      35.420  20.366  25.229  1.00  0.00    -0.354 N 
ATOM      4  O   UNL A   1      33.561  19.131  24.688  1.00  0.00    -0.273 OA
ATOM      5  C   UNL A   1      34.057  20.146  25.176  1.00  0.00     0.241 C 
ATOM      6  H   UNL A   1      35.743  21.255  25.505  1.00  0.00     0.163 HD
BRANCH   5   7
ATOM      7  C   UNL A   1      33.192  21.259  25.731  1.00  0.00     0.244 C 
BRANCH   7   8
ATOM      8  N   UNL A   1      32.757  22.156  24.677  1.00  0.00    -0.261 N 
ATOM      9  C   UNL A   1      31.645  22.953  24.673  1.00  0.00     0.135 A 
ATOM     10  N   UNL A   1      33.549  22.336  23.601  1.00  0.00    -0.179 NA
ATOM     11  C   UNL A   1      31.644  23.595  23.458  1.00  0.00     0.081 A 
ATOM     12  C   UNL A   1      32.850  23.183  22.841  1.00  0.00     0.161 A 
BRANCH  11  13
ATOM     13  N   UNL A   1      30.669  24.481  23.037  1.00  0.00    -0.305 N 
ATOM     14  C   UNL A   1      30.354  25.669  23.641  1.00  0.00     0.322 C 
ATOM     15  H   UNL A   1      30.157  24.235  22.233  1.00  0.00     0.171 HD
ATOM     16  O   UNL A   1      29.177  26.024  23.697  1.00  0.00    -0.248 OA
BRANCH  14  17
ATOM     17  N   UNL A   1      31.393  26.428  24.130  1.00  0.00    -0.313 N 
ATOM     18  C   UNL A   1      32.212  27.266  23.242  1.00  0.00     0.183 C 
ATOM     19  C   UNL A   1      31.480  26.704  25.558  1.00  0.00     0.186 C 
ATOM     20  C   UNL A   1      33.105  28.286  23.970  1.00  0.00     0.284 C 
ATOM     21  C   UNL A   1      31.534  28.206  25.880  1.00  0.00     0.204 C 
ATOM     22  N   UNL A   1      32.440  29.030  25.047  1.00  0.00    -0.330 N 
ATOM     23  C   UNL A   1      31.953  28.455  27.330  1.00  0.00     0.073 C 
ATOM     24  C   UNL A   1      33.420  29.673  25.936  1.00  0.00     0.262 C 
ATOM     25  H   UNL A   1      31.876  29.729  24.565  1.00  0.00     0.348 HD
ATOM     26  C   UNL A   1      32.711  29.766  27.271  1.00  0.00     0.068 C 
ENDBRANCH  14  17
ENDBRANCH  11  13
ENDBRANCH   7   8
ENDBRANCH   5   7
ENDBRANCH   2   3
ENDBRANCH   1   2
BRANCH   1  27
ATOM     27  C   UNL A   1      38.698  20.134  25.639  1.00  0.00     0.118 C 
BRANCH  27  28
ATOM     28  N   UNL A   1      39.799  19.164  25.751  1.00  0.00    -0.352 N 
ATOM     29  C   UNL A   1      41.164  19.401  25.928  1.00  0.00     0.251 C 
ATOM     30  H   UNL A   1      39.537  18.217  25.695  1.00  0.00     0.163 HD
ATOM     31  O   UNL A   1      41.982  18.537  25.673  1.00  0.00    -0.269 OA
BRANCH  29  32
ATOM     32  C   UNL A   1      41.593  20.726  26.430  1.00  0.00     0.039 A 
ATOM     33  C   UNL A   1      42.275  21.675  25.661  1.00  0.00     0.014 A 
ATOM     34  C   UNL A   1      41.258  21.021  27.740  1.00  0.00     0.014 A 
ATOM     35  C   UNL A   1      42.566  22.913  26.241  1.00  0.00     0.010 A 
ATOM     36  C   UNL A   1      41.198  22.314  28.147  1.00  0.00     0.010 A 
ATOM     37  C   UNL A   1      42.017  23.210  27.497  1.00  0.00    -0.014 A 
BRANCH  37  38
ATOM     38  C   UNL A   1      42.251  24.440  28.229  1.00  0.00     0.031 A 
ATOM     39  C   UNL A   1      41.179  25.442  28.102  1.00  0.00     0.074 A 
ATOM     40  C   UNL A   1      43.208  24.545  29.179  1.00  0.00     0.049 A 
ATOM     41  N   UNL A   1      41.210  26.510  27.384  1.00  0.00    -0.248 NA
ATOM     42  C   UNL A   1      39.868  25.155  28.700  1.00  0.00     0.031 C 
ATOM     43  C   UNL A   1      44.121  23.515  29.701  1.00  0.00     0.029 A 
ATOM     44  N   UNL A   1      43.476  25.604  29.983  1.00  0.00    -0.354 N 
ATOM     45  C   UNL A   1      40.004  27.156  27.613  1.00  0.00     0.074 A 
ATOM     46  C   UNL A   1      39.147  26.183  28.244  1.00  0.00     0.031 C 
ATOM     47  C   UNL A   1      44.667  23.940  30.864  1.00  0.00     0.029 A 
ATOM     48  C   UNL A   1      44.276  25.322  31.082  1.00  0.00     0.049 A 
ATOM     49  H   UNL A   1      43.131  26.507  29.799  1.00  0.00     0.167 HD
ATOM     50  C   UNL A   1      39.893  28.507  27.480  1.00  0.00     0.031 A 
ATOM     51  C   UNL A   1      44.552  26.163  32.111  1.00  0.00     0.031 A 
ATOM     52  C   UNL A   1      41.106  29.078  26.940  1.00  0.00     0.049 A 
ATOM     53  C   UNL A   1      44.304  27.542  31.607  1.00  0.00     0.074 A 
ATOM     54  C   UNL A   1      41.813  28.919  25.766  1.00  0.00     0.029 A 
ATOM     55  N   UNL A   1      41.991  29.619  27.850  1.00  0.00    -0.354 N 
ATOM     56  N   UNL A   1      45.010  28.085  30.653  1.00  0.00    -0.248 NA
ATOM     57  C   UNL A   1      42.984  28.122  31.805  1.00  0.00     0.031 C 
ATOM     58  C   UNL A   1      43.183  28.911  26.162  1.00  0.00     0.029 A 
ATOM     59  C   UNL A   1      43.244  29.152  27.538  1.00  0.00     0.049 A 
ATOM     60  H   UNL A   1      41.766  30.231  28.588  1.00  0.00     0.167 HD
ATOM     61  C   UNL A   1      44.084  28.743  29.853  1.00  0.00     0.074 A 
ATOM     62  C   UNL A   1      42.871  28.819  30.669  1.00  0.00     0.031 C 
ATOM     63  C   UNL A   1      44.289  28.901  28.510  1.00  0.00     0.031 A 
BRANCH  50  64
ATOM     64  C   UNL A   1      38.872  29.364  28.176  1.00  0.00    -0.014 A 
ATOM     65  C   UNL A   1      37.605  29.506  27.575  1.00  0.00     0.010 A 
ATOM     66  C   UNL A   1      39.176  30.226  29.247  1.00  0.00     0.010 A 
ATOM     67  C   UNL A   1      36.721  30.514  27.972  1.00  0.00     0.020 A 
ATOM     68  C   UNL A   1      38.282  31.207  29.681  1.00  0.00     0.020 A 
ATOM     69  C   UNL A   1      37.076  31.370  29.014  1.00  0.00     0.054 A 
BRANCH  69  70
ATOM     70  S   UNL A   1      35.978  32.743  29.436  1.00  0.00     0.124 S 
ATOM     71  O   UNL A   1      34.856  32.519  28.530  1.00  0.00    -0.237 OA
ATOM     72  O   UNL A   1      35.710  32.499  30.851  1.00  0.00    -0.237 OA
ATOM     73  O   UNL A   1      36.787  33.927  29.154  1.00  0.00    -0.744 OA
ENDBRANCH  69  70
ENDBRANCH  50  64
BRANCH  51  74
ATOM     74  C   UNL A   1      44.685  25.833  33.555  1.00  0.00    -0.014 A 
ATOM     75  C   UNL A   1      45.767  26.317  34.318  1.00  0.00     0.010 A 
ATOM     76  C   UNL A   1      43.592  25.283  34.257  1.00  0.00     0.010 A 
ATOM     77  C   UNL A   1      45.718  26.327  35.725  1.00  0.00     0.020 A 
ATOM     78  C   UNL A   1      43.540  25.282  35.656  1.00  0.00     0.020 A 
ATOM     79  C   UNL A   1      44.590  25.834  36.384  1.00  0.00     0.054 A 
BRANCH  79  80
ATOM     80  S   UNL A   1      44.431  26.050  38.184  1.00  0.00     0.124 S 
ATOM     81  O   UNL A   1      43.032  26.442  38.328  1.00  0.00    -0.237 OA
ATOM     82  O   UNL A   1      44.775  24.727  38.696  1.00  0.00    -0.237 OA
ATOM     83  O   UNL A   1      45.402  27.099  38.490  1.00  0.00    -0.744 OA
ENDBRANCH  79  80
ENDBRANCH  51  74
BRANCH  63  84
ATOM     84  C   UNL A   1      45.654  28.562  27.944  1.00  0.00    -0.014 A 
ATOM     85  C   UNL A   1      46.045  27.260  27.569  1.00  0.00     0.010 A 
ATOM     86  C   UNL A   1      46.507  29.631  27.620  1.00  0.00     0.010 A 
ATOM     87  C   UNL A   1      47.266  27.035  26.913  1.00  0.00     0.020 A 
ATOM     88  C   UNL A   1      47.715  29.417  26.952  1.00  0.00     0.020 A 
ATOM     89  C   UNL A   1      48.094  28.119  26.611  1.00  0.00     0.054 A 
BRANCH  89  90
ATOM     90  S   UNL A   1      49.655  27.831  25.727  1.00  0.00     0.124 S 
ATOM     91  O   UNL A   1      50.279  29.152  25.752  1.00  0.00    -0.237 OA
ATOM     92  O   UNL A   1      50.308  26.812  26.545  1.00  0.00    -0.237 OA
ATOM     93  O   UNL A   1      49.228  27.374  24.406  1.00  0.00    -0.744 OA
ENDBRANCH  89  90
ENDBRANCH  63  84
ENDBRANCH  37  38
ENDBRANCH  29  32
ENDBRANCH  27  28
ENDBRANCH   1  27
TORSDOF 16
ENDMDL
