MODEL 1
REMARK VINA RESULT:     -10.8      0.000      0.000
REMARK SMILES CN(C(=O)N[C@@H]1C=C[C@@H](C(=O)NCCCNC(=O)c2ccc(-c3c4nc(c(-c5ccc(S(=O)(=O)[O-])cc5)c5ccc([nH]5)c(-c5ccc(S(=O)(=O)[O-])cc5)c5nc(c(-c6ccc(S(=O)(=O)[O-])cc6)c6ccc3[nH]6)C=C5)C=C4)cc2)C1)[C@H]1CCS(=O)(=O)C1
REMARK SMILES IDX 14 1 13 2 12 3 10 4 11 5 9 7 6 8 7 9 79 10 8 11 5 12 3 13
REMARK SMILES IDX 4 14 2 16 1 17 80 18 81 19 86 20 82 21 83 22 84 23 85 24
REMARK SMILES IDX 15 25 16 26 17 27 18 29 19 30 20 31 78 32 21 33 77 34 22 35
REMARK SMILES IDX 23 36 24 37 71 38 25 39 76 40 70 41 72 42 26 43 75 44 69 45
REMARK SMILES IDX 68 46 27 48 57 49 38 50 56 51 39 52 42 53 55 54 73 55 40 56
REMARK SMILES IDX 41 57 54 59 74 60 43 61 28 62 29 63 37 64 30 65 36 66 31 67
REMARK SMILES IDX 32 68 33 69 34 70 35 71 58 72 59 73 67 74 60 75 66 76 61 77
REMARK SMILES IDX 62 78 63 79 64 80 65 81 44 82 45 83 53 84 46 85 52 86 47 87
REMARK SMILES IDX 48 88 49 89 50 90 51 91
REMARK H PARENT 12 6 5 15 16 28 72 47 42 58
REMARK Flexibility Score: inf
ROOT
ATOM      1  C   UNL A   1      40.627  20.436  26.906  1.00  0.00     0.042 C 
ENDROOT
BRANCH   1   2
ATOM      2  C   UNL A   1      41.031  19.384  25.877  1.00  0.00     0.117 C 
BRANCH   2   3
ATOM      3  N   UNL A   1      41.995  18.436  26.401  1.00  0.00    -0.356 N 
ATOM      4  C   UNL A   1      43.324  18.274  26.163  1.00  0.00     0.227 C 
ATOM      5  O   UNL A   1      43.912  17.432  26.849  1.00  0.00    -0.274 OA
ATOM      6  H   UNL A   1      41.619  17.794  27.045  1.00  0.00     0.163 HD
BRANCH   4   7
ATOM      7  C   UNL A   1      44.098  19.077  25.111  1.00  0.00     0.103 C 
ATOM      8  C   UNL A   1      45.716  20.905  25.471  1.00  0.00     0.107 C 
ATOM      9  C   UNL A   1      46.379  19.628  25.050  1.00  0.00    -0.006 C 
ATOM     10  C   UNL A   1      44.214  20.579  25.385  1.00  0.00     0.047 C 
ATOM     11  C   UNL A   1      45.507  18.626  24.897  1.00  0.00    -0.016 C 
BRANCH   8  12
ATOM     12  N   UNL A   1      46.125  21.961  24.580  1.00  0.00    -0.332 N 
ATOM     13  C   UNL A   1      46.227  23.299  24.623  1.00  0.00     0.317 C 
ATOM     14  O   UNL A   1      46.688  23.783  23.585  1.00  0.00    -0.249 OA
ATOM     15  H   UNL A   1      46.404  21.606  23.706  1.00  0.00     0.165 HD
BRANCH  13  16
ATOM     16  N   UNL A   1      45.849  24.079  25.691  1.00  0.00    -0.324 N 
ATOM     17  C   UNL A   1      46.111  23.779  27.097  1.00  0.00     0.149 C 
BRANCH  16  18
ATOM     18  C   UNL A   1      45.487  25.509  25.417  1.00  0.00     0.102 C 
ATOM     19  C   UNL A   1      44.047  25.929  25.805  1.00  0.00     0.042 C 
ATOM     20  C   UNL A   1      46.363  26.530  26.165  1.00  0.00     0.162 C 
ATOM     21  C   UNL A   1      43.944  27.436  25.604  1.00  0.00     0.139 C 
ATOM     22  S   UNL A   1      45.542  28.091  26.000  1.00  0.00     0.152 S 
ATOM     23  O   UNL A   1      46.062  28.767  24.831  1.00  0.00    -0.229 OA
ATOM     24  O   UNL A   1      45.478  28.721  27.303  1.00  0.00    -0.229 OA
ENDBRANCH  16  18
ENDBRANCH  13  16
ENDBRANCH   8  12
ENDBRANCH   4   7
ENDBRANCH   2   3
ENDBRANCH   1   2
BRANCH   1  25
ATOM     25  C   UNL A   1      40.708  21.868  26.389  1.00  0.00     0.118 C 
BRANCH  25  26
ATOM     26  N   UNL A   1      39.463  22.308  25.777  1.00  0.00    -0.352 N 
ATOM     27  C   UNL A   1      38.713  23.438  25.982  1.00  0.00     0.251 C 
ATOM     28  H   UNL A   1      39.097  21.692  25.102  1.00  0.00     0.163 HD
ATOM     29  O   UNL A   1      37.581  23.492  25.507  1.00  0.00    -0.269 OA
BRANCH  27  30
ATOM     30  C   UNL A   1      39.237  24.574  26.773  1.00  0.00     0.039 A 
ATOM     31  C   UNL A   1      40.035  25.523  26.129  1.00  0.00     0.014 A 
ATOM     32  C   UNL A   1      38.989  24.691  28.144  1.00  0.00     0.014 A 
ATOM     33  C   UNL A   1      40.533  26.613  26.844  1.00  0.00     0.010 A 
ATOM     34  C   UNL A   1      39.411  25.827  28.835  1.00  0.00     0.010 A 
ATOM     35  C   UNL A   1      40.192  26.797  28.195  1.00  0.00    -0.014 A 
BRANCH  35  36
ATOM     36  C   UNL A   1      40.625  28.020  28.921  1.00  0.00     0.031 A 
ATOM     37  C   UNL A   1      42.005  28.129  29.510  1.00  0.00     0.074 A 
ATOM     38  C   UNL A   1      39.746  29.031  29.077  1.00  0.00     0.049 A 
ATOM     39  N   UNL A   1      42.557  29.142  30.128  1.00  0.00    -0.248 NA
ATOM     40  C   UNL A   1      42.870  26.943  29.415  1.00  0.00     0.031 C 
ATOM     41  C   UNL A   1      38.358  29.022  28.608  1.00  0.00     0.029 A 
ATOM     42  N   UNL A   1      39.890  30.262  29.664  1.00  0.00    -0.354 N 
ATOM     43  C   UNL A   1      43.825  28.714  30.505  1.00  0.00     0.074 A 
ATOM     44  C   UNL A   1      43.939  27.332  30.095  1.00  0.00     0.031 C 
ATOM     45  C   UNL A   1      37.793  30.207  28.884  1.00  0.00     0.029 A 
ATOM     46  C   UNL A   1      38.761  31.044  29.586  1.00  0.00     0.049 A 
ATOM     47  H   UNL A   1      40.721  30.559  30.100  1.00  0.00     0.167 HD
ATOM     48  C   UNL A   1      44.810  29.412  31.121  1.00  0.00     0.031 A 
ATOM     49  C   UNL A   1      38.525  32.295  30.025  1.00  0.00     0.031 A 
ATOM     50  C   UNL A   1      44.686  30.787  31.536  1.00  0.00     0.049 A 
ATOM     51  C   UNL A   1      39.634  33.055  30.695  1.00  0.00     0.074 A 
ATOM     52  C   UNL A   1      45.645  31.603  32.110  1.00  0.00     0.029 A 
ATOM     53  N   UNL A   1      43.527  31.545  31.439  1.00  0.00    -0.354 N 
ATOM     54  N   UNL A   1      40.857  32.663  30.960  1.00  0.00    -0.248 NA
ATOM     55  C   UNL A   1      39.336  34.432  31.106  1.00  0.00     0.031 C 
ATOM     56  C   UNL A   1      45.047  32.829  32.424  1.00  0.00     0.029 A 
ATOM     57  C   UNL A   1      43.738  32.806  31.973  1.00  0.00     0.049 A 
ATOM     58  H   UNL A   1      42.680  31.231  31.048  1.00  0.00     0.167 HD
ATOM     59  C   UNL A   1      41.484  33.754  31.551  1.00  0.00     0.074 A 
ATOM     60  C   UNL A   1      40.509  34.828  31.580  1.00  0.00     0.031 C 
ATOM     61  C   UNL A   1      42.753  33.860  32.021  1.00  0.00     0.031 A 
BRANCH  48  62
ATOM     62  C   UNL A   1      46.104  28.688  31.406  1.00  0.00    -0.014 A 
ATOM     63  C   UNL A   1      46.292  27.960  32.597  1.00  0.00     0.010 A 
ATOM     64  C   UNL A   1      47.143  28.718  30.458  1.00  0.00     0.010 A 
ATOM     65  C   UNL A   1      47.511  27.327  32.858  1.00  0.00     0.020 A 
ATOM     66  C   UNL A   1      48.351  28.057  30.699  1.00  0.00     0.020 A 
ATOM     67  C   UNL A   1      48.536  27.385  31.909  1.00  0.00     0.054 A 
BRANCH  67  68
ATOM     68  S   UNL A   1      50.108  26.557  32.274  1.00  0.00     0.124 S 
ATOM     69  O   UNL A   1      50.785  26.614  30.982  1.00  0.00    -0.237 OA
ATOM     70  O   UNL A   1      50.679  27.402  33.320  1.00  0.00    -0.237 OA
ATOM     71  O   UNL A   1      49.705  25.221  32.707  1.00  0.00    -0.744 OA
ENDBRANCH  67  68
ENDBRANCH  48  62
BRANCH  49  72
ATOM     72  C   UNL A   1      37.185  32.905  29.810  1.00  0.00    -0.014 A 
ATOM     73  C   UNL A   1      36.344  33.198  30.898  1.00  0.00     0.010 A 
ATOM     74  C   UNL A   1      36.765  33.248  28.511  1.00  0.00     0.010 A 
ATOM     75  C   UNL A   1      35.109  33.819  30.691  1.00  0.00     0.020 A 
ATOM     76  C   UNL A   1      35.546  33.897  28.303  1.00  0.00     0.020 A 
ATOM     77  C   UNL A   1      34.723  34.175  29.395  1.00  0.00     0.054 A 
BRANCH  77  78
ATOM     78  S   UNL A   1      33.158  35.062  29.165  1.00  0.00     0.124 S 
ATOM     79  O   UNL A   1      32.549  34.957  30.486  1.00  0.00    -0.237 OA
ATOM     80  O   UNL A   1      33.609  36.397  28.779  1.00  0.00    -0.237 OA
ATOM     81  O   UNL A   1      32.492  34.308  28.104  1.00  0.00    -0.744 OA
ENDBRANCH  77  78
ENDBRANCH  49  72
BRANCH  61  82
ATOM     82  C   UNL A   1      43.167  35.196  32.587  1.00  0.00    -0.014 A 
ATOM     83  C   UNL A   1      43.048  35.483  33.960  1.00  0.00     0.010 A 
ATOM     84  C   UNL A   1      43.700  36.174  31.729  1.00  0.00     0.010 A 
ATOM     85  C   UNL A   1      43.401  36.743  34.452  1.00  0.00     0.020 A 
ATOM     86  C   UNL A   1      44.086  37.423  32.223  1.00  0.00     0.020 A 
ATOM     87  C   UNL A   1      43.912  37.707  33.578  1.00  0.00     0.054 A 
BRANCH  87  88
ATOM     88  S   UNL A   1      44.364  39.333  34.241  1.00  0.00     0.124 S 
ATOM     89  O   UNL A   1      43.431  40.215  33.544  1.00  0.00    -0.237 OA
ATOM     90  O   UNL A   1      44.127  39.173  35.673  1.00  0.00    -0.237 OA
ATOM     91  O   UNL A   1      45.767  39.486  33.860  1.00  0.00    -0.744 OA
ENDBRANCH  87  88
ENDBRANCH  61  82
ENDBRANCH  35  36
ENDBRANCH  27  30
ENDBRANCH  25  26
ENDBRANCH   1  25
TORSDOF 16
ENDMDL
MODEL 2
REMARK VINA RESULT:     -10.7      4.452      7.196
REMARK SMILES CN(C(=O)N[C@@H]1C=C[C@@H](C(=O)NCCCNC(=O)c2ccc(-c3c4nc(c(-c5ccc(S(=O)(=O)[O-])cc5)c5ccc([nH]5)c(-c5ccc(S(=O)(=O)[O-])cc5)c5nc(c(-c6ccc(S(=O)(=O)[O-])cc6)c6ccc3[nH]6)C=C5)C=C4)cc2)C1)[C@H]1CCS(=O)(=O)C1
REMARK SMILES IDX 14 1 13 2 12 3 10 4 11 5 9 7 6 8 7 9 79 10 8 11 5 12 3 13
REMARK SMILES IDX 4 14 2 16 1 17 80 18 81 19 86 20 82 21 83 22 84 23 85 24
REMARK SMILES IDX 15 25 16 26 17 27 18 29 19 30 20 31 78 32 21 33 77 34 22 35
REMARK SMILES IDX 23 36 24 37 71 38 25 39 76 40 70 41 72 42 26 43 75 44 69 45
REMARK SMILES IDX 68 46 27 48 57 49 38 50 56 51 39 52 42 53 55 54 73 55 40 56
REMARK SMILES IDX 41 57 54 59 74 60 43 61 28 62 29 63 37 64 30 65 36 66 31 67
REMARK SMILES IDX 32 68 33 69 34 70 35 71 58 72 59 73 67 74 60 75 66 76 61 77
REMARK SMILES IDX 62 78 63 79 64 80 65 81 44 82 45 83 53 84 46 85 52 86 47 87
REMARK SMILES IDX 48 88 49 89 50 90 51 91
REMARK H PARENT 12 6 5 15 16 28 72 47 42 58
REMARK Flexibility Score: inf
ROOT
ATOM      1  C   UNL A   1      40.168  22.139  26.805  1.00  0.00     0.042 C 
ENDROOT
BRANCH   1   2
ATOM      2  C   UNL A   1      38.815  22.827  26.657  1.00  0.00     0.117 C 
BRANCH   2   3
ATOM      3  N   UNL A   1      38.329  22.811  25.291  1.00  0.00    -0.356 N 
ATOM      4  C   UNL A   1      37.078  22.672  24.779  1.00  0.00     0.227 C 
ATOM      5  O   UNL A   1      36.959  22.806  23.557  1.00  0.00    -0.274 OA
ATOM      6  H   UNL A   1      39.033  22.920  24.612  1.00  0.00     0.163 HD
BRANCH   4   7
ATOM      7  C   UNL A   1      35.843  22.368  25.637  1.00  0.00     0.103 C 
ATOM      8  C   UNL A   1      33.509  23.072  25.256  1.00  0.00     0.107 C 
ATOM      9  C   UNL A   1      33.722  21.617  24.967  1.00  0.00    -0.006 C 
ATOM     10  C   UNL A   1      34.866  23.533  25.818  1.00  0.00     0.047 C 
ATOM     11  C   UNL A   1      34.996  21.244  25.131  1.00  0.00    -0.016 C 
BRANCH   8  12
ATOM     12  N   UNL A   1      32.424  23.210  26.195  1.00  0.00    -0.332 N 
ATOM     13  C   UNL A   1      31.432  24.082  26.430  1.00  0.00     0.317 C 
ATOM     14  O   UNL A   1      30.693  23.738  27.358  1.00  0.00    -0.249 OA
ATOM     15  H   UNL A   1      32.406  22.463  26.835  1.00  0.00     0.165 HD
BRANCH  13  16
ATOM     16  N   UNL A   1      31.242  25.256  25.739  1.00  0.00    -0.324 N 
ATOM     17  C   UNL A   1      30.000  25.666  25.087  1.00  0.00     0.149 C 
BRANCH  16  18
ATOM     18  C   UNL A   1      32.219  26.370  25.973  1.00  0.00     0.102 C 
ATOM     19  C   UNL A   1      33.133  26.732  24.776  1.00  0.00     0.042 C 
ATOM     20  C   UNL A   1      31.558  27.715  26.328  1.00  0.00     0.162 C 
ATOM     21  C   UNL A   1      33.918  27.979  25.164  1.00  0.00     0.139 C 
ATOM     22  S   UNL A   1      32.835  28.936  26.190  1.00  0.00     0.152 S 
ATOM     23  O   UNL A   1      33.460  29.103  27.484  1.00  0.00    -0.229 OA
ATOM     24  O   UNL A   1      32.328  30.052  25.417  1.00  0.00    -0.229 OA
ENDBRANCH  16  18
ENDBRANCH  13  16
ENDBRANCH   8  12
ENDBRANCH   4   7
ENDBRANCH   2   3
ENDBRANCH   1   2
BRANCH   1  25
ATOM     25  C   UNL A   1      41.306  23.086  27.171  1.00  0.00     0.118 C 
BRANCH  25  26
ATOM     26  N   UNL A   1      41.612  24.025  26.101  1.00  0.00    -0.352 N 
ATOM     27  C   UNL A   1      41.552  25.395  26.066  1.00  0.00     0.251 C 
ATOM     28  H   UNL A   1      41.913  23.606  25.262  1.00  0.00     0.163 HD
ATOM     29  O   UNL A   1      41.649  25.963  24.981  1.00  0.00    -0.269 OA
BRANCH  27  30
ATOM     30  C   UNL A   1      41.359  26.186  27.301  1.00  0.00     0.039 A 
ATOM     31  C   UNL A   1      42.325  27.138  27.640  1.00  0.00     0.014 A 
ATOM     32  C   UNL A   1      40.267  25.974  28.147  1.00  0.00     0.014 A 
ATOM     33  C   UNL A   1      42.165  27.911  28.791  1.00  0.00     0.010 A 
ATOM     34  C   UNL A   1      40.063  26.808  29.246  1.00  0.00     0.010 A 
ATOM     35  C   UNL A   1      41.012  27.781  29.584  1.00  0.00    -0.014 A 
BRANCH  35  36
ATOM     36  C   UNL A   1      40.787  28.688  30.741  1.00  0.00     0.031 A 
ATOM     37  C   UNL A   1      41.618  28.576  31.990  1.00  0.00     0.074 A 
ATOM     38  C   UNL A   1      39.798  29.601  30.671  1.00  0.00     0.049 A 
ATOM     39  N   UNL A   1      41.586  29.319  33.068  1.00  0.00    -0.248 NA
ATOM     40  C   UNL A   1      42.594  27.477  32.051  1.00  0.00     0.031 C 
ATOM     41  C   UNL A   1      38.881  29.767  29.541  1.00  0.00     0.029 A 
ATOM     42  N   UNL A   1      39.402  30.566  31.563  1.00  0.00    -0.354 N 
ATOM     43  C   UNL A   1      42.524  28.773  33.936  1.00  0.00     0.074 A 
ATOM     44  C   UNL A   1      43.069  27.603  33.281  1.00  0.00     0.031 C 
ATOM     45  C   UNL A   1      38.062  30.801  29.786  1.00  0.00     0.029 A 
ATOM     46  C   UNL A   1      38.364  31.344  31.107  1.00  0.00     0.049 A 
ATOM     47  H   UNL A   1      39.821  30.690  32.445  1.00  0.00     0.167 HD
ATOM     48  C   UNL A   1      42.909  29.213  35.159  1.00  0.00     0.031 A 
ATOM     49  C   UNL A   1      37.725  32.381  31.680  1.00  0.00     0.031 A 
ATOM     50  C   UNL A   1      42.354  30.373  35.809  1.00  0.00     0.049 A 
ATOM     51  C   UNL A   1      38.175  32.860  33.030  1.00  0.00     0.074 A 
ATOM     52  C   UNL A   1      42.720  30.939  37.018  1.00  0.00     0.029 A 
ATOM     53  N   UNL A   1      41.305  31.136  35.315  1.00  0.00    -0.354 N 
ATOM     54  N   UNL A   1      39.128  32.386  33.797  1.00  0.00    -0.248 NA
ATOM     55  C   UNL A   1      37.476  34.026  33.583  1.00  0.00     0.031 C 
ATOM     56  C   UNL A   1      41.846  31.999  37.288  1.00  0.00     0.029 A 
ATOM     57  C   UNL A   1      40.988  32.145  36.210  1.00  0.00     0.049 A 
ATOM     58  H   UNL A   1      40.853  30.981  34.454  1.00  0.00     0.167 HD
ATOM     59  C   UNL A   1      39.159  33.210  34.916  1.00  0.00     0.074 A 
ATOM     60  C   UNL A   1      38.144  34.227  34.711  1.00  0.00     0.031 C 
ATOM     61  C   UNL A   1      39.959  33.136  36.010  1.00  0.00     0.031 A 
BRANCH  48  62
ATOM     62  C   UNL A   1      43.968  28.418  35.884  1.00  0.00    -0.014 A 
ATOM     63  C   UNL A   1      43.632  27.325  36.707  1.00  0.00     0.010 A 
ATOM     64  C   UNL A   1      45.325  28.755  35.724  1.00  0.00     0.010 A 
ATOM     65  C   UNL A   1      44.624  26.625  37.399  1.00  0.00     0.020 A 
ATOM     66  C   UNL A   1      46.323  28.035  36.387  1.00  0.00     0.020 A 
ATOM     67  C   UNL A   1      45.965  26.989  37.239  1.00  0.00     0.054 A 
BRANCH  67  68
ATOM     68  S   UNL A   1      47.232  26.065  38.151  1.00  0.00     0.124 S 
ATOM     69  O   UNL A   1      47.194  24.766  37.483  1.00  0.00    -0.237 OA
ATOM     70  O   UNL A   1      48.437  26.857  37.915  1.00  0.00    -0.237 OA
ATOM     71  O   UNL A   1      46.744  26.071  39.527  1.00  0.00    -0.744 OA
ENDBRANCH  67  68
ENDBRANCH  48  62
BRANCH  49  72
ATOM     72  C   UNL A   1      36.611  33.046  30.952  1.00  0.00    -0.014 A 
ATOM     73  C   UNL A   1      35.285  32.932  31.405  1.00  0.00     0.010 A 
ATOM     74  C   UNL A   1      36.881  33.846  29.826  1.00  0.00     0.010 A 
ATOM     75  C   UNL A   1      34.251  33.603  30.745  1.00  0.00     0.020 A 
ATOM     76  C   UNL A   1      35.855  34.544  29.183  1.00  0.00     0.020 A 
ATOM     77  C   UNL A   1      34.545  34.414  29.645  1.00  0.00     0.054 A 
BRANCH  77  78
ATOM     78  S   UNL A   1      33.198  35.346  28.864  1.00  0.00     0.124 S 
ATOM     79  O   UNL A   1      32.546  34.321  28.056  1.00  0.00    -0.237 OA
ATOM     80  O   UNL A   1      32.439  35.823  30.017  1.00  0.00    -0.237 OA
ATOM     81  O   UNL A   1      33.896  36.388  28.114  1.00  0.00    -0.744 OA
ENDBRANCH  77  78
ENDBRANCH  49  72
BRANCH  61  82
ATOM     82  C   UNL A   1      39.783  34.203  37.063  1.00  0.00    -0.014 A 
ATOM     83  C   UNL A   1      40.389  35.467  36.939  1.00  0.00     0.010 A 
ATOM     84  C   UNL A   1      38.982  33.937  38.188  1.00  0.00     0.010 A 
ATOM     85  C   UNL A   1      40.244  36.422  37.949  1.00  0.00     0.020 A 
ATOM     86  C   UNL A   1      38.806  34.902  39.183  1.00  0.00     0.020 A 
ATOM     87  C   UNL A   1      39.458  36.131  39.068  1.00  0.00     0.054 A 
BRANCH  87  88
ATOM     88  S   UNL A   1      39.283  37.388  40.363  1.00  0.00     0.124 S 
ATOM     89  O   UNL A   1      40.635  37.933  40.441  1.00  0.00    -0.237 OA
ATOM     90  O   UNL A   1      38.273  38.285  39.805  1.00  0.00    -0.237 OA
ATOM     91  O   UNL A   1      38.851  36.624  41.532  1.00  0.00    -0.744 OA
ENDBRANCH  87  88
ENDBRANCH  61  82
ENDBRANCH  35  36
ENDBRANCH  27  30
ENDBRANCH  25  26
ENDBRANCH   1  25
TORSDOF 16
ENDMDL
MODEL 3
REMARK VINA RESULT:     -10.7      4.559      7.154
REMARK SMILES CN(C(=O)N[C@@H]1C=C[C@@H](C(=O)NCCCNC(=O)c2ccc(-c3c4nc(c(-c5ccc(S(=O)(=O)[O-])cc5)c5ccc([nH]5)c(-c5ccc(S(=O)(=O)[O-])cc5)c5nc(c(-c6ccc(S(=O)(=O)[O-])cc6)c6ccc3[nH]6)C=C5)C=C4)cc2)C1)[C@H]1CCS(=O)(=O)C1
REMARK SMILES IDX 14 1 13 2 12 3 10 4 11 5 9 7 6 8 7 9 79 10 8 11 5 12 3 13
REMARK SMILES IDX 4 14 2 16 1 17 80 18 81 19 86 20 82 21 83 22 84 23 85 24
REMARK SMILES IDX 15 25 16 26 17 27 18 29 19 30 20 31 78 32 21 33 77 34 22 35
REMARK SMILES IDX 23 36 24 37 71 38 25 39 76 40 70 41 72 42 26 43 75 44 69 45
REMARK SMILES IDX 68 46 27 48 57 49 38 50 56 51 39 52 42 53 55 54 73 55 40 56
REMARK SMILES IDX 41 57 54 59 74 60 43 61 28 62 29 63 37 64 30 65 36 66 31 67
REMARK SMILES IDX 32 68 33 69 34 70 35 71 58 72 59 73 67 74 60 75 66 76 61 77
REMARK SMILES IDX 62 78 63 79 64 80 65 81 44 82 45 83 53 84 46 85 52 86 47 87
REMARK SMILES IDX 48 88 49 89 50 90 51 91
REMARK H PARENT 12 6 5 15 16 28 72 47 42 58
REMARK Flexibility Score: inf
ROOT
ATOM      1  C   UNL A   1      41.327  22.055  26.801  1.00  0.00     0.042 C 
ENDROOT
BRANCH   1   2
ATOM      2  C   UNL A   1      39.886  22.539  26.671  1.00  0.00     0.117 C 
BRANCH   2   3
ATOM      3  N   UNL A   1      38.984  21.491  26.236  1.00  0.00    -0.356 N 
ATOM      4  C   UNL A   1      37.893  21.516  25.426  1.00  0.00     0.227 C 
ATOM      5  O   UNL A   1      37.380  20.426  25.150  1.00  0.00    -0.274 OA
ATOM      6  H   UNL A   1      39.202  20.599  26.592  1.00  0.00     0.163 HD
BRANCH   4   7
ATOM      7  C   UNL A   1      37.295  22.807  24.855  1.00  0.00     0.103 C 
ATOM      8  C   UNL A   1      35.103  23.122  23.765  1.00  0.00     0.107 C 
ATOM      9  C   UNL A   1      35.143  23.699  25.148  1.00  0.00    -0.006 C 
ATOM     10  C   UNL A   1      36.549  22.654  23.526  1.00  0.00     0.047 C 
ATOM     11  C   UNL A   1      36.316  23.490  25.756  1.00  0.00    -0.016 C 
BRANCH   8  12
ATOM     12  N   UNL A   1      34.671  24.142  22.844  1.00  0.00    -0.332 N 
ATOM     13  C   UNL A   1      33.510  24.702  22.471  1.00  0.00     0.317 C 
ATOM     14  O   UNL A   1      33.653  25.608  21.644  1.00  0.00    -0.249 OA
ATOM     15  H   UNL A   1      35.433  24.534  22.359  1.00  0.00     0.165 HD
BRANCH  13  16
ATOM     16  N   UNL A   1      32.272  24.317  22.930  1.00  0.00    -0.324 N 
ATOM     17  C   UNL A   1      31.719  22.967  22.851  1.00  0.00     0.149 C 
BRANCH  16  18
ATOM     18  C   UNL A   1      31.581  25.217  23.911  1.00  0.00     0.102 C 
ATOM     19  C   UNL A   1      30.111  25.577  23.582  1.00  0.00     0.042 C 
ATOM     20  C   UNL A   1      31.489  24.634  25.334  1.00  0.00     0.162 C 
ATOM     21  C   UNL A   1      29.553  26.346  24.774  1.00  0.00     0.139 C 
ATOM     22  S   UNL A   1      30.338  25.660  26.207  1.00  0.00     0.152 S 
ATOM     23  O   UNL A   1      31.070  26.712  26.876  1.00  0.00    -0.229 OA
ATOM     24  O   UNL A   1      29.388  24.809  26.895  1.00  0.00    -0.229 OA
ENDBRANCH  16  18
ENDBRANCH  13  16
ENDBRANCH   8  12
ENDBRANCH   4   7
ENDBRANCH   2   3
ENDBRANCH   1   2
BRANCH   1  25
ATOM     25  C   UNL A   1      42.337  23.176  27.027  1.00  0.00     0.118 C 
BRANCH  25  26
ATOM     26  N   UNL A   1      42.354  24.136  25.933  1.00  0.00    -0.352 N 
ATOM     27  C   UNL A   1      42.037  25.470  25.905  1.00  0.00     0.251 C 
ATOM     28  H   UNL A   1      42.642  23.766  25.067  1.00  0.00     0.163 HD
ATOM     29  O   UNL A   1      41.917  26.027  24.817  1.00  0.00    -0.269 OA
BRANCH  27  30
ATOM     30  C   UNL A   1      41.824  26.234  27.154  1.00  0.00     0.039 A 
ATOM     31  C   UNL A   1      42.681  27.300  27.438  1.00  0.00     0.014 A 
ATOM     32  C   UNL A   1      40.823  25.887  28.067  1.00  0.00     0.014 A 
ATOM     33  C   UNL A   1      42.498  28.050  28.601  1.00  0.00     0.010 A 
ATOM     34  C   UNL A   1      40.585  26.691  29.182  1.00  0.00     0.010 A 
ATOM     35  C   UNL A   1      41.423  27.777  29.464  1.00  0.00    -0.014 A 
BRANCH  35  36
ATOM     36  C   UNL A   1      41.159  28.651  30.638  1.00  0.00     0.031 A 
ATOM     37  C   UNL A   1      41.994  28.552  31.885  1.00  0.00     0.074 A 
ATOM     38  C   UNL A   1      40.131  29.521  30.586  1.00  0.00     0.049 A 
ATOM     39  N   UNL A   1      41.930  29.272  32.977  1.00  0.00    -0.248 NA
ATOM     40  C   UNL A   1      43.018  27.496  31.925  1.00  0.00     0.031 C 
ATOM     41  C   UNL A   1      39.207  29.668  29.458  1.00  0.00     0.029 A 
ATOM     42  N   UNL A   1      39.694  30.450  31.495  1.00  0.00    -0.354 N 
ATOM     43  C   UNL A   1      42.892  28.751  33.835  1.00  0.00     0.074 A 
ATOM     44  C   UNL A   1      43.488  27.620  33.158  1.00  0.00     0.031 C 
ATOM     45  C   UNL A   1      38.343  30.660  29.722  1.00  0.00     0.029 A 
ATOM     46  C   UNL A   1      38.622  31.191  31.053  1.00  0.00     0.049 A 
ATOM     47  H   UNL A   1      40.107  30.576  32.380  1.00  0.00     0.167 HD
ATOM     48  C   UNL A   1      43.258  29.185  35.066  1.00  0.00     0.031 A 
ATOM     49  C   UNL A   1      37.938  32.187  31.646  1.00  0.00     0.031 A 
ATOM     50  C   UNL A   1      42.653  30.307  35.738  1.00  0.00     0.049 A 
ATOM     51  C   UNL A   1      38.367  32.660  33.005  1.00  0.00     0.074 A 
ATOM     52  C   UNL A   1      42.994  30.866  36.958  1.00  0.00     0.029 A 
ATOM     53  N   UNL A   1      41.571  31.032  35.258  1.00  0.00    -0.354 N 
ATOM     54  N   UNL A   1      39.341  32.214  33.763  1.00  0.00    -0.248 NA
ATOM     55  C   UNL A   1      37.618  33.784  33.580  1.00  0.00     0.031 C 
ATOM     56  C   UNL A   1      42.075  31.881  37.247  1.00  0.00     0.029 A 
ATOM     57  C   UNL A   1      41.211  32.009  36.172  1.00  0.00     0.049 A 
ATOM     58  H   UNL A   1      41.126  30.874  34.394  1.00  0.00     0.167 HD
ATOM     59  C   UNL A   1      39.336  33.017  34.897  1.00  0.00     0.074 A 
ATOM     60  C   UNL A   1      38.278  33.992  34.712  1.00  0.00     0.031 C 
ATOM     61  C   UNL A   1      40.139  32.958  35.990  1.00  0.00     0.031 A 
BRANCH  48  62
ATOM     62  C   UNL A   1      44.351  28.423  35.776  1.00  0.00    -0.014 A 
ATOM     63  C   UNL A   1      44.067  27.284  36.554  1.00  0.00     0.010 A 
ATOM     64  C   UNL A   1      45.689  28.841  35.647  1.00  0.00     0.010 A 
ATOM     65  C   UNL A   1      45.089  26.615  37.233  1.00  0.00     0.020 A 
ATOM     66  C   UNL A   1      46.719  28.154  36.297  1.00  0.00     0.020 A 
ATOM     67  C   UNL A   1      46.410  27.059  37.105  1.00  0.00     0.054 A 
BRANCH  67  68
ATOM     68  S   UNL A   1      47.716  26.173  38.000  1.00  0.00     0.124 S 
ATOM     69  O   UNL A   1      47.098  24.867  38.216  1.00  0.00    -0.237 OA
ATOM     70  O   UNL A   1      48.825  26.194  37.049  1.00  0.00    -0.237 OA
ATOM     71  O   UNL A   1      47.916  26.974  39.205  1.00  0.00    -0.744 OA
ENDBRANCH  67  68
ENDBRANCH  48  62
BRANCH  49  72
ATOM     72  C   UNL A   1      36.795  32.817  30.930  1.00  0.00    -0.014 A 
ATOM     73  C   UNL A   1      35.470  32.467  31.242  1.00  0.00     0.010 A 
ATOM     74  C   UNL A   1      37.029  33.814  29.965  1.00  0.00     0.010 A 
ATOM     75  C   UNL A   1      34.401  33.101  30.602  1.00  0.00     0.020 A 
ATOM     76  C   UNL A   1      35.964  34.472  29.347  1.00  0.00     0.020 A 
ATOM     77  C   UNL A   1      34.655  34.108  29.666  1.00  0.00     0.054 A 
BRANCH  77  78
ATOM     78  S   UNL A   1      33.250  34.978  28.918  1.00  0.00     0.124 S 
ATOM     79  O   UNL A   1      32.691  33.956  28.039  1.00  0.00    -0.237 OA
ATOM     80  O   UNL A   1      32.440  35.324  30.083  1.00  0.00    -0.237 OA
ATOM     81  O   UNL A   1      33.873  36.115  28.243  1.00  0.00    -0.744 OA
ENDBRANCH  77  78
ENDBRANCH  49  72
BRANCH  61  82
ATOM     82  C   UNL A   1      39.917  33.995  37.063  1.00  0.00    -0.014 A 
ATOM     83  C   UNL A   1      39.178  33.706  38.226  1.00  0.00     0.010 A 
ATOM     84  C   UNL A   1      40.472  35.278  36.910  1.00  0.00     0.010 A 
ATOM     85  C   UNL A   1      38.952  34.697  39.185  1.00  0.00     0.020 A 
ATOM     86  C   UNL A   1      40.278  36.261  37.883  1.00  0.00     0.020 A 
ATOM     87  C   UNL A   1      39.499  35.971  39.004  1.00  0.00     0.054 A 
BRANCH  87  88
ATOM     88  S   UNL A   1      39.194  37.239  40.263  1.00  0.00     0.124 S 
ATOM     89  O   UNL A   1      38.347  36.524  41.215  1.00  0.00    -0.237 OA
ATOM     90  O   UNL A   1      40.541  37.555  40.733  1.00  0.00    -0.237 OA
ATOM     91  O   UNL A   1      38.531  38.311  39.523  1.00  0.00    -0.744 OA
ENDBRANCH  87  88
ENDBRANCH  61  82
ENDBRANCH  35  36
ENDBRANCH  27  30
ENDBRANCH  25  26
ENDBRANCH   1  25
TORSDOF 16
ENDMDL
