MODEL 1
REMARK VINA RESULT:     -13.0      0.000      0.000
REMARK SMILES Cc1nc(-c2ccccc2Cl)nc2sc(C(=O)NCCCNC(=O)c3ccc(-c4c5nc(c(-c6ccc(S(=O)(=O)[O-])cc6)c6ccc([nH]6)c(-c6ccc(S(=O)(=O)[O-])cc6)c6nc(c(-c7ccc(S(=O)(=O)[O-])cc7)c7ccc4[nH]7)C=C6)C=C5)cc3)c(N)c12
REMARK SMILES IDX 21 1 20 2 19 3 18 4 16 5 17 6 15 8 1 9 2 10 3 11 87 12 4 13
REMARK SMILES IDX 13 14 85 15 12 16 14 17 5 18 6 19 10 20 7 21 9 22 11 23 8 24
REMARK SMILES IDX 86 25 22 28 23 29 24 31 25 32 26 33 84 34 27 35 83 36 28 37
REMARK SMILES IDX 29 38 30 39 77 40 31 41 82 42 76 43 78 44 32 45 81 46 75 47
REMARK SMILES IDX 74 48 33 50 63 51 44 52 62 53 45 54 48 55 61 56 79 57 46 58
REMARK SMILES IDX 47 59 60 61 80 62 49 63 34 64 35 65 43 66 36 67 42 68 37 69
REMARK SMILES IDX 38 70 39 71 40 72 41 73 64 74 65 75 73 76 66 77 72 78 67 79
REMARK SMILES IDX 68 80 69 81 70 82 71 83 50 84 51 85 59 86 52 87 58 88 53 89
REMARK SMILES IDX 54 90 55 91 56 92 57 93
REMARK H PARENT 18 7 86 26 86 27 22 30 78 49 48 60
REMARK Flexibility Score: inf
ROOT
ATOM      1  C   UNL A   1      37.541  22.939  25.438  1.00  0.00     0.118 C 
ENDROOT
BRANCH   1   2
ATOM      2  C   UNL A   1      36.116  22.572  25.796  1.00  0.00     0.042 C 
BRANCH   2   3
ATOM      3  C   UNL A   1      35.421  21.767  24.685  1.00  0.00     0.118 C 
BRANCH   3   4
ATOM      4  N   UNL A   1      34.016  21.483  24.971  1.00  0.00    -0.351 N 
ATOM      5  C   UNL A   1      32.902  22.304  25.028  1.00  0.00     0.263 C 
ATOM      6  O   UNL A   1      31.814  21.721  25.068  1.00  0.00    -0.268 OA
ATOM      7  H   UNL A   1      33.828  20.534  25.157  1.00  0.00     0.163 HD
BRANCH   5   8
ATOM      8  C   UNL A   1      32.992  23.761  24.989  1.00  0.00     0.118 A 
ATOM      9  C   UNL A   1      33.501  27.470  22.112  1.00  0.00     0.067 C 
ATOM     10  C   UNL A   1      33.608  27.214  23.584  1.00  0.00     0.052 A 
ATOM     11  N   UNL A   1      33.906  28.323  24.341  1.00  0.00    -0.233 NA
ATOM     12  C   UNL A   1      33.361  25.989  24.244  1.00  0.00     0.056 A 
ATOM     13  C   UNL A   1      33.901  28.230  25.682  1.00  0.00     0.162 A 
ATOM     14  C   UNL A   1      33.320  26.091  25.622  1.00  0.00     0.130 A 
ATOM     15  C   UNL A   1      33.138  24.599  23.881  1.00  0.00     0.067 A 
ATOM     16  N   UNL A   1      33.595  27.148  26.382  1.00  0.00    -0.217 NA
ATOM     17  S   UNL A   1      32.773  24.708  26.381  1.00  0.00    -0.108 S 
BRANCH  13  18
ATOM     18  C   UNL A   1      34.226  29.380  26.516  1.00  0.00     0.038 A 
ATOM     19  C   UNL A   1      35.427  29.363  27.261  1.00  0.00     0.013 A 
ATOM     20  C   UNL A   1      33.310  30.408  26.768  1.00  0.00     0.052 A 
ATOM     21  C   UNL A   1      35.694  30.326  28.235  1.00  0.00     0.001 A 
ATOM     22  C   UNL A   1      33.578  31.374  27.745  1.00  0.00     0.021 A 
ATOM     23  Cl  UNL A   1      31.776  30.492  25.968  1.00  0.00    -0.084 Cl
ATOM     24  C   UNL A   1      34.763  31.329  28.482  1.00  0.00     0.002 A 
ENDBRANCH  13  18
BRANCH  15  25
ATOM     25  N   UNL A   1      33.136  24.107  22.623  1.00  0.00    -0.397 N 
ATOM     26  H   UNL A   1      33.753  24.475  21.949  1.00  0.00     0.156 HD
ATOM     27  H   UNL A   1      32.519  23.380  22.379  1.00  0.00     0.156 HD
ENDBRANCH  15  25
ENDBRANCH   5   8
ENDBRANCH   3   4
ENDBRANCH   2   3
ENDBRANCH   1   2
BRANCH   1  28
ATOM     28  N   UNL A   1      38.514  21.995  25.989  1.00  0.00    -0.352 N 
ATOM     29  C   UNL A   1      39.753  22.274  26.541  1.00  0.00     0.251 C 
ATOM     30  H   UNL A   1      38.257  21.047  25.964  1.00  0.00     0.163 HD
ATOM     31  O   UNL A   1      40.597  21.403  26.653  1.00  0.00    -0.269 OA
BRANCH  29  32
ATOM     32  C   UNL A   1      40.024  23.658  26.974  1.00  0.00     0.039 A 
ATOM     33  C   UNL A   1      39.010  24.616  27.041  1.00  0.00     0.014 A 
ATOM     34  C   UNL A   1      41.320  23.963  27.376  1.00  0.00     0.014 A 
ATOM     35  C   UNL A   1      39.297  25.857  27.607  1.00  0.00     0.010 A 
ATOM     36  C   UNL A   1      41.548  25.101  28.101  1.00  0.00     0.010 A 
ATOM     37  C   UNL A   1      40.566  26.083  28.162  1.00  0.00    -0.014 A 
BRANCH  37  38
ATOM     38  C   UNL A   1      40.874  27.305  28.896  1.00  0.00     0.031 A 
ATOM     39  C   UNL A   1      42.093  28.031  28.444  1.00  0.00     0.074 A 
ATOM     40  C   UNL A   1      39.996  27.864  29.757  1.00  0.00     0.049 A 
ATOM     41  N   UNL A   1      43.174  28.237  29.119  1.00  0.00    -0.248 NA
ATOM     42  C   UNL A   1      42.176  28.480  27.043  1.00  0.00     0.031 C 
ATOM     43  C   UNL A   1      38.635  27.417  30.091  1.00  0.00     0.029 A 
ATOM     44  N   UNL A   1      40.080  29.050  30.414  1.00  0.00    -0.354 N 
ATOM     45  C   UNL A   1      44.001  29.010  28.310  1.00  0.00     0.074 A 
ATOM     46  C   UNL A   1      43.410  28.990  26.996  1.00  0.00     0.031 C 
ATOM     47  C   UNL A   1      37.947  28.436  30.647  1.00  0.00     0.029 A 
ATOM     48  C   UNL A   1      38.863  29.537  30.877  1.00  0.00     0.049 A 
ATOM     49  H   UNL A   1      40.932  29.524  30.551  1.00  0.00     0.167 HD
ATOM     50  C   UNL A   1      44.994  29.783  28.834  1.00  0.00     0.031 A 
ATOM     51  C   UNL A   1      38.614  30.770  31.388  1.00  0.00     0.031 A 
ATOM     52  C   UNL A   1      45.222  29.483  30.224  1.00  0.00     0.049 A 
ATOM     53  C   UNL A   1      39.921  31.314  31.837  1.00  0.00     0.074 A 
ATOM     54  C   UNL A   1      45.612  28.355  30.918  1.00  0.00     0.029 A 
ATOM     55  N   UNL A   1      44.635  30.319  31.147  1.00  0.00    -0.354 N 
ATOM     56  N   UNL A   1      40.603  30.794  32.820  1.00  0.00    -0.248 NA
ATOM     57  C   UNL A   1      40.697  32.111  30.899  1.00  0.00     0.031 C 
ATOM     58  C   UNL A   1      44.808  28.359  32.095  1.00  0.00     0.029 A 
ATOM     59  C   UNL A   1      44.038  29.525  32.095  1.00  0.00     0.049 A 
ATOM     60  H   UNL A   1      44.642  31.304  31.131  1.00  0.00     0.167 HD
ATOM     61  C   UNL A   1      41.922  30.813  32.386  1.00  0.00     0.074 A 
ATOM     62  C   UNL A   1      41.931  31.732  31.248  1.00  0.00     0.031 C 
ATOM     63  C   UNL A   1      42.819  29.867  32.799  1.00  0.00     0.031 A 
BRANCH  50  64
ATOM     64  C   UNL A   1      45.504  31.059  28.216  1.00  0.00    -0.014 A 
ATOM     65  C   UNL A   1      44.726  32.229  28.332  1.00  0.00     0.010 A 
ATOM     66  C   UNL A   1      46.568  31.083  27.292  1.00  0.00     0.010 A 
ATOM     67  C   UNL A   1      44.956  33.340  27.510  1.00  0.00     0.020 A 
ATOM     68  C   UNL A   1      46.832  32.200  26.497  1.00  0.00     0.020 A 
ATOM     69  C   UNL A   1      45.999  33.309  26.585  1.00  0.00     0.054 A 
BRANCH  69  70
ATOM     70  S   UNL A   1      46.204  34.694  25.439  1.00  0.00     0.124 S 
ATOM     71  O   UNL A   1      47.624  34.607  25.111  1.00  0.00    -0.237 OA
ATOM     72  O   UNL A   1      45.281  34.344  24.362  1.00  0.00    -0.237 OA
ATOM     73  O   UNL A   1      45.815  35.857  26.234  1.00  0.00    -0.744 OA
ENDBRANCH  69  70
ENDBRANCH  50  64
BRANCH  51  74
ATOM     74  C   UNL A   1      37.373  31.577  31.283  1.00  0.00    -0.014 A 
ATOM     75  C   UNL A   1      36.206  31.226  31.984  1.00  0.00     0.010 A 
ATOM     76  C   UNL A   1      37.411  32.855  30.683  1.00  0.00     0.010 A 
ATOM     77  C   UNL A   1      35.142  32.138  32.127  1.00  0.00     0.020 A 
ATOM     78  C   UNL A   1      36.356  33.766  30.815  1.00  0.00     0.020 A 
ATOM     79  C   UNL A   1      35.234  33.411  31.559  1.00  0.00     0.054 A 
BRANCH  79  80
ATOM     80  S   UNL A   1      33.934  34.639  31.892  1.00  0.00     0.124 S 
ATOM     81  O   UNL A   1      33.160  33.998  32.949  1.00  0.00    -0.237 OA
ATOM     82  O   UNL A   1      34.704  35.813  32.295  1.00  0.00    -0.237 OA
ATOM     83  O   UNL A   1      33.243  34.768  30.610  1.00  0.00    -0.744 OA
ENDBRANCH  79  80
ENDBRANCH  51  74
BRANCH  63  84
ATOM     84  C   UNL A   1      42.422  28.931  33.921  1.00  0.00    -0.014 A 
ATOM     85  C   UNL A   1      41.759  27.705  33.713  1.00  0.00     0.010 A 
ATOM     86  C   UNL A   1      42.906  29.216  35.210  1.00  0.00     0.010 A 
ATOM     87  C   UNL A   1      41.568  26.801  34.770  1.00  0.00     0.020 A 
ATOM     88  C   UNL A   1      42.738  28.312  36.262  1.00  0.00     0.020 A 
ATOM     89  C   UNL A   1      42.064  27.112  36.040  1.00  0.00     0.054 A 
BRANCH  89  90
ATOM     90  S   UNL A   1      41.866  25.917  37.393  1.00  0.00     0.124 S 
ATOM     91  O   UNL A   1      42.151  24.643  36.737  1.00  0.00    -0.237 OA
ATOM     92  O   UNL A   1      42.863  26.359  38.366  1.00  0.00    -0.237 OA
ATOM     93  O   UNL A   1      40.478  26.096  37.817  1.00  0.00    -0.744 OA
ENDBRANCH  89  90
ENDBRANCH  63  84
ENDBRANCH  37  38
ENDBRANCH  29  32
ENDBRANCH   1  28
TORSDOF 15
ENDMDL
MODEL 2
REMARK VINA RESULT:     -12.7      2.954      9.697
REMARK SMILES Cc1nc(-c2ccccc2Cl)nc2sc(C(=O)NCCCNC(=O)c3ccc(-c4c5nc(c(-c6ccc(S(=O)(=O)[O-])cc6)c6ccc([nH]6)c(-c6ccc(S(=O)(=O)[O-])cc6)c6nc(c(-c7ccc(S(=O)(=O)[O-])cc7)c7ccc4[nH]7)C=C6)C=C5)cc3)c(N)c12
REMARK SMILES IDX 21 1 20 2 19 3 18 4 16 5 17 6 15 8 1 9 2 10 3 11 87 12 4 13
REMARK SMILES IDX 13 14 85 15 12 16 14 17 5 18 6 19 10 20 7 21 9 22 11 23 8 24
REMARK SMILES IDX 86 25 22 28 23 29 24 31 25 32 26 33 84 34 27 35 83 36 28 37
REMARK SMILES IDX 29 38 30 39 77 40 31 41 82 42 76 43 78 44 32 45 81 46 75 47
REMARK SMILES IDX 74 48 33 50 63 51 44 52 62 53 45 54 48 55 61 56 79 57 46 58
REMARK SMILES IDX 47 59 60 61 80 62 49 63 34 64 35 65 43 66 36 67 42 68 37 69
REMARK SMILES IDX 38 70 39 71 40 72 41 73 64 74 65 75 73 76 66 77 72 78 67 79
REMARK SMILES IDX 68 80 69 81 70 82 71 83 50 84 51 85 59 86 52 87 58 88 53 89
REMARK SMILES IDX 54 90 55 91 56 92 57 93
REMARK H PARENT 18 7 86 26 86 27 22 30 78 49 48 60
REMARK Flexibility Score: inf
ROOT
ATOM      1  C   UNL A   1      33.794  28.697  27.382  1.00  0.00     0.118 C 
ENDROOT
BRANCH   1   2
ATOM      2  C   UNL A   1      32.858  27.943  26.462  1.00  0.00     0.042 C 
BRANCH   2   3
ATOM      3  C   UNL A   1      33.353  27.929  25.005  1.00  0.00     0.118 C 
BRANCH   3   4
ATOM      4  N   UNL A   1      32.283  28.129  24.030  1.00  0.00    -0.351 N 
ATOM      5  C   UNL A   1      31.302  27.276  23.551  1.00  0.00     0.263 C 
ATOM      6  O   UNL A   1      30.401  27.817  22.900  1.00  0.00    -0.268 OA
ATOM      7  H   UNL A   1      32.255  29.034  23.643  1.00  0.00     0.163 HD
BRANCH   5   8
ATOM      8  C   UNL A   1      31.292  25.844  23.835  1.00  0.00     0.118 A 
ATOM      9  C   UNL A   1      29.766  22.578  26.884  1.00  0.00     0.067 C 
ATOM     10  C   UNL A   1      30.770  22.644  25.776  1.00  0.00     0.052 A 
ATOM     11  N   UNL A   1      31.430  21.463  25.525  1.00  0.00    -0.233 NA
ATOM     12  C   UNL A   1      31.034  23.757  24.945  1.00  0.00     0.056 A 
ATOM     13  C   UNL A   1      32.259  21.379  24.471  1.00  0.00     0.162 A 
ATOM     14  C   UNL A   1      31.850  23.473  23.866  1.00  0.00     0.130 A 
ATOM     15  C   UNL A   1      30.688  25.168  24.898  1.00  0.00     0.067 A 
ATOM     16  N   UNL A   1      32.494  22.342  23.592  1.00  0.00    -0.217 NA
ATOM     17  S   UNL A   1      31.945  24.713  22.751  1.00  0.00    -0.108 S 
BRANCH  13  18
ATOM     18  C   UNL A   1      32.986  20.149  24.182  1.00  0.00     0.038 A 
ATOM     19  C   UNL A   1      32.327  19.119  23.474  1.00  0.00     0.013 A 
ATOM     20  C   UNL A   1      34.235  19.864  24.748  1.00  0.00     0.052 A 
ATOM     21  C   UNL A   1      32.886  17.847  23.351  1.00  0.00     0.001 A 
ATOM     22  C   UNL A   1      34.795  18.587  24.626  1.00  0.00     0.021 A 
ATOM     23  Cl  UNL A   1      35.103  21.024  25.697  1.00  0.00    -0.084 Cl
ATOM     24  C   UNL A   1      34.119  17.579  23.935  1.00  0.00     0.002 A 
ENDBRANCH  13  18
BRANCH  15  25
ATOM     25  N   UNL A   1      29.927  25.820  25.804  1.00  0.00    -0.397 N 
ATOM     26  H   UNL A   1      28.949  25.850  25.695  1.00  0.00     0.156 HD
ATOM     27  H   UNL A   1      30.349  26.265  26.574  1.00  0.00     0.156 HD
ENDBRANCH  15  25
ENDBRANCH   5   8
ENDBRANCH   3   4
ENDBRANCH   2   3
ENDBRANCH   1   2
BRANCH   1  28
ATOM     28  N   UNL A   1      33.509  30.132  27.414  1.00  0.00    -0.352 N 
ATOM     29  C   UNL A   1      34.326  31.154  27.866  1.00  0.00     0.251 C 
ATOM     30  H   UNL A   1      32.629  30.404  27.071  1.00  0.00     0.163 HD
ATOM     31  O   UNL A   1      33.863  32.244  28.152  1.00  0.00    -0.269 OA
BRANCH  29  32
ATOM     32  C   UNL A   1      35.769  30.878  28.008  1.00  0.00     0.039 A 
ATOM     33  C   UNL A   1      36.632  31.792  28.617  1.00  0.00     0.014 A 
ATOM     34  C   UNL A   1      36.233  29.644  27.570  1.00  0.00     0.014 A 
ATOM     35  C   UNL A   1      37.949  31.409  28.864  1.00  0.00     0.010 A 
ATOM     36  C   UNL A   1      37.460  29.202  27.983  1.00  0.00     0.010 A 
ATOM     37  C   UNL A   1      38.350  30.097  28.567  1.00  0.00    -0.014 A 
BRANCH  37  38
ATOM     38  C   UNL A   1      39.669  29.597  28.938  1.00  0.00     0.031 A 
ATOM     39  C   UNL A   1      39.916  29.473  30.401  1.00  0.00     0.074 A 
ATOM     40  C   UNL A   1      40.514  29.063  28.029  1.00  0.00     0.049 A 
ATOM     41  N   UNL A   1      40.784  30.121  31.103  1.00  0.00    -0.248 NA
ATOM     42  C   UNL A   1      39.023  28.620  31.204  1.00  0.00     0.031 C 
ATOM     43  C   UNL A   1      40.292  28.855  26.590  1.00  0.00     0.029 A 
ATOM     44  N   UNL A   1      41.708  28.448  28.231  1.00  0.00    -0.354 N 
ATOM     45  C   UNL A   1      40.691  29.624  32.400  1.00  0.00     0.074 A 
ATOM     46  C   UNL A   1      39.490  28.828  32.438  1.00  0.00     0.031 C 
ATOM     47  C   UNL A   1      41.170  27.941  26.124  1.00  0.00     0.029 A 
ATOM     48  C   UNL A   1      42.124  27.642  27.176  1.00  0.00     0.049 A 
ATOM     49  H   UNL A   1      42.235  28.564  29.054  1.00  0.00     0.167 HD
ATOM     50  C   UNL A   1      41.723  29.732  33.283  1.00  0.00     0.031 A 
ATOM     51  C   UNL A   1      43.161  26.768  27.172  1.00  0.00     0.031 A 
ATOM     52  C   UNL A   1      42.746  30.622  32.797  1.00  0.00     0.049 A 
ATOM     53  C   UNL A   1      44.067  27.180  28.274  1.00  0.00     0.074 A 
ATOM     54  C   UNL A   1      42.781  31.959  32.456  1.00  0.00     0.029 A 
ATOM     55  N   UNL A   1      43.845  30.045  32.203  1.00  0.00    -0.354 N 
ATOM     56  N   UNL A   1      44.722  28.308  28.267  1.00  0.00    -0.248 NA
ATOM     57  C   UNL A   1      43.872  26.587  29.589  1.00  0.00     0.031 C 
ATOM     58  C   UNL A   1      43.599  32.013  31.291  1.00  0.00     0.029 A 
ATOM     59  C   UNL A   1      44.084  30.728  31.037  1.00  0.00     0.049 A 
ATOM     60  H   UNL A   1      44.363  29.282  32.549  1.00  0.00     0.167 HD
ATOM     61  C   UNL A   1      44.622  28.787  29.566  1.00  0.00     0.074 A 
ATOM     62  C   UNL A   1      44.184  27.636  30.357  1.00  0.00     0.031 C 
ATOM     63  C   UNL A   1      44.619  30.128  29.832  1.00  0.00     0.031 A 
BRANCH  50  64
ATOM     64  C   UNL A   1      41.998  28.762  34.403  1.00  0.00    -0.014 A 
ATOM     65  C   UNL A   1      42.436  29.266  35.645  1.00  0.00     0.010 A 
ATOM     66  C   UNL A   1      42.114  27.373  34.195  1.00  0.00     0.010 A 
ATOM     67  C   UNL A   1      43.031  28.430  36.600  1.00  0.00     0.020 A 
ATOM     68  C   UNL A   1      42.667  26.525  35.157  1.00  0.00     0.020 A 
ATOM     69  C   UNL A   1      43.156  27.066  36.339  1.00  0.00     0.054 A 
BRANCH  69  70
ATOM     70  S   UNL A   1      44.043  26.020  37.520  1.00  0.00     0.124 S 
ATOM     71  O   UNL A   1      43.781  24.683  36.995  1.00  0.00    -0.237 OA
ATOM     72  O   UNL A   1      45.416  26.496  37.385  1.00  0.00    -0.237 OA
ATOM     73  O   UNL A   1      43.403  26.328  38.798  1.00  0.00    -0.744 OA
ENDBRANCH  69  70
ENDBRANCH  50  64
BRANCH  51  74
ATOM     74  C   UNL A   1      43.278  25.481  26.442  1.00  0.00    -0.014 A 
ATOM     75  C   UNL A   1      44.191  25.315  25.385  1.00  0.00     0.010 A 
ATOM     76  C   UNL A   1      42.662  24.318  26.957  1.00  0.00     0.010 A 
ATOM     77  C   UNL A   1      44.517  24.034  24.901  1.00  0.00     0.020 A 
ATOM     78  C   UNL A   1      42.977  23.041  26.477  1.00  0.00     0.020 A 
ATOM     79  C   UNL A   1      43.923  22.902  25.465  1.00  0.00     0.054 A 
BRANCH  79  80
ATOM     80  S   UNL A   1      44.475  21.247  24.953  1.00  0.00     0.124 S 
ATOM     81  O   UNL A   1      43.419  20.387  25.478  1.00  0.00    -0.237 OA
ATOM     82  O   UNL A   1      44.528  21.367  23.498  1.00  0.00    -0.237 OA
ATOM     83  O   UNL A   1      45.776  21.100  25.605  1.00  0.00    -0.744 OA
ENDBRANCH  79  80
ENDBRANCH  51  74
BRANCH  63  84
ATOM     84  C   UNL A   1      44.962  31.089  28.713  1.00  0.00    -0.014 A 
ATOM     85  C   UNL A   1      44.020  31.562  27.777  1.00  0.00     0.010 A 
ATOM     86  C   UNL A   1      46.238  31.678  28.729  1.00  0.00     0.010 A 
ATOM     87  C   UNL A   1      44.354  32.580  26.871  1.00  0.00     0.020 A 
ATOM     88  C   UNL A   1      46.571  32.706  27.842  1.00  0.00     0.020 A 
ATOM     89  C   UNL A   1      45.631  33.148  26.913  1.00  0.00     0.054 A 
BRANCH  89  90
ATOM     90  S   UNL A   1      46.044  34.503  25.777  1.00  0.00     0.124 S 
ATOM     91  O   UNL A   1      45.707  35.689  26.561  1.00  0.00    -0.237 OA
ATOM     92  O   UNL A   1      47.469  34.298  25.530  1.00  0.00    -0.237 OA
ATOM     93  O   UNL A   1      45.183  34.263  24.620  1.00  0.00    -0.744 OA
ENDBRANCH  89  90
ENDBRANCH  63  84
ENDBRANCH  37  38
ENDBRANCH  29  32
ENDBRANCH   1  28
TORSDOF 15
ENDMDL
MODEL 3
REMARK VINA RESULT:     -12.5      1.762      2.440
REMARK SMILES Cc1nc(-c2ccccc2Cl)nc2sc(C(=O)NCCCNC(=O)c3ccc(-c4c5nc(c(-c6ccc(S(=O)(=O)[O-])cc6)c6ccc([nH]6)c(-c6ccc(S(=O)(=O)[O-])cc6)c6nc(c(-c7ccc(S(=O)(=O)[O-])cc7)c7ccc4[nH]7)C=C6)C=C5)cc3)c(N)c12
REMARK SMILES IDX 21 1 20 2 19 3 18 4 16 5 17 6 15 8 1 9 2 10 3 11 87 12 4 13
REMARK SMILES IDX 13 14 85 15 12 16 14 17 5 18 6 19 10 20 7 21 9 22 11 23 8 24
REMARK SMILES IDX 86 25 22 28 23 29 24 31 25 32 26 33 84 34 27 35 83 36 28 37
REMARK SMILES IDX 29 38 30 39 77 40 31 41 82 42 76 43 78 44 32 45 81 46 75 47
REMARK SMILES IDX 74 48 33 50 63 51 44 52 62 53 45 54 48 55 61 56 79 57 46 58
REMARK SMILES IDX 47 59 60 61 80 62 49 63 34 64 35 65 43 66 36 67 42 68 37 69
REMARK SMILES IDX 38 70 39 71 40 72 41 73 64 74 65 75 73 76 66 77 72 78 67 79
REMARK SMILES IDX 68 80 69 81 70 82 71 83 50 84 51 85 59 86 52 87 58 88 53 89
REMARK SMILES IDX 54 90 55 91 56 92 57 93
REMARK H PARENT 18 7 86 26 86 27 22 30 78 49 48 60
REMARK Flexibility Score: inf
ROOT
ATOM      1  C   UNL A   1      37.565  23.221  25.233  1.00  0.00     0.118 C 
ENDROOT
BRANCH   1   2
ATOM      2  C   UNL A   1      36.244  22.712  24.699  1.00  0.00     0.042 C 
BRANCH   2   3
ATOM      3  C   UNL A   1      35.080  22.971  25.670  1.00  0.00     0.118 C 
BRANCH   3   4
ATOM      4  N   UNL A   1      34.044  21.941  25.618  1.00  0.00    -0.351 N 
ATOM      5  C   UNL A   1      32.832  21.886  24.949  1.00  0.00     0.263 C 
ATOM      6  O   UNL A   1      32.289  20.776  24.925  1.00  0.00    -0.268 OA
ATOM      7  H   UNL A   1      34.244  21.142  26.156  1.00  0.00     0.163 HD
BRANCH   5   8
ATOM      8  C   UNL A   1      32.252  23.040  24.268  1.00  0.00     0.118 A 
ATOM      9  C   UNL A   1      32.529  25.700  20.377  1.00  0.00     0.067 C 
ATOM     10  C   UNL A   1      31.894  25.815  21.727  1.00  0.00     0.052 A 
ATOM     11  N   UNL A   1      31.170  26.967  21.928  1.00  0.00    -0.233 NA
ATOM     12  C   UNL A   1      31.911  24.839  22.750  1.00  0.00     0.056 A 
ATOM     13  C   UNL A   1      30.457  27.113  23.057  1.00  0.00     0.162 A 
ATOM     14  C   UNL A   1      31.062  25.116  23.806  1.00  0.00     0.130 A 
ATOM     15  C   UNL A   1      32.594  23.586  23.028  1.00  0.00     0.067 A 
ATOM     16  N   UNL A   1      30.345  26.214  24.024  1.00  0.00    -0.217 NA
ATOM     17  S   UNL A   1      30.888  23.847  24.877  1.00  0.00    -0.108 S 
BRANCH  13  18
ATOM     18  C   UNL A   1      29.689  28.326  23.310  1.00  0.00     0.038 A 
ATOM     19  C   UNL A   1      28.366  28.409  22.821  1.00  0.00     0.013 A 
ATOM     20  C   UNL A   1      30.270  29.485  23.839  1.00  0.00     0.052 A 
ATOM     21  C   UNL A   1      27.656  29.610  22.842  1.00  0.00     0.001 A 
ATOM     22  C   UNL A   1      29.557  30.690  23.859  1.00  0.00     0.021 A 
ATOM     23  Cl  UNL A   1      31.907  29.522  24.403  1.00  0.00    -0.084 Cl
ATOM     24  C   UNL A   1      28.257  30.754  23.355  1.00  0.00     0.002 A 
ENDBRANCH  13  18
BRANCH  15  25
ATOM     25  N   UNL A   1      33.523  23.006  22.236  1.00  0.00    -0.397 N 
ATOM     26  H   UNL A   1      34.045  22.241  22.570  1.00  0.00     0.156 HD
ATOM     27  H   UNL A   1      33.677  23.347  21.326  1.00  0.00     0.156 HD
ENDBRANCH  15  25
ENDBRANCH   5   8
ENDBRANCH   3   4
ENDBRANCH   2   3
ENDBRANCH   1   2
BRANCH   1  28
ATOM     28  N   UNL A   1      38.277  22.209  26.015  1.00  0.00    -0.352 N 
ATOM     29  C   UNL A   1      39.424  22.369  26.774  1.00  0.00     0.251 C 
ATOM     30  H   UNL A   1      37.893  21.304  26.000  1.00  0.00     0.163 HD
ATOM     31  O   UNL A   1      40.099  21.407  27.097  1.00  0.00    -0.269 OA
BRANCH  29  32
ATOM     32  C   UNL A   1      39.812  23.737  27.165  1.00  0.00     0.039 A 
ATOM     33  C   UNL A   1      38.931  24.814  27.034  1.00  0.00     0.014 A 
ATOM     34  C   UNL A   1      41.070  23.911  27.732  1.00  0.00     0.014 A 
ATOM     35  C   UNL A   1      39.298  26.048  27.567  1.00  0.00     0.010 A 
ATOM     36  C   UNL A   1      41.344  25.062  28.418  1.00  0.00     0.010 A 
ATOM     37  C   UNL A   1      40.499  26.158  28.285  1.00  0.00    -0.014 A 
BRANCH  37  38
ATOM     38  C   UNL A   1      40.862  27.384  28.988  1.00  0.00     0.031 A 
ATOM     39  C   UNL A   1      41.975  28.163  28.379  1.00  0.00     0.074 A 
ATOM     40  C   UNL A   1      40.094  27.896  29.975  1.00  0.00     0.049 A 
ATOM     41  N   UNL A   1      43.132  28.405  28.897  1.00  0.00    -0.248 NA
ATOM     42  C   UNL A   1      41.840  28.630  26.989  1.00  0.00     0.031 C 
ATOM     43  C   UNL A   1      38.814  27.391  30.491  1.00  0.00     0.029 A 
ATOM     44  N   UNL A   1      40.226  29.078  30.632  1.00  0.00    -0.354 N 
ATOM     45  C   UNL A   1      43.805  29.220  27.992  1.00  0.00     0.074 A 
ATOM     46  C   UNL A   1      43.034  29.190  26.775  1.00  0.00     0.031 C 
ATOM     47  C   UNL A   1      38.173  28.375  31.156  1.00  0.00     0.029 A 
ATOM     48  C   UNL A   1      39.070  29.510  31.272  1.00  0.00     0.049 A 
ATOM     49  H   UNL A   1      41.070  29.584  30.655  1.00  0.00     0.167 HD
ATOM     50  C   UNL A   1      44.832  30.027  28.383  1.00  0.00     0.031 A 
ATOM     51  C   UNL A   1      38.850  30.726  31.834  1.00  0.00     0.031 A 
ATOM     52  C   UNL A   1      45.268  29.720  29.721  1.00  0.00     0.049 A 
ATOM     53  C   UNL A   1      40.184  31.317  32.102  1.00  0.00     0.074 A 
ATOM     54  C   UNL A   1      45.796  28.602  30.334  1.00  0.00     0.029 A 
ATOM     55  N   UNL A   1      44.787  30.522  30.732  1.00  0.00    -0.354 N 
ATOM     56  N   UNL A   1      41.020  30.815  32.969  1.00  0.00    -0.248 NA
ATOM     57  C   UNL A   1      40.787  32.156  31.077  1.00  0.00     0.031 C 
ATOM     58  C   UNL A   1      45.169  28.560  31.612  1.00  0.00     0.029 A 
ATOM     59  C   UNL A   1      44.363  29.694  31.741  1.00  0.00     0.049 A 
ATOM     60  H   UNL A   1      44.753  31.506  30.732  1.00  0.00     0.167 HD
ATOM     61  C   UNL A   1      42.262  30.892  32.352  1.00  0.00     0.074 A 
ATOM     62  C   UNL A   1      42.072  31.823  31.240  1.00  0.00     0.031 C 
ATOM     63  C   UNL A   1      43.244  29.979  32.618  1.00  0.00     0.031 A 
BRANCH  50  64
ATOM     64  C   UNL A   1      45.199  31.329  27.720  1.00  0.00    -0.014 A 
ATOM     65  C   UNL A   1      46.554  31.717  27.689  1.00  0.00     0.010 A 
ATOM     66  C   UNL A   1      44.242  32.307  27.382  1.00  0.00     0.010 A 
ATOM     67  C   UNL A   1      46.926  33.039  27.410  1.00  0.00     0.020 A 
ATOM     68  C   UNL A   1      44.605  33.616  27.062  1.00  0.00     0.020 A 
ATOM     69  C   UNL A   1      45.944  33.984  27.114  1.00  0.00     0.054 A 
BRANCH  69  70
ATOM     70  S   UNL A   1      46.423  35.713  26.885  1.00  0.00     0.124 S 
ATOM     71  O   UNL A   1      47.385  35.906  27.965  1.00  0.00    -0.237 OA
ATOM     72  O   UNL A   1      46.978  35.704  25.534  1.00  0.00    -0.237 OA
ATOM     73  O   UNL A   1      45.163  36.440  27.031  1.00  0.00    -0.744 OA
ENDBRANCH  69  70
ENDBRANCH  50  64
BRANCH  51  74
ATOM     74  C   UNL A   1      37.576  31.483  31.920  1.00  0.00    -0.014 A 
ATOM     75  C   UNL A   1      36.922  31.686  33.148  1.00  0.00     0.010 A 
ATOM     76  C   UNL A   1      37.126  32.236  30.813  1.00  0.00     0.010 A 
ATOM     77  C   UNL A   1      35.898  32.644  33.277  1.00  0.00     0.020 A 
ATOM     78  C   UNL A   1      36.105  33.186  30.931  1.00  0.00     0.020 A 
ATOM     79  C   UNL A   1      35.510  33.404  32.171  1.00  0.00     0.054 A 
BRANCH  79  80
ATOM     80  S   UNL A   1      34.310  34.754  32.384  1.00  0.00     0.124 S 
ATOM     81  O   UNL A   1      33.175  34.072  32.996  1.00  0.00    -0.237 OA
ATOM     82  O   UNL A   1      35.031  35.684  33.248  1.00  0.00    -0.237 OA
ATOM     83  O   UNL A   1      34.083  35.232  31.020  1.00  0.00    -0.744 OA
ENDBRANCH  79  80
ENDBRANCH  51  74
BRANCH  63  84
ATOM     84  C   UNL A   1      43.047  29.015  33.768  1.00  0.00    -0.014 A 
ATOM     85  C   UNL A   1      43.224  29.369  35.121  1.00  0.00     0.010 A 
ATOM     86  C   UNL A   1      42.480  27.761  33.478  1.00  0.00     0.010 A 
ATOM     87  C   UNL A   1      42.863  28.486  36.150  1.00  0.00     0.020 A 
ATOM     88  C   UNL A   1      42.099  26.886  34.498  1.00  0.00     0.020 A 
ATOM     89  C   UNL A   1      42.299  27.248  35.830  1.00  0.00     0.054 A 
BRANCH  89  90
ATOM     90  S   UNL A   1      41.780  26.130  37.163  1.00  0.00     0.124 S 
ATOM     91  O   UNL A   1      42.903  26.205  38.095  1.00  0.00    -0.237 OA
ATOM     92  O   UNL A   1      40.535  26.735  37.629  1.00  0.00    -0.237 OA
ATOM     93  O   UNL A   1      41.619  24.840  36.494  1.00  0.00    -0.744 OA
ENDBRANCH  89  90
ENDBRANCH  63  84
ENDBRANCH  37  38
ENDBRANCH  29  32
ENDBRANCH   1  28
TORSDOF 15
ENDMDL
