MODEL 1
REMARK VINA RESULT:     -13.5      0.000      0.000
REMARK SMILES COc1ccc2c(c1OC)C(=O)O[C@@H]2Nc1nonc1C(=O)NCCCNC(=O)c1ccc(-c2c3nc(c(-c4ccc(S(=O)(=O)[O-])cc4)c4ccc([nH]4)c(-c4ccc(S(=O)(=O)[O-])cc4)c4nc(c(-c5ccc(S(=O)(=O)[O-])cc5)c5ccc2[nH]5)C=C4)C=C3)cc1
REMARK SMILES IDX 25 1 24 2 23 3 21 4 22 5 20 7 16 8 17 9 18 10 19 11 15 12
REMARK SMILES IDX 14 14 3 15 4 16 8 17 5 18 7 19 6 20 11 21 12 22 13 23 2 24
REMARK SMILES IDX 1 25 9 26 10 27 26 28 27 29 28 30 29 32 30 33 31 34 89 35
REMARK SMILES IDX 32 36 88 37 33 38 34 39 35 40 82 41 36 42 87 43 81 44 83 45
REMARK SMILES IDX 37 46 86 47 80 48 79 49 38 51 68 52 49 53 67 54 50 55 53 56
REMARK SMILES IDX 66 57 84 58 51 59 52 60 65 62 85 63 54 64 39 65 40 66 48 67
REMARK SMILES IDX 41 68 47 69 42 70 43 71 44 72 45 73 46 74 69 75 70 76 78 77
REMARK SMILES IDX 71 78 77 79 72 80 73 81 74 82 75 83 76 84 55 85 56 86 64 87
REMARK SMILES IDX 57 88 63 89 58 90 59 91 60 92 61 93 62 94
REMARK H PARENT 23 6 15 13 27 31 83 50 53 61
REMARK Flexibility Score: inf
ROOT
ATOM      1  C   UNL A   1      31.638  30.046  25.364  1.00  0.00     0.042 C 
ENDROOT
BRANCH   1   2
ATOM      2  C   UNL A   1      31.652  28.510  25.455  1.00  0.00     0.118 C 
BRANCH   2   3
ATOM      3  N   UNL A   1      30.726  27.837  24.563  1.00  0.00    -0.350 N 
ATOM      4  C   UNL A   1      30.377  26.506  24.518  1.00  0.00     0.277 C 
ATOM      5  O   UNL A   1      29.599  26.129  23.644  1.00  0.00    -0.267 OA
ATOM      6  H   UNL A   1      30.286  28.413  23.897  1.00  0.00     0.163 HD
BRANCH   4   7
ATOM      7  C   UNL A   1      30.984  25.592  25.461  1.00  0.00     0.216 A 
ATOM      8  C   UNL A   1      32.227  24.912  25.443  1.00  0.00     0.207 A 
ATOM      9  N   UNL A   1      32.203  23.986  26.408  1.00  0.00    -0.031 NA
ATOM     10  O   UNL A   1      30.997  24.138  27.065  1.00  0.00    -0.242 OA
ATOM     11  N   UNL A   1      30.253  25.155  26.499  1.00  0.00    -0.042 NA
BRANCH   8  12
ATOM     12  N   UNL A   1      33.186  24.866  24.484  1.00  0.00    -0.326 N 
ATOM     13  H   UNL A   1      33.910  25.516  24.634  1.00  0.00     0.166 HD
BRANCH  12  14
ATOM     14  C   UNL A   1      33.378  24.068  23.282  1.00  0.00     0.307 C 
ATOM     15  C   UNL A   1      33.827  19.248  24.688  1.00  0.00     0.161 A 
ATOM     16  C   UNL A   1      32.416  19.660  23.606  1.00  0.00     0.051 A 
ATOM     17  C   UNL A   1      35.093  20.635  25.058  1.00  0.00     0.175 A 
ATOM     18  C   UNL A   1      32.209  21.313  22.980  1.00  0.00     0.014 A 
ATOM     19  C   UNL A   1      34.774  22.264  24.319  1.00  0.00     0.114 A 
ATOM     20  C   UNL A   1      33.346  22.579  23.415  1.00  0.00     0.032 A 
ATOM     21  C   UNL A   1      35.561  23.465  24.021  1.00  0.00     0.344 C 
ATOM     22  O   UNL A   1      36.669  23.768  24.407  1.00  0.00    -0.246 OA
ATOM     23  O   UNL A   1      34.818  24.216  23.117  1.00  0.00    -0.434 OA
BRANCH  15  24
ATOM     24  O   UNL A   1      33.773  17.896  24.983  1.00  0.00    -0.493 OA
ATOM     25  C   UNL A   1      34.550  17.051  24.087  1.00  0.00     0.278 C 
ENDBRANCH  15  24
BRANCH  17  26
ATOM     26  O   UNL A   1      36.433  20.563  25.455  1.00  0.00    -0.492 OA
ATOM     27  C   UNL A   1      37.239  19.571  24.736  1.00  0.00     0.278 C 
ENDBRANCH  17  26
ENDBRANCH  12  14
ENDBRANCH   8  12
ENDBRANCH   4   7
ENDBRANCH   2   3
ENDBRANCH   1   2
BRANCH   1  28
ATOM     28  C   UNL A   1      32.156  30.857  26.803  1.00  0.00     0.118 C 
BRANCH  28  29
ATOM     29  N   UNL A   1      32.128  32.888  27.344  1.00  0.00    -0.352 N 
ATOM     30  C   UNL A   1      33.095  33.923  28.302  1.00  0.00     0.251 C 
ATOM     31  H   UNL A   1      31.364  33.364  26.943  1.00  0.00     0.163 HD
ATOM     32  O   UNL A   1      32.692  35.095  28.297  1.00  0.00    -0.269 OA
BRANCH  30  33
ATOM     33  C   UNL A   1      34.557  33.557  29.272  1.00  0.00     0.039 A 
ATOM     34  C   UNL A   1      35.814  34.117  28.995  1.00  0.00     0.014 A 
ATOM     35  C   UNL A   1      34.665  32.682  30.415  1.00  0.00     0.014 A 
ATOM     36  C   UNL A   1      37.020  33.708  29.720  1.00  0.00     0.010 A 
ATOM     37  C   UNL A   1      35.800  32.189  31.038  1.00  0.00     0.010 A 
ATOM     38  C   UNL A   1      37.023  32.684  30.694  1.00  0.00    -0.014 A 
BRANCH  38  39
ATOM     39  C   UNL A   1      38.128  32.103  31.516  1.00  0.00     0.031 A 
ATOM     40  C   UNL A   1      38.590  32.773  32.797  1.00  0.00     0.074 A 
ATOM     41  C   UNL A   1      38.992  31.246  30.924  1.00  0.00     0.049 A 
ATOM     42  N   UNL A   1      39.487  32.372  33.665  1.00  0.00    -0.248 NA
ATOM     43  C   UNL A   1      38.005  34.087  33.118  1.00  0.00     0.031 C 
ATOM     44  C   UNL A   1      38.886  30.769  29.541  1.00  0.00     0.029 A 
ATOM     45  N   UNL A   1      40.154  30.669  31.380  1.00  0.00    -0.354 N 
ATOM     46  C   UNL A   1      39.524  33.342  34.666  1.00  0.00     0.074 A 
ATOM     47  C   UNL A   1      38.624  34.397  34.253  1.00  0.00     0.031 C 
ATOM     48  C   UNL A   1      39.910  29.942  29.278  1.00  0.00     0.029 A 
ATOM     49  C   UNL A   1      40.731  29.805  30.478  1.00  0.00     0.049 A 
ATOM     50  H   UNL A   1      40.535  30.856  32.268  1.00  0.00     0.167 HD
ATOM     51  C   UNL A   1      40.225  33.332  35.830  1.00  0.00     0.031 A 
ATOM     52  C   UNL A   1      41.766  28.953  30.616  1.00  0.00     0.031 A 
ATOM     53  C   UNL A   1      41.183  32.306  36.170  1.00  0.00     0.049 A 
ATOM     54  C   UNL A   1      42.443  28.847  31.955  1.00  0.00     0.074 A 
ATOM     55  C   UNL A   1      41.843  32.095  37.369  1.00  0.00     0.029 A 
ATOM     56  N   UNL A   1      41.647  31.341  35.288  1.00  0.00    -0.354 N 
ATOM     57  N   UNL A   1      42.267  29.582  33.026  1.00  0.00    -0.248 NA
ATOM     58  C   UNL A   1      43.422  27.763  32.121  1.00  0.00     0.031 C 
ATOM     59  C   UNL A   1      42.747  31.039  37.193  1.00  0.00     0.029 A 
ATOM     60  C   UNL A   1      42.598  30.545  35.907  1.00  0.00     0.049 A 
ATOM     61  H   UNL A   1      41.345  31.237  34.357  1.00  0.00     0.167 HD
ATOM     62  C   UNL A   1      43.084  29.029  34.006  1.00  0.00     0.074 A 
ATOM     63  C   UNL A   1      43.742  27.888  33.402  1.00  0.00     0.031 C 
ATOM     64  C   UNL A   1      43.262  29.423  35.292  1.00  0.00     0.031 A 
BRANCH  51  65
ATOM     65  C   UNL A   1      39.945  34.412  36.855  1.00  0.00    -0.014 A 
ATOM     66  C   UNL A   1      39.040  34.174  37.908  1.00  0.00     0.010 A 
ATOM     67  C   UNL A   1      40.669  35.620  36.856  1.00  0.00     0.010 A 
ATOM     68  C   UNL A   1      38.837  35.127  38.913  1.00  0.00     0.020 A 
ATOM     69  C   UNL A   1      40.489  36.568  37.875  1.00  0.00     0.020 A 
ATOM     70  C   UNL A   1      39.563  36.319  38.890  1.00  0.00     0.054 A 
BRANCH  70  71
ATOM     71  S   UNL A   1      39.300  37.518  40.228  1.00  0.00     0.124 S 
ATOM     72  O   UNL A   1      40.641  38.066  40.411  1.00  0.00    -0.237 OA
ATOM     73  O   UNL A   1      38.323  38.437  39.648  1.00  0.00    -0.237 OA
ATOM     74  O   UNL A   1      38.805  36.704  41.336  1.00  0.00    -0.744 OA
ENDBRANCH  70  71
ENDBRANCH  51  65
BRANCH  52  75
ATOM     75  C   UNL A   1      42.108  28.026  29.501  1.00  0.00    -0.014 A 
ATOM     76  C   UNL A   1      41.327  26.875  29.278  1.00  0.00     0.010 A 
ATOM     77  C   UNL A   1      43.167  28.309  28.623  1.00  0.00     0.010 A 
ATOM     78  C   UNL A   1      41.611  26.017  28.212  1.00  0.00     0.020 A 
ATOM     79  C   UNL A   1      43.437  27.468  27.537  1.00  0.00     0.020 A 
ATOM     80  C   UNL A   1      42.663  26.321  27.345  1.00  0.00     0.054 A 
BRANCH  80  81
ATOM     81  S   UNL A   1      42.973  25.223  25.934  1.00  0.00     0.124 S 
ATOM     82  O   UNL A   1      42.721  26.106  24.800  1.00  0.00    -0.237 OA
ATOM     83  O   UNL A   1      44.366  24.834  26.136  1.00  0.00    -0.237 OA
ATOM     84  O   UNL A   1      42.001  24.147  26.117  1.00  0.00    -0.744 OA
ENDBRANCH  80  81
ENDBRANCH  52  75
BRANCH  64  85
ATOM     85  C   UNL A   1      44.187  28.596  36.147  1.00  0.00    -0.014 A 
ATOM     86  C   UNL A   1      45.548  28.925  36.292  1.00  0.00     0.010 A 
ATOM     87  C   UNL A   1      43.675  27.486  36.842  1.00  0.00     0.010 A 
ATOM     88  C   UNL A   1      46.386  28.131  37.079  1.00  0.00     0.020 A 
ATOM     89  C   UNL A   1      44.503  26.709  37.657  1.00  0.00     0.020 A 
ATOM     90  C   UNL A   1      45.859  27.027  37.755  1.00  0.00     0.054 A 
BRANCH  90  91
ATOM     91  S   UNL A   1      46.963  26.027  38.788  1.00  0.00     0.124 S 
ATOM     92  O   UNL A   1      47.327  26.967  39.844  1.00  0.00    -0.237 OA
ATOM     93  O   UNL A   1      46.101  24.923  39.202  1.00  0.00    -0.237 OA
ATOM     94  O   UNL A   1      48.048  25.657  37.882  1.00  0.00    -0.744 OA
ENDBRANCH  90  91
ENDBRANCH  64  85
ENDBRANCH  38  39
ENDBRANCH  30  33
ENDBRANCH  28  29
ENDBRANCH   1  28
TORSDOF 17
ENDMDL
MODEL 2
REMARK VINA RESULT:     -13.2      3.663      9.508
REMARK SMILES COc1ccc2c(c1OC)C(=O)O[C@@H]2Nc1nonc1C(=O)NCCCNC(=O)c1ccc(-c2c3nc(c(-c4ccc(S(=O)(=O)[O-])cc4)c4ccc([nH]4)c(-c4ccc(S(=O)(=O)[O-])cc4)c4nc(c(-c5ccc(S(=O)(=O)[O-])cc5)c5ccc2[nH]5)C=C4)C=C3)cc1
REMARK SMILES IDX 25 1 24 2 23 3 21 4 22 5 20 7 16 8 17 9 18 10 19 11 15 12
REMARK SMILES IDX 14 14 3 15 4 16 8 17 5 18 7 19 6 20 11 21 12 22 13 23 2 24
REMARK SMILES IDX 1 25 9 26 10 27 26 28 27 29 28 30 29 32 30 33 31 34 89 35
REMARK SMILES IDX 32 36 88 37 33 38 34 39 35 40 82 41 36 42 87 43 81 44 83 45
REMARK SMILES IDX 37 46 86 47 80 48 79 49 38 51 68 52 49 53 67 54 50 55 53 56
REMARK SMILES IDX 66 57 84 58 51 59 52 60 65 62 85 63 54 64 39 65 40 66 48 67
REMARK SMILES IDX 41 68 47 69 42 70 43 71 44 72 45 73 46 74 69 75 70 76 78 77
REMARK SMILES IDX 71 78 77 79 72 80 73 81 74 82 75 83 76 84 55 85 56 86 64 87
REMARK SMILES IDX 57 88 63 89 58 90 59 91 60 92 61 93 62 94
REMARK H PARENT 23 6 15 13 27 31 83 50 53 61
REMARK Flexibility Score: inf
ROOT
ATOM      1  C   UNL A   1      34.502  23.198  26.833  1.00  0.00     0.042 C 
ENDROOT
BRANCH   1   2
ATOM      2  C   UNL A   1      33.716  22.030  27.454  1.00  0.00     0.118 C 
BRANCH   2   3
ATOM      3  N   UNL A   1      33.176  21.081  26.498  1.00  0.00    -0.350 N 
ATOM      4  C   UNL A   1      32.075  21.204  25.681  1.00  0.00     0.277 C 
ATOM      5  O   UNL A   1      31.758  20.252  24.969  1.00  0.00    -0.267 OA
ATOM      6  H   UNL A   1      33.665  20.230  26.425  1.00  0.00     0.163 HD
BRANCH   4   7
ATOM      7  C   UNL A   1      31.298  22.423  25.733  1.00  0.00     0.216 A 
ATOM      8  C   UNL A   1      31.246  23.542  24.865  1.00  0.00     0.207 A 
ATOM      9  N   UNL A   1      30.576  24.516  25.490  1.00  0.00    -0.031 NA
ATOM     10  O   UNL A   1      30.152  23.988  26.695  1.00  0.00    -0.242 OA
ATOM     11  N   UNL A   1      30.572  22.680  26.833  1.00  0.00    -0.042 NA
BRANCH   8  12
ATOM     12  N   UNL A   1      31.977  23.825  23.757  1.00  0.00    -0.326 N 
ATOM     13  H   UNL A   1      31.562  23.494  22.928  1.00  0.00     0.166 HD
BRANCH  12  14
ATOM     14  C   UNL A   1      33.240  24.510  23.526  1.00  0.00     0.307 C 
ATOM     15  C   UNL A   1      32.751  29.247  25.180  1.00  0.00     0.161 A 
ATOM     16  C   UNL A   1      34.014  28.217  26.001  1.00  0.00     0.051 A 
ATOM     17  C   UNL A   1      31.844  28.499  23.670  1.00  0.00     0.175 A 
ATOM     18  C   UNL A   1      34.331  26.557  25.441  1.00  0.00     0.014 A 
ATOM     19  C   UNL A   1      32.299  26.808  23.187  1.00  0.00     0.114 A 
ATOM     20  C   UNL A   1      33.414  25.878  24.106  1.00  0.00     0.032 A 
ATOM     21  C   UNL A   1      32.172  25.978  21.984  1.00  0.00     0.344 C 
ATOM     22  O   UNL A   1      31.499  26.166  20.994  1.00  0.00    -0.246 OA
ATOM     23  O   UNL A   1      33.051  24.912  22.139  1.00  0.00    -0.434 OA
BRANCH  15  24
ATOM     24  O   UNL A   1      32.748  30.496  25.777  1.00  0.00    -0.493 OA
ATOM     25  C   UNL A   1      31.438  30.948  26.224  1.00  0.00     0.278 C 
ENDBRANCH  15  24
BRANCH  17  26
ATOM     26  O   UNL A   1      31.184  29.121  22.603  1.00  0.00    -0.492 OA
ATOM     27  C   UNL A   1      29.722  29.022  22.638  1.00  0.00     0.278 C 
ENDBRANCH  17  26
ENDBRANCH  12  14
ENDBRANCH   8  12
ENDBRANCH   4   7
ENDBRANCH   2   3
ENDBRANCH   1   2
BRANCH   1  28
ATOM     28  C   UNL A   1      35.673  22.727  25.648  1.00  0.00     0.118 C 
BRANCH  28  29
ATOM     29  N   UNL A   1      37.641  22.013  25.843  1.00  0.00    -0.352 N 
ATOM     30  C   UNL A   1      39.137  22.648  26.376  1.00  0.00     0.251 C 
ATOM     31  H   UNL A   1      37.721  21.075  25.554  1.00  0.00     0.163 HD
ATOM     32  O   UNL A   1      40.051  21.811  26.343  1.00  0.00    -0.269 OA
BRANCH  30  33
ATOM     33  C   UNL A   1      39.544  24.294  26.957  1.00  0.00     0.039 A 
ATOM     34  C   UNL A   1      40.292  25.205  26.196  1.00  0.00     0.014 A 
ATOM     35  C   UNL A   1      39.192  24.899  28.218  1.00  0.00     0.014 A 
ATOM     36  C   UNL A   1      40.722  26.497  26.738  1.00  0.00     0.010 A 
ATOM     37  C   UNL A   1      39.679  26.059  28.801  1.00  0.00     0.010 A 
ATOM     38  C   UNL A   1      40.477  26.892  28.073  1.00  0.00    -0.014 A 
BRANCH  38  39
ATOM     39  C   UNL A   1      40.846  28.130  28.823  1.00  0.00     0.031 A 
ATOM     40  C   UNL A   1      42.059  28.164  29.735  1.00  0.00     0.074 A 
ATOM     41  C   UNL A   1      39.894  29.069  29.031  1.00  0.00     0.049 A 
ATOM     42  N   UNL A   1      42.562  29.170  30.408  1.00  0.00    -0.248 NA
ATOM     43  C   UNL A   1      42.767  26.891  29.962  1.00  0.00     0.031 C 
ATOM     44  C   UNL A   1      38.526  29.007  28.505  1.00  0.00     0.029 A 
ATOM     45  N   UNL A   1      39.904  30.221  29.781  1.00  0.00    -0.354 N 
ATOM     46  C   UNL A   1      43.680  28.673  31.078  1.00  0.00     0.074 A 
ATOM     47  C   UNL A   1      43.730  27.254  30.802  1.00  0.00     0.031 C 
ATOM     48  C   UNL A   1      37.847  30.092  28.910  1.00  0.00     0.029 A 
ATOM     49  C   UNL A   1      38.734  30.941  29.700  1.00  0.00     0.049 A 
ATOM     50  H   UNL A   1      40.675  30.504  30.323  1.00  0.00     0.167 HD
ATOM     51  C   UNL A   1      44.589  29.350  31.827  1.00  0.00     0.031 A 
ATOM     52  C   UNL A   1      38.426  32.171  30.157  1.00  0.00     0.031 A 
ATOM     53  C   UNL A   1      44.460  30.750  32.157  1.00  0.00     0.049 A 
ATOM     54  C   UNL A   1      39.488  32.970  30.861  1.00  0.00     0.074 A 
ATOM     55  C   UNL A   1      45.375  31.587  32.774  1.00  0.00     0.029 A 
ATOM     56  N   UNL A   1      43.320  31.508  31.932  1.00  0.00    -0.354 N 
ATOM     57  N   UNL A   1      40.686  32.592  31.238  1.00  0.00    -0.248 NA
ATOM     58  C   UNL A   1      39.178  34.375  31.154  1.00  0.00     0.031 C 
ATOM     59  C   UNL A   1      44.767  32.834  32.970  1.00  0.00     0.029 A 
ATOM     60  C   UNL A   1      43.499  32.795  32.412  1.00  0.00     0.049 A 
ATOM     61  H   UNL A   1      42.502  31.180  31.494  1.00  0.00     0.167 HD
ATOM     62  C   UNL A   1      41.288  33.722  31.780  1.00  0.00     0.074 A 
ATOM     63  C   UNL A   1      40.325  34.800  31.667  1.00  0.00     0.031 C 
ATOM     64  C   UNL A   1      42.529  33.857  32.313  1.00  0.00     0.031 A 
BRANCH  51  65
ATOM     65  C   UNL A   1      45.836  28.622  32.288  1.00  0.00    -0.014 A 
ATOM     66  C   UNL A   1      45.840  27.931  33.515  1.00  0.00     0.010 A 
ATOM     67  C   UNL A   1      46.965  28.512  31.453  1.00  0.00     0.010 A 
ATOM     68  C   UNL A   1      46.952  27.180  33.914  1.00  0.00     0.020 A 
ATOM     69  C   UNL A   1      48.071  27.738  31.836  1.00  0.00     0.020 A 
ATOM     70  C   UNL A   1      48.062  27.088  33.072  1.00  0.00     0.054 A 
BRANCH  70  71
ATOM     71  S   UNL A   1      49.472  26.076  33.606  1.00  0.00     0.124 S 
ATOM     72  O   UNL A   1      50.603  26.826  33.065  1.00  0.00    -0.237 OA
ATOM     73  O   UNL A   1      49.348  26.097  35.062  1.00  0.00    -0.237 OA
ATOM     74  O   UNL A   1      49.230  24.778  32.980  1.00  0.00    -0.744 OA
ENDBRANCH  70  71
ENDBRANCH  51  65
BRANCH  52  75
ATOM     75  C   UNL A   1      37.106  32.772  29.815  1.00  0.00    -0.014 A 
ATOM     76  C   UNL A   1      36.079  32.811  30.777  1.00  0.00     0.010 A 
ATOM     77  C   UNL A   1      36.883  33.359  28.558  1.00  0.00     0.010 A 
ATOM     78  C   UNL A   1      34.849  33.406  30.483  1.00  0.00     0.020 A 
ATOM     79  C   UNL A   1      35.663  33.982  28.269  1.00  0.00     0.020 A 
ATOM     80  C   UNL A   1      34.650  33.992  29.231  1.00  0.00     0.054 A 
BRANCH  80  81
ATOM     81  S   UNL A   1      33.066  34.813  28.895  1.00  0.00     0.124 S 
ATOM     82  O   UNL A   1      32.460  34.860  30.222  1.00  0.00    -0.237 OA
ATOM     83  O   UNL A   1      33.486  36.098  28.344  1.00  0.00    -0.237 OA
ATOM     84  O   UNL A   1      32.413  33.918  27.941  1.00  0.00    -0.744 OA
ENDBRANCH  80  81
ENDBRANCH  52  75
BRANCH  64  85
ATOM     85  C   UNL A   1      42.931  35.229  32.788  1.00  0.00    -0.014 A 
ATOM     86  C   UNL A   1      42.724  35.638  34.118  1.00  0.00     0.010 A 
ATOM     87  C   UNL A   1      43.559  36.113  31.892  1.00  0.00     0.010 A 
ATOM     88  C   UNL A   1      43.093  36.922  34.529  1.00  0.00     0.020 A 
ATOM     89  C   UNL A   1      43.961  37.385  32.307  1.00  0.00     0.020 A 
ATOM     90  C   UNL A   1      43.708  37.788  33.619  1.00  0.00     0.054 A 
BRANCH  90  91
ATOM     91  S   UNL A   1      44.199  39.440  34.183  1.00  0.00     0.124 S 
ATOM     92  O   UNL A   1      44.407  39.225  35.612  1.00  0.00    -0.237 OA
ATOM     93  O   UNL A   1      45.409  39.696  33.404  1.00  0.00    -0.237 OA
ATOM     94  O   UNL A   1      43.054  40.279  33.840  1.00  0.00    -0.744 OA
ENDBRANCH  90  91
ENDBRANCH  64  85
ENDBRANCH  38  39
ENDBRANCH  30  33
ENDBRANCH  28  29
ENDBRANCH   1  28
TORSDOF 17
ENDMDL
MODEL 3
REMARK VINA RESULT:     -13.0      6.001     10.693
REMARK SMILES COc1ccc2c(c1OC)C(=O)O[C@@H]2Nc1nonc1C(=O)NCCCNC(=O)c1ccc(-c2c3nc(c(-c4ccc(S(=O)(=O)[O-])cc4)c4ccc([nH]4)c(-c4ccc(S(=O)(=O)[O-])cc4)c4nc(c(-c5ccc(S(=O)(=O)[O-])cc5)c5ccc2[nH]5)C=C4)C=C3)cc1
REMARK SMILES IDX 25 1 24 2 23 3 21 4 22 5 20 7 16 8 17 9 18 10 19 11 15 12
REMARK SMILES IDX 14 14 3 15 4 16 8 17 5 18 7 19 6 20 11 21 12 22 13 23 2 24
REMARK SMILES IDX 1 25 9 26 10 27 26 28 27 29 28 30 29 32 30 33 31 34 89 35
REMARK SMILES IDX 32 36 88 37 33 38 34 39 35 40 82 41 36 42 87 43 81 44 83 45
REMARK SMILES IDX 37 46 86 47 80 48 79 49 38 51 68 52 49 53 67 54 50 55 53 56
REMARK SMILES IDX 66 57 84 58 51 59 52 60 65 62 85 63 54 64 39 65 40 66 48 67
REMARK SMILES IDX 41 68 47 69 42 70 43 71 44 72 45 73 46 74 69 75 70 76 78 77
REMARK SMILES IDX 71 78 77 79 72 80 73 81 74 82 75 83 76 84 55 85 56 86 64 87
REMARK SMILES IDX 57 88 63 89 58 90 59 91 60 92 61 93 62 94
REMARK H PARENT 23 6 15 13 27 31 83 50 53 61
REMARK Flexibility Score: inf
ROOT
ATOM      1  C   UNL A   1      33.914  28.765  26.248  1.00  0.00     0.042 C 
ENDROOT
BRANCH   1   2
ATOM      2  C   UNL A   1      33.307  28.683  24.837  1.00  0.00     0.118 C 
BRANCH   2   3
ATOM      3  N   UNL A   1      32.050  29.389  24.671  1.00  0.00    -0.350 N 
ATOM      4  C   UNL A   1      30.911  28.990  24.008  1.00  0.00     0.277 C 
ATOM      5  O   UNL A   1      29.960  29.768  23.947  1.00  0.00    -0.267 OA
ATOM      6  H   UNL A   1      32.005  30.279  25.092  1.00  0.00     0.163 HD
BRANCH   4   7
ATOM      7  C   UNL A   1      30.898  27.698  23.357  1.00  0.00     0.216 A 
ATOM      8  C   UNL A   1      30.758  26.388  23.876  1.00  0.00     0.207 A 
ATOM      9  N   UNL A   1      31.079  25.525  22.905  1.00  0.00    -0.031 NA
ATOM     10  O   UNL A   1      31.340  26.284  21.779  1.00  0.00    -0.242 OA
ATOM     11  N   UNL A   1      31.197  27.630  22.050  1.00  0.00    -0.042 NA
BRANCH   8  12
ATOM     12  N   UNL A   1      30.669  25.959  25.160  1.00  0.00    -0.326 N 
ATOM     13  H   UNL A   1      29.747  25.745  25.430  1.00  0.00     0.166 HD
BRANCH  12  14
ATOM     14  C   UNL A   1      31.637  25.746  26.225  1.00  0.00     0.307 C 
ATOM     15  C   UNL A   1      35.015  22.379  24.591  1.00  0.00     0.161 A 
ATOM     16  C   UNL A   1      35.646  24.042  25.005  1.00  0.00     0.051 A 
ATOM     17  C   UNL A   1      33.174  22.014  24.963  1.00  0.00     0.175 A 
ATOM     18  C   UNL A   1      34.557  25.281  25.672  1.00  0.00     0.014 A 
ATOM     19  C   UNL A   1      32.192  23.363  25.681  1.00  0.00     0.114 A 
ATOM     20  C   UNL A   1      32.854  24.932  25.917  1.00  0.00     0.032 A 
ATOM     21  C   UNL A   1      30.934  23.479  26.425  1.00  0.00     0.344 C 
ATOM     22  O   UNL A   1      30.064  22.652  26.588  1.00  0.00    -0.246 OA
ATOM     23  O   UNL A   1      30.927  24.742  27.006  1.00  0.00    -0.434 OA
BRANCH  15  24
ATOM     24  O   UNL A   1      36.074  21.607  24.144  1.00  0.00    -0.493 OA
ATOM     25  C   UNL A   1      36.501  20.572  25.074  1.00  0.00     0.278 C 
ENDBRANCH  15  24
BRANCH  17  26
ATOM     26  O   UNL A   1      32.511  20.799  25.172  1.00  0.00    -0.492 OA
ATOM     27  C   UNL A   1      32.383  19.951  23.983  1.00  0.00     0.278 C 
ENDBRANCH  17  26
ENDBRANCH  12  14
ENDBRANCH   8  12
ENDBRANCH   4   7
ENDBRANCH   2   3
ENDBRANCH   1   2
BRANCH   1  28
ATOM     28  C   UNL A   1      34.054  30.371  26.879  1.00  0.00     0.118 C 
BRANCH  28  29
ATOM     29  N   UNL A   1      34.511  31.075  28.807  1.00  0.00    -0.352 N 
ATOM     30  C   UNL A   1      35.892  31.100  29.815  1.00  0.00     0.251 C 
ATOM     31  H   UNL A   1      33.733  31.498  29.238  1.00  0.00     0.163 HD
ATOM     32  O   UNL A   1      35.687  31.676  30.894  1.00  0.00    -0.269 OA
BRANCH  30  33
ATOM     33  C   UNL A   1      37.532  30.435  29.534  1.00  0.00     0.039 A 
ATOM     34  C   UNL A   1      38.452  30.213  30.571  1.00  0.00     0.014 A 
ATOM     35  C   UNL A   1      38.128  30.051  28.277  1.00  0.00     0.014 A 
ATOM     36  C   UNL A   1      39.829  29.789  30.307  1.00  0.00     0.010 A 
ATOM     37  C   UNL A   1      39.452  29.764  27.985  1.00  0.00     0.010 A 
ATOM     38  C   UNL A   1      40.352  29.637  29.002  1.00  0.00    -0.014 A 
BRANCH  38  39
ATOM     39  C   UNL A   1      41.711  29.248  28.519  1.00  0.00     0.031 A 
ATOM     40  C   UNL A   1      42.050  27.802  28.207  1.00  0.00     0.074 A 
ATOM     41  C   UNL A   1      42.747  30.084  28.762  1.00  0.00     0.049 A 
ATOM     42  N   UNL A   1      43.157  27.298  27.718  1.00  0.00    -0.248 NA
ATOM     43  C   UNL A   1      41.035  26.786  28.537  1.00  0.00     0.031 C 
ATOM     44  C   UNL A   1      42.632  31.399  29.401  1.00  0.00     0.029 A 
ATOM     45  N   UNL A   1      44.099  29.937  28.559  1.00  0.00    -0.354 N 
ATOM     46  C   UNL A   1      42.947  25.923  27.613  1.00  0.00     0.074 A 
ATOM     47  C   UNL A   1      41.640  25.660  28.175  1.00  0.00     0.031 C 
ATOM     48  C   UNL A   1      43.851  31.954  29.495  1.00  0.00     0.029 A 
ATOM     49  C   UNL A   1      44.832  31.051  28.901  1.00  0.00     0.049 A 
ATOM     50  H   UNL A   1      44.503  29.114  28.203  1.00  0.00     0.167 HD
ATOM     51  C   UNL A   1      43.763  24.980  27.072  1.00  0.00     0.031 A 
ATOM     52  C   UNL A   1      46.134  31.339  28.706  1.00  0.00     0.031 A 
ATOM     53  C   UNL A   1      45.098  25.263  26.601  1.00  0.00     0.049 A 
ATOM     54  C   UNL A   1      46.995  30.345  27.977  1.00  0.00     0.074 A 
ATOM     55  C   UNL A   1      45.966  24.442  25.901  1.00  0.00     0.029 A 
ATOM     56  N   UNL A   1      45.774  26.453  26.825  1.00  0.00    -0.354 N 
ATOM     57  N   UNL A   1      46.701  29.125  27.598  1.00  0.00    -0.248 NA
ATOM     58  C   UNL A   1      48.345  30.786  27.601  1.00  0.00     0.031 C 
ATOM     59  C   UNL A   1      47.184  25.117  25.750  1.00  0.00     0.029 A 
ATOM     60  C   UNL A   1      47.052  26.384  26.294  1.00  0.00     0.049 A 
ATOM     61  H   UNL A   1      45.401  27.234  27.293  1.00  0.00     0.167 HD
ATOM     62  C   UNL A   1      47.816  28.663  26.907  1.00  0.00     0.074 A 
ATOM     63  C   UNL A   1      48.783  29.742  26.908  1.00  0.00     0.031 C 
ATOM     64  C   UNL A   1      48.015  27.457  26.316  1.00  0.00     0.031 A 
BRANCH  51  65
ATOM     65  C   UNL A   1      43.227  23.574  26.891  1.00  0.00    -0.014 A 
ATOM     66  C   UNL A   1      42.973  23.073  25.599  1.00  0.00     0.010 A 
ATOM     67  C   UNL A   1      43.092  22.700  27.987  1.00  0.00     0.010 A 
ATOM     68  C   UNL A   1      42.563  21.748  25.409  1.00  0.00     0.020 A 
ATOM     69  C   UNL A   1      42.708  21.363  27.800  1.00  0.00     0.020 A 
ATOM     70  C   UNL A   1      42.433  20.900  26.511  1.00  0.00     0.054 A 
BRANCH  70  71
ATOM     71  S   UNL A   1      41.932  19.178  26.224  1.00  0.00     0.124 S 
ATOM     72  O   UNL A   1      42.777  18.803  25.093  1.00  0.00    -0.237 OA
ATOM     73  O   UNL A   1      42.264  18.533  27.493  1.00  0.00    -0.237 OA
ATOM     74  O   UNL A   1      40.504  19.273  25.930  1.00  0.00    -0.744 OA
ENDBRANCH  70  71
ENDBRANCH  51  65
BRANCH  52  75
ATOM     75  C   UNL A   1      46.648  32.691  29.066  1.00  0.00    -0.014 A 
ATOM     76  C   UNL A   1      47.272  32.899  30.311  1.00  0.00     0.010 A 
ATOM     77  C   UNL A   1      46.574  33.759  28.155  1.00  0.00     0.010 A 
ATOM     78  C   UNL A   1      47.794  34.152  30.646  1.00  0.00     0.020 A 
ATOM     79  C   UNL A   1      47.120  35.007  28.475  1.00  0.00     0.020 A 
ATOM     80  C   UNL A   1      47.718  35.198  29.724  1.00  0.00     0.054 A 
BRANCH  80  81
ATOM     81  S   UNL A   1      48.457  36.798  30.159  1.00  0.00     0.124 S 
ATOM     82  O   UNL A   1      47.740  37.714  29.278  1.00  0.00    -0.237 OA
ATOM     83  O   UNL A   1      48.145  36.913  31.581  1.00  0.00    -0.237 OA
ATOM     84  O   UNL A   1      49.874  36.614  29.853  1.00  0.00    -0.744 OA
ENDBRANCH  80  81
ENDBRANCH  52  75
BRANCH  64  85
ATOM     85  C   UNL A   1      49.320  27.250  25.592  1.00  0.00    -0.014 A 
ATOM     86  C   UNL A   1      49.444  27.495  24.212  1.00  0.00     0.010 A 
ATOM     87  C   UNL A   1      50.452  26.833  26.316  1.00  0.00     0.010 A 
ATOM     88  C   UNL A   1      50.664  27.280  23.563  1.00  0.00     0.020 A 
ATOM     89  C   UNL A   1      51.681  26.650  25.678  1.00  0.00     0.020 A 
ATOM     90  C   UNL A   1      51.774  26.857  24.300  1.00  0.00     0.054 A 
BRANCH  90  91
ATOM     91  S   UNL A   1      53.350  26.608  23.439  1.00  0.00     0.124 S 
ATOM     92  O   UNL A   1      53.951  27.936  23.515  1.00  0.00    -0.237 OA
ATOM     93  O   UNL A   1      53.997  25.579  24.249  1.00  0.00    -0.237 OA
ATOM     94  O   UNL A   1      52.951  26.180  22.100  1.00  0.00    -0.744 OA
ENDBRANCH  90  91
ENDBRANCH  64  85
ENDBRANCH  38  39
ENDBRANCH  30  33
ENDBRANCH  28  29
ENDBRANCH   1  28
TORSDOF 17
ENDMDL
