MODEL 1
REMARK VINA RESULT:     -10.4      0.000      0.000
REMARK SMILES COc1cccc([C@H]2[NH2+][C@@](CC(C)C)(C(=O)NCCCNC(=O)c3ccc(-c4c5nc(c(-c6ccc(S(=O)(=O)[O-])cc6)c6ccc([nH]6)c(-c6ccc(S(=O)(=O)[O-])cc6)c6nc(c(-c7ccc(S(=O)(=O)[O-])cc7)c7ccc4[nH]7)C=C6)C=C5)cc3)[C@H]3C(=O)N(C(C)C)C(=O)[C@H]23)c1O
REMARK SMILES IDX 19 1 18 2 17 3 15 4 16 5 10 7 8 8 9 9 93 10 84 13 91 14
REMARK SMILES IDX 85 15 87 16 92 17 86 18 7 19 3 20 4 21 94 22 5 23 6 24 2 25
REMARK SMILES IDX 1 26 95 27 11 29 12 30 13 31 14 32 88 33 89 34 90 35 20 36
REMARK SMILES IDX 21 37 22 38 23 40 24 41 25 42 83 43 26 44 82 45 27 46 28 47
REMARK SMILES IDX 29 48 76 49 30 50 81 51 75 52 77 53 31 54 80 55 74 56 73 57
REMARK SMILES IDX 32 59 62 60 43 61 61 62 44 63 47 64 60 65 78 66 45 67 46 68
REMARK SMILES IDX 59 70 79 71 48 72 33 73 34 74 42 75 35 76 41 77 36 78 37 79
REMARK SMILES IDX 38 80 39 81 40 82 63 83 64 84 72 85 65 86 71 87 66 88 67 89
REMARK SMILES IDX 68 90 69 91 70 92 49 93 50 94 58 95 51 96 57 97 52 98 53 99
REMARK SMILES IDX 54 100 55 101 56 102
REMARK H PARENT 17 6 9 11 9 12 95 28 21 39 77 58 47 69
REMARK Flexibility Score: inf
ROOT
ATOM      1  C   UNL A   1      32.442  31.794  27.609  1.00  0.00     0.042 C 
ENDROOT
BRANCH   1   2
ATOM      2  C   UNL A   1      31.878  30.920  26.510  1.00  0.00     0.118 C 
BRANCH   2   3
ATOM      3  N   UNL A   1      31.222  29.700  26.908  1.00  0.00    -0.351 N 
ATOM      4  C   UNL A   1      31.705  28.421  26.804  1.00  0.00     0.282 C 
ATOM      5  O   UNL A   1      31.154  27.574  27.518  1.00  0.00    -0.268 OA
ATOM      6  H   UNL A   1      30.325  29.796  27.300  1.00  0.00     0.163 HD
BRANCH   4   7
ATOM      7  C   UNL A   1      32.822  28.026  25.753  1.00  0.00     0.189 C 
ATOM      8  C   UNL A   1      31.580  27.851  23.570  1.00  0.00     0.232 C 
ATOM      9  N   UNL A   1      32.414  28.777  24.455  1.00  0.00    -0.326 N 
ATOM     10  C   UNL A   1      31.419  26.653  24.437  1.00  0.00     0.161 C 
ATOM     11  H   UNL A   1      31.863  29.601  24.698  1.00  0.00     0.347 HD
ATOM     12  H   UNL A   1      33.252  29.066  23.951  1.00  0.00     0.347 HD
ATOM     13  C   UNL A   1      32.685  26.603  25.224  1.00  0.00     0.169 C 
ATOM     14  C   UNL A   1      31.355  25.244  23.971  1.00  0.00     0.240 C 
ATOM     15  C   UNL A   1      32.430  25.332  25.986  1.00  0.00     0.240 C 
ATOM     16  N   UNL A   1      31.721  24.528  25.099  1.00  0.00    -0.279 N 
ATOM     17  O   UNL A   1      31.033  24.834  22.870  1.00  0.00    -0.274 OA
ATOM     18  O   UNL A   1      32.897  25.034  27.070  1.00  0.00    -0.274 OA
BRANCH   8  19
ATOM     19  C   UNL A   1      30.271  28.435  23.020  1.00  0.00     0.056 A 
ATOM     20  C   UNL A   1      28.937  30.161  21.828  1.00  0.00     0.161 A 
ATOM     21  C   UNL A   1      27.772  29.593  22.338  1.00  0.00     0.050 A 
ATOM     22  C   UNL A   1      30.168  29.576  22.172  1.00  0.00     0.166 A 
ATOM     23  C   UNL A   1      27.829  28.466  23.156  1.00  0.00     0.005 A 
ATOM     24  C   UNL A   1      29.062  27.894  23.494  1.00  0.00     0.014 A 
BRANCH  20  25
ATOM     25  O   UNL A   1      28.699  31.257  21.039  1.00  0.00    -0.493 OA
ATOM     26  C   UNL A   1      28.368  32.503  21.637  1.00  0.00     0.278 C 
ENDBRANCH  20  25
BRANCH  22  27
ATOM     27  O   UNL A   1      31.300  30.136  21.649  1.00  0.00    -0.504 OA
ATOM     28  H   UNL A   1      32.140  29.881  21.973  1.00  0.00     0.293 HD
ENDBRANCH  22  27
ENDBRANCH   8  19
BRANCH   7  29
ATOM     29  C   UNL A   1      34.351  28.151  26.157  1.00  0.00     0.083 C 
BRANCH  29  30
ATOM     30  C   UNL A   1      34.961  29.354  26.910  1.00  0.00    -0.011 C 
ATOM     31  C   UNL A   1      34.803  29.328  28.434  1.00  0.00     0.007 C 
ATOM     32  C   UNL A   1      36.447  29.563  26.585  1.00  0.00     0.007 C 
ENDBRANCH  29  30
ENDBRANCH   7  29
BRANCH  16  33
ATOM     33  C   UNL A   1      31.362  23.137  25.332  1.00  0.00     0.087 C 
ATOM     34  C   UNL A   1      32.613  22.257  25.263  1.00  0.00     0.031 C 
ATOM     35  C   UNL A   1      30.634  22.942  26.660  1.00  0.00     0.031 C 
ENDBRANCH  16  33
ENDBRANCH   4   7
ENDBRANCH   2   3
ENDBRANCH   1   2
BRANCH   1  36
ATOM     36  C   UNL A   1      32.867  33.174  27.115  1.00  0.00     0.118 C 
BRANCH  36  37
ATOM     37  N   UNL A   1      32.736  34.262  28.093  1.00  0.00    -0.352 N 
ATOM     38  C   UNL A   1      33.516  34.600  29.183  1.00  0.00     0.251 C 
ATOM     39  H   UNL A   1      31.962  34.851  27.949  1.00  0.00     0.163 HD
ATOM     40  O   UNL A   1      33.196  35.545  29.899  1.00  0.00    -0.269 OA
BRANCH  38  41
ATOM     41  C   UNL A   1      34.703  33.786  29.514  1.00  0.00     0.039 A 
ATOM     42  C   UNL A   1      35.968  34.206  29.100  1.00  0.00     0.014 A 
ATOM     43  C   UNL A   1      34.571  32.663  30.326  1.00  0.00     0.014 A 
ATOM     44  C   UNL A   1      37.104  33.585  29.627  1.00  0.00     0.010 A 
ATOM     45  C   UNL A   1      35.691  32.159  30.969  1.00  0.00     0.010 A 
ATOM     46  C   UNL A   1      36.973  32.611  30.629  1.00  0.00    -0.014 A 
BRANCH  46  47
ATOM     47  C   UNL A   1      38.145  32.040  31.344  1.00  0.00     0.031 A 
ATOM     48  C   UNL A   1      38.557  32.612  32.678  1.00  0.00     0.074 A 
ATOM     49  C   UNL A   1      38.899  31.086  30.759  1.00  0.00     0.049 A 
ATOM     50  N   UNL A   1      39.608  32.337  33.406  1.00  0.00    -0.248 NA
ATOM     51  C   UNL A   1      37.697  33.666  33.245  1.00  0.00     0.031 C 
ATOM     52  C   UNL A   1      38.645  30.484  29.447  1.00  0.00     0.029 A 
ATOM     53  N   UNL A   1      40.039  30.456  31.192  1.00  0.00    -0.354 N 
ATOM     54  C   UNL A   1      39.547  33.200  34.494  1.00  0.00     0.074 A 
ATOM     55  C   UNL A   1      38.406  34.063  34.287  1.00  0.00     0.031 C 
ATOM     56  C   UNL A   1      39.567  29.538  29.209  1.00  0.00     0.029 A 
ATOM     57  C   UNL A   1      40.512  29.503  30.320  1.00  0.00     0.049 A 
ATOM     58  H   UNL A   1      40.477  30.667  32.048  1.00  0.00     0.167 HD
ATOM     59  C   UNL A   1      40.343  33.251  35.587  1.00  0.00     0.031 A 
ATOM     60  C   UNL A   1      41.586  28.693  30.403  1.00  0.00     0.031 A 
ATOM     61  C   UNL A   1      41.466  32.380  35.799  1.00  0.00     0.049 A 
ATOM     62  C   UNL A   1      42.470  28.776  31.617  1.00  0.00     0.074 A 
ATOM     63  C   UNL A   1      42.306  32.308  36.895  1.00  0.00     0.029 A 
ATOM     64  N   UNL A   1      41.905  31.425  34.892  1.00  0.00    -0.354 N 
ATOM     65  N   UNL A   1      42.359  29.555  32.667  1.00  0.00    -0.248 NA
ATOM     66  C   UNL A   1      43.620  27.863  31.662  1.00  0.00     0.031 C 
ATOM     67  C   UNL A   1      43.290  31.350  36.627  1.00  0.00     0.029 A 
ATOM     68  C   UNL A   1      43.021  30.777  35.394  1.00  0.00     0.049 A 
ATOM     69  H   UNL A   1      41.486  31.237  34.022  1.00  0.00     0.167 HD
ATOM     70  C   UNL A   1      43.404  29.203  33.513  1.00  0.00     0.074 A 
ATOM     71  C   UNL A   1      44.129  28.133  32.856  1.00  0.00     0.031 C 
ATOM     72  C   UNL A   1      43.732  29.714  34.726  1.00  0.00     0.031 A 
BRANCH  59  73
ATOM     73  C   UNL A   1      40.016  34.291  36.630  1.00  0.00    -0.014 A 
ATOM     74  C   UNL A   1      40.613  35.566  36.599  1.00  0.00     0.010 A 
ATOM     75  C   UNL A   1      39.109  33.989  37.661  1.00  0.00     0.010 A 
ATOM     76  C   UNL A   1      40.364  36.491  37.615  1.00  0.00     0.020 A 
ATOM     77  C   UNL A   1      38.826  34.926  38.659  1.00  0.00     0.020 A 
ATOM     78  C   UNL A   1      39.476  36.162  38.643  1.00  0.00     0.054 A 
BRANCH  78  79
ATOM     79  S   UNL A   1      39.180  37.378  39.955  1.00  0.00     0.124 S 
ATOM     80  O   UNL A   1      38.626  36.544  41.019  1.00  0.00    -0.237 OA
ATOM     81  O   UNL A   1      40.517  37.910  40.205  1.00  0.00    -0.237 OA
ATOM     82  O   UNL A   1      38.242  38.320  39.349  1.00  0.00    -0.744 OA
ENDBRANCH  78  79
ENDBRANCH  59  73
BRANCH  60  83
ATOM     83  C   UNL A   1      41.857  27.703  29.322  1.00  0.00    -0.014 A 
ATOM     84  C   UNL A   1      42.833  27.973  28.345  1.00  0.00     0.010 A 
ATOM     85  C   UNL A   1      41.168  26.478  29.276  1.00  0.00     0.010 A 
ATOM     86  C   UNL A   1      43.108  27.041  27.339  1.00  0.00     0.020 A 
ATOM     87  C   UNL A   1      41.461  25.531  28.289  1.00  0.00     0.020 A 
ATOM     88  C   UNL A   1      42.425  25.822  27.323  1.00  0.00     0.054 A 
BRANCH  88  89
ATOM     89  S   UNL A   1      42.851  24.602  26.049  1.00  0.00     0.124 S 
ATOM     90  O   UNL A   1      41.687  23.721  26.069  1.00  0.00    -0.237 OA
ATOM     91  O   UNL A   1      42.997  25.432  24.856  1.00  0.00    -0.237 OA
ATOM     92  O   UNL A   1      44.092  24.010  26.543  1.00  0.00    -0.744 OA
ENDBRANCH  88  89
ENDBRANCH  60  83
BRANCH  72  93
ATOM     93  C   UNL A   1      44.902  29.099  35.448  1.00  0.00    -0.014 A 
ATOM     94  C   UNL A   1      46.200  29.625  35.322  1.00  0.00     0.010 A 
ATOM     95  C   UNL A   1      44.683  28.013  36.316  1.00  0.00     0.010 A 
ATOM     96  C   UNL A   1      47.262  29.056  36.031  1.00  0.00     0.020 A 
ATOM     97  C   UNL A   1      45.735  27.464  37.050  1.00  0.00     0.020 A 
ATOM     98  C   UNL A   1      47.022  27.980  36.892  1.00  0.00     0.054 A 
BRANCH  98  99
ATOM     99  S   UNL A   1      48.409  27.293  37.837  1.00  0.00     0.124 S 
ATOM    100  O   UNL A   1      47.969  27.497  39.213  1.00  0.00    -0.237 OA
ATOM    101  O   UNL A   1      48.445  25.903  37.387  1.00  0.00    -0.237 OA
ATOM    102  O   UNL A   1      49.549  28.106  37.420  1.00  0.00    -0.744 OA
ENDBRANCH  98  99
ENDBRANCH  72  93
ENDBRANCH  46  47
ENDBRANCH  38  41
ENDBRANCH  36  37
ENDBRANCH   1  36
TORSDOF 19
ENDMDL
MODEL 2
REMARK VINA RESULT:     -10.0      6.042     12.010
REMARK SMILES COc1cccc([C@H]2[NH2+][C@@](CC(C)C)(C(=O)NCCCNC(=O)c3ccc(-c4c5nc(c(-c6ccc(S(=O)(=O)[O-])cc6)c6ccc([nH]6)c(-c6ccc(S(=O)(=O)[O-])cc6)c6nc(c(-c7ccc(S(=O)(=O)[O-])cc7)c7ccc4[nH]7)C=C6)C=C5)cc3)[C@H]3C(=O)N(C(C)C)C(=O)[C@H]23)c1O
REMARK SMILES IDX 19 1 18 2 17 3 15 4 16 5 10 7 8 8 9 9 93 10 84 13 91 14
REMARK SMILES IDX 85 15 87 16 92 17 86 18 7 19 3 20 4 21 94 22 5 23 6 24 2 25
REMARK SMILES IDX 1 26 95 27 11 29 12 30 13 31 14 32 88 33 89 34 90 35 20 36
REMARK SMILES IDX 21 37 22 38 23 40 24 41 25 42 83 43 26 44 82 45 27 46 28 47
REMARK SMILES IDX 29 48 76 49 30 50 81 51 75 52 77 53 31 54 80 55 74 56 73 57
REMARK SMILES IDX 32 59 62 60 43 61 61 62 44 63 47 64 60 65 78 66 45 67 46 68
REMARK SMILES IDX 59 70 79 71 48 72 33 73 34 74 42 75 35 76 41 77 36 78 37 79
REMARK SMILES IDX 38 80 39 81 40 82 63 83 64 84 72 85 65 86 71 87 66 88 67 89
REMARK SMILES IDX 68 90 69 91 70 92 49 93 50 94 58 95 51 96 57 97 52 98 53 99
REMARK SMILES IDX 54 100 55 101 56 102
REMARK H PARENT 17 6 9 11 9 12 95 28 21 39 77 58 47 69
REMARK Flexibility Score: inf
ROOT
ATOM      1  C   UNL A   1      43.419  35.695  30.835  1.00  0.00     0.042 C 
ENDROOT
BRANCH   1   2
ATOM      2  C   UNL A   1      42.522  34.526  30.497  1.00  0.00     0.118 C 
BRANCH   2   3
ATOM      3  N   UNL A   1      41.125  34.807  30.280  1.00  0.00    -0.351 N 
ATOM      4  C   UNL A   1      40.052  34.253  30.931  1.00  0.00     0.282 C 
ATOM      5  O   UNL A   1      38.989  34.881  30.853  1.00  0.00    -0.268 OA
ATOM      6  H   UNL A   1      40.917  35.472  29.586  1.00  0.00     0.163 HD
BRANCH   4   7
ATOM      7  C   UNL A   1      40.137  32.842  31.644  1.00  0.00     0.189 C 
ATOM      8  C   UNL A   1      37.901  32.587  32.774  1.00  0.00     0.232 C 
ATOM      9  N   UNL A   1      38.702  32.257  31.514  1.00  0.00    -0.326 N 
ATOM     10  C   UNL A   1      38.844  33.460  33.524  1.00  0.00     0.161 C 
ATOM     11  H   UNL A   1      38.241  32.666  30.701  1.00  0.00     0.347 HD
ATOM     12  H   UNL A   1      38.757  31.245  31.400  1.00  0.00     0.347 HD
ATOM     13  C   UNL A   1      40.192  32.929  33.165  1.00  0.00     0.169 C 
ATOM     14  C   UNL A   1      38.983  33.524  35.001  1.00  0.00     0.240 C 
ATOM     15  C   UNL A   1      41.029  33.830  34.030  1.00  0.00     0.240 C 
ATOM     16  N   UNL A   1      40.259  34.035  35.170  1.00  0.00    -0.279 N 
ATOM     17  O   UNL A   1      38.158  33.220  35.844  1.00  0.00    -0.274 OA
ATOM     18  O   UNL A   1      42.186  34.152  33.829  1.00  0.00    -0.274 OA
BRANCH   8  19
ATOM     19  C   UNL A   1      36.503  33.181  32.552  1.00  0.00     0.056 A 
ATOM     20  C   UNL A   1      34.800  34.419  31.231  1.00  0.00     0.161 A 
ATOM     21  C   UNL A   1      34.011  34.527  32.374  1.00  0.00     0.050 A 
ATOM     22  C   UNL A   1      36.031  33.749  31.333  1.00  0.00     0.166 A 
ATOM     23  C   UNL A   1      34.429  33.969  33.581  1.00  0.00     0.005 A 
ATOM     24  C   UNL A   1      35.659  33.305  33.670  1.00  0.00     0.014 A 
BRANCH  20  25
ATOM     25  O   UNL A   1      34.237  35.017  30.132  1.00  0.00    -0.493 OA
ATOM     26  C   UNL A   1      33.592  34.224  29.146  1.00  0.00     0.278 C 
ENDBRANCH  20  25
BRANCH  22  27
ATOM     27  O   UNL A   1      36.785  33.639  30.198  1.00  0.00    -0.504 OA
ATOM     28  H   UNL A   1      36.471  33.132  29.475  1.00  0.00     0.293 HD
ENDBRANCH  22  27
ENDBRANCH   8  19
BRANCH   7  29
ATOM     29  C   UNL A   1      41.312  31.847  31.263  1.00  0.00     0.083 C 
BRANCH  29  30
ATOM     30  C   UNL A   1      41.945  30.828  32.237  1.00  0.00    -0.011 C 
ATOM     31  C   UNL A   1      40.996  29.753  32.777  1.00  0.00     0.007 C 
ATOM     32  C   UNL A   1      43.175  30.128  31.642  1.00  0.00     0.007 C 
ENDBRANCH  29  30
ENDBRANCH   7  29
BRANCH  16  33
ATOM     33  C   UNL A   1      40.703  34.734  36.367  1.00  0.00     0.087 C 
ATOM     34  C   UNL A   1      39.765  35.908  36.663  1.00  0.00     0.031 C 
ATOM     35  C   UNL A   1      40.808  33.806  37.575  1.00  0.00     0.031 C 
ENDBRANCH  16  33
ENDBRANCH   4   7
ENDBRANCH   2   3
ENDBRANCH   1   2
BRANCH   1  36
ATOM     36  C   UNL A   1      43.722  36.584  29.632  1.00  0.00     0.118 C 
BRANCH  36  37
ATOM     37  N   UNL A   1      44.985  37.331  29.701  1.00  0.00    -0.352 N 
ATOM     38  C   UNL A   1      46.281  36.950  29.412  1.00  0.00     0.251 C 
ATOM     39  H   UNL A   1      44.893  38.262  30.006  1.00  0.00     0.163 HD
ATOM     40  O   UNL A   1      47.206  37.740  29.579  1.00  0.00    -0.269 OA
BRANCH  38  41
ATOM     41  C   UNL A   1      46.554  35.572  28.957  1.00  0.00     0.039 A 
ATOM     42  C   UNL A   1      46.803  34.569  29.897  1.00  0.00     0.014 A 
ATOM     43  C   UNL A   1      46.459  35.254  27.606  1.00  0.00     0.014 A 
ATOM     44  C   UNL A   1      46.804  33.233  29.490  1.00  0.00     0.010 A 
ATOM     45  C   UNL A   1      46.298  33.929  27.233  1.00  0.00     0.010 A 
ATOM     46  C   UNL A   1      46.470  32.898  28.168  1.00  0.00    -0.014 A 
BRANCH  46  47
ATOM     47  C   UNL A   1      46.289  31.491  27.722  1.00  0.00     0.031 A 
ATOM     48  C   UNL A   1      44.922  30.859  27.782  1.00  0.00     0.074 A 
ATOM     49  C   UNL A   1      47.359  30.751  27.363  1.00  0.00     0.049 A 
ATOM     50  N   UNL A   1      44.574  29.620  27.551  1.00  0.00    -0.248 NA
ATOM     51  C   UNL A   1      43.806  31.724  28.204  1.00  0.00     0.031 C 
ATOM     52  C   UNL A   1      48.746  31.223  27.314  1.00  0.00     0.029 A 
ATOM     53  N   UNL A   1      47.448  29.437  26.974  1.00  0.00    -0.354 N 
ATOM     54  C   UNL A   1      43.213  29.554  27.825  1.00  0.00     0.074 A 
ATOM     55  C   UNL A   1      42.818  30.853  28.321  1.00  0.00     0.031 C 
ATOM     56  C   UNL A   1      49.534  30.233  26.867  1.00  0.00     0.029 A 
ATOM     57  C   UNL A   1      48.724  29.038  26.652  1.00  0.00     0.049 A 
ATOM     58  H   UNL A   1      46.668  28.836  26.928  1.00  0.00     0.167 HD
ATOM     59  C   UNL A   1      42.355  28.522  27.649  1.00  0.00     0.031 A 
ATOM     60  C   UNL A   1      49.192  27.846  26.234  1.00  0.00     0.031 A 
ATOM     61  C   UNL A   1      42.747  27.237  27.138  1.00  0.00     0.049 A 
ATOM     62  C   UNL A   1      48.228  26.704  26.061  1.00  0.00     0.074 A 
ATOM     63  C   UNL A   1      41.952  26.138  26.868  1.00  0.00     0.029 A 
ATOM     64  N   UNL A   1      44.050  26.878  26.820  1.00  0.00    -0.354 N 
ATOM     65  N   UNL A   1      46.932  26.681  26.264  1.00  0.00    -0.248 NA
ATOM     66  C   UNL A   1      48.789  25.430  25.591  1.00  0.00     0.031 C 
ATOM     67  C   UNL A   1      42.781  25.096  26.441  1.00  0.00     0.029 A 
ATOM     68  C   UNL A   1      44.083  25.567  26.379  1.00  0.00     0.049 A 
ATOM     69  H   UNL A   1      44.833  27.469  26.897  1.00  0.00     0.167 HD
ATOM     70  C   UNL A   1      46.517  25.401  25.915  1.00  0.00     0.074 A 
ATOM     71  C   UNL A   1      47.698  24.684  25.478  1.00  0.00     0.031 C 
ATOM     72  C   UNL A   1      45.269  24.868  25.949  1.00  0.00     0.031 A 
BRANCH  59  73
ATOM     73  C   UNL A   1      40.911  28.755  28.017  1.00  0.00    -0.014 A 
ATOM     74  C   UNL A   1      39.967  29.150  27.050  1.00  0.00     0.010 A 
ATOM     75  C   UNL A   1      40.492  28.587  29.349  1.00  0.00     0.010 A 
ATOM     76  C   UNL A   1      38.651  29.440  27.419  1.00  0.00     0.020 A 
ATOM     77  C   UNL A   1      39.167  28.839  29.716  1.00  0.00     0.020 A 
ATOM     78  C   UNL A   1      38.262  29.289  28.753  1.00  0.00     0.054 A 
BRANCH  78  79
ATOM     79  S   UNL A   1      36.551  29.683  29.205  1.00  0.00     0.124 S 
ATOM     80  O   UNL A   1      36.436  29.058  30.520  1.00  0.00    -0.237 OA
ATOM     81  O   UNL A   1      36.548  31.144  29.202  1.00  0.00    -0.237 OA
ATOM     82  O   UNL A   1      35.760  29.059  28.147  1.00  0.00    -0.744 OA
ENDBRANCH  78  79
ENDBRANCH  59  73
BRANCH  60  83
ATOM     83  C   UNL A   1      50.638  27.686  25.909  1.00  0.00    -0.014 A 
ATOM     84  C   UNL A   1      51.551  27.310  26.911  1.00  0.00     0.010 A 
ATOM     85  C   UNL A   1      51.107  27.877  24.597  1.00  0.00     0.010 A 
ATOM     86  C   UNL A   1      52.906  27.139  26.610  1.00  0.00     0.020 A 
ATOM     87  C   UNL A   1      52.457  27.677  24.286  1.00  0.00     0.020 A 
ATOM     88  C   UNL A   1      53.348  27.316  25.297  1.00  0.00     0.054 A 
BRANCH  88  89
ATOM     89  S   UNL A   1      55.098  27.017  24.919  1.00  0.00     0.124 S 
ATOM     90  O   UNL A   1      55.424  25.925  25.830  1.00  0.00    -0.237 OA
ATOM     91  O   UNL A   1      55.057  26.668  23.501  1.00  0.00    -0.237 OA
ATOM     92  O   UNL A   1      55.736  28.297  25.220  1.00  0.00    -0.744 OA
ENDBRANCH  88  89
ENDBRANCH  60  83
BRANCH  72  93
ATOM     93  C   UNL A   1      45.104  23.452  25.462  1.00  0.00    -0.014 A 
ATOM     94  C   UNL A   1      44.669  23.172  24.154  1.00  0.00     0.010 A 
ATOM     95  C   UNL A   1      45.454  22.385  26.312  1.00  0.00     0.010 A 
ATOM     96  C   UNL A   1      44.558  21.849  23.717  1.00  0.00     0.020 A 
ATOM     97  C   UNL A   1      45.376  21.065  25.867  1.00  0.00     0.020 A 
ATOM     98  C   UNL A   1      44.915  20.804  24.576  1.00  0.00     0.054 A 
BRANCH  98  99
ATOM     99  S   UNL A   1      44.809  19.100  23.965  1.00  0.00     0.124 S 
ATOM    100  O   UNL A   1      46.118  18.566  24.328  1.00  0.00    -0.237 OA
ATOM    101  O   UNL A   1      43.679  18.560  24.718  1.00  0.00    -0.237 OA
ATOM    102  O   UNL A   1      44.576  19.258  22.532  1.00  0.00    -0.744 OA
ENDBRANCH  98  99
ENDBRANCH  72  93
ENDBRANCH  46  47
ENDBRANCH  38  41
ENDBRANCH  36  37
ENDBRANCH   1  36
TORSDOF 19
ENDMDL
MODEL 3
REMARK VINA RESULT:      -9.2      7.598     12.197
REMARK SMILES COc1cccc([C@H]2[NH2+][C@@](CC(C)C)(C(=O)NCCCNC(=O)c3ccc(-c4c5nc(c(-c6ccc(S(=O)(=O)[O-])cc6)c6ccc([nH]6)c(-c6ccc(S(=O)(=O)[O-])cc6)c6nc(c(-c7ccc(S(=O)(=O)[O-])cc7)c7ccc4[nH]7)C=C6)C=C5)cc3)[C@H]3C(=O)N(C(C)C)C(=O)[C@H]23)c1O
REMARK SMILES IDX 19 1 18 2 17 3 15 4 16 5 10 7 8 8 9 9 93 10 84 13 91 14
REMARK SMILES IDX 85 15 87 16 92 17 86 18 7 19 3 20 4 21 94 22 5 23 6 24 2 25
REMARK SMILES IDX 1 26 95 27 11 29 12 30 13 31 14 32 88 33 89 34 90 35 20 36
REMARK SMILES IDX 21 37 22 38 23 40 24 41 25 42 83 43 26 44 82 45 27 46 28 47
REMARK SMILES IDX 29 48 76 49 30 50 81 51 75 52 77 53 31 54 80 55 74 56 73 57
REMARK SMILES IDX 32 59 62 60 43 61 61 62 44 63 47 64 60 65 78 66 45 67 46 68
REMARK SMILES IDX 59 70 79 71 48 72 33 73 34 74 42 75 35 76 41 77 36 78 37 79
REMARK SMILES IDX 38 80 39 81 40 82 63 83 64 84 72 85 65 86 71 87 66 88 67 89
REMARK SMILES IDX 68 90 69 91 70 92 49 93 50 94 58 95 51 96 57 97 52 98 53 99
REMARK SMILES IDX 54 100 55 101 56 102
REMARK H PARENT 17 6 9 11 9 12 95 28 21 39 77 58 47 69
REMARK Flexibility Score: inf
ROOT
ATOM      1  C   UNL A   1      39.013  26.250  28.069  1.00  0.00     0.042 C 
ENDROOT
BRANCH   1   2
ATOM      2  C   UNL A   1      39.967  25.378  27.283  1.00  0.00     0.118 C 
BRANCH   2   3
ATOM      3  N   UNL A   1      41.104  24.843  27.987  1.00  0.00    -0.351 N 
ATOM      4  C   UNL A   1      42.431  25.086  27.736  1.00  0.00     0.282 C 
ATOM      5  O   UNL A   1      43.213  24.826  28.659  1.00  0.00    -0.268 OA
ATOM      6  H   UNL A   1      40.907  24.233  28.734  1.00  0.00     0.163 HD
BRANCH   4   7
ATOM      7  C   UNL A   1      42.945  25.561  26.316  1.00  0.00     0.189 C 
ATOM      8  C   UNL A   1      43.897  23.475  25.275  1.00  0.00     0.232 C 
ATOM      9  N   UNL A   1      42.652  24.358  25.377  1.00  0.00    -0.326 N 
ATOM     10  C   UNL A   1      44.814  24.114  26.256  1.00  0.00     0.161 C 
ATOM     11  H   UNL A   1      41.878  23.812  25.755  1.00  0.00     0.347 HD
ATOM     12  H   UNL A   1      42.403  24.703  24.450  1.00  0.00     0.347 HD
ATOM     13  C   UNL A   1      44.464  25.563  26.187  1.00  0.00     0.169 C 
ATOM     14  C   UNL A   1      46.291  24.205  26.136  1.00  0.00     0.240 C 
ATOM     15  C   UNL A   1      45.494  26.091  27.148  1.00  0.00     0.240 C 
ATOM     16  N   UNL A   1      46.604  25.276  26.955  1.00  0.00    -0.279 N 
ATOM     17  O   UNL A   1      47.034  23.488  25.489  1.00  0.00    -0.274 OA
ATOM     18  O   UNL A   1      45.408  27.110  27.810  1.00  0.00    -0.274 OA
BRANCH   8  19
ATOM     19  C   UNL A   1      43.677  21.969  25.476  1.00  0.00     0.056 A 
ATOM     20  C   UNL A   1      44.216  19.574  25.084  1.00  0.00     0.161 A 
ATOM     21  C   UNL A   1      42.990  19.221  25.643  1.00  0.00     0.050 A 
ATOM     22  C   UNL A   1      44.545  20.938  25.009  1.00  0.00     0.166 A 
ATOM     23  C   UNL A   1      42.122  20.198  26.128  1.00  0.00     0.005 A 
ATOM     24  C   UNL A   1      42.460  21.554  26.046  1.00  0.00     0.014 A 
BRANCH  20  25
ATOM     25  O   UNL A   1      44.946  18.492  24.664  1.00  0.00    -0.493 OA
ATOM     26  C   UNL A   1      46.159  18.155  25.325  1.00  0.00     0.278 C 
ENDBRANCH  20  25
BRANCH  22  27
ATOM     27  O   UNL A   1      45.758  21.266  24.473  1.00  0.00    -0.504 OA
ATOM     28  H   UNL A   1      46.465  21.516  25.033  1.00  0.00     0.293 HD
ENDBRANCH  22  27
ENDBRANCH   8  19
BRANCH   7  29
ATOM     29  C   UNL A   1      42.501  26.979  25.761  1.00  0.00     0.083 C 
BRANCH  29  30
ATOM     30  C   UNL A   1      42.212  28.213  26.645  1.00  0.00    -0.011 C 
ATOM     31  C   UNL A   1      43.273  29.317  26.603  1.00  0.00     0.007 C 
ATOM     32  C   UNL A   1      40.847  28.847  26.346  1.00  0.00     0.007 C 
ENDBRANCH  29  30
ENDBRANCH   7  29
BRANCH  16  33
ATOM     33  C   UNL A   1      47.909  25.480  27.564  1.00  0.00     0.087 C 
ATOM     34  C   UNL A   1      48.544  26.764  27.022  1.00  0.00     0.031 C 
ATOM     35  C   UNL A   1      47.837  25.515  29.090  1.00  0.00     0.031 C 
ENDBRANCH  16  33
ENDBRANCH   4   7
ENDBRANCH   2   3
ENDBRANCH   1   2
BRANCH   1  36
ATOM     36  C   UNL A   1      39.322  26.276  29.564  1.00  0.00     0.118 C 
BRANCH  36  37
ATOM     37  N   UNL A   1      38.688  27.364  30.320  1.00  0.00    -0.352 N 
ATOM     38  C   UNL A   1      39.236  28.394  31.060  1.00  0.00     0.251 C 
ATOM     39  H   UNL A   1      37.704  27.358  30.297  1.00  0.00     0.163 HD
ATOM     40  O   UNL A   1      38.506  29.184  31.651  1.00  0.00    -0.269 OA
BRANCH  38  41
ATOM     41  C   UNL A   1      40.704  28.505  31.183  1.00  0.00     0.039 A 
ATOM     42  C   UNL A   1      41.272  28.834  32.416  1.00  0.00     0.014 A 
ATOM     43  C   UNL A   1      41.519  28.179  30.103  1.00  0.00     0.014 A 
ATOM     44  C   UNL A   1      42.650  28.687  32.597  1.00  0.00     0.010 A 
ATOM     45  C   UNL A   1      42.853  27.879  30.330  1.00  0.00     0.010 A 
ATOM     46  C   UNL A   1      43.439  28.130  31.579  1.00  0.00    -0.014 A 
BRANCH  46  47
ATOM     47  C   UNL A   1      44.874  27.793  31.776  1.00  0.00     0.031 A 
ATOM     48  C   UNL A   1      45.932  28.578  31.042  1.00  0.00     0.074 A 
ATOM     49  C   UNL A   1      45.224  26.727  32.525  1.00  0.00     0.049 A 
ATOM     50  N   UNL A   1      47.222  28.373  30.986  1.00  0.00    -0.248 NA
ATOM     51  C   UNL A   1      45.472  29.715  30.226  1.00  0.00     0.031 C 
ATOM     52  C   UNL A   1      44.298  25.849  33.246  1.00  0.00     0.029 A 
ATOM     53  N   UNL A   1      46.459  26.196  32.804  1.00  0.00    -0.354 N 
ATOM     54  C   UNL A   1      47.717  29.334  30.112  1.00  0.00     0.074 A 
ATOM     55  C   UNL A   1      46.581  30.064  29.597  1.00  0.00     0.031 C 
ATOM     56  C   UNL A   1      44.999  24.927  33.923  1.00  0.00     0.029 A 
ATOM     57  C   UNL A   1      46.420  25.107  33.642  1.00  0.00     0.049 A 
ATOM     58  H   UNL A   1      47.297  26.563  32.436  1.00  0.00     0.167 HD
ATOM     59  C   UNL A   1      49.002  29.613  29.790  1.00  0.00     0.031 A 
ATOM     60  C   UNL A   1      47.412  24.338  34.131  1.00  0.00     0.031 A 
ATOM     61  C   UNL A   1      50.131  28.898  30.317  1.00  0.00     0.049 A 
ATOM     62  C   UNL A   1      48.833  24.652  33.747  1.00  0.00     0.074 A 
ATOM     63  C   UNL A   1      51.477  29.132  30.101  1.00  0.00     0.029 A 
ATOM     64  N   UNL A   1      50.045  27.805  31.168  1.00  0.00    -0.354 N 
ATOM     65  N   UNL A   1      49.286  25.606  32.970  1.00  0.00    -0.248 NA
ATOM     66  C   UNL A   1      49.878  23.790  34.317  1.00  0.00     0.031 C 
ATOM     67  C   UNL A   1      52.204  28.145  30.774  1.00  0.00     0.029 A 
ATOM     68  C   UNL A   1      51.313  27.338  31.467  1.00  0.00     0.049 A 
ATOM     69  H   UNL A   1      49.206  27.419  31.509  1.00  0.00     0.167 HD
ATOM     70  C   UNL A   1      50.671  25.481  32.983  1.00  0.00     0.074 A 
ATOM     71  C   UNL A   1      50.980  24.365  33.855  1.00  0.00     0.031 C 
ATOM     72  C   UNL A   1      51.603  26.225  32.336  1.00  0.00     0.031 A 
BRANCH  59  73
ATOM     73  C   UNL A   1      49.239  30.743  28.818  1.00  0.00    -0.014 A 
ATOM     74  C   UNL A   1      49.274  32.082  29.252  1.00  0.00     0.010 A 
ATOM     75  C   UNL A   1      49.419  30.465  27.451  1.00  0.00     0.010 A 
ATOM     76  C   UNL A   1      49.413  33.123  28.332  1.00  0.00     0.020 A 
ATOM     77  C   UNL A   1      49.598  31.502  26.531  1.00  0.00     0.020 A 
ATOM     78  C   UNL A   1      49.568  32.826  26.975  1.00  0.00     0.054 A 
BRANCH  78  79
ATOM     79  S   UNL A   1      49.736  34.198  25.802  1.00  0.00     0.124 S 
ATOM     80  O   UNL A   1      50.139  35.295  26.678  1.00  0.00    -0.237 OA
ATOM     81  O   UNL A   1      50.768  33.713  24.889  1.00  0.00    -0.237 OA
ATOM     82  O   UNL A   1      48.402  34.323  25.220  1.00  0.00    -0.744 OA
ENDBRANCH  78  79
ENDBRANCH  59  73
BRANCH  60  83
ATOM     83  C   UNL A   1      47.099  23.225  35.070  1.00  0.00    -0.014 A 
ATOM     84  C   UNL A   1      46.854  21.930  34.577  1.00  0.00     0.010 A 
ATOM     85  C   UNL A   1      47.071  23.440  36.460  1.00  0.00     0.010 A 
ATOM     86  C   UNL A   1      46.579  20.875  35.453  1.00  0.00     0.020 A 
ATOM     87  C   UNL A   1      46.825  22.381  37.341  1.00  0.00     0.020 A 
ATOM     88  C   UNL A   1      46.574  21.107  36.831  1.00  0.00     0.054 A 
BRANCH  88  89
ATOM     89  S   UNL A   1      46.284  19.707  37.949  1.00  0.00     0.124 S 
ATOM     90  O   UNL A   1      47.616  19.118  38.050  1.00  0.00    -0.237 OA
ATOM     91  O   UNL A   1      45.790  20.366  39.155  1.00  0.00    -0.237 OA
ATOM     92  O   UNL A   1      45.294  18.901  37.238  1.00  0.00    -0.744 OA
ENDBRANCH  88  89
ENDBRANCH  60  83
BRANCH  72  93
ATOM     93  C   UNL A   1      53.051  25.887  32.576  1.00  0.00    -0.014 A 
ATOM     94  C   UNL A   1      53.760  26.429  33.662  1.00  0.00     0.010 A 
ATOM     95  C   UNL A   1      53.692  24.960  31.731  1.00  0.00     0.010 A 
ATOM     96  C   UNL A   1      55.094  26.071  33.882  1.00  0.00     0.020 A 
ATOM     97  C   UNL A   1      55.013  24.577  31.967  1.00  0.00     0.020 A 
ATOM     98  C   UNL A   1      55.711  25.146  33.034  1.00  0.00     0.054 A 
BRANCH  98  99
ATOM     99  S   UNL A   1      57.426  24.662  33.371  1.00  0.00     0.124 S 
ATOM    100  O   UNL A   1      57.605  25.122  34.745  1.00  0.00    -0.237 OA
ATOM    101  O   UNL A   1      57.390  23.212  33.193  1.00  0.00    -0.237 OA
ATOM    102  O   UNL A   1      58.196  25.389  32.366  1.00  0.00    -0.744 OA
ENDBRANCH  98  99
ENDBRANCH  72  93
ENDBRANCH  46  47
ENDBRANCH  38  41
ENDBRANCH  36  37
ENDBRANCH   1  36
TORSDOF 19
ENDMDL
