MODEL 1
REMARK VINA RESULT:     -10.2      0.000      0.000
REMARK SMILES Cc1cc(Br)cc([N+](=O)[O-])c1OCCC[C@@](C)([NH3+])C(=O)NCCCNC(=O)c1ccc(-c2c3nc(c(-c4ccc(S(=O)(=O)[O-])cc4)c4ccc([nH]4)c(-c4ccc(S(=O)(=O)[O-])cc4)c4nc(c(-c5ccc(S(=O)(=O)[O-])cc5)c5ccc2[nH]5)C=C4)C=C3)cc1
REMARK SMILES IDX 19 1 20 2 21 3 16 5 17 6 15 7 14 8 13 9 12 10 11 11 1 12
REMARK SMILES IDX 2 13 3 14 4 15 7 16 5 17 6 18 8 19 9 20 10 21 18 22 22 26
REMARK SMILES IDX 23 27 24 28 25 29 26 30 27 32 28 33 29 34 87 35 30 36 86 37
REMARK SMILES IDX 31 38 32 39 33 40 80 41 34 42 85 43 79 44 81 45 35 46 84 47
REMARK SMILES IDX 78 48 77 49 36 51 66 52 47 53 65 54 48 55 51 56 64 57 82 58
REMARK SMILES IDX 49 59 50 60 63 62 83 63 52 64 37 65 38 66 46 67 39 68 45 69
REMARK SMILES IDX 40 70 41 71 42 72 43 73 44 74 67 75 68 76 76 77 69 78 75 79
REMARK SMILES IDX 70 80 71 81 72 82 73 83 74 84 53 85 54 86 62 87 55 88 61 89
REMARK SMILES IDX 56 90 57 91 58 92 59 93 60 94
REMARK H PARENT 21 4 18 23 18 24 18 25 25 31 81 50 51 61
REMARK Flexibility Score: inf
ROOT
ATOM      1  C   UNL A   1      31.287  27.810  22.991  1.00  0.00     0.280 C 
ATOM      2  O   UNL A   1      30.601  28.327  22.100  1.00  0.00    -0.268 OA
ATOM      3  N   UNL A   1      31.455  28.594  24.087  1.00  0.00    -0.351 N 
ATOM      4  H   UNL A   1      31.275  29.547  23.915  1.00  0.00     0.163 HD
ENDROOT
BRANCH   1   5
ATOM      5  C   UNL A   1      31.833  26.355  22.839  1.00  0.00     0.171 C 
ATOM      6  C   UNL A   1      31.700  26.015  21.346  1.00  0.00     0.090 C 
BRANCH   5   7
ATOM      7  C   UNL A   1      33.315  26.152  23.326  1.00  0.00     0.082 C 
BRANCH   7   8
ATOM      8  C   UNL A   1      33.743  24.865  24.067  1.00  0.00     0.049 C 
BRANCH   8   9
ATOM      9  C   UNL A   1      34.366  25.013  25.482  1.00  0.00     0.230 C 
BRANCH   9  10
ATOM     10  O   UNL A   1      34.573  23.724  26.083  1.00  0.00    -0.487 OA
BRANCH  10  11
ATOM     11  C   UNL A   1      34.041  22.622  25.442  1.00  0.00     0.200 A 
ATOM     12  C   UNL A   1      36.202  22.167  24.161  1.00  0.00     0.049 C 
ATOM     13  C   UNL A   1      34.905  21.749  24.753  1.00  0.00    -0.001 A 
ATOM     14  C   UNL A   1      34.584  20.389  24.612  1.00  0.00     0.023 A 
ATOM     15  C   UNL A   1      33.371  19.901  25.064  1.00  0.00     0.025 A 
ATOM     16  C   UNL A   1      32.768  22.130  25.786  1.00  0.00     0.312 A 
ATOM     17  Br  UNL A   1      33.012  18.052  24.934  1.00  0.00    -0.051 Br
ATOM     18  C   UNL A   1      32.432  20.772  25.597  1.00  0.00     0.105 A 
BRANCH  16  19
ATOM     19  N   UNL A   1      31.713  23.015  26.281  1.00  0.00     0.066 N 
ATOM     20  O   UNL A   1      31.734  23.307  27.487  1.00  0.00    -0.258 OA
ATOM     21  O   UNL A   1      30.818  23.359  25.499  1.00  0.00    -0.258 OA
ENDBRANCH  16  19
ENDBRANCH  10  11
ENDBRANCH   9  10
ENDBRANCH   8   9
ENDBRANCH   7   8
ENDBRANCH   5   7
BRANCH   5  22
ATOM     22  N   UNL A   1      30.995  25.346  23.534  1.00  0.00    -0.345 N 
ATOM     23  H   UNL A   1      30.736  25.697  24.457  1.00  0.00     0.345 HD
ATOM     24  H   UNL A   1      31.522  24.479  23.637  1.00  0.00     0.345 HD
ATOM     25  H   UNL A   1      30.153  25.169  22.988  1.00  0.00     0.345 HD
ENDBRANCH   5  22
ENDBRANCH   1   5
BRANCH   3  26
ATOM     26  C   UNL A   1      31.846  28.323  25.461  1.00  0.00     0.118 C 
BRANCH  26  27
ATOM     27  C   UNL A   1      33.357  28.424  25.667  1.00  0.00     0.042 C 
BRANCH  27  28
ATOM     28  C   UNL A   1      33.796  28.611  27.121  1.00  0.00     0.118 C 
BRANCH  28  29
ATOM     29  N   UNL A   1      33.775  30.006  27.543  1.00  0.00    -0.352 N 
ATOM     30  C   UNL A   1      34.673  30.735  28.275  1.00  0.00     0.251 C 
ATOM     31  H   UNL A   1      32.980  30.509  27.251  1.00  0.00     0.163 HD
ATOM     32  O   UNL A   1      34.333  31.839  28.713  1.00  0.00    -0.269 OA
BRANCH  30  33
ATOM     33  C   UNL A   1      36.029  30.222  28.554  1.00  0.00     0.039 A 
ATOM     34  C   UNL A   1      37.009  30.319  27.561  1.00  0.00     0.014 A 
ATOM     35  C   UNL A   1      36.329  29.600  29.769  1.00  0.00     0.014 A 
ATOM     36  C   UNL A   1      38.302  29.853  27.810  1.00  0.00     0.010 A 
ATOM     37  C   UNL A   1      37.636  29.205  30.045  1.00  0.00     0.010 A 
ATOM     38  C   UNL A   1      38.637  29.324  29.067  1.00  0.00    -0.014 A 
BRANCH  38  39
ATOM     39  C   UNL A   1      40.026  28.902  29.384  1.00  0.00     0.031 A 
ATOM     40  C   UNL A   1      40.965  29.835  30.101  1.00  0.00     0.074 A 
ATOM     41  C   UNL A   1      40.464  27.698  28.967  1.00  0.00     0.049 A 
ATOM     42  N   UNL A   1      42.221  29.656  30.423  1.00  0.00    -0.248 NA
ATOM     43  C   UNL A   1      40.428  31.152  30.480  1.00  0.00     0.031 C 
ATOM     44  C   UNL A   1      39.663  26.711  28.239  1.00  0.00     0.029 A 
ATOM     45  N   UNL A   1      41.692  27.099  29.094  1.00  0.00    -0.354 N 
ATOM     46  C   UNL A   1      42.630  30.842  31.023  1.00  0.00     0.074 A 
ATOM     47  C   UNL A   1      41.505  31.749  30.969  1.00  0.00     0.031 C 
ATOM     48  C   UNL A   1      40.406  25.614  28.024  1.00  0.00     0.029 A 
ATOM     49  C   UNL A   1      41.748  25.835  28.553  1.00  0.00     0.049 A 
ATOM     50  H   UNL A   1      42.461  27.531  29.532  1.00  0.00     0.167 HD
ATOM     51  C   UNL A   1      43.827  31.143  31.584  1.00  0.00     0.031 A 
ATOM     52  C   UNL A   1      42.763  24.952  28.488  1.00  0.00     0.031 A 
ATOM     53  C   UNL A   1      44.946  30.238  31.629  1.00  0.00     0.049 A 
ATOM     54  C   UNL A   1      44.094  25.319  29.083  1.00  0.00     0.074 A 
ATOM     55  C   UNL A   1      46.183  30.425  32.221  1.00  0.00     0.029 A 
ATOM     56  N   UNL A   1      44.969  28.978  31.047  1.00  0.00    -0.354 N 
ATOM     57  N   UNL A   1      44.443  26.420  29.707  1.00  0.00    -0.248 NA
ATOM     58  C   UNL A   1      45.165  24.322  28.972  1.00  0.00     0.031 C 
ATOM     59  C   UNL A   1      46.975  29.306  31.941  1.00  0.00     0.029 A 
ATOM     60  C   UNL A   1      46.209  28.390  31.235  1.00  0.00     0.049 A 
ATOM     61  H   UNL A   1      44.214  28.563  30.571  1.00  0.00     0.167 HD
ATOM     62  C   UNL A   1      45.766  26.234  30.091  1.00  0.00     0.074 A 
ATOM     63  C   UNL A   1      46.150  24.912  29.636  1.00  0.00     0.031 C 
ATOM     64  C   UNL A   1      46.584  27.079  30.766  1.00  0.00     0.031 A 
BRANCH  51  65
ATOM     65  C   UNL A   1      43.988  32.529  32.163  1.00  0.00    -0.014 A 
ATOM     66  C   UNL A   1      43.664  32.805  33.504  1.00  0.00     0.010 A 
ATOM     67  C   UNL A   1      44.461  33.573  31.348  1.00  0.00     0.010 A 
ATOM     68  C   UNL A   1      43.734  34.112  33.996  1.00  0.00     0.020 A 
ATOM     69  C   UNL A   1      44.568  34.876  31.847  1.00  0.00     0.020 A 
ATOM     70  C   UNL A   1      44.174  35.141  33.159  1.00  0.00     0.054 A 
BRANCH  70  71
ATOM     71  S   UNL A   1      44.221  36.832  33.812  1.00  0.00     0.124 S 
ATOM     72  O   UNL A   1      42.834  37.258  33.641  1.00  0.00    -0.237 OA
ATOM     73  O   UNL A   1      44.650  36.632  35.194  1.00  0.00    -0.237 OA
ATOM     74  O   UNL A   1      45.190  37.509  32.954  1.00  0.00    -0.744 OA
ENDBRANCH  70  71
ENDBRANCH  51  65
BRANCH  52  75
ATOM     75  C   UNL A   1      42.537  23.615  27.875  1.00  0.00    -0.014 A 
ATOM     76  C   UNL A   1      42.803  23.413  26.509  1.00  0.00     0.010 A 
ATOM     77  C   UNL A   1      42.106  22.528  28.657  1.00  0.00     0.010 A 
ATOM     78  C   UNL A   1      42.642  22.149  25.936  1.00  0.00     0.020 A 
ATOM     79  C   UNL A   1      41.971  21.256  28.093  1.00  0.00     0.020 A 
ATOM     80  C   UNL A   1      42.236  21.076  26.733  1.00  0.00     0.054 A 
BRANCH  80  81
ATOM     81  S   UNL A   1      42.120  19.428  25.983  1.00  0.00     0.124 S 
ATOM     82  O   UNL A   1      40.683  19.288  25.776  1.00  0.00    -0.237 OA
ATOM     83  O   UNL A   1      42.924  19.578  24.772  1.00  0.00    -0.237 OA
ATOM     84  O   UNL A   1      42.697  18.548  26.998  1.00  0.00    -0.744 OA
ENDBRANCH  80  81
ENDBRANCH  52  75
BRANCH  64  85
ATOM     85  C   UNL A   1      47.975  26.590  31.084  1.00  0.00    -0.014 A 
ATOM     86  C   UNL A   1      49.070  26.906  30.262  1.00  0.00     0.010 A 
ATOM     87  C   UNL A   1      48.193  25.844  32.258  1.00  0.00     0.010 A 
ATOM     88  C   UNL A   1      50.353  26.459  30.590  1.00  0.00     0.020 A 
ATOM     89  C   UNL A   1      49.478  25.421  32.605  1.00  0.00     0.020 A 
ATOM     90  C   UNL A   1      50.549  25.721  31.761  1.00  0.00     0.054 A 
BRANCH  90  91
ATOM     91  S   UNL A   1      52.231  25.192  32.188  1.00  0.00     0.124 S 
ATOM     92  O   UNL A   1      52.998  25.661  31.037  1.00  0.00    -0.237 OA
ATOM     93  O   UNL A   1      52.480  25.901  33.440  1.00  0.00    -0.237 OA
ATOM     94  O   UNL A   1      52.119  23.741  32.312  1.00  0.00    -0.744 OA
ENDBRANCH  90  91
ENDBRANCH  64  85
ENDBRANCH  38  39
ENDBRANCH  30  33
ENDBRANCH  28  29
ENDBRANCH  27  28
ENDBRANCH  26  27
ENDBRANCH   3  26
TORSDOF 20
ENDMDL
MODEL 2
REMARK VINA RESULT:     -10.1      3.810      9.537
REMARK SMILES Cc1cc(Br)cc([N+](=O)[O-])c1OCCC[C@@](C)([NH3+])C(=O)NCCCNC(=O)c1ccc(-c2c3nc(c(-c4ccc(S(=O)(=O)[O-])cc4)c4ccc([nH]4)c(-c4ccc(S(=O)(=O)[O-])cc4)c4nc(c(-c5ccc(S(=O)(=O)[O-])cc5)c5ccc2[nH]5)C=C4)C=C3)cc1
REMARK SMILES IDX 19 1 20 2 21 3 16 5 17 6 15 7 14 8 13 9 12 10 11 11 1 12
REMARK SMILES IDX 2 13 3 14 4 15 7 16 5 17 6 18 8 19 9 20 10 21 18 22 22 26
REMARK SMILES IDX 23 27 24 28 25 29 26 30 27 32 28 33 29 34 87 35 30 36 86 37
REMARK SMILES IDX 31 38 32 39 33 40 80 41 34 42 85 43 79 44 81 45 35 46 84 47
REMARK SMILES IDX 78 48 77 49 36 51 66 52 47 53 65 54 48 55 51 56 64 57 82 58
REMARK SMILES IDX 49 59 50 60 63 62 83 63 52 64 37 65 38 66 46 67 39 68 45 69
REMARK SMILES IDX 40 70 41 71 42 72 43 73 44 74 67 75 68 76 76 77 69 78 75 79
REMARK SMILES IDX 70 80 71 81 72 82 73 83 74 84 53 85 54 86 62 87 55 88 61 89
REMARK SMILES IDX 56 90 57 91 58 92 59 93 60 94
REMARK H PARENT 21 4 18 23 18 24 18 25 25 31 81 50 51 61
REMARK Flexibility Score: inf
ROOT
ATOM      1  C   UNL A   1      37.025  22.659  25.408  1.00  0.00     0.280 C 
ATOM      2  O   UNL A   1      37.732  23.611  25.759  1.00  0.00    -0.268 OA
ATOM      3  N   UNL A   1      37.715  21.633  24.846  1.00  0.00    -0.351 N 
ATOM      4  H   UNL A   1      38.609  21.894  24.525  1.00  0.00     0.163 HD
ENDROOT
BRANCH   1   5
ATOM      5  C   UNL A   1      35.486  22.664  25.671  1.00  0.00     0.171 C 
ATOM      6  C   UNL A   1      35.133  24.113  26.039  1.00  0.00     0.090 C 
BRANCH   5   7
ATOM      7  C   UNL A   1      34.608  22.165  24.465  1.00  0.00     0.082 C 
BRANCH   7   8
ATOM      8  C   UNL A   1      33.088  22.439  24.416  1.00  0.00     0.049 C 
BRANCH   8   9
ATOM      9  C   UNL A   1      32.496  23.017  23.101  1.00  0.00     0.230 C 
BRANCH   9  10
ATOM     10  O   UNL A   1      31.356  23.847  23.380  1.00  0.00    -0.487 OA
BRANCH  10  11
ATOM     11  C   UNL A   1      31.585  25.090  23.937  1.00  0.00     0.200 A 
ATOM     12  C   UNL A   1      30.445  24.455  26.132  1.00  0.00     0.049 C 
ATOM     13  C   UNL A   1      31.391  25.266  25.321  1.00  0.00    -0.001 A 
ATOM     14  C   UNL A   1      32.128  26.228  26.030  1.00  0.00     0.023 A 
ATOM     15  C   UNL A   1      32.987  27.085  25.367  1.00  0.00     0.025 A 
ATOM     16  C   UNL A   1      32.371  26.048  23.270  1.00  0.00     0.312 A 
ATOM     17  Br  UNL A   1      34.025  28.308  26.364  1.00  0.00    -0.051 Br
ATOM     18  C   UNL A   1      33.072  27.045  23.983  1.00  0.00     0.105 A 
BRANCH  16  19
ATOM     19  N   UNL A   1      32.439  26.101  21.809  1.00  0.00     0.066 N 
ATOM     20  O   UNL A   1      33.552  25.945  21.284  1.00  0.00    -0.258 OA
ATOM     21  O   UNL A   1      31.407  26.375  21.183  1.00  0.00    -0.258 OA
ENDBRANCH  16  19
ENDBRANCH  10  11
ENDBRANCH   9  10
ENDBRANCH   8   9
ENDBRANCH   7   8
ENDBRANCH   5   7
BRANCH   5  22
ATOM     22  N   UNL A   1      35.099  21.865  26.861  1.00  0.00    -0.345 N 
ATOM     23  H   UNL A   1      35.096  20.874  26.619  1.00  0.00     0.345 HD
ATOM     24  H   UNL A   1      34.167  22.141  27.168  1.00  0.00     0.345 HD
ATOM     25  H   UNL A   1      35.767  22.029  27.614  1.00  0.00     0.345 HD
ENDBRANCH   5  22
ENDBRANCH   1   5
BRANCH   3  26
ATOM     26  C   UNL A   1      37.412  20.229  24.616  1.00  0.00     0.118 C 
BRANCH  26  27
ATOM     27  C   UNL A   1      38.383  19.298  25.341  1.00  0.00     0.042 C 
BRANCH  27  28
ATOM     28  C   UNL A   1      39.629  19.985  25.908  1.00  0.00     0.118 C 
BRANCH  28  29
ATOM     29  N   UNL A   1      40.737  19.061  26.119  1.00  0.00    -0.352 N 
ATOM     30  C   UNL A   1      42.080  19.289  26.253  1.00  0.00     0.251 C 
ATOM     31  H   UNL A   1      40.474  18.114  26.174  1.00  0.00     0.163 HD
ATOM     32  O   UNL A   1      42.859  18.333  26.185  1.00  0.00    -0.269 OA
BRANCH  30  33
ATOM     33  C   UNL A   1      42.609  20.651  26.466  1.00  0.00     0.039 A 
ATOM     34  C   UNL A   1      43.024  21.398  25.360  1.00  0.00     0.014 A 
ATOM     35  C   UNL A   1      42.746  21.178  27.753  1.00  0.00     0.014 A 
ATOM     36  C   UNL A   1      43.514  22.694  25.538  1.00  0.00     0.010 A 
ATOM     37  C   UNL A   1      43.162  22.497  27.924  1.00  0.00     0.010 A 
ATOM     38  C   UNL A   1      43.553  23.269  26.819  1.00  0.00    -0.014 A 
BRANCH  38  39
ATOM     39  C   UNL A   1      43.989  24.675  27.023  1.00  0.00     0.031 A 
ATOM     40  C   UNL A   1      45.420  25.074  26.781  1.00  0.00     0.074 A 
ATOM     41  C   UNL A   1      43.109  25.581  27.490  1.00  0.00     0.049 A 
ATOM     42  N   UNL A   1      45.992  26.240  26.946  1.00  0.00    -0.248 NA
ATOM     43  C   UNL A   1      46.334  24.017  26.319  1.00  0.00     0.031 C 
ATOM     44  C   UNL A   1      41.700  25.315  27.791  1.00  0.00     0.029 A 
ATOM     45  N   UNL A   1      43.268  26.909  27.795  1.00  0.00    -0.354 N 
ATOM     46  C   UNL A   1      47.332  26.053  26.628  1.00  0.00     0.074 A 
ATOM     47  C   UNL A   1      47.498  24.651  26.316  1.00  0.00     0.031 C 
ATOM     48  C   UNL A   1      41.115  26.454  28.194  1.00  0.00     0.029 A 
ATOM     49  C   UNL A   1      42.113  27.518  28.229  1.00  0.00     0.049 A 
ATOM     50  H   UNL A   1      44.128  27.383  27.712  1.00  0.00     0.167 HD
ATOM     51  C   UNL A   1      48.333  26.968  26.585  1.00  0.00     0.031 A 
ATOM     52  C   UNL A   1      41.881  28.789  28.611  1.00  0.00     0.031 A 
ATOM     53  C   UNL A   1      48.163  28.361  26.904  1.00  0.00     0.049 A 
ATOM     54  C   UNL A   1      43.011  29.779  28.591  1.00  0.00     0.074 A 
ATOM     55  C   UNL A   1      49.098  29.381  26.838  1.00  0.00     0.029 A 
ATOM     56  N   UNL A   1      46.984  28.932  27.362  1.00  0.00    -0.354 N 
ATOM     57  N   UNL A   1      44.258  29.600  28.223  1.00  0.00    -0.248 NA
ATOM     58  C   UNL A   1      42.701  31.146  29.029  1.00  0.00     0.031 C 
ATOM     59  C   UNL A   1      48.502  30.552  27.318  1.00  0.00     0.029 A 
ATOM     60  C   UNL A   1      47.175  30.280  27.617  1.00  0.00     0.049 A 
ATOM     61  H   UNL A   1      46.135  28.448  27.487  1.00  0.00     0.167 HD
ATOM     62  C   UNL A   1      44.874  30.839  28.356  1.00  0.00     0.074 A 
ATOM     63  C   UNL A   1      43.859  31.760  28.830  1.00  0.00     0.031 C 
ATOM     64  C   UNL A   1      46.161  31.184  28.101  1.00  0.00     0.031 A 
BRANCH  51  65
ATOM     65  C   UNL A   1      49.707  26.469  26.207  1.00  0.00    -0.014 A 
ATOM     66  C   UNL A   1      50.542  25.837  27.148  1.00  0.00     0.010 A 
ATOM     67  C   UNL A   1      50.174  26.643  24.892  1.00  0.00     0.010 A 
ATOM     68  C   UNL A   1      51.844  25.463  26.803  1.00  0.00     0.020 A 
ATOM     69  C   UNL A   1      51.463  26.236  24.532  1.00  0.00     0.020 A 
ATOM     70  C   UNL A   1      52.300  25.677  25.499  1.00  0.00     0.054 A 
BRANCH  70  71
ATOM     71  S   UNL A   1      54.005  25.215  25.088  1.00  0.00     0.124 S 
ATOM     72  O   UNL A   1      53.903  23.760  24.988  1.00  0.00    -0.237 OA
ATOM     73  O   UNL A   1      54.234  25.916  23.827  1.00  0.00    -0.237 OA
ATOM     74  O   UNL A   1      54.782  25.707  26.223  1.00  0.00    -0.744 OA
ENDBRANCH  70  71
ENDBRANCH  51  65
BRANCH  52  75
ATOM     75  C   UNL A   1      40.505  29.200  28.999  1.00  0.00    -0.014 A 
ATOM     76  C   UNL A   1      40.148  29.272  30.357  1.00  0.00     0.010 A 
ATOM     77  C   UNL A   1      39.561  29.570  28.023  1.00  0.00     0.010 A 
ATOM     78  C   UNL A   1      38.874  29.706  30.732  1.00  0.00     0.020 A 
ATOM     79  C   UNL A   1      38.295  30.030  28.396  1.00  0.00     0.020 A 
ATOM     80  C   UNL A   1      37.958  30.092  29.750  1.00  0.00     0.054 A 
BRANCH  80  81
ATOM     81  S   UNL A   1      36.343  30.734  30.268  1.00  0.00     0.124 S 
ATOM     82  O   UNL A   1      36.671  32.096  30.673  1.00  0.00    -0.237 OA
ATOM     83  O   UNL A   1      35.549  30.608  29.048  1.00  0.00    -0.237 OA
ATOM     84  O   UNL A   1      35.949  29.834  31.352  1.00  0.00    -0.744 OA
ENDBRANCH  80  81
ENDBRANCH  52  75
BRANCH  64  85
ATOM     85  C   UNL A   1      46.544  32.629  28.299  1.00  0.00    -0.014 A 
ATOM     86  C   UNL A   1      47.070  33.087  29.519  1.00  0.00     0.010 A 
ATOM     87  C   UNL A   1      46.421  33.530  27.224  1.00  0.00     0.010 A 
ATOM     88  C   UNL A   1      47.437  34.428  29.672  1.00  0.00     0.020 A 
ATOM     89  C   UNL A   1      46.816  34.862  27.363  1.00  0.00     0.020 A 
ATOM     90  C   UNL A   1      47.310  35.306  28.591  1.00  0.00     0.054 A 
BRANCH  90  91
ATOM     91  S   UNL A   1      47.837  37.029  28.800  1.00  0.00     0.124 S 
ATOM     92  O   UNL A   1      48.880  37.152  27.785  1.00  0.00    -0.237 OA
ATOM     93  O   UNL A   1      46.609  37.773  28.533  1.00  0.00    -0.237 OA
ATOM     94  O   UNL A   1      48.305  37.084  30.183  1.00  0.00    -0.744 OA
ENDBRANCH  90  91
ENDBRANCH  64  85
ENDBRANCH  38  39
ENDBRANCH  30  33
ENDBRANCH  28  29
ENDBRANCH  27  28
ENDBRANCH  26  27
ENDBRANCH   3  26
TORSDOF 20
ENDMDL
MODEL 3
REMARK VINA RESULT:     -10.0      2.614      8.485
REMARK SMILES Cc1cc(Br)cc([N+](=O)[O-])c1OCCC[C@@](C)([NH3+])C(=O)NCCCNC(=O)c1ccc(-c2c3nc(c(-c4ccc(S(=O)(=O)[O-])cc4)c4ccc([nH]4)c(-c4ccc(S(=O)(=O)[O-])cc4)c4nc(c(-c5ccc(S(=O)(=O)[O-])cc5)c5ccc2[nH]5)C=C4)C=C3)cc1
REMARK SMILES IDX 19 1 20 2 21 3 16 5 17 6 15 7 14 8 13 9 12 10 11 11 1 12
REMARK SMILES IDX 2 13 3 14 4 15 7 16 5 17 6 18 8 19 9 20 10 21 18 22 22 26
REMARK SMILES IDX 23 27 24 28 25 29 26 30 27 32 28 33 29 34 87 35 30 36 86 37
REMARK SMILES IDX 31 38 32 39 33 40 80 41 34 42 85 43 79 44 81 45 35 46 84 47
REMARK SMILES IDX 78 48 77 49 36 51 66 52 47 53 65 54 48 55 51 56 64 57 82 58
REMARK SMILES IDX 49 59 50 60 63 62 83 63 52 64 37 65 38 66 46 67 39 68 45 69
REMARK SMILES IDX 40 70 41 71 42 72 43 73 44 74 67 75 68 76 76 77 69 78 75 79
REMARK SMILES IDX 70 80 71 81 72 82 73 83 74 84 53 85 54 86 62 87 55 88 61 89
REMARK SMILES IDX 56 90 57 91 58 92 59 93 60 94
REMARK H PARENT 21 4 18 23 18 24 18 25 25 31 81 50 51 61
REMARK Flexibility Score: inf
ROOT
ATOM      1  C   UNL A   1      31.185  29.199  24.236  1.00  0.00     0.280 C 
ATOM      2  O   UNL A   1      30.247  30.001  24.311  1.00  0.00    -0.268 OA
ATOM      3  N   UNL A   1      31.548  28.656  25.426  1.00  0.00    -0.351 N 
ATOM      4  H   UNL A   1      31.236  29.175  26.202  1.00  0.00     0.163 HD
ENDROOT
BRANCH   1   5
ATOM      5  C   UNL A   1      31.817  28.833  22.855  1.00  0.00     0.171 C 
ATOM      6  C   UNL A   1      33.305  29.195  22.971  1.00  0.00     0.090 C 
BRANCH   5   7
ATOM      7  C   UNL A   1      31.640  27.330  22.426  1.00  0.00     0.082 C 
BRANCH   7   8
ATOM      8  C   UNL A   1      32.807  26.537  21.795  1.00  0.00     0.049 C 
BRANCH   8   9
ATOM      9  C   UNL A   1      33.690  25.671  22.736  1.00  0.00     0.230 C 
BRANCH   9  10
ATOM     10  O   UNL A   1      33.635  24.287  22.351  1.00  0.00    -0.487 OA
BRANCH  10  11
ATOM     11  C   UNL A   1      33.519  23.344  23.353  1.00  0.00     0.200 A 
ATOM     12  C   UNL A   1      30.975  23.547  23.420  1.00  0.00     0.049 C 
ATOM     13  C   UNL A   1      32.247  22.816  23.650  1.00  0.00    -0.001 A 
ATOM     14  C   UNL A   1      32.116  21.517  24.167  1.00  0.00     0.023 A 
ATOM     15  C   UNL A   1      33.236  20.769  24.485  1.00  0.00     0.025 A 
ATOM     16  C   UNL A   1      34.639  22.614  23.793  1.00  0.00     0.312 A 
ATOM     17  Br  UNL A   1      33.020  18.996  25.098  1.00  0.00    -0.051 Br
ATOM     18  C   UNL A   1      34.499  21.328  24.359  1.00  0.00     0.105 A 
BRANCH  16  19
ATOM     19  N   UNL A   1      35.986  23.182  23.754  1.00  0.00     0.066 N 
ATOM     20  O   UNL A   1      36.359  23.835  24.742  1.00  0.00    -0.258 OA
ATOM     21  O   UNL A   1      36.650  23.052  22.718  1.00  0.00    -0.258 OA
ENDBRANCH  16  19
ENDBRANCH  10  11
ENDBRANCH   9  10
ENDBRANCH   8   9
ENDBRANCH   7   8
ENDBRANCH   5   7
BRANCH   5  22
ATOM     22  N   UNL A   1      31.307  29.675  21.744  1.00  0.00    -0.345 N 
ATOM     23  H   UNL A   1      30.434  29.281  21.392  1.00  0.00     0.345 HD
ATOM     24  H   UNL A   1      31.996  29.698  20.991  1.00  0.00     0.345 HD
ATOM     25  H   UNL A   1      31.141  30.622  22.082  1.00  0.00     0.345 HD
ENDBRANCH   5  22
ENDBRANCH   1   5
BRANCH   3  26
ATOM     26  C   UNL A   1      32.301  27.468  25.797  1.00  0.00     0.118 C 
BRANCH  26  27
ATOM     27  C   UNL A   1      33.378  27.764  26.840  1.00  0.00     0.042 C 
BRANCH  27  28
ATOM     28  C   UNL A   1      34.427  28.791  26.406  1.00  0.00     0.118 C 
BRANCH  28  29
ATOM     29  N   UNL A   1      34.035  30.162  26.709  1.00  0.00    -0.352 N 
ATOM     30  C   UNL A   1      34.504  31.042  27.647  1.00  0.00     0.251 C 
ATOM     31  H   UNL A   1      33.311  30.515  26.142  1.00  0.00     0.163 HD
ATOM     32  O   UNL A   1      33.859  32.069  27.880  1.00  0.00    -0.269 OA
BRANCH  30  33
ATOM     33  C   UNL A   1      35.755  30.779  28.386  1.00  0.00     0.039 A 
ATOM     34  C   UNL A   1      35.774  29.762  29.346  1.00  0.00     0.014 A 
ATOM     35  C   UNL A   1      36.894  31.560  28.177  1.00  0.00     0.014 A 
ATOM     36  C   UNL A   1      36.951  29.487  30.046  1.00  0.00     0.010 A 
ATOM     37  C   UNL A   1      38.087  31.236  28.820  1.00  0.00     0.010 A 
ATOM     38  C   UNL A   1      38.129  30.198  29.764  1.00  0.00    -0.014 A 
BRANCH  38  39
ATOM     39  C   UNL A   1      39.413  29.866  30.434  1.00  0.00     0.031 A 
ATOM     40  C   UNL A   1      40.278  28.748  29.917  1.00  0.00     0.074 A 
ATOM     41  C   UNL A   1      39.769  30.531  31.551  1.00  0.00     0.049 A 
ATOM     42  N   UNL A   1      41.407  28.289  30.396  1.00  0.00    -0.248 NA
ATOM     43  C   UNL A   1      39.798  28.036  28.723  1.00  0.00     0.031 C 
ATOM     44  C   UNL A   1      39.005  31.616  32.170  1.00  0.00     0.029 A 
ATOM     45  N   UNL A   1      40.864  30.390  32.365  1.00  0.00    -0.354 N 
ATOM     46  C   UNL A   1      41.761  27.224  29.575  1.00  0.00     0.074 A 
ATOM     47  C   UNL A   1      40.699  27.072  28.604  1.00  0.00     0.031 C 
ATOM     48  C   UNL A   1      39.677  32.072  33.239  1.00  0.00     0.029 A 
ATOM     49  C   UNL A   1      40.892  31.282  33.412  1.00  0.00     0.049 A 
ATOM     50  H   UNL A   1      41.566  29.715  32.215  1.00  0.00     0.167 HD
ATOM     51  C   UNL A   1      42.875  26.453  29.614  1.00  0.00     0.031 A 
ATOM     52  C   UNL A   1      41.791  31.448  34.401  1.00  0.00     0.031 A 
ATOM     53  C   UNL A   1      43.925  26.604  30.586  1.00  0.00     0.049 A 
ATOM     54  C   UNL A   1      43.002  30.558  34.448  1.00  0.00     0.074 A 
ATOM     55  C   UNL A   1      45.120  25.912  30.680  1.00  0.00     0.029 A 
ATOM     56  N   UNL A   1      43.902  27.503  31.644  1.00  0.00    -0.354 N 
ATOM     57  N   UNL A   1      43.354  29.600  33.623  1.00  0.00    -0.248 NA
ATOM     58  C   UNL A   1      43.942  30.779  35.554  1.00  0.00     0.031 C 
ATOM     59  C   UNL A   1      45.789  26.346  31.830  1.00  0.00     0.029 A 
ATOM     60  C   UNL A   1      45.044  27.359  32.415  1.00  0.00     0.049 A 
ATOM     61  H   UNL A   1      43.179  28.148  31.820  1.00  0.00     0.167 HD
ATOM     62  C   UNL A   1      44.572  29.124  34.094  1.00  0.00     0.074 A 
ATOM     63  C   UNL A   1      44.899  29.906  35.270  1.00  0.00     0.031 C 
ATOM     64  C   UNL A   1      45.352  28.134  33.592  1.00  0.00     0.031 A 
BRANCH  51  65
ATOM     65  C   UNL A   1      42.988  25.353  28.585  1.00  0.00    -0.014 A 
ATOM     66  C   UNL A   1      42.385  24.096  28.786  1.00  0.00     0.010 A 
ATOM     67  C   UNL A   1      43.717  25.577  27.403  1.00  0.00     0.010 A 
ATOM     68  C   UNL A   1      42.576  23.063  27.864  1.00  0.00     0.020 A 
ATOM     69  C   UNL A   1      43.879  24.556  26.460  1.00  0.00     0.020 A 
ATOM     70  C   UNL A   1      43.333  23.297  26.713  1.00  0.00     0.054 A 
BRANCH  70  71
ATOM     71  S   UNL A   1      43.594  21.928  25.552  1.00  0.00     0.124 S 
ATOM     72  O   UNL A   1      43.232  22.545  24.277  1.00  0.00    -0.237 OA
ATOM     73  O   UNL A   1      45.013  21.627  25.723  1.00  0.00    -0.237 OA
ATOM     74  O   UNL A   1      42.678  20.893  26.024  1.00  0.00    -0.744 OA
ENDBRANCH  70  71
ENDBRANCH  51  65
BRANCH  52  75
ATOM     75  C   UNL A   1      41.598  32.536  35.397  1.00  0.00    -0.014 A 
ATOM     76  C   UNL A   1      42.111  33.821  35.144  1.00  0.00     0.010 A 
ATOM     77  C   UNL A   1      40.861  32.313  36.574  1.00  0.00     0.010 A 
ATOM     78  C   UNL A   1      41.891  34.862  36.049  1.00  0.00     0.020 A 
ATOM     79  C   UNL A   1      40.616  33.359  37.469  1.00  0.00     0.020 A 
ATOM     80  C   UNL A   1      41.136  34.627  37.202  1.00  0.00     0.054 A 
BRANCH  80  81
ATOM     81  S   UNL A   1      40.792  36.017  38.316  1.00  0.00     0.124 S 
ATOM     82  O   UNL A   1      42.038  36.773  38.255  1.00  0.00    -0.237 OA
ATOM     83  O   UNL A   1      39.635  36.647  37.683  1.00  0.00    -0.237 OA
ATOM     84  O   UNL A   1      40.513  35.368  39.596  1.00  0.00    -0.744 OA
ENDBRANCH  80  81
ENDBRANCH  52  75
BRANCH  64  85
ATOM     85  C   UNL A   1      46.656  27.856  34.295  1.00  0.00    -0.014 A 
ATOM     86  C   UNL A   1      46.748  26.898  35.319  1.00  0.00     0.010 A 
ATOM     87  C   UNL A   1      47.821  28.532  33.883  1.00  0.00     0.010 A 
ATOM     88  C   UNL A   1      47.974  26.643  35.942  1.00  0.00     0.020 A 
ATOM     89  C   UNL A   1      49.053  28.257  34.481  1.00  0.00     0.020 A 
ATOM     90  C   UNL A   1      49.119  27.323  35.517  1.00  0.00     0.054 A 
BRANCH  90  91
ATOM     91  S   UNL A   1      50.705  26.940  36.308  1.00  0.00     0.124 S 
ATOM     92  O   UNL A   1      50.354  26.972  37.725  1.00  0.00    -0.237 OA
ATOM     93  O   UNL A   1      51.021  25.620  35.769  1.00  0.00    -0.237 OA
ATOM     94  O   UNL A   1      51.586  28.016  35.860  1.00  0.00    -0.744 OA
ENDBRANCH  90  91
ENDBRANCH  64  85
ENDBRANCH  38  39
ENDBRANCH  30  33
ENDBRANCH  28  29
ENDBRANCH  27  28
ENDBRANCH  26  27
ENDBRANCH   3  26
TORSDOF 20
ENDMDL
