MODEL 1
REMARK VINA RESULT:     -11.0      0.000      0.000
REMARK SMILES Cc1cscc1CNC(=O)N[C@@H](C)c1nc(C(=O)NCCCNC(=O)c2ccc(-c3c4nc(c(-c5ccc(S(=O)(=O)[O-])cc5)c5ccc([nH]5)c(-c5ccc(S(=O)(=O)[O-])cc5)c5nc(c(-c6ccc(S(=O)(=O)[O-])cc6)c6ccc3[nH]6)C=C5)C=C4)cc2)cs1
REMARK SMILES IDX 20 1 19 2 17 3 18 4 16 6 14 7 15 8 87 9 86 10 12 11 13 12
REMARK SMILES IDX 11 13 8 14 9 15 10 17 7 19 6 20 1 21 2 22 3 23 4 24 5 25
REMARK SMILES IDX 21 26 22 27 23 28 24 29 25 31 26 32 27 33 85 34 28 35 84 36
REMARK SMILES IDX 29 37 30 38 31 39 78 40 32 41 83 42 77 43 79 44 33 45 82 46
REMARK SMILES IDX 76 47 75 48 34 50 64 51 45 52 63 53 46 54 49 55 62 56 80 57
REMARK SMILES IDX 47 58 48 59 61 61 81 62 50 63 35 64 36 65 44 66 37 67 43 68
REMARK SMILES IDX 38 69 39 70 40 71 41 72 42 73 65 74 66 75 74 76 67 77 73 78
REMARK SMILES IDX 68 79 69 80 70 81 71 82 72 83 51 84 52 85 60 86 53 87 59 88
REMARK SMILES IDX 54 89 55 90 56 91 57 92 58 93
REMARK H PARENT 19 5 8 16 11 18 23 30 79 49 49 60
REMARK Flexibility Score: inf
ROOT
ATOM      1  C   UNL A   1      36.388  21.502  25.768  1.00  0.00     0.118 C 
ENDROOT
BRANCH   1   2
ATOM      2  N   UNL A   1      35.230  20.650  25.557  1.00  0.00    -0.351 N 
ATOM      3  C   UNL A   1      34.005  20.921  24.993  1.00  0.00     0.270 C 
ATOM      4  O   UNL A   1      33.209  19.989  24.892  1.00  0.00    -0.267 OA
ATOM      5  H   UNL A   1      35.341  19.724  25.872  1.00  0.00     0.163 HD
BRANCH   3   6
ATOM      6  C   UNL A   1      33.686  22.264  24.491  1.00  0.00     0.139 A 
ATOM      7  C   UNL A   1      33.055  24.403  24.574  1.00  0.00     0.116 A 
ATOM      8  N   UNL A   1      33.151  23.287  25.268  1.00  0.00    -0.234 NA
ATOM      9  S   UNL A   1      33.535  24.282  22.931  1.00  0.00    -0.124 S 
ATOM     10  C   UNL A   1      33.906  22.631  23.172  1.00  0.00     0.101 A 
BRANCH   7  11
ATOM     11  C   UNL A   1      32.586  25.718  25.148  1.00  0.00     0.140 C 
ATOM     12  C   UNL A   1      33.698  26.356  25.982  1.00  0.00     0.039 C 
BRANCH  11  13
ATOM     13  N   UNL A   1      31.440  25.446  26.000  1.00  0.00    -0.329 N 
ATOM     14  N   UNL A   1      29.468  25.868  24.770  1.00  0.00    -0.334 N 
ATOM     15  C   UNL A   1      30.117  25.469  25.862  1.00  0.00     0.315 C 
ATOM     16  H   UNL A   1      28.494  25.754  24.851  1.00  0.00     0.165 HD
ATOM     17  O   UNL A   1      29.441  25.074  26.814  1.00  0.00    -0.249 OA
ATOM     18  H   UNL A   1      31.712  25.176  26.907  1.00  0.00     0.166 HD
BRANCH  14  19
ATOM     19  C   UNL A   1      29.848  26.430  23.498  1.00  0.00     0.154 C 
BRANCH  19  20
ATOM     20  C   UNL A   1      29.348  27.844  23.348  1.00  0.00    -0.015 A 
ATOM     21  C   UNL A   1      31.639  28.988  23.859  1.00  0.00     0.045 C 
ATOM     22  C   UNL A   1      30.183  29.019  23.523  1.00  0.00    -0.035 A 
ATOM     23  C   UNL A   1      29.463  30.186  23.348  1.00  0.00     0.068 A 
ATOM     24  S   UNL A   1      27.827  29.907  22.965  1.00  0.00    -0.152 S 
ATOM     25  C   UNL A   1      28.048  28.218  23.041  1.00  0.00     0.070 A 
ENDBRANCH  19  20
ENDBRANCH  14  19
ENDBRANCH  11  13
ENDBRANCH   7  11
ENDBRANCH   3   6
ENDBRANCH   1   2
BRANCH   1  26
ATOM     26  C   UNL A   1      37.625  20.974  25.051  1.00  0.00     0.042 C 
BRANCH  26  27
ATOM     27  C   UNL A   1      38.928  21.298  25.782  1.00  0.00     0.118 C 
BRANCH  27  28
ATOM     28  N   UNL A   1      39.788  20.128  25.929  1.00  0.00    -0.352 N 
ATOM     29  C   UNL A   1      41.145  20.042  26.116  1.00  0.00     0.251 C 
ATOM     30  H   UNL A   1      39.320  19.262  25.887  1.00  0.00     0.163 HD
ATOM     31  O   UNL A   1      41.705  18.956  26.000  1.00  0.00    -0.269 OA
BRANCH  29  32
ATOM     32  C   UNL A   1      41.928  21.249  26.445  1.00  0.00     0.039 A 
ATOM     33  C   UNL A   1      42.311  22.113  25.414  1.00  0.00     0.014 A 
ATOM     34  C   UNL A   1      42.300  21.521  27.764  1.00  0.00     0.014 A 
ATOM     35  C   UNL A   1      43.000  23.289  25.717  1.00  0.00     0.010 A 
ATOM     36  C   UNL A   1      42.929  22.724  28.071  1.00  0.00     0.010 A 
ATOM     37  C   UNL A   1      43.277  23.623  27.052  1.00  0.00    -0.014 A 
BRANCH  37  38
ATOM     38  C   UNL A   1      43.899  24.921  27.415  1.00  0.00     0.031 A 
ATOM     39  C   UNL A   1      43.055  26.037  27.968  1.00  0.00     0.074 A 
ATOM     40  C   UNL A   1      45.207  25.121  27.160  1.00  0.00     0.049 A 
ATOM     41  N   UNL A   1      43.397  27.269  28.243  1.00  0.00    -0.248 NA
ATOM     42  C   UNL A   1      41.639  25.732  28.226  1.00  0.00     0.031 C 
ATOM     43  C   UNL A   1      46.123  24.125  26.598  1.00  0.00     0.029 A 
ATOM     44  N   UNL A   1      45.990  26.234  27.329  1.00  0.00    -0.354 N 
ATOM     45  C   UNL A   1      42.237  27.891  28.688  1.00  0.00     0.074 A 
ATOM     46  C   UNL A   1      41.174  26.913  28.606  1.00  0.00     0.031 C 
ATOM     47  C   UNL A   1      47.347  24.665  26.491  1.00  0.00     0.029 A 
ATOM     48  C   UNL A   1      47.294  26.057  26.928  1.00  0.00     0.049 A 
ATOM     49  H   UNL A   1      45.652  27.080  27.702  1.00  0.00     0.167 HD
ATOM     50  C   UNL A   1      42.075  29.159  29.138  1.00  0.00     0.031 A 
ATOM     51  C   UNL A   1      48.328  26.919  26.902  1.00  0.00     0.031 A 
ATOM     52  C   UNL A   1      43.136  30.128  29.217  1.00  0.00     0.049 A 
ATOM     53  C   UNL A   1      48.115  28.332  27.370  1.00  0.00     0.074 A 
ATOM     54  C   UNL A   1      43.084  31.425  29.700  1.00  0.00     0.029 A 
ATOM     55  N   UNL A   1      44.439  29.911  28.796  1.00  0.00    -0.354 N 
ATOM     56  N   UNL A   1      47.023  28.888  27.836  1.00  0.00    -0.248 NA
ATOM     57  C   UNL A   1      49.275  29.231  27.310  1.00  0.00     0.031 C 
ATOM     58  C   UNL A   1      44.345  32.006  29.526  1.00  0.00     0.029 A 
ATOM     59  C   UNL A   1      45.196  31.054  28.985  1.00  0.00     0.049 A 
ATOM     60  H   UNL A   1      44.777  29.065  28.418  1.00  0.00     0.167 HD
ATOM     61  C   UNL A   1      47.370  30.197  28.149  1.00  0.00     0.074 A 
ATOM     62  C   UNL A   1      48.775  30.346  27.830  1.00  0.00     0.031 C 
ATOM     63  C   UNL A   1      46.595  31.186  28.657  1.00  0.00     0.031 A 
BRANCH  50  64
ATOM     64  C   UNL A   1      40.691  29.568  29.571  1.00  0.00    -0.014 A 
ATOM     65  C   UNL A   1      40.318  29.542  30.926  1.00  0.00     0.010 A 
ATOM     66  C   UNL A   1      39.757  30.002  28.613  1.00  0.00     0.010 A 
ATOM     67  C   UNL A   1      39.020  29.891  31.311  1.00  0.00     0.020 A 
ATOM     68  C   UNL A   1      38.466  30.380  28.996  1.00  0.00     0.020 A 
ATOM     69  C   UNL A   1      38.100  30.301  30.341  1.00  0.00     0.054 A 
BRANCH  69  70
ATOM     70  S   UNL A   1      36.423  30.749  30.868  1.00  0.00     0.124 S 
ATOM     71  O   UNL A   1      36.624  32.095  31.397  1.00  0.00    -0.237 OA
ATOM     72  O   UNL A   1      35.663  30.672  29.622  1.00  0.00    -0.237 OA
ATOM     73  O   UNL A   1      36.088  29.732  31.861  1.00  0.00    -0.744 OA
ENDBRANCH  69  70
ENDBRANCH  50  64
BRANCH  51  74
ATOM     74  C   UNL A   1      49.663  26.461  26.428  1.00  0.00    -0.014 A 
ATOM     75  C   UNL A   1      50.040  26.651  25.087  1.00  0.00     0.010 A 
ATOM     76  C   UNL A   1      50.574  25.860  27.316  1.00  0.00     0.010 A 
ATOM     77  C   UNL A   1      51.298  26.238  24.640  1.00  0.00     0.020 A 
ATOM     78  C   UNL A   1      51.842  25.469  26.878  1.00  0.00     0.020 A 
ATOM     79  C   UNL A   1      52.192  25.651  25.539  1.00  0.00     0.054 A 
BRANCH  79  80
ATOM     80  S   UNL A   1      53.840  25.174  24.944  1.00  0.00     0.124 S 
ATOM     81  O   UNL A   1      53.743  23.718  24.918  1.00  0.00    -0.237 OA
ATOM     82  O   UNL A   1      53.904  25.827  23.639  1.00  0.00    -0.237 OA
ATOM     83  O   UNL A   1      54.743  25.724  25.952  1.00  0.00    -0.744 OA
ENDBRANCH  79  80
ENDBRANCH  51  74
BRANCH  63  84
ATOM     84  C   UNL A   1      47.252  32.513  28.927  1.00  0.00    -0.014 A 
ATOM     85  C   UNL A   1      47.897  32.770  30.148  1.00  0.00     0.010 A 
ATOM     86  C   UNL A   1      47.278  33.492  27.916  1.00  0.00     0.010 A 
ATOM     87  C   UNL A   1      48.543  33.991  30.362  1.00  0.00     0.020 A 
ATOM     88  C   UNL A   1      47.944  34.704  28.117  1.00  0.00     0.020 A 
ATOM     89  C   UNL A   1      48.563  34.949  29.343  1.00  0.00     0.054 A 
BRANCH  89  90
ATOM     90  S   UNL A   1      49.461  36.502  29.623  1.00  0.00     0.124 S 
ATOM     91  O   UNL A   1      50.265  36.179  30.799  1.00  0.00    -0.237 OA
ATOM     92  O   UNL A   1      50.207  36.670  28.378  1.00  0.00    -0.237 OA
ATOM     93  O   UNL A   1      48.399  37.481  29.843  1.00  0.00    -0.744 OA
ENDBRANCH  89  90
ENDBRANCH  63  84
ENDBRANCH  37  38
ENDBRANCH  29  32
ENDBRANCH  27  28
ENDBRANCH  26  27
ENDBRANCH   1  26
TORSDOF 17
ENDMDL
MODEL 2
REMARK VINA RESULT:     -10.8      1.633      2.328
REMARK SMILES Cc1cscc1CNC(=O)N[C@@H](C)c1nc(C(=O)NCCCNC(=O)c2ccc(-c3c4nc(c(-c5ccc(S(=O)(=O)[O-])cc5)c5ccc([nH]5)c(-c5ccc(S(=O)(=O)[O-])cc5)c5nc(c(-c6ccc(S(=O)(=O)[O-])cc6)c6ccc3[nH]6)C=C5)C=C4)cc2)cs1
REMARK SMILES IDX 20 1 19 2 17 3 18 4 16 6 14 7 15 8 87 9 86 10 12 11 13 12
REMARK SMILES IDX 11 13 8 14 9 15 10 17 7 19 6 20 1 21 2 22 3 23 4 24 5 25
REMARK SMILES IDX 21 26 22 27 23 28 24 29 25 31 26 32 27 33 85 34 28 35 84 36
REMARK SMILES IDX 29 37 30 38 31 39 78 40 32 41 83 42 77 43 79 44 33 45 82 46
REMARK SMILES IDX 76 47 75 48 34 50 64 51 45 52 63 53 46 54 49 55 62 56 80 57
REMARK SMILES IDX 47 58 48 59 61 61 81 62 50 63 35 64 36 65 44 66 37 67 43 68
REMARK SMILES IDX 38 69 39 70 40 71 41 72 42 73 65 74 66 75 74 76 67 77 73 78
REMARK SMILES IDX 68 79 69 80 70 81 71 82 72 83 51 84 52 85 60 86 53 87 59 88
REMARK SMILES IDX 54 89 55 90 56 91 57 92 58 93
REMARK H PARENT 19 5 8 16 11 18 23 30 79 49 49 60
REMARK Flexibility Score: inf
ROOT
ATOM      1  C   UNL A   1      37.340  20.649  24.638  1.00  0.00     0.118 C 
ENDROOT
BRANCH   1   2
ATOM      2  N   UNL A   1      37.735  22.000  24.997  1.00  0.00    -0.351 N 
ATOM      3  C   UNL A   1      36.978  23.116  25.267  1.00  0.00     0.270 C 
ATOM      4  O   UNL A   1      37.574  24.139  25.600  1.00  0.00    -0.267 OA
ATOM      5  H   UNL A   1      38.707  22.139  25.057  1.00  0.00     0.163 HD
BRANCH   3   6
ATOM      6  C   UNL A   1      35.510  23.066  25.203  1.00  0.00     0.139 A 
ATOM      7  C   UNL A   1      33.487  22.993  24.266  1.00  0.00     0.116 A 
ATOM      8  N   UNL A   1      34.772  23.159  24.027  1.00  0.00    -0.234 NA
ATOM      9  S   UNL A   1      33.074  22.782  25.919  1.00  0.00    -0.124 S 
ATOM     10  C   UNL A   1      34.727  22.911  26.336  1.00  0.00     0.101 A 
BRANCH   7  11
ATOM     11  C   UNL A   1      32.425  22.959  23.193  1.00  0.00     0.140 C 
ATOM     12  C   UNL A   1      32.273  21.538  22.647  1.00  0.00     0.039 C 
BRANCH  11  13
ATOM     13  N   UNL A   1      32.849  23.845  22.122  1.00  0.00    -0.329 N 
ATOM     14  N   UNL A   1      32.037  26.017  22.573  1.00  0.00    -0.334 N 
ATOM     15  C   UNL A   1      32.730  25.142  21.847  1.00  0.00     0.315 C 
ATOM     16  H   UNL A   1      32.122  26.936  22.231  1.00  0.00     0.165 HD
ATOM     17  O   UNL A   1      33.319  25.566  20.853  1.00  0.00    -0.249 OA
ATOM     18  H   UNL A   1      33.352  23.365  21.425  1.00  0.00     0.166 HD
BRANCH  14  19
ATOM     19  C   UNL A   1      31.190  25.943  23.738  1.00  0.00     0.154 C 
BRANCH  19  20
ATOM     20  C   UNL A   1      31.600  26.950  24.781  1.00  0.00    -0.015 A 
ATOM     21  C   UNL A   1      30.401  28.985  23.666  1.00  0.00     0.045 C 
ATOM     22  C   UNL A   1      31.234  28.355  24.735  1.00  0.00    -0.035 A 
ATOM     23  C   UNL A   1      31.761  29.054  25.805  1.00  0.00     0.068 A 
ATOM     24  S   UNL A   1      32.660  28.068  26.865  1.00  0.00    -0.152 S 
ATOM     25  C   UNL A   1      32.375  26.691  25.902  1.00  0.00     0.070 A 
ENDBRANCH  19  20
ENDBRANCH  14  19
ENDBRANCH  11  13
ENDBRANCH   7  11
ENDBRANCH   3   6
ENDBRANCH   1   2
BRANCH   1  26
ATOM     26  C   UNL A   1      38.354  19.612  25.108  1.00  0.00     0.042 C 
BRANCH  26  27
ATOM     27  C   UNL A   1      39.437  20.199  26.014  1.00  0.00     0.118 C 
BRANCH  27  28
ATOM     28  N   UNL A   1      40.609  19.333  26.109  1.00  0.00    -0.352 N 
ATOM     29  C   UNL A   1      41.939  19.650  26.234  1.00  0.00     0.251 C 
ATOM     30  H   UNL A   1      40.415  18.368  26.079  1.00  0.00     0.163 HD
ATOM     31  O   UNL A   1      42.787  18.777  26.081  1.00  0.00    -0.269 OA
BRANCH  29  32
ATOM     32  C   UNL A   1      42.347  21.036  26.541  1.00  0.00     0.039 A 
ATOM     33  C   UNL A   1      42.528  21.411  27.876  1.00  0.00     0.014 A 
ATOM     34  C   UNL A   1      42.531  21.969  25.518  1.00  0.00     0.014 A 
ATOM     35  C   UNL A   1      42.971  22.700  28.178  1.00  0.00     0.010 A 
ATOM     36  C   UNL A   1      43.035  23.231  25.816  1.00  0.00     0.010 A 
ATOM     37  C   UNL A   1      43.268  23.606  27.148  1.00  0.00    -0.014 A 
BRANCH  37  38
ATOM     38  C   UNL A   1      43.854  24.940  27.432  1.00  0.00     0.031 A 
ATOM     39  C   UNL A   1      42.975  26.073  27.884  1.00  0.00     0.074 A 
ATOM     40  C   UNL A   1      45.164  25.149  27.195  1.00  0.00     0.049 A 
ATOM     41  N   UNL A   1      43.286  27.329  28.078  1.00  0.00    -0.248 NA
ATOM     42  C   UNL A   1      41.560  25.757  28.130  1.00  0.00     0.031 C 
ATOM     43  C   UNL A   1      46.114  24.136  26.727  1.00  0.00     0.029 A 
ATOM     44  N   UNL A   1      45.921  26.288  27.301  1.00  0.00    -0.354 N 
ATOM     45  C   UNL A   1      42.103  27.956  28.450  1.00  0.00     0.074 A 
ATOM     46  C   UNL A   1      41.062  26.952  28.413  1.00  0.00     0.031 C 
ATOM     47  C   UNL A   1      47.329  24.693  26.610  1.00  0.00     0.029 A 
ATOM     48  C   UNL A   1      47.238  26.110  26.945  1.00  0.00     0.049 A 
ATOM     49  H   UNL A   1      45.557  27.151  27.605  1.00  0.00     0.167 HD
ATOM     50  C   UNL A   1      41.905  29.250  28.805  1.00  0.00     0.031 A 
ATOM     51  C   UNL A   1      48.255  26.990  26.881  1.00  0.00     0.031 A 
ATOM     52  C   UNL A   1      42.944  30.244  28.839  1.00  0.00     0.049 A 
ATOM     53  C   UNL A   1      48.002  28.428  27.242  1.00  0.00     0.074 A 
ATOM     54  C   UNL A   1      42.855  31.571  29.226  1.00  0.00     0.029 A 
ATOM     55  N   UNL A   1      44.262  30.025  28.464  1.00  0.00    -0.354 N 
ATOM     56  N   UNL A   1      46.888  28.993  27.642  1.00  0.00    -0.248 NA
ATOM     57  C   UNL A   1      49.145  29.346  27.145  1.00  0.00     0.031 C 
ATOM     58  C   UNL A   1      44.108  32.164  29.040  1.00  0.00     0.029 A 
ATOM     59  C   UNL A   1      44.991  31.195  28.589  1.00  0.00     0.049 A 
ATOM     60  H   UNL A   1      44.626  29.163  28.157  1.00  0.00     0.167 HD
ATOM     61  C   UNL A   1      47.201  30.327  27.869  1.00  0.00     0.074 A 
ATOM     62  C   UNL A   1      48.611  30.483  27.572  1.00  0.00     0.031 C 
ATOM     63  C   UNL A   1      46.394  31.334  28.286  1.00  0.00     0.031 A 
BRANCH  50  64
ATOM     64  C   UNL A   1      40.503  29.658  29.174  1.00  0.00    -0.014 A 
ATOM     65  C   UNL A   1      40.148  29.902  30.512  1.00  0.00     0.010 A 
ATOM     66  C   UNL A   1      39.531  29.819  28.169  1.00  0.00     0.010 A 
ATOM     67  C   UNL A   1      38.835  30.248  30.846  1.00  0.00     0.020 A 
ATOM     68  C   UNL A   1      38.224  30.192  28.495  1.00  0.00     0.020 A 
ATOM     69  C   UNL A   1      37.879  30.383  29.834  1.00  0.00     0.054 A 
BRANCH  69  70
ATOM     70  S   UNL A   1      36.183  30.832  30.295  1.00  0.00     0.124 S 
ATOM     71  O   UNL A   1      35.435  30.439  29.103  1.00  0.00    -0.237 OA
ATOM     72  O   UNL A   1      35.944  30.014  31.483  1.00  0.00    -0.237 OA
ATOM     73  O   UNL A   1      36.259  32.270  30.538  1.00  0.00    -0.744 OA
ENDBRANCH  69  70
ENDBRANCH  50  64
BRANCH  51  74
ATOM     74  C   UNL A   1      49.609  26.529  26.473  1.00  0.00    -0.014 A 
ATOM     75  C   UNL A   1      50.445  25.881  27.400  1.00  0.00     0.010 A 
ATOM     76  C   UNL A   1      50.062  26.707  25.153  1.00  0.00     0.010 A 
ATOM     77  C   UNL A   1      51.712  25.432  27.019  1.00  0.00     0.020 A 
ATOM     78  C   UNL A   1      51.319  26.236  24.761  1.00  0.00     0.020 A 
ATOM     79  C   UNL A   1      52.140  25.610  25.700  1.00  0.00     0.054 A 
BRANCH  79  80
ATOM     80  S   UNL A   1      53.768  24.968  25.218  1.00  0.00     0.124 S 
ATOM     81  O   UNL A   1      53.916  25.499  23.867  1.00  0.00    -0.237 OA
ATOM     82  O   UNL A   1      54.649  25.551  26.228  1.00  0.00    -0.237 OA
ATOM     83  O   UNL A   1      53.606  23.518  25.306  1.00  0.00    -0.744 OA
ENDBRANCH  79  80
ENDBRANCH  51  74
BRANCH  63  84
ATOM     84  C   UNL A   1      47.018  32.690  28.475  1.00  0.00    -0.014 A 
ATOM     85  C   UNL A   1      47.660  33.034  29.677  1.00  0.00     0.010 A 
ATOM     86  C   UNL A   1      47.017  33.608  27.409  1.00  0.00     0.010 A 
ATOM     87  C   UNL A   1      48.274  34.281  29.817  1.00  0.00     0.020 A 
ATOM     88  C   UNL A   1      47.652  34.846  27.536  1.00  0.00     0.020 A 
ATOM     89  C   UNL A   1      48.268  35.178  28.744  1.00  0.00     0.054 A 
BRANCH  89  90
ATOM     90  S   UNL A   1      49.127  36.767  28.930  1.00  0.00     0.124 S 
ATOM     91  O   UNL A   1      48.057  37.724  28.656  1.00  0.00    -0.237 OA
ATOM     92  O   UNL A   1      49.590  36.722  30.314  1.00  0.00    -0.237 OA
ATOM     93  O   UNL A   1      50.184  36.709  27.923  1.00  0.00    -0.744 OA
ENDBRANCH  89  90
ENDBRANCH  63  84
ENDBRANCH  37  38
ENDBRANCH  29  32
ENDBRANCH  27  28
ENDBRANCH  26  27
ENDBRANCH   1  26
TORSDOF 17
ENDMDL
MODEL 3
REMARK VINA RESULT:     -10.5      5.028     10.878
REMARK SMILES Cc1cscc1CNC(=O)N[C@@H](C)c1nc(C(=O)NCCCNC(=O)c2ccc(-c3c4nc(c(-c5ccc(S(=O)(=O)[O-])cc5)c5ccc([nH]5)c(-c5ccc(S(=O)(=O)[O-])cc5)c5nc(c(-c6ccc(S(=O)(=O)[O-])cc6)c6ccc3[nH]6)C=C5)C=C4)cc2)cs1
REMARK SMILES IDX 20 1 19 2 17 3 18 4 16 6 14 7 15 8 87 9 86 10 12 11 13 12
REMARK SMILES IDX 11 13 8 14 9 15 10 17 7 19 6 20 1 21 2 22 3 23 4 24 5 25
REMARK SMILES IDX 21 26 22 27 23 28 24 29 25 31 26 32 27 33 85 34 28 35 84 36
REMARK SMILES IDX 29 37 30 38 31 39 78 40 32 41 83 42 77 43 79 44 33 45 82 46
REMARK SMILES IDX 76 47 75 48 34 50 64 51 45 52 63 53 46 54 49 55 62 56 80 57
REMARK SMILES IDX 47 58 48 59 61 61 81 62 50 63 35 64 36 65 44 66 37 67 43 68
REMARK SMILES IDX 38 69 39 70 40 71 41 72 42 73 65 74 66 75 74 76 67 77 73 78
REMARK SMILES IDX 68 79 69 80 70 81 71 82 72 83 51 84 52 85 60 86 53 87 59 88
REMARK SMILES IDX 54 89 55 90 56 91 57 92 58 93
REMARK H PARENT 19 5 8 16 11 18 23 30 79 49 49 60
REMARK Flexibility Score: inf
ROOT
ATOM      1  C   UNL A   1      35.206  33.567  31.898  1.00  0.00     0.118 C 
ENDROOT
BRANCH   1   2
ATOM      2  N   UNL A   1      36.343  34.309  31.379  1.00  0.00    -0.351 N 
ATOM      3  C   UNL A   1      37.682  34.230  31.682  1.00  0.00     0.270 C 
ATOM      4  O   UNL A   1      38.450  34.951  31.048  1.00  0.00    -0.267 OA
ATOM      5  H   UNL A   1      36.115  34.980  30.696  1.00  0.00     0.163 HD
BRANCH   3   6
ATOM      6  C   UNL A   1      38.172  33.284  32.694  1.00  0.00     0.139 A 
ATOM      7  C   UNL A   1      39.263  31.518  33.511  1.00  0.00     0.116 A 
ATOM      8  N   UNL A   1      38.875  32.118  32.405  1.00  0.00    -0.234 NA
ATOM      9  S   UNL A   1      38.756  32.274  34.967  1.00  0.00    -0.124 S 
ATOM     10  C   UNL A   1      37.977  33.489  34.051  1.00  0.00     0.101 A 
BRANCH   7  11
ATOM     11  C   UNL A   1      40.113  30.270  33.543  1.00  0.00     0.140 C 
ATOM     12  C   UNL A   1      39.317  29.077  33.011  1.00  0.00     0.039 C 
BRANCH  11  13
ATOM     13  N   UNL A   1      40.485  30.024  34.926  1.00  0.00    -0.329 N 
ATOM     14  N   UNL A   1      42.789  29.507  35.006  1.00  0.00    -0.334 N 
ATOM     15  C   UNL A   1      41.608  29.732  35.579  1.00  0.00     0.315 C 
ATOM     16  H   UNL A   1      43.503  29.364  35.668  1.00  0.00     0.165 HD
ATOM     17  O   UNL A   1      41.551  29.682  36.808  1.00  0.00    -0.249 OA
ATOM     18  H   UNL A   1      39.713  30.091  35.533  1.00  0.00     0.166 HD
BRANCH  14  19
ATOM     19  C   UNL A   1      43.273  29.419  33.651  1.00  0.00     0.154 C 
BRANCH  19  20
ATOM     20  C   UNL A   1      44.067  28.158  33.431  1.00  0.00    -0.015 A 
ATOM     21  C   UNL A   1      46.320  29.101  34.357  1.00  0.00     0.045 C 
ATOM     22  C   UNL A   1      45.476  28.024  33.756  1.00  0.00    -0.035 A 
ATOM     23  C   UNL A   1      45.957  26.769  33.432  1.00  0.00     0.068 A 
ATOM     24  S   UNL A   1      44.762  25.750  32.770  1.00  0.00    -0.152 S 
ATOM     25  C   UNL A   1      43.584  26.976  32.890  1.00  0.00     0.070 A 
ENDBRANCH  19  20
ENDBRANCH  14  19
ENDBRANCH  11  13
ENDBRANCH   7  11
ENDBRANCH   3   6
ENDBRANCH   1   2
BRANCH   1  26
ATOM     26  C   UNL A   1      34.913  32.319  31.074  1.00  0.00     0.042 C 
BRANCH  26  27
ATOM     27  C   UNL A   1      35.083  32.537  29.570  1.00  0.00     0.118 C 
BRANCH  27  28
ATOM     28  N   UNL A   1      34.340  31.559  28.781  1.00  0.00    -0.352 N 
ATOM     29  C   UNL A   1      34.778  30.446  28.106  1.00  0.00     0.251 C 
ATOM     30  H   UNL A   1      33.371  31.723  28.723  1.00  0.00     0.163 HD
ATOM     31  O   UNL A   1      34.024  29.876  27.324  1.00  0.00    -0.269 OA
BRANCH  29  32
ATOM     32  C   UNL A   1      36.151  29.945  28.313  1.00  0.00     0.039 A 
ATOM     33  C   UNL A   1      37.088  30.086  27.284  1.00  0.00     0.014 A 
ATOM     34  C   UNL A   1      36.510  29.319  29.509  1.00  0.00     0.014 A 
ATOM     35  C   UNL A   1      38.406  29.670  27.487  1.00  0.00     0.010 A 
ATOM     36  C   UNL A   1      37.837  28.966  29.734  1.00  0.00     0.010 A 
ATOM     37  C   UNL A   1      38.799  29.145  28.728  1.00  0.00    -0.014 A 
BRANCH  37  38
ATOM     38  C   UNL A   1      40.216  28.808  29.015  1.00  0.00     0.031 A 
ATOM     39  C   UNL A   1      41.143  29.848  29.580  1.00  0.00     0.074 A 
ATOM     40  C   UNL A   1      40.685  27.590  28.681  1.00  0.00     0.049 A 
ATOM     41  N   UNL A   1      42.431  29.774  29.796  1.00  0.00    -0.248 NA
ATOM     42  C   UNL A   1      40.548  31.149  29.926  1.00  0.00     0.031 C 
ATOM     43  C   UNL A   1      39.890  26.505  28.099  1.00  0.00     0.029 A 
ATOM     44  N   UNL A   1      41.949  27.063  28.771  1.00  0.00    -0.354 N 
ATOM     45  C   UNL A   1      42.804  31.019  30.287  1.00  0.00     0.074 A 
ATOM     46  C   UNL A   1      41.614  31.844  30.296  1.00  0.00     0.031 C 
ATOM     47  C   UNL A   1      40.679  25.437  27.907  1.00  0.00     0.029 A 
ATOM     48  C   UNL A   1      42.043  25.773  28.303  1.00  0.00     0.049 A 
ATOM     49  H   UNL A   1      42.716  27.561  29.135  1.00  0.00     0.167 HD
ATOM     50  C   UNL A   1      44.024  31.435  30.706  1.00  0.00     0.031 A 
ATOM     51  C   UNL A   1      43.108  24.957  28.191  1.00  0.00     0.031 A 
ATOM     52  C   UNL A   1      45.203  30.610  30.695  1.00  0.00     0.049 A 
ATOM     53  C   UNL A   1      44.459  25.453  28.627  1.00  0.00     0.074 A 
ATOM     54  C   UNL A   1      46.477  30.923  31.139  1.00  0.00     0.029 A 
ATOM     55  N   UNL A   1      45.257  29.313  30.207  1.00  0.00    -0.354 N 
ATOM     56  N   UNL A   1      44.783  26.617  29.136  1.00  0.00    -0.248 NA
ATOM     57  C   UNL A   1      45.586  24.524  28.474  1.00  0.00     0.031 C 
ATOM     58  C   UNL A   1      47.311  29.830  30.876  1.00  0.00     0.029 A 
ATOM     59  C   UNL A   1      46.545  28.818  30.318  1.00  0.00     0.049 A 
ATOM     60  H   UNL A   1      44.491  28.815  29.838  1.00  0.00     0.167 HD
ATOM     61  C   UNL A   1      46.148  26.552  29.389  1.00  0.00     0.074 A 
ATOM     62  C   UNL A   1      46.586  25.230  28.985  1.00  0.00     0.031 C 
ATOM     63  C   UNL A   1      46.965  27.500  29.908  1.00  0.00     0.031 A 
BRANCH  50  64
ATOM     64  C   UNL A   1      44.138  32.852  31.203  1.00  0.00    -0.014 A 
ATOM     65  C   UNL A   1      43.961  33.160  32.563  1.00  0.00     0.010 A 
ATOM     66  C   UNL A   1      44.448  33.888  30.302  1.00  0.00     0.010 A 
ATOM     67  C   UNL A   1      44.036  34.484  33.007  1.00  0.00     0.020 A 
ATOM     68  C   UNL A   1      44.553  35.210  30.746  1.00  0.00     0.020 A 
ATOM     69  C   UNL A   1      44.325  35.501  32.092  1.00  0.00     0.054 A 
BRANCH  69  70
ATOM     70  S   UNL A   1      44.417  37.210  32.694  1.00  0.00     0.124 S 
ATOM     71  O   UNL A   1      43.831  37.952  31.580  1.00  0.00    -0.237 OA
ATOM     72  O   UNL A   1      43.611  37.167  33.912  1.00  0.00    -0.237 OA
ATOM     73  O   UNL A   1      45.846  37.427  32.904  1.00  0.00    -0.744 OA
ENDBRANCH  69  70
ENDBRANCH  50  64
BRANCH  51  74
ATOM     74  C   UNL A   1      42.933  23.579  27.658  1.00  0.00    -0.014 A 
ATOM     75  C   UNL A   1      42.490  22.545  28.501  1.00  0.00     0.010 A 
ATOM     76  C   UNL A   1      43.179  23.296  26.301  1.00  0.00     0.010 A 
ATOM     77  C   UNL A   1      42.308  21.252  28.002  1.00  0.00     0.020 A 
ATOM     78  C   UNL A   1      42.974  22.010  25.793  1.00  0.00     0.020 A 
ATOM     79  C   UNL A   1      42.549  20.993  26.650  1.00  0.00     0.054 A 
BRANCH  79  80
ATOM     80  S   UNL A   1      42.253  19.318  26.017  1.00  0.00     0.124 S 
ATOM     81  O   UNL A   1      42.666  18.490  27.146  1.00  0.00    -0.237 OA
ATOM     82  O   UNL A   1      40.819  19.336  25.737  1.00  0.00    -0.237 OA
ATOM     83  O   UNL A   1      43.110  19.240  24.836  1.00  0.00    -0.744 OA
ENDBRANCH  79  80
ENDBRANCH  51  74
BRANCH  63  84
ATOM     84  C   UNL A   1      48.414  27.139  30.099  1.00  0.00    -0.014 A 
ATOM     85  C   UNL A   1      49.355  27.345  29.077  1.00  0.00     0.010 A 
ATOM     86  C   UNL A   1      48.847  26.647  31.344  1.00  0.00     0.010 A 
ATOM     87  C   UNL A   1      50.704  27.048  29.289  1.00  0.00     0.020 A 
ATOM     88  C   UNL A   1      50.199  26.372  31.568  1.00  0.00     0.020 A 
ATOM     89  C   UNL A   1      51.117  26.565  30.535  1.00  0.00     0.054 A 
BRANCH  89  90
ATOM     90  S   UNL A   1      52.883  26.245  30.805  1.00  0.00     0.124 S 
ATOM     91  O   UNL A   1      53.284  27.405  31.597  1.00  0.00    -0.237 OA
ATOM     92  O   UNL A   1      52.873  24.970  31.519  1.00  0.00    -0.237 OA
ATOM     93  O   UNL A   1      53.436  26.190  29.454  1.00  0.00    -0.744 OA
ENDBRANCH  89  90
ENDBRANCH  63  84
ENDBRANCH  37  38
ENDBRANCH  29  32
ENDBRANCH  27  28
ENDBRANCH  26  27
ENDBRANCH   1  26
TORSDOF 17
ENDMDL
