MODEL 1
REMARK VINA RESULT:      -9.8      0.000      0.000
REMARK SMILES O=C(N/N=C/c1ccccc1O)C(=O)Nc1cccc(C(=O)NCCCNC(=O)c2ccc(-c3c4nc(c(-c5ccc(S(=O)(=O)[O-])cc5)c5ccc([nH]5)c(-c5ccc(S(=O)(=O)[O-])cc5)c5nc(c(-c6ccc(S(=O)(=O)[O-])cc6)c6ccc3[nH]6)C=C5)C=C4)cc2)c1
REMARK SMILES IDX 24 1 23 2 21 3 22 4 20 6 16 7 17 8 90 9 18 10 19 11 15 12
REMARK SMILES IDX 13 13 14 14 2 16 1 17 3 18 4 20 5 21 6 22 7 23 11 24 8 25
REMARK SMILES IDX 10 26 9 27 12 28 25 30 26 31 27 32 28 33 29 35 30 36 31 37
REMARK SMILES IDX 89 38 32 39 88 40 33 41 34 42 35 43 82 44 36 45 87 46 81 47
REMARK SMILES IDX 83 48 37 49 86 50 80 51 79 52 38 54 68 55 49 56 67 57 50 58
REMARK SMILES IDX 53 59 66 60 84 61 51 62 52 63 65 65 85 66 54 67 39 68 40 69
REMARK SMILES IDX 48 70 41 71 47 72 42 73 43 74 44 75 45 76 46 77 69 78 70 79
REMARK SMILES IDX 78 80 71 81 77 82 72 83 73 84 74 85 75 86 76 87 55 88 56 89
REMARK SMILES IDX 64 90 57 91 63 92 58 93 59 94 60 95 61 96 62 97
REMARK H PARENT 23 5 15 15 3 19 12 29 27 34 83 53 53 64
REMARK Flexibility Score: inf
ROOT
ATOM      1  C   UNL A   1      42.999  22.086  25.645  1.00  0.00     0.118 C 
ENDROOT
BRANCH   1   2
ATOM      2  N   UNL A   1      44.216  21.517  25.090  1.00  0.00    -0.352 N 
ATOM      3  C   UNL A   1      45.532  21.794  25.357  1.00  0.00     0.251 C 
ATOM      4  O   UNL A   1      46.408  21.021  24.960  1.00  0.00    -0.269 OA
ATOM      5  H   UNL A   1      44.071  20.818  24.412  1.00  0.00     0.163 HD
BRANCH   3   6
ATOM      6  C   UNL A   1      45.992  23.022  26.053  1.00  0.00     0.041 A 
ATOM      7  C   UNL A   1      47.276  25.908  26.103  1.00  0.00     0.042 A 
ATOM      8  C   UNL A   1      46.719  26.146  27.827  1.00  0.00     0.026 A 
ATOM      9  C   UNL A   1      46.981  24.338  25.236  1.00  0.00     0.040 A 
ATOM     10  C   UNL A   1      45.895  24.756  28.699  1.00  0.00     0.003 A 
ATOM     11  C   UNL A   1      45.508  23.227  27.798  1.00  0.00     0.014 A 
BRANCH   7  12
ATOM     12  N   UNL A   1      47.302  27.080  25.348  1.00  0.00    -0.318 N 
ATOM     13  C   UNL A   1      46.216  27.926  25.151  1.00  0.00     0.315 C 
ATOM     14  O   UNL A   1      46.463  29.096  24.843  1.00  0.00    -0.263 OA
ATOM     15  H   UNL A   1      48.154  27.328  24.922  1.00  0.00     0.170 HD
BRANCH  13  16
ATOM     16  C   UNL A   1      44.723  27.547  25.318  1.00  0.00     0.329 C 
ATOM     17  O   UNL A   1      44.336  26.469  24.868  1.00  0.00    -0.262 OA
ATOM     18  N   UNL A   1      43.777  28.460  25.802  1.00  0.00    -0.239 N 
ATOM     19  H   UNL A   1      43.075  28.833  25.221  1.00  0.00     0.194 HD
BRANCH  18  20
ATOM     20  N   UNL A   1      43.875  28.808  27.126  1.00  0.00    -0.180 NA
ATOM     21  C   UNL A   1      43.667  30.136  27.400  1.00  0.00     0.145 C 
BRANCH  21  22
ATOM     22  C   UNL A   1      44.439  31.618  28.724  1.00  0.00     0.036 A 
ATOM     23  C   UNL A   1      45.766  31.602  29.487  1.00  0.00     0.013 A 
ATOM     24  C   UNL A   1      43.969  33.002  29.170  1.00  0.00     0.124 A 
ATOM     25  C   UNL A   1      46.518  32.647  30.104  1.00  0.00     0.001 A 
ATOM     26  C   UNL A   1      44.736  34.085  29.730  1.00  0.00     0.047 A 
ATOM     27  C   UNL A   1      46.034  33.920  30.139  1.00  0.00     0.004 A 
BRANCH  24  28
ATOM     28  O   UNL A   1      42.634  33.396  29.317  1.00  0.00    -0.507 OA
ATOM     29  H   UNL A   1      42.121  33.060  30.025  1.00  0.00     0.293 HD
ENDBRANCH  24  28
ENDBRANCH  21  22
ENDBRANCH  18  20
ENDBRANCH  13  16
ENDBRANCH   7  12
ENDBRANCH   3   6
ENDBRANCH   1   2
BRANCH   1  30
ATOM     30  C   UNL A   1      42.044  21.044  26.212  1.00  0.00     0.042 C 
BRANCH  30  31
ATOM     31  C   UNL A   1      40.910  21.633  27.044  1.00  0.00     0.118 C 
BRANCH  31  32
ATOM     32  N   UNL A   1      39.718  21.909  26.248  1.00  0.00    -0.352 N 
ATOM     33  C   UNL A   1      38.907  23.017  26.210  1.00  0.00     0.251 C 
ATOM     34  H   UNL A   1      39.453  21.182  25.639  1.00  0.00     0.163 HD
ATOM     35  O   UNL A   1      37.843  22.962  25.598  1.00  0.00    -0.269 OA
BRANCH  33  36
ATOM     36  C   UNL A   1      39.294  24.267  26.898  1.00  0.00     0.039 A 
ATOM     37  C   UNL A   1      38.863  24.479  28.213  1.00  0.00     0.014 A 
ATOM     38  C   UNL A   1      40.036  25.252  26.243  1.00  0.00     0.014 A 
ATOM     39  C   UNL A   1      39.231  25.646  28.889  1.00  0.00     0.010 A 
ATOM     40  C   UNL A   1      40.458  26.383  26.937  1.00  0.00     0.010 A 
ATOM     41  C   UNL A   1      40.058  26.593  28.266  1.00  0.00    -0.014 A 
BRANCH  41  42
ATOM     42  C   UNL A   1      40.512  27.821  28.968  1.00  0.00     0.031 A 
ATOM     43  C   UNL A   1      41.848  27.838  29.657  1.00  0.00     0.074 A 
ATOM     44  C   UNL A   1      39.685  28.878  29.074  1.00  0.00     0.049 A 
ATOM     45  N   UNL A   1      42.351  28.740  30.460  1.00  0.00    -0.248 NA
ATOM     46  C   UNL A   1      42.718  26.671  29.439  1.00  0.00     0.031 C 
ATOM     47  C   UNL A   1      38.346  28.975  28.488  1.00  0.00     0.029 A 
ATOM     48  N   UNL A   1      39.844  30.069  29.739  1.00  0.00    -0.354 N 
ATOM     49  C   UNL A   1      43.574  28.229  30.882  1.00  0.00     0.074 A 
ATOM     50  C   UNL A   1      43.727  26.933  30.257  1.00  0.00     0.031 C 
ATOM     51  C   UNL A   1      37.809  30.162  28.814  1.00  0.00     0.029 A 
ATOM     52  C   UNL A   1      38.747  30.895  29.659  1.00  0.00     0.049 A 
ATOM     53  H   UNL A   1      40.665  30.309  30.226  1.00  0.00     0.167 HD
ATOM     54  C   UNL A   1      44.486  28.788  31.711  1.00  0.00     0.031 A 
ATOM     55  C   UNL A   1      38.515  32.097  30.217  1.00  0.00     0.031 A 
ATOM     56  C   UNL A   1      44.355  30.093  32.299  1.00  0.00     0.049 A 
ATOM     57  C   UNL A   1      39.565  32.725  31.087  1.00  0.00     0.074 A 
ATOM     58  C   UNL A   1      45.256  30.773  33.100  1.00  0.00     0.029 A 
ATOM     59  N   UNL A   1      43.255  30.921  32.140  1.00  0.00    -0.354 N 
ATOM     60  N   UNL A   1      40.729  32.241  31.448  1.00  0.00    -0.248 NA
ATOM     61  C   UNL A   1      39.272  34.062  31.623  1.00  0.00     0.031 C 
ATOM     62  C   UNL A   1      44.692  32.009  33.440  1.00  0.00     0.029 A 
ATOM     63  C   UNL A   1      43.449  32.104  32.831  1.00  0.00     0.049 A 
ATOM     64  H   UNL A   1      42.453  30.699  31.613  1.00  0.00     0.167 HD
ATOM     65  C   UNL A   1      41.310  33.216  32.247  1.00  0.00     0.074 A 
ATOM     66  C   UNL A   1      40.379  34.324  32.307  1.00  0.00     0.031 C 
ATOM     67  C   UNL A   1      42.510  33.195  32.878  1.00  0.00     0.031 A 
BRANCH  54  68
ATOM     68  C   UNL A   1      45.705  27.969  32.035  1.00  0.00    -0.014 A 
ATOM     69  C   UNL A   1      46.810  27.939  31.167  1.00  0.00     0.010 A 
ATOM     70  C   UNL A   1      45.737  27.209  33.218  1.00  0.00     0.010 A 
ATOM     71  C   UNL A   1      47.905  27.118  31.447  1.00  0.00     0.020 A 
ATOM     72  C   UNL A   1      46.841  26.403  33.511  1.00  0.00     0.020 A 
ATOM     73  C   UNL A   1      47.907  26.343  32.610  1.00  0.00     0.054 A 
BRANCH  73  74
ATOM     74  S   UNL A   1      49.328  25.268  32.953  1.00  0.00     0.124 S 
ATOM     75  O   UNL A   1      48.701  24.172  33.687  1.00  0.00    -0.237 OA
ATOM     76  O   UNL A   1      49.813  24.930  31.616  1.00  0.00    -0.237 OA
ATOM     77  O   UNL A   1      50.219  26.118  33.738  1.00  0.00    -0.744 OA
ENDBRANCH  73  74
ENDBRANCH  54  68
BRANCH  55  78
ATOM     78  C   UNL A   1      37.225  32.787  29.958  1.00  0.00    -0.014 A 
ATOM     79  C   UNL A   1      36.100  32.503  30.751  1.00  0.00     0.010 A 
ATOM     80  C   UNL A   1      37.129  33.761  28.949  1.00  0.00     0.010 A 
ATOM     81  C   UNL A   1      34.897  33.181  30.538  1.00  0.00     0.020 A 
ATOM     82  C   UNL A   1      35.931  34.451  28.743  1.00  0.00     0.020 A 
ATOM     83  C   UNL A   1      34.820  34.151  29.535  1.00  0.00     0.054 A 
BRANCH  83  84
ATOM     84  S   UNL A   1      33.274  35.078  29.318  1.00  0.00     0.124 S 
ATOM     85  O   UNL A   1      32.753  35.121  30.680  1.00  0.00    -0.237 OA
ATOM     86  O   UNL A   1      33.736  36.354  28.778  1.00  0.00    -0.237 OA
ATOM     87  O   UNL A   1      32.516  34.254  28.380  1.00  0.00    -0.744 OA
ENDBRANCH  83  84
ENDBRANCH  55  78
BRANCH  67  88
ATOM     88  C   UNL A   1      42.889  34.409  33.675  1.00  0.00    -0.014 A 
ATOM     89  C   UNL A   1      42.601  34.484  35.048  1.00  0.00     0.010 A 
ATOM     90  C   UNL A   1      43.595  35.457  33.058  1.00  0.00     0.010 A 
ATOM     91  C   UNL A   1      42.999  35.598  35.791  1.00  0.00     0.020 A 
ATOM     92  C   UNL A   1      44.006  36.566  33.801  1.00  0.00     0.020 A 
ATOM     93  C   UNL A   1      43.696  36.634  35.162  1.00  0.00     0.054 A 
BRANCH  93  94
ATOM     94  S   UNL A   1      44.259  38.046  36.152  1.00  0.00     0.124 S 
ATOM     95  O   UNL A   1      43.455  37.906  37.363  1.00  0.00    -0.237 OA
ATOM     96  O   UNL A   1      45.688  37.785  36.312  1.00  0.00    -0.237 OA
ATOM     97  O   UNL A   1      43.935  39.201  35.317  1.00  0.00    -0.744 OA
ENDBRANCH  93  94
ENDBRANCH  67  88
ENDBRANCH  41  42
ENDBRANCH  33  36
ENDBRANCH  31  32
ENDBRANCH  30  31
ENDBRANCH   1  30
TORSDOF 18
ENDMDL
MODEL 2
REMARK VINA RESULT:      -8.7      4.500     10.670
REMARK SMILES O=C(N/N=C/c1ccccc1O)C(=O)Nc1cccc(C(=O)NCCCNC(=O)c2ccc(-c3c4nc(c(-c5ccc(S(=O)(=O)[O-])cc5)c5ccc([nH]5)c(-c5ccc(S(=O)(=O)[O-])cc5)c5nc(c(-c6ccc(S(=O)(=O)[O-])cc6)c6ccc3[nH]6)C=C5)C=C4)cc2)c1
REMARK SMILES IDX 24 1 23 2 21 3 22 4 20 6 16 7 17 8 90 9 18 10 19 11 15 12
REMARK SMILES IDX 13 13 14 14 2 16 1 17 3 18 4 20 5 21 6 22 7 23 11 24 8 25
REMARK SMILES IDX 10 26 9 27 12 28 25 30 26 31 27 32 28 33 29 35 30 36 31 37
REMARK SMILES IDX 89 38 32 39 88 40 33 41 34 42 35 43 82 44 36 45 87 46 81 47
REMARK SMILES IDX 83 48 37 49 86 50 80 51 79 52 38 54 68 55 49 56 67 57 50 58
REMARK SMILES IDX 53 59 66 60 84 61 51 62 52 63 65 65 85 66 54 67 39 68 40 69
REMARK SMILES IDX 48 70 41 71 47 72 42 73 43 74 44 75 45 76 46 77 69 78 70 79
REMARK SMILES IDX 78 80 71 81 77 82 72 83 73 84 74 85 75 86 76 87 55 88 56 89
REMARK SMILES IDX 64 90 57 91 63 92 58 93 59 94 60 95 61 96 62 97
REMARK H PARENT 23 5 15 15 3 19 12 29 27 34 83 53 53 64
REMARK Flexibility Score: inf
ROOT
ATOM      1  C   UNL A   1      36.036  32.880  28.106  1.00  0.00     0.118 C 
ENDROOT
BRANCH   1   2
ATOM      2  N   UNL A   1      35.320  31.714  27.611  1.00  0.00    -0.352 N 
ATOM      3  C   UNL A   1      35.442  30.388  27.939  1.00  0.00     0.251 C 
ATOM      4  O   UNL A   1      34.568  29.593  27.588  1.00  0.00    -0.269 OA
ATOM      5  H   UNL A   1      34.637  31.908  26.930  1.00  0.00     0.163 HD
BRANCH   3   6
ATOM      6  C   UNL A   1      36.614  29.818  28.652  1.00  0.00     0.041 A 
ATOM      7  C   UNL A   1      39.536  28.621  28.741  1.00  0.00     0.042 A 
ATOM      8  C   UNL A   1      39.575  28.802  30.560  1.00  0.00     0.026 A 
ATOM      9  C   UNL A   1      38.049  29.058  27.791  1.00  0.00     0.040 A 
ATOM     10  C   UNL A   1      38.068  29.388  31.430  1.00  0.00     0.003 A 
ATOM     11  C   UNL A   1      36.621  29.923  30.471  1.00  0.00     0.014 A 
BRANCH   7  12
ATOM     12  N   UNL A   1      40.778  28.784  28.128  1.00  0.00    -0.318 N 
ATOM     13  C   UNL A   1      41.547  27.753  27.598  1.00  0.00     0.315 C 
ATOM     14  O   UNL A   1      42.379  28.056  26.739  1.00  0.00    -0.263 OA
ATOM     15  H   UNL A   1      41.138  29.698  28.065  1.00  0.00     0.170 HD
BRANCH  13  16
ATOM     16  C   UNL A   1      41.431  26.250  27.960  1.00  0.00     0.329 C 
ATOM     17  O   UNL A   1      42.053  25.831  28.936  1.00  0.00    -0.262 OA
ATOM     18  N   UNL A   1      40.790  25.333  27.117  1.00  0.00    -0.239 N 
ATOM     19  H   UNL A   1      41.292  24.639  26.633  1.00  0.00     0.194 HD
BRANCH  18  20
ATOM     20  N   UNL A   1      39.427  25.448  27.002  1.00  0.00    -0.180 NA
ATOM     21  C   UNL A   1      38.748  24.263  26.877  1.00  0.00     0.145 C 
BRANCH  21  22
ATOM     22  C   UNL A   1      37.054  23.513  25.822  1.00  0.00     0.036 A 
ATOM     23  C   UNL A   1      36.776  23.577  24.317  1.00  0.00     0.013 A 
ATOM     24  C   UNL A   1      35.814  22.714  26.220  1.00  0.00     0.124 A 
ATOM     25  C   UNL A   1      35.882  22.837  23.486  1.00  0.00     0.001 A 
ATOM     26  C   UNL A   1      34.949  21.910  25.396  1.00  0.00     0.047 A 
ATOM     27  C   UNL A   1      35.027  21.925  24.028  1.00  0.00     0.004 A 
BRANCH  24  28
ATOM     28  O   UNL A   1      35.157  22.799  27.452  1.00  0.00    -0.507 OA
ATOM     29  H   UNL A   1      35.163  23.604  27.933  1.00  0.00     0.293 HD
ENDBRANCH  24  28
ENDBRANCH  21  22
ENDBRANCH  18  20
ENDBRANCH  13  16
ENDBRANCH   7  12
ENDBRANCH   3   6
ENDBRANCH   1   2
BRANCH   1  30
ATOM     30  C   UNL A   1      35.127  34.058  28.428  1.00  0.00     0.042 C 
BRANCH  30  31
ATOM     31  C   UNL A   1      33.657  33.681  28.578  1.00  0.00     0.118 C 
BRANCH  31  32
ATOM     32  N   UNL A   1      32.937  34.583  29.471  1.00  0.00    -0.352 N 
ATOM     33  C   UNL A   1      33.159  34.899  30.789  1.00  0.00     0.251 C 
ATOM     34  H   UNL A   1      32.166  35.039  29.061  1.00  0.00     0.163 HD
ATOM     35  O   UNL A   1      32.314  35.544  31.404  1.00  0.00    -0.269 OA
BRANCH  33  36
ATOM     36  C   UNL A   1      34.397  34.468  31.476  1.00  0.00     0.039 A 
ATOM     37  C   UNL A   1      34.605  33.103  31.704  1.00  0.00     0.014 A 
ATOM     38  C   UNL A   1      35.326  35.401  31.941  1.00  0.00     0.014 A 
ATOM     39  C   UNL A   1      35.776  32.672  32.337  1.00  0.00     0.010 A 
ATOM     40  C   UNL A   1      36.521  34.968  32.511  1.00  0.00     0.010 A 
ATOM     41  C   UNL A   1      36.757  33.600  32.718  1.00  0.00    -0.014 A 
BRANCH  41  42
ATOM     42  C   UNL A   1      38.034  33.178  33.346  1.00  0.00     0.031 A 
ATOM     43  C   UNL A   1      38.166  33.172  34.844  1.00  0.00     0.074 A 
ATOM     44  C   UNL A   1      39.102  32.901  32.575  1.00  0.00     0.049 A 
ATOM     45  N   UNL A   1      39.235  33.004  35.578  1.00  0.00    -0.248 NA
ATOM     46  C   UNL A   1      36.937  33.423  35.615  1.00  0.00     0.031 C 
ATOM     47  C   UNL A   1      39.121  32.909  31.110  1.00  0.00     0.029 A 
ATOM     48  N   UNL A   1      40.392  32.580  32.921  1.00  0.00    -0.354 N 
ATOM     49  C   UNL A   1      38.820  33.175  36.894  1.00  0.00     0.074 A 
ATOM     50  C   UNL A   1      37.405  33.476  36.854  1.00  0.00     0.031 C 
ATOM     51  C   UNL A   1      40.357  32.603  30.685  1.00  0.00     0.029 A 
ATOM     52  C   UNL A   1      41.226  32.411  31.842  1.00  0.00     0.049 A 
ATOM     53  H   UNL A   1      40.690  32.482  33.854  1.00  0.00     0.167 HD
ATOM     54  C   UNL A   1      39.549  33.088  38.032  1.00  0.00     0.031 A 
ATOM     55  C   UNL A   1      42.545  32.150  31.788  1.00  0.00     0.031 A 
ATOM     56  C   UNL A   1      40.944  32.748  38.077  1.00  0.00     0.049 A 
ATOM     57  C   UNL A   1      43.323  32.000  33.064  1.00  0.00     0.074 A 
ATOM     58  C   UNL A   1      41.754  32.570  39.185  1.00  0.00     0.029 A 
ATOM     59  N   UNL A   1      41.736  32.523  36.961  1.00  0.00    -0.354 N 
ATOM     60  N   UNL A   1      42.906  32.133  34.300  1.00  0.00    -0.248 NA
ATOM     61  C   UNL A   1      44.748  31.661  32.938  1.00  0.00     0.031 C 
ATOM     62  C   UNL A   1      43.043  32.254  38.737  1.00  0.00     0.029 A 
ATOM     63  C   UNL A   1      43.027  32.213  37.352  1.00  0.00     0.049 A 
ATOM     64  H   UNL A   1      41.425  32.576  36.029  1.00  0.00     0.167 HD
ATOM     65  C   UNL A   1      44.014  31.889  35.100  1.00  0.00     0.074 A 
ATOM     66  C   UNL A   1      45.117  31.585  34.210  1.00  0.00     0.031 C 
ATOM     67  C   UNL A   1      44.110  31.914  36.451  1.00  0.00     0.031 A 
BRANCH  54  68
ATOM     68  C   UNL A   1      38.835  33.381  39.322  1.00  0.00    -0.014 A 
ATOM     69  C   UNL A   1      38.865  34.666  39.891  1.00  0.00     0.010 A 
ATOM     70  C   UNL A   1      38.136  32.353  39.979  1.00  0.00     0.010 A 
ATOM     71  C   UNL A   1      38.256  34.906  41.125  1.00  0.00     0.020 A 
ATOM     72  C   UNL A   1      37.508  32.595  41.204  1.00  0.00     0.020 A 
ATOM     73  C   UNL A   1      37.594  33.865  41.782  1.00  0.00     0.054 A 
BRANCH  73  74
ATOM     74  S   UNL A   1      36.823  34.184  43.393  1.00  0.00     0.124 S 
ATOM     75  O   UNL A   1      35.404  34.185  43.048  1.00  0.00    -0.237 OA
ATOM     76  O   UNL A   1      37.271  33.053  44.201  1.00  0.00    -0.237 OA
ATOM     77  O   UNL A   1      37.372  35.480  43.784  1.00  0.00    -0.744 OA
ENDBRANCH  73  74
ENDBRANCH  54  68
BRANCH  55  78
ATOM     78  C   UNL A   1      43.210  32.007  30.467  1.00  0.00    -0.014 A 
ATOM     79  C   UNL A   1      43.913  33.089  29.911  1.00  0.00     0.010 A 
ATOM     80  C   UNL A   1      43.181  30.779  29.785  1.00  0.00     0.010 A 
ATOM     81  C   UNL A   1      44.575  32.945  28.689  1.00  0.00     0.020 A 
ATOM     82  C   UNL A   1      43.854  30.628  28.570  1.00  0.00     0.020 A 
ATOM     83  C   UNL A   1      44.542  31.716  28.026  1.00  0.00     0.054 A 
BRANCH  83  84
ATOM     84  S   UNL A   1      45.469  31.520  26.476  1.00  0.00     0.124 S 
ATOM     85  O   UNL A   1      45.458  30.073  26.297  1.00  0.00    -0.237 OA
ATOM     86  O   UNL A   1      44.667  32.282  25.522  1.00  0.00    -0.237 OA
ATOM     87  O   UNL A   1      46.771  32.105  26.788  1.00  0.00    -0.744 OA
ENDBRANCH  83  84
ENDBRANCH  55  78
BRANCH  67  88
ATOM     88  C   UNL A   1      45.448  31.594  37.051  1.00  0.00    -0.014 A 
ATOM     89  C   UNL A   1      46.343  32.621  37.398  1.00  0.00     0.010 A 
ATOM     90  C   UNL A   1      45.787  30.258  37.329  1.00  0.00     0.010 A 
ATOM     91  C   UNL A   1      47.567  32.315  37.998  1.00  0.00     0.020 A 
ATOM     92  C   UNL A   1      47.005  29.950  37.941  1.00  0.00     0.020 A 
ATOM     93  C   UNL A   1      47.892  30.981  38.264  1.00  0.00     0.054 A 
BRANCH  93  94
ATOM     94  S   UNL A   1      49.457  30.604  39.098  1.00  0.00     0.124 S 
ATOM     95  O   UNL A   1      49.387  29.151  39.234  1.00  0.00    -0.237 OA
ATOM     96  O   UNL A   1      50.458  31.098  38.155  1.00  0.00    -0.237 OA
ATOM     97  O   UNL A   1      49.368  31.353  40.349  1.00  0.00    -0.744 OA
ENDBRANCH  93  94
ENDBRANCH  67  88
ENDBRANCH  41  42
ENDBRANCH  33  36
ENDBRANCH  31  32
ENDBRANCH  30  31
ENDBRANCH   1  30
TORSDOF 18
ENDMDL
MODEL 3
REMARK VINA RESULT:      -8.6      7.175     14.975
REMARK SMILES O=C(N/N=C/c1ccccc1O)C(=O)Nc1cccc(C(=O)NCCCNC(=O)c2ccc(-c3c4nc(c(-c5ccc(S(=O)(=O)[O-])cc5)c5ccc([nH]5)c(-c5ccc(S(=O)(=O)[O-])cc5)c5nc(c(-c6ccc(S(=O)(=O)[O-])cc6)c6ccc3[nH]6)C=C5)C=C4)cc2)c1
REMARK SMILES IDX 24 1 23 2 21 3 22 4 20 6 16 7 17 8 90 9 18 10 19 11 15 12
REMARK SMILES IDX 13 13 14 14 2 16 1 17 3 18 4 20 5 21 6 22 7 23 11 24 8 25
REMARK SMILES IDX 10 26 9 27 12 28 25 30 26 31 27 32 28 33 29 35 30 36 31 37
REMARK SMILES IDX 89 38 32 39 88 40 33 41 34 42 35 43 82 44 36 45 87 46 81 47
REMARK SMILES IDX 83 48 37 49 86 50 80 51 79 52 38 54 68 55 49 56 67 57 50 58
REMARK SMILES IDX 53 59 66 60 84 61 51 62 52 63 65 65 85 66 54 67 39 68 40 69
REMARK SMILES IDX 48 70 41 71 47 72 42 73 43 74 44 75 45 76 46 77 69 78 70 79
REMARK SMILES IDX 78 80 71 81 77 82 72 83 73 84 74 85 75 86 76 87 55 88 56 89
REMARK SMILES IDX 64 90 57 91 63 92 58 93 59 94 60 95 61 96 62 97
REMARK H PARENT 23 5 15 15 3 19 12 29 27 34 83 53 53 64
REMARK Flexibility Score: inf
ROOT
ATOM      1  C   UNL A   1      45.929  39.835  30.881  1.00  0.00     0.118 C 
ENDROOT
BRANCH   1   2
ATOM      2  N   UNL A   1      45.304  41.082  31.291  1.00  0.00    -0.352 N 
ATOM      3  C   UNL A   1      44.244  41.766  30.755  1.00  0.00     0.251 C 
ATOM      4  O   UNL A   1      43.715  42.672  31.404  1.00  0.00    -0.269 OA
ATOM      5  H   UNL A   1      45.708  41.503  32.084  1.00  0.00     0.163 HD
BRANCH   3   6
ATOM      6  C   UNL A   1      43.716  41.530  29.388  1.00  0.00     0.041 A 
ATOM      7  C   UNL A   1      43.908  41.681  26.238  1.00  0.00     0.042 A 
ATOM      8  C   UNL A   1      42.492  40.536  26.078  1.00  0.00     0.026 A 
ATOM      9  C   UNL A   1      44.480  42.234  27.872  1.00  0.00     0.040 A 
ATOM     10  C   UNL A   1      41.615  39.984  27.594  1.00  0.00     0.003 A 
ATOM     11  C   UNL A   1      42.254  40.453  29.228  1.00  0.00     0.014 A 
BRANCH   7  12
ATOM     12  N   UNL A   1      44.850  41.564  25.217  1.00  0.00    -0.318 N 
ATOM     13  C   UNL A   1      45.120  42.542  24.265  1.00  0.00     0.315 C 
ATOM     14  O   UNL A   1      46.222  42.498  23.710  1.00  0.00    -0.263 OA
ATOM     15  H   UNL A   1      45.364  40.726  25.166  1.00  0.00     0.170 HD
BRANCH  13  16
ATOM     16  C   UNL A   1      44.179  43.705  23.860  1.00  0.00     0.329 C 
ATOM     17  O   UNL A   1      44.415  44.831  24.298  1.00  0.00    -0.262 OA
ATOM     18  N   UNL A   1      42.984  43.483  23.164  1.00  0.00    -0.239 N 
ATOM     19  H   UNL A   1      42.107  43.617  23.589  1.00  0.00     0.194 HD
BRANCH  18  20
ATOM     20  N   UNL A   1      43.097  43.070  21.860  1.00  0.00    -0.180 NA
ATOM     21  C   UNL A   1      43.268  44.075  20.941  1.00  0.00     0.145 C 
BRANCH  21  22
ATOM     22  C   UNL A   1      42.649  44.519  18.950  1.00  0.00     0.036 A 
ATOM     23  C   UNL A   1      41.765  45.675  18.472  1.00  0.00     0.013 A 
ATOM     24  C   UNL A   1      42.952  43.919  17.577  1.00  0.00     0.124 A 
ATOM     25  C   UNL A   1      41.575  46.252  17.181  1.00  0.00     0.001 A 
ATOM     26  C   UNL A   1      42.827  44.522  16.275  1.00  0.00     0.047 A 
ATOM     27  C   UNL A   1      42.192  45.722  16.087  1.00  0.00     0.004 A 
BRANCH  24  28
ATOM     28  O   UNL A   1      43.207  42.567  17.322  1.00  0.00    -0.507 OA
ATOM     29  H   UNL A   1      42.561  42.041  16.893  1.00  0.00     0.293 HD
ENDBRANCH  24  28
ENDBRANCH  21  22
ENDBRANCH  18  20
ENDBRANCH  13  16
ENDBRANCH   7  12
ENDBRANCH   3   6
ENDBRANCH   1   2
BRANCH   1  30
ATOM     30  C   UNL A   1      45.353  38.608  31.576  1.00  0.00     0.042 C 
BRANCH  30  31
ATOM     31  C   UNL A   1      46.082  37.311  31.245  1.00  0.00     0.118 C 
BRANCH  31  32
ATOM     32  N   UNL A   1      47.373  37.544  30.607  1.00  0.00    -0.352 N 
ATOM     33  C   UNL A   1      48.190  36.689  29.907  1.00  0.00     0.251 C 
ATOM     34  H   UNL A   1      47.714  38.464  30.692  1.00  0.00     0.163 HD
ATOM     35  O   UNL A   1      49.328  37.049  29.615  1.00  0.00    -0.269 OA
BRANCH  33  36
ATOM     36  C   UNL A   1      47.720  35.344  29.509  1.00  0.00     0.039 A 
ATOM     37  C   UNL A   1      47.902  34.274  30.392  1.00  0.00     0.014 A 
ATOM     38  C   UNL A   1      47.149  35.122  28.254  1.00  0.00     0.014 A 
ATOM     39  C   UNL A   1      47.451  32.996  30.044  1.00  0.00     0.010 A 
ATOM     40  C   UNL A   1      46.641  33.865  27.934  1.00  0.00     0.010 A 
ATOM     41  C   UNL A   1      46.789  32.789  28.824  1.00  0.00    -0.014 A 
BRANCH  41  42
ATOM     42  C   UNL A   1      46.251  31.459  28.440  1.00  0.00     0.031 A 
ATOM     43  C   UNL A   1      44.813  31.123  28.725  1.00  0.00     0.074 A 
ATOM     44  C   UNL A   1      47.074  30.522  27.933  1.00  0.00     0.049 A 
ATOM     45  N   UNL A   1      44.199  29.972  28.625  1.00  0.00    -0.248 NA
ATOM     46  C   UNL A   1      43.964  32.220  29.217  1.00  0.00     0.031 C 
ATOM     47  C   UNL A   1      48.499  30.706  27.647  1.00  0.00     0.029 A 
ATOM     48  N   UNL A   1      46.832  29.215  27.592  1.00  0.00    -0.354 N 
ATOM     49  C   UNL A   1      42.907  30.193  29.088  1.00  0.00     0.074 A 
ATOM     50  C   UNL A   1      42.831  31.584  29.481  1.00  0.00     0.031 C 
ATOM     51  C   UNL A   1      49.002  29.556  27.169  1.00  0.00     0.029 A 
ATOM     52  C   UNL A   1      47.948  28.547  27.147  1.00  0.00     0.049 A 
ATOM     53  H   UNL A   1      45.944  28.796  27.659  1.00  0.00     0.167 HD
ATOM     54  C   UNL A   1      41.876  29.320  29.174  1.00  0.00     0.031 A 
ATOM     55  C   UNL A   1      48.111  27.262  26.780  1.00  0.00     0.031 A 
ATOM     56  C   UNL A   1      41.936  27.950  28.745  1.00  0.00     0.049 A 
ATOM     57  C   UNL A   1      46.939  26.325  26.830  1.00  0.00     0.074 A 
ATOM     58  C   UNL A   1      40.925  27.004  28.731  1.00  0.00     0.029 A 
ATOM     59  N   UNL A   1      43.070  27.331  28.242  1.00  0.00    -0.354 N 
ATOM     60  N   UNL A   1      45.716  26.560  27.239  1.00  0.00    -0.248 NA
ATOM     61  C   UNL A   1      47.168  24.949  26.365  1.00  0.00     0.031 C 
ATOM     62  C   UNL A   1      41.454  25.807  28.234  1.00  0.00     0.029 A 
ATOM     63  C   UNL A   1      42.787  26.016  27.919  1.00  0.00     0.049 A 
ATOM     64  H   UNL A   1      43.946  27.765  28.130  1.00  0.00     0.167 HD
ATOM     65  C   UNL A   1      45.027  25.365  27.076  1.00  0.00     0.074 A 
ATOM     66  C   UNL A   1      45.964  24.411  26.517  1.00  0.00     0.031 C 
ATOM     67  C   UNL A   1      43.733  25.083  27.364  1.00  0.00     0.031 A 
BRANCH  54  68
ATOM     68  C   UNL A   1      40.596  29.834  29.774  1.00  0.00    -0.014 A 
ATOM     69  C   UNL A   1      40.407  29.859  31.167  1.00  0.00     0.010 A 
ATOM     70  C   UNL A   1      39.566  30.286  28.930  1.00  0.00     0.010 A 
ATOM     71  C   UNL A   1      39.186  30.274  31.705  1.00  0.00     0.020 A 
ATOM     72  C   UNL A   1      38.351  30.721  29.467  1.00  0.00     0.020 A 
ATOM     73  C   UNL A   1      38.160  30.687  30.851  1.00  0.00     0.054 A 
BRANCH  73  74
ATOM     74  S   UNL A   1      36.574  31.206  31.563  1.00  0.00     0.124 S 
ATOM     75  O   UNL A   1      36.957  32.408  32.300  1.00  0.00    -0.237 OA
ATOM     76  O   UNL A   1      35.743  31.433  30.382  1.00  0.00    -0.237 OA
ATOM     77  O   UNL A   1      36.180  30.066  32.387  1.00  0.00    -0.744 OA
ENDBRANCH  73  74
ENDBRANCH  54  68
BRANCH  55  78
ATOM     78  C   UNL A   1      49.445  26.793  26.326  1.00  0.00    -0.014 A 
ATOM     79  C   UNL A   1      50.189  25.904  27.120  1.00  0.00     0.010 A 
ATOM     80  C   UNL A   1      49.955  27.198  25.080  1.00  0.00     0.010 A 
ATOM     81  C   UNL A   1      51.426  25.428  26.676  1.00  0.00     0.020 A 
ATOM     82  C   UNL A   1      51.185  26.713  24.627  1.00  0.00     0.020 A 
ATOM     83  C   UNL A   1      51.916  25.835  25.432  1.00  0.00     0.054 A 
BRANCH  83  84
ATOM     84  S   UNL A   1      53.488  25.150  24.834  1.00  0.00     0.124 S 
ATOM     85  O   UNL A   1      53.386  25.371  23.396  1.00  0.00    -0.237 OA
ATOM     86  O   UNL A   1      54.481  25.965  25.530  1.00  0.00    -0.237 OA
ATOM     87  O   UNL A   1      53.431  23.755  25.262  1.00  0.00    -0.744 OA
ENDBRANCH  83  84
ENDBRANCH  55  78
BRANCH  67  88
ATOM     88  C   UNL A   1      43.252  23.692  27.069  1.00  0.00    -0.014 A 
ATOM     89  C   UNL A   1      43.023  23.278  25.746  1.00  0.00     0.010 A 
ATOM     90  C   UNL A   1      43.086  22.773  28.121  1.00  0.00     0.010 A 
ATOM     91  C   UNL A   1      42.619  21.967  25.479  1.00  0.00     0.020 A 
ATOM     92  C   UNL A   1      42.695  21.458  27.855  1.00  0.00     0.020 A 
ATOM     93  C   UNL A   1      42.455  21.066  26.536  1.00  0.00     0.054 A 
BRANCH  93  94
ATOM     94  S   UNL A   1      41.988  19.352  26.168  1.00  0.00     0.124 S 
ATOM     95  O   UNL A   1      42.415  18.656  27.379  1.00  0.00    -0.237 OA
ATOM     96  O   UNL A   1      40.543  19.441  25.972  1.00  0.00    -0.237 OA
ATOM     97  O   UNL A   1      42.754  19.039  24.964  1.00  0.00    -0.744 OA
ENDBRANCH  93  94
ENDBRANCH  67  88
ENDBRANCH  41  42
ENDBRANCH  33  36
ENDBRANCH  31  32
ENDBRANCH  30  31
ENDBRANCH   1  30
TORSDOF 18
ENDMDL
