MODEL 1
REMARK VINA RESULT:     -13.1      0.000      0.000
REMARK SMILES COc1ccc2c(c1)c(CC(=O)NCCCNC(=O)c1ccc(-c3c4nc(c(-c5ccc(S(=O)(=O)[O-])cc5)c5ccc([nH]5)c(-c5ccc(S(=O)(=O)[O-])cc5)c5nc(c(-c6ccc(S(=O)(=O)[O-])cc6)c6ccc3[nH]6)C=C5)C=C4)cc1)c(C(F)(F)F)n2C(=O)c1ccc(Cl)cc1
REMARK SMILES IDX 15 1 14 2 13 3 11 4 12 5 10 7 9 8 3 9 4 10 8 11 5 12 7 13
REMARK SMILES IDX 6 14 85 15 80 16 2 17 1 18 86 19 87 20 88 21 89 22 94 23
REMARK SMILES IDX 90 24 93 25 91 26 92 27 81 28 82 29 83 30 84 31 16 32 17 33
REMARK SMILES IDX 18 34 19 36 20 37 21 38 79 39 22 40 78 41 23 42 24 43 25 44
REMARK SMILES IDX 72 45 26 46 77 47 71 48 73 49 27 50 76 51 70 52 69 53 28 55
REMARK SMILES IDX 58 56 39 57 57 58 40 59 43 60 56 61 74 62 41 63 42 64 55 66
REMARK SMILES IDX 75 67 44 68 29 69 30 70 38 71 31 72 37 73 32 74 33 75 34 76
REMARK SMILES IDX 35 77 36 78 59 79 60 80 68 81 61 82 67 83 62 84 63 85 64 86
REMARK SMILES IDX 65 87 66 88 45 89 46 90 54 91 47 92 53 93 48 94 49 95 50 96
REMARK SMILES IDX 51 97 52 98
REMARK H PARENT 13 6 17 35 73 54 43 65
REMARK Flexibility Score: inf
ROOT
ATOM      1  C   UNL A   1      32.073  29.334  26.487  1.00  0.00     0.042 C 
ENDROOT
BRANCH   1   2
ATOM      2  C   UNL A   1      32.195  28.134  27.428  1.00  0.00     0.117 C 
BRANCH   2   3
ATOM      3  N   UNL A   1      31.352  27.015  27.038  1.00  0.00    -0.356 N 
ATOM      4  C   UNL A   1      31.714  25.765  26.619  1.00  0.00     0.224 C 
ATOM      5  O   UNL A   1      30.823  24.940  26.407  1.00  0.00    -0.275 OA
ATOM      6  H   UNL A   1      30.383  27.181  27.082  1.00  0.00     0.163 HD
BRANCH   4   7
ATOM      7  C   UNL A   1      33.182  25.400  26.463  1.00  0.00     0.138 C 
BRANCH   7   8
ATOM      8  C   UNL A   1      33.404  24.185  25.605  1.00  0.00     0.000 A 
ATOM      9  C   UNL A   1      32.752  24.675  21.873  1.00  0.00     0.119 A 
ATOM     10  C   UNL A   1      32.990  23.359  21.508  1.00  0.00     0.048 A 
ATOM     11  C   UNL A   1      32.884  25.056  23.209  1.00  0.00     0.057 A 
ATOM     12  C   UNL A   1      33.355  22.403  22.463  1.00  0.00     0.031 A 
ATOM     13  C   UNL A   1      33.256  24.111  24.192  1.00  0.00     0.008 A 
ATOM     14  C   UNL A   1      33.526  22.794  23.805  1.00  0.00     0.057 A 
ATOM     15  N   UNL A   1      34.018  22.120  24.934  1.00  0.00    -0.271 N 
ATOM     16  C   UNL A   1      33.701  22.900  26.046  1.00  0.00     0.135 A 
BRANCH   9  17
ATOM     17  O   UNL A   1      32.410  25.680  21.009  1.00  0.00    -0.497 OA
ATOM     18  C   UNL A   1      32.585  25.380  19.630  1.00  0.00     0.278 C 
ENDBRANCH   9  17
BRANCH  15  19
ATOM     19  C   UNL A   1      34.771  20.915  24.953  1.00  0.00     0.262 C 
ATOM     20  O   UNL A   1      35.996  21.023  24.984  1.00  0.00    -0.268 OA
BRANCH  19  21
ATOM     21  C   UNL A   1      34.202  19.562  24.850  1.00  0.00     0.040 A 
ATOM     22  C   UNL A   1      32.857  19.343  25.172  1.00  0.00     0.015 A 
ATOM     23  C   UNL A   1      35.037  18.495  24.503  1.00  0.00     0.015 A 
ATOM     24  C   UNL A   1      32.372  18.036  25.235  1.00  0.00     0.021 A 
ATOM     25  C   UNL A   1      34.542  17.190  24.558  1.00  0.00     0.021 A 
ATOM     26  C   UNL A   1      33.220  16.964  24.947  1.00  0.00     0.041 A 
ATOM     27  Cl  UNL A   1      32.641  15.353  25.117  1.00  0.00    -0.084 Cl
ENDBRANCH  19  21
ENDBRANCH  15  19
BRANCH  16  28
ATOM     28  C   UNL A   1      33.745  22.380  27.445  1.00  0.00     0.432 C 
ATOM     29  F   UNL A   1      32.521  22.374  28.022  1.00  0.00    -0.165 F 
ATOM     30  F   UNL A   1      34.155  21.078  27.431  1.00  0.00    -0.165 F 
ATOM     31  F   UNL A   1      34.622  23.014  28.252  1.00  0.00    -0.165 F 
ENDBRANCH  16  28
ENDBRANCH   7   8
ENDBRANCH   4   7
ENDBRANCH   2   3
ENDBRANCH   1   2
BRANCH   1  32
ATOM     32  C   UNL A   1      33.335  30.191  26.395  1.00  0.00     0.118 C 
BRANCH  32  33
ATOM     33  N   UNL A   1      33.488  31.152  27.471  1.00  0.00    -0.352 N 
ATOM     34  C   UNL A   1      34.499  31.550  28.299  1.00  0.00     0.251 C 
ATOM     35  H   UNL A   1      32.652  31.640  27.649  1.00  0.00     0.163 HD
ATOM     36  O   UNL A   1      34.235  32.522  29.015  1.00  0.00    -0.269 OA
BRANCH  34  37
ATOM     37  C   UNL A   1      35.834  30.900  28.442  1.00  0.00     0.039 A 
ATOM     38  C   UNL A   1      36.121  29.551  28.242  1.00  0.00     0.014 A 
ATOM     39  C   UNL A   1      36.885  31.751  28.848  1.00  0.00     0.014 A 
ATOM     40  C   UNL A   1      37.406  29.059  28.498  1.00  0.00     0.010 A 
ATOM     41  C   UNL A   1      38.166  31.268  29.101  1.00  0.00     0.010 A 
ATOM     42  C   UNL A   1      38.423  29.910  28.954  1.00  0.00    -0.014 A 
BRANCH  42  43
ATOM     43  C   UNL A   1      39.782  29.374  29.092  1.00  0.00     0.031 A 
ATOM     44  C   UNL A   1      40.176  29.072  30.497  1.00  0.00     0.074 A 
ATOM     45  C   UNL A   1      40.602  29.035  28.074  1.00  0.00     0.049 A 
ATOM     46  N   UNL A   1      41.086  29.655  31.205  1.00  0.00    -0.248 NA
ATOM     47  C   UNL A   1      39.372  28.093  31.245  1.00  0.00     0.031 C 
ATOM     48  C   UNL A   1      40.278  28.979  26.646  1.00  0.00     0.029 A 
ATOM     49  N   UNL A   1      41.889  28.570  28.112  1.00  0.00    -0.354 N 
ATOM     50  C   UNL A   1      41.114  28.984  32.425  1.00  0.00     0.074 A 
ATOM     51  C   UNL A   1      39.942  28.147  32.450  1.00  0.00     0.031 C 
ATOM     52  C   UNL A   1      41.250  28.302  25.990  1.00  0.00     0.029 A 
ATOM     53  C   UNL A   1      42.333  28.013  26.915  1.00  0.00     0.049 A 
ATOM     54  H   UNL A   1      42.453  28.627  28.917  1.00  0.00     0.167 HD
ATOM     55  C   UNL A   1      42.212  29.013  33.230  1.00  0.00     0.031 A 
ATOM     56  C   UNL A   1      43.488  27.328  26.706  1.00  0.00     0.031 A 
ATOM     57  C   UNL A   1      43.127  30.051  32.834  1.00  0.00     0.049 A 
ATOM     58  C   UNL A   1      44.432  27.711  27.777  1.00  0.00     0.074 A 
ATOM     59  C   UNL A   1      43.087  31.427  32.782  1.00  0.00     0.029 A 
ATOM     60  N   UNL A   1      44.182  29.650  32.054  1.00  0.00    -0.354 N 
ATOM     61  N   UNL A   1      44.962  28.895  27.893  1.00  0.00    -0.248 NA
ATOM     62  C   UNL A   1      44.545  26.855  28.947  1.00  0.00     0.031 C 
ATOM     63  C   UNL A   1      43.882  31.780  31.657  1.00  0.00     0.029 A 
ATOM     64  C   UNL A   1      44.429  30.614  31.115  1.00  0.00     0.049 A 
ATOM     65  H   UNL A   1      44.681  28.807  32.154  1.00  0.00     0.167 HD
ATOM     66  C   UNL A   1      45.074  29.091  29.258  1.00  0.00     0.074 A 
ATOM     67  C   UNL A   1      44.939  27.761  29.843  1.00  0.00     0.031 C 
ATOM     68  C   UNL A   1      44.977  30.340  29.798  1.00  0.00     0.031 A 
BRANCH  55  69
ATOM     69  C   UNL A   1      42.653  27.875  34.124  1.00  0.00    -0.014 A 
ATOM     70  C   UNL A   1      43.179  26.663  33.638  1.00  0.00     0.010 A 
ATOM     71  C   UNL A   1      42.794  28.115  35.511  1.00  0.00     0.010 A 
ATOM     72  C   UNL A   1      43.805  25.736  34.477  1.00  0.00     0.020 A 
ATOM     73  C   UNL A   1      43.459  27.214  36.354  1.00  0.00     0.020 A 
ATOM     74  C   UNL A   1      43.953  26.022  35.829  1.00  0.00     0.054 A 
BRANCH  74  75
ATOM     75  S   UNL A   1      44.846  24.836  36.862  1.00  0.00     0.124 S 
ATOM     76  O   UNL A   1      44.506  23.569  36.221  1.00  0.00    -0.237 OA
ATOM     77  O   UNL A   1      46.232  25.269  36.707  1.00  0.00    -0.237 OA
ATOM     78  O   UNL A   1      44.274  25.038  38.190  1.00  0.00    -0.744 OA
ENDBRANCH  74  75
ENDBRANCH  55  69
BRANCH  56  79
ATOM     79  C   UNL A   1      43.718  26.116  25.873  1.00  0.00    -0.014 A 
ATOM     80  C   UNL A   1      42.751  25.095  25.841  1.00  0.00     0.010 A 
ATOM     81  C   UNL A   1      45.013  25.808  25.402  1.00  0.00     0.010 A 
ATOM     82  C   UNL A   1      43.085  23.789  25.460  1.00  0.00     0.020 A 
ATOM     83  C   UNL A   1      45.357  24.499  25.022  1.00  0.00     0.020 A 
ATOM     84  C   UNL A   1      44.398  23.489  25.098  1.00  0.00     0.054 A 
BRANCH  84  85
ATOM     85  S   UNL A   1      44.842  21.745  24.841  1.00  0.00     0.124 S 
ATOM     86  O   UNL A   1      43.889  21.059  25.709  1.00  0.00    -0.237 OA
ATOM     87  O   UNL A   1      44.621  21.571  23.408  1.00  0.00    -0.237 OA
ATOM     88  O   UNL A   1      46.238  21.675  25.265  1.00  0.00    -0.744 OA
ENDBRANCH  84  85
ENDBRANCH  56  79
BRANCH  68  89
ATOM     89  C   UNL A   1      45.225  31.549  28.925  1.00  0.00    -0.014 A 
ATOM     90  C   UNL A   1      44.188  31.895  28.036  1.00  0.00     0.010 A 
ATOM     91  C   UNL A   1      46.457  32.220  28.812  1.00  0.00     0.010 A 
ATOM     92  C   UNL A   1      44.385  32.836  27.029  1.00  0.00     0.020 A 
ATOM     93  C   UNL A   1      46.650  33.195  27.818  1.00  0.00     0.020 A 
ATOM     94  C   UNL A   1      45.620  33.472  26.915  1.00  0.00     0.054 A 
BRANCH  94  95
ATOM     95  S   UNL A   1      45.842  34.644  25.549  1.00  0.00     0.124 S 
ATOM     96  O   UNL A   1      45.544  35.926  26.187  1.00  0.00    -0.237 OA
ATOM     97  O   UNL A   1      47.244  34.448  25.181  1.00  0.00    -0.237 OA
ATOM     98  O   UNL A   1      44.875  34.209  24.545  1.00  0.00    -0.744 OA
ENDBRANCH  94  95
ENDBRANCH  68  89
ENDBRANCH  42  43
ENDBRANCH  34  37
ENDBRANCH  32  33
ENDBRANCH   1  32
TORSDOF 18
ENDMDL
MODEL 2
REMARK VINA RESULT:     -13.0      3.614      7.970
REMARK SMILES COc1ccc2c(c1)c(CC(=O)NCCCNC(=O)c1ccc(-c3c4nc(c(-c5ccc(S(=O)(=O)[O-])cc5)c5ccc([nH]5)c(-c5ccc(S(=O)(=O)[O-])cc5)c5nc(c(-c6ccc(S(=O)(=O)[O-])cc6)c6ccc3[nH]6)C=C5)C=C4)cc1)c(C(F)(F)F)n2C(=O)c1ccc(Cl)cc1
REMARK SMILES IDX 15 1 14 2 13 3 11 4 12 5 10 7 9 8 3 9 4 10 8 11 5 12 7 13
REMARK SMILES IDX 6 14 85 15 80 16 2 17 1 18 86 19 87 20 88 21 89 22 94 23
REMARK SMILES IDX 90 24 93 25 91 26 92 27 81 28 82 29 83 30 84 31 16 32 17 33
REMARK SMILES IDX 18 34 19 36 20 37 21 38 79 39 22 40 78 41 23 42 24 43 25 44
REMARK SMILES IDX 72 45 26 46 77 47 71 48 73 49 27 50 76 51 70 52 69 53 28 55
REMARK SMILES IDX 58 56 39 57 57 58 40 59 43 60 56 61 74 62 41 63 42 64 55 66
REMARK SMILES IDX 75 67 44 68 29 69 30 70 38 71 31 72 37 73 32 74 33 75 34 76
REMARK SMILES IDX 35 77 36 78 59 79 60 80 68 81 61 82 67 83 62 84 63 85 64 86
REMARK SMILES IDX 65 87 66 88 45 89 46 90 54 91 47 92 53 93 48 94 49 95 50 96
REMARK SMILES IDX 51 97 52 98
REMARK H PARENT 13 6 17 35 73 54 43 65
REMARK Flexibility Score: inf
ROOT
ATOM      1  C   UNL A   1      31.079  27.242  26.409  1.00  0.00     0.042 C 
ENDROOT
BRANCH   1   2
ATOM      2  C   UNL A   1      30.482  26.186  25.477  1.00  0.00     0.117 C 
BRANCH   2   3
ATOM      3  N   UNL A   1      30.306  24.893  26.119  1.00  0.00    -0.356 N 
ATOM      4  C   UNL A   1      30.722  23.659  25.705  1.00  0.00     0.224 C 
ATOM      5  O   UNL A   1      30.526  22.696  26.450  1.00  0.00    -0.275 OA
ATOM      6  H   UNL A   1      29.818  24.909  26.974  1.00  0.00     0.163 HD
BRANCH   4   7
ATOM      7  C   UNL A   1      31.444  23.495  24.376  1.00  0.00     0.138 C 
BRANCH   7   8
ATOM      8  C   UNL A   1      32.801  22.863  24.512  1.00  0.00     0.000 A 
ATOM      9  C   UNL A   1      32.831  19.044  24.583  1.00  0.00     0.119 A 
ATOM     10  C   UNL A   1      34.195  18.911  24.787  1.00  0.00     0.048 A 
ATOM     11  C   UNL A   1      32.272  20.317  24.457  1.00  0.00     0.057 A 
ATOM     12  C   UNL A   1      35.022  20.037  24.876  1.00  0.00     0.031 A 
ATOM     13  C   UNL A   1      33.086  21.470  24.538  1.00  0.00     0.008 A 
ATOM     14  C   UNL A   1      34.465  21.320  24.711  1.00  0.00     0.057 A 
ATOM     15  N   UNL A   1      35.041  22.596  24.599  1.00  0.00    -0.271 N 
ATOM     16  C   UNL A   1      34.006  23.523  24.729  1.00  0.00     0.135 A 
BRANCH   9  17
ATOM     17  O   UNL A   1      31.949  18.004  24.465  1.00  0.00    -0.497 OA
ATOM     18  C   UNL A   1      32.421  16.751  24.945  1.00  0.00     0.278 C 
ENDBRANCH   9  17
BRANCH  15  19
ATOM     19  C   UNL A   1      36.400  22.903  24.323  1.00  0.00     0.262 C 
ATOM     20  O   UNL A   1      36.667  23.279  23.182  1.00  0.00    -0.268 OA
BRANCH  19  21
ATOM     21  C   UNL A   1      37.515  22.721  25.264  1.00  0.00     0.040 A 
ATOM     22  C   UNL A   1      37.977  23.807  26.019  1.00  0.00     0.015 A 
ATOM     23  C   UNL A   1      38.153  21.478  25.337  1.00  0.00     0.015 A 
ATOM     24  C   UNL A   1      39.140  23.668  26.779  1.00  0.00     0.021 A 
ATOM     25  C   UNL A   1      39.310  21.344  26.108  1.00  0.00     0.021 A 
ATOM     26  C   UNL A   1      39.812  22.444  26.806  1.00  0.00     0.041 A 
ATOM     27  Cl  UNL A   1      41.293  22.306  27.671  1.00  0.00    -0.084 Cl
ENDBRANCH  19  21
ENDBRANCH  15  19
BRANCH  16  28
ATOM     28  C   UNL A   1      34.241  24.971  25.008  1.00  0.00     0.432 C 
ATOM     29  F   UNL A   1      33.523  25.406  26.069  1.00  0.00    -0.165 F 
ATOM     30  F   UNL A   1      35.551  25.161  25.343  1.00  0.00    -0.165 F 
ATOM     31  F   UNL A   1      34.028  25.787  23.953  1.00  0.00    -0.165 F 
ENDBRANCH  16  28
ENDBRANCH   7   8
ENDBRANCH   4   7
ENDBRANCH   2   3
ENDBRANCH   1   2
BRANCH   1  32
ATOM     32  C   UNL A   1      31.893  28.322  25.696  1.00  0.00     0.118 C 
BRANCH  32  33
ATOM     33  N   UNL A   1      31.540  29.680  26.062  1.00  0.00    -0.352 N 
ATOM     34  C   UNL A   1      32.195  30.765  26.572  1.00  0.00     0.251 C 
ATOM     35  H   UNL A   1      30.587  29.868  25.900  1.00  0.00     0.163 HD
ATOM     36  O   UNL A   1      31.529  31.805  26.613  1.00  0.00    -0.269 OA
BRANCH  34  37
ATOM     37  C   UNL A   1      33.585  30.786  27.112  1.00  0.00     0.039 A 
ATOM     38  C   UNL A   1      34.423  29.684  27.281  1.00  0.00     0.014 A 
ATOM     39  C   UNL A   1      34.065  32.053  27.508  1.00  0.00     0.014 A 
ATOM     40  C   UNL A   1      35.676  29.839  27.883  1.00  0.00     0.010 A 
ATOM     41  C   UNL A   1      35.312  32.213  28.105  1.00  0.00     0.010 A 
ATOM     42  C   UNL A   1      36.113  31.098  28.321  1.00  0.00    -0.014 A 
BRANCH  42  43
ATOM     43  C   UNL A   1      37.480  31.230  28.835  1.00  0.00     0.031 A 
ATOM     44  C   UNL A   1      38.304  29.996  28.694  1.00  0.00     0.074 A 
ATOM     45  C   UNL A   1      38.047  32.372  29.282  1.00  0.00     0.049 A 
ATOM     46  N   UNL A   1      38.770  29.246  29.637  1.00  0.00    -0.248 NA
ATOM     47  C   UNL A   1      38.524  29.462  27.341  1.00  0.00     0.031 C 
ATOM     48  C   UNL A   1      37.497  33.728  29.215  1.00  0.00     0.029 A 
ATOM     49  N   UNL A   1      39.292  32.574  29.812  1.00  0.00    -0.354 N 
ATOM     50  C   UNL A   1      39.516  28.253  29.007  1.00  0.00     0.074 A 
ATOM     51  C   UNL A   1      39.201  28.343  27.605  1.00  0.00     0.031 C 
ATOM     52  C   UNL A   1      38.478  34.625  29.471  1.00  0.00     0.029 A 
ATOM     53  C   UNL A   1      39.680  33.911  29.870  1.00  0.00     0.049 A 
ATOM     54  H   UNL A   1      39.865  31.838  30.127  1.00  0.00     0.167 HD
ATOM     55  C   UNL A   1      40.496  27.573  29.663  1.00  0.00     0.031 A 
ATOM     56  C   UNL A   1      40.909  34.397  30.186  1.00  0.00     0.031 A 
ATOM     57  C   UNL A   1      40.405  27.762  31.086  1.00  0.00     0.049 A 
ATOM     58  C   UNL A   1      41.616  33.354  30.958  1.00  0.00     0.074 A 
ATOM     59  C   UNL A   1      39.485  27.445  32.062  1.00  0.00     0.029 A 
ATOM     60  N   UNL A   1      41.241  28.713  31.617  1.00  0.00    -0.354 N 
ATOM     61  N   UNL A   1      41.275  32.978  32.158  1.00  0.00    -0.248 NA
ATOM     62  C   UNL A   1      42.530  32.466  30.258  1.00  0.00     0.031 C 
ATOM     63  C   UNL A   1      39.566  28.505  33.007  1.00  0.00     0.029 A 
ATOM     64  C   UNL A   1      40.576  29.383  32.607  1.00  0.00     0.049 A 
ATOM     65  H   UNL A   1      42.167  28.885  31.331  1.00  0.00     0.167 HD
ATOM     66  C   UNL A   1      41.565  31.626  32.192  1.00  0.00     0.074 A 
ATOM     67  C   UNL A   1      42.458  31.403  31.060  1.00  0.00     0.031 C 
ATOM     68  C   UNL A   1      40.829  30.769  32.957  1.00  0.00     0.031 A 
BRANCH  55  69
ATOM     69  C   UNL A   1      41.763  27.054  29.018  1.00  0.00    -0.014 A 
ATOM     70  C   UNL A   1      41.916  25.733  28.555  1.00  0.00     0.010 A 
ATOM     71  C   UNL A   1      42.753  27.983  28.621  1.00  0.00     0.010 A 
ATOM     72  C   UNL A   1      42.990  25.350  27.747  1.00  0.00     0.020 A 
ATOM     73  C   UNL A   1      43.810  27.620  27.774  1.00  0.00     0.020 A 
ATOM     74  C   UNL A   1      43.925  26.299  27.350  1.00  0.00     0.054 A 
BRANCH  74  75
ATOM     75  S   UNL A   1      45.249  25.779  26.233  1.00  0.00     0.124 S 
ATOM     76  O   UNL A   1      44.500  25.100  25.179  1.00  0.00    -0.237 OA
ATOM     77  O   UNL A   1      45.855  27.053  25.854  1.00  0.00    -0.237 OA
ATOM     78  O   UNL A   1      46.081  24.915  27.065  1.00  0.00    -0.744 OA
ENDBRANCH  74  75
ENDBRANCH  55  69
BRANCH  56  79
ATOM     79  C   UNL A   1      41.646  35.538  29.577  1.00  0.00    -0.014 A 
ATOM     80  C   UNL A   1      41.578  35.755  28.189  1.00  0.00     0.010 A 
ATOM     81  C   UNL A   1      42.679  36.184  30.292  1.00  0.00     0.010 A 
ATOM     82  C   UNL A   1      42.560  36.496  27.519  1.00  0.00     0.020 A 
ATOM     83  C   UNL A   1      43.671  36.925  29.626  1.00  0.00     0.020 A 
ATOM     84  C   UNL A   1      43.627  37.036  28.236  1.00  0.00     0.054 A 
BRANCH  84  85
ATOM     85  S   UNL A   1      44.999  37.783  27.305  1.00  0.00     0.124 S 
ATOM     86  O   UNL A   1      45.481  36.652  26.518  1.00  0.00    -0.237 OA
ATOM     87  O   UNL A   1      44.329  38.834  26.545  1.00  0.00    -0.237 OA
ATOM     88  O   UNL A   1      45.909  38.254  28.346  1.00  0.00    -0.744 OA
ENDBRANCH  84  85
ENDBRANCH  56  79
BRANCH  68  89
ATOM     89  C   UNL A   1      40.025  31.312  34.117  1.00  0.00    -0.014 A 
ATOM     90  C   UNL A   1      40.695  31.388  35.354  1.00  0.00     0.010 A 
ATOM     91  C   UNL A   1      38.641  31.564  34.087  1.00  0.00     0.010 A 
ATOM     92  C   UNL A   1      40.004  31.649  36.534  1.00  0.00     0.020 A 
ATOM     93  C   UNL A   1      37.944  31.862  35.271  1.00  0.00     0.020 A 
ATOM     94  C   UNL A   1      38.628  31.871  36.490  1.00  0.00     0.054 A 
BRANCH  94  95
ATOM     95  S   UNL A   1      37.767  32.147  38.061  1.00  0.00     0.124 S 
ATOM     96  O   UNL A   1      36.797  33.183  37.707  1.00  0.00    -0.237 OA
ATOM     97  O   UNL A   1      37.192  30.834  38.349  1.00  0.00    -0.237 OA
ATOM     98  O   UNL A   1      38.823  32.571  38.977  1.00  0.00    -0.744 OA
ENDBRANCH  94  95
ENDBRANCH  68  89
ENDBRANCH  42  43
ENDBRANCH  34  37
ENDBRANCH  32  33
ENDBRANCH   1  32
TORSDOF 18
ENDMDL
MODEL 3
REMARK VINA RESULT:     -12.9      1.536      2.373
REMARK SMILES COc1ccc2c(c1)c(CC(=O)NCCCNC(=O)c1ccc(-c3c4nc(c(-c5ccc(S(=O)(=O)[O-])cc5)c5ccc([nH]5)c(-c5ccc(S(=O)(=O)[O-])cc5)c5nc(c(-c6ccc(S(=O)(=O)[O-])cc6)c6ccc3[nH]6)C=C5)C=C4)cc1)c(C(F)(F)F)n2C(=O)c1ccc(Cl)cc1
REMARK SMILES IDX 15 1 14 2 13 3 11 4 12 5 10 7 9 8 3 9 4 10 8 11 5 12 7 13
REMARK SMILES IDX 6 14 85 15 80 16 2 17 1 18 86 19 87 20 88 21 89 22 94 23
REMARK SMILES IDX 90 24 93 25 91 26 92 27 81 28 82 29 83 30 84 31 16 32 17 33
REMARK SMILES IDX 18 34 19 36 20 37 21 38 79 39 22 40 78 41 23 42 24 43 25 44
REMARK SMILES IDX 72 45 26 46 77 47 71 48 73 49 27 50 76 51 70 52 69 53 28 55
REMARK SMILES IDX 58 56 39 57 57 58 40 59 43 60 56 61 74 62 41 63 42 64 55 66
REMARK SMILES IDX 75 67 44 68 29 69 30 70 38 71 31 72 37 73 32 74 33 75 34 76
REMARK SMILES IDX 35 77 36 78 59 79 60 80 68 81 61 82 67 83 62 84 63 85 64 86
REMARK SMILES IDX 65 87 66 88 45 89 46 90 54 91 47 92 53 93 48 94 49 95 50 96
REMARK SMILES IDX 51 97 52 98
REMARK H PARENT 13 6 17 35 73 54 43 65
REMARK Flexibility Score: inf
ROOT
ATOM      1  C   UNL A   1      31.995  29.735  27.289  1.00  0.00     0.042 C 
ENDROOT
BRANCH   1   2
ATOM      2  C   UNL A   1      32.020  28.281  26.815  1.00  0.00     0.117 C 
BRANCH   2   3
ATOM      3  N   UNL A   1      32.857  28.078  25.643  1.00  0.00    -0.356 N 
ATOM      4  C   UNL A   1      33.441  26.930  25.186  1.00  0.00     0.224 C 
ATOM      5  O   UNL A   1      34.057  26.973  24.118  1.00  0.00    -0.275 OA
ATOM      6  H   UNL A   1      33.026  28.882  25.101  1.00  0.00     0.163 HD
BRANCH   4   7
ATOM      7  C   UNL A   1      33.295  25.630  25.962  1.00  0.00     0.138 C 
BRANCH   7   8
ATOM      8  C   UNL A   1      33.648  24.413  25.153  1.00  0.00     0.000 A 
ATOM      9  C   UNL A   1      37.245  23.184  25.527  1.00  0.00     0.119 A 
ATOM     10  C   UNL A   1      37.147  22.158  24.600  1.00  0.00     0.048 A 
ATOM     11  C   UNL A   1      36.130  23.978  25.798  1.00  0.00     0.057 A 
ATOM     12  C   UNL A   1      35.946  21.911  23.925  1.00  0.00     0.031 A 
ATOM     13  C   UNL A   1      34.904  23.746  25.134  1.00  0.00     0.008 A 
ATOM     14  C   UNL A   1      34.810  22.687  24.225  1.00  0.00     0.057 A 
ATOM     15  N   UNL A   1      33.463  22.587  23.839  1.00  0.00    -0.271 N 
ATOM     16  C   UNL A   1      32.842  23.778  24.213  1.00  0.00     0.135 A 
BRANCH   9  17
ATOM     17  O   UNL A   1      38.369  23.487  26.247  1.00  0.00    -0.497 OA
ATOM     18  C   UNL A   1      39.318  22.434  26.361  1.00  0.00     0.278 C 
ENDBRANCH   9  17
BRANCH  15  19
ATOM     19  C   UNL A   1      32.820  21.463  23.255  1.00  0.00     0.262 C 
ATOM     20  O   UNL A   1      32.302  21.628  22.150  1.00  0.00    -0.268 OA
BRANCH  19  21
ATOM     21  C   UNL A   1      32.652  20.154  23.904  1.00  0.00     0.040 A 
ATOM     22  C   UNL A   1      32.842  20.030  25.286  1.00  0.00     0.015 A 
ATOM     23  C   UNL A   1      32.378  19.031  23.117  1.00  0.00     0.015 A 
ATOM     24  C   UNL A   1      32.849  18.760  25.866  1.00  0.00     0.021 A 
ATOM     25  C   UNL A   1      32.375  17.764  23.706  1.00  0.00     0.021 A 
ATOM     26  C   UNL A   1      32.635  17.632  25.071  1.00  0.00     0.041 A 
ATOM     27  Cl  UNL A   1      32.735  16.065  25.776  1.00  0.00    -0.084 Cl
ENDBRANCH  19  21
ENDBRANCH  15  19
BRANCH  16  28
ATOM     28  C   UNL A   1      31.513  24.204  23.684  1.00  0.00     0.432 C 
ATOM     29  F   UNL A   1      31.058  25.323  24.295  1.00  0.00    -0.165 F 
ATOM     30  F   UNL A   1      31.634  24.526  22.362  1.00  0.00    -0.165 F 
ATOM     31  F   UNL A   1      30.560  23.249  23.724  1.00  0.00    -0.165 F 
ENDBRANCH  16  28
ENDBRANCH   7   8
ENDBRANCH   4   7
ENDBRANCH   2   3
ENDBRANCH   1   2
BRANCH   1  32
ATOM     32  C   UNL A   1      33.301  30.495  27.053  1.00  0.00     0.118 C 
BRANCH  32  33
ATOM     33  N   UNL A   1      33.593  31.509  28.049  1.00  0.00    -0.352 N 
ATOM     34  C   UNL A   1      34.691  31.902  28.760  1.00  0.00     0.251 C 
ATOM     35  H   UNL A   1      32.800  32.050  28.266  1.00  0.00     0.163 HD
ATOM     36  O   UNL A   1      34.538  32.927  29.432  1.00  0.00    -0.269 OA
BRANCH  34  37
ATOM     37  C   UNL A   1      36.002  31.193  28.831  1.00  0.00     0.039 A 
ATOM     38  C   UNL A   1      36.259  29.890  28.408  1.00  0.00     0.014 A 
ATOM     39  C   UNL A   1      37.059  31.925  29.412  1.00  0.00     0.014 A 
ATOM     40  C   UNL A   1      37.519  29.318  28.616  1.00  0.00     0.010 A 
ATOM     41  C   UNL A   1      38.316  31.362  29.618  1.00  0.00     0.010 A 
ATOM     42  C   UNL A   1      38.542  30.043  29.245  1.00  0.00    -0.014 A 
BRANCH  42  43
ATOM     43  C   UNL A   1      39.879  29.445  29.331  1.00  0.00     0.031 A 
ATOM     44  C   UNL A   1      40.307  29.113  30.719  1.00  0.00     0.074 A 
ATOM     45  C   UNL A   1      40.647  29.080  28.282  1.00  0.00     0.049 A 
ATOM     46  N   UNL A   1      41.267  29.647  31.399  1.00  0.00    -0.248 NA
ATOM     47  C   UNL A   1      39.487  28.163  31.487  1.00  0.00     0.031 C 
ATOM     48  C   UNL A   1      40.272  29.053  26.866  1.00  0.00     0.029 A 
ATOM     49  N   UNL A   1      41.913  28.559  28.272  1.00  0.00    -0.354 N 
ATOM     50  C   UNL A   1      41.307  28.964  32.612  1.00  0.00     0.074 A 
ATOM     51  C   UNL A   1      40.101  28.180  32.671  1.00  0.00     0.031 C 
ATOM     52  C   UNL A   1      41.190  28.340  26.171  1.00  0.00     0.029 A 
ATOM     53  C   UNL A   1      42.289  27.994  27.055  1.00  0.00     0.049 A 
ATOM     54  H   UNL A   1      42.507  28.582  29.057  1.00  0.00     0.167 HD
ATOM     55  C   UNL A   1      42.433  28.937  33.378  1.00  0.00     0.031 A 
ATOM     56  C   UNL A   1      43.405  27.261  26.800  1.00  0.00     0.031 A 
ATOM     57  C   UNL A   1      43.378  29.936  32.959  1.00  0.00     0.049 A 
ATOM     58  C   UNL A   1      44.402  27.591  27.840  1.00  0.00     0.074 A 
ATOM     59  C   UNL A   1      43.398  31.313  32.920  1.00  0.00     0.029 A 
ATOM     60  N   UNL A   1      44.387  29.497  32.139  1.00  0.00    -0.354 N 
ATOM     61  N   UNL A   1      44.987  28.749  27.947  1.00  0.00    -0.248 NA
ATOM     62  C   UNL A   1      44.517  26.720  28.999  1.00  0.00     0.031 C 
ATOM     63  C   UNL A   1      44.169  31.642  31.771  1.00  0.00     0.029 A 
ATOM     64  C   UNL A   1      44.644  30.458  31.200  1.00  0.00     0.049 A 
ATOM     65  H   UNL A   1      44.851  28.632  32.214  1.00  0.00     0.167 HD
ATOM     66  C   UNL A   1      45.156  28.927  29.309  1.00  0.00     0.074 A 
ATOM     67  C   UNL A   1      44.982  27.599  29.888  1.00  0.00     0.031 C 
ATOM     68  C   UNL A   1      45.133  30.173  29.863  1.00  0.00     0.031 A 
BRANCH  55  69
ATOM     69  C   UNL A   1      42.853  27.771  34.247  1.00  0.00    -0.014 A 
ATOM     70  C   UNL A   1      43.260  26.525  33.733  1.00  0.00     0.010 A 
ATOM     71  C   UNL A   1      43.102  28.002  35.620  1.00  0.00     0.010 A 
ATOM     72  C   UNL A   1      43.875  25.558  34.533  1.00  0.00     0.020 A 
ATOM     73  C   UNL A   1      43.759  27.057  36.421  1.00  0.00     0.020 A 
ATOM     74  C   UNL A   1      44.133  25.835  35.871  1.00  0.00     0.054 A 
BRANCH  74  75
ATOM     75  S   UNL A   1      45.010  24.590  36.848  1.00  0.00     0.124 S 
ATOM     76  O   UNL A   1      46.396  25.035  36.722  1.00  0.00    -0.237 OA
ATOM     77  O   UNL A   1      44.413  24.755  38.171  1.00  0.00    -0.237 OA
ATOM     78  O   UNL A   1      44.692  23.336  36.172  1.00  0.00    -0.744 OA
ENDBRANCH  74  75
ENDBRANCH  55  69
BRANCH  56  79
ATOM     79  C   UNL A   1      43.551  26.048  25.949  1.00  0.00    -0.014 A 
ATOM     80  C   UNL A   1      42.586  25.027  26.014  1.00  0.00     0.010 A 
ATOM     81  C   UNL A   1      44.794  25.740  25.353  1.00  0.00     0.010 A 
ATOM     82  C   UNL A   1      42.881  23.720  25.603  1.00  0.00     0.020 A 
ATOM     83  C   UNL A   1      45.099  24.430  24.942  1.00  0.00     0.020 A 
ATOM     84  C   UNL A   1      44.152  23.420  25.113  1.00  0.00     0.054 A 
BRANCH  84  85
ATOM     85  S   UNL A   1      44.568  21.676  24.815  1.00  0.00     0.124 S 
ATOM     86  O   UNL A   1      44.658  21.631  23.359  1.00  0.00    -0.237 OA
ATOM     87  O   UNL A   1      45.835  21.528  25.526  1.00  0.00    -0.237 OA
ATOM     88  O   UNL A   1      43.443  20.946  25.395  1.00  0.00    -0.744 OA
ENDBRANCH  84  85
ENDBRANCH  56  79
BRANCH  68  89
ATOM     89  C   UNL A   1      45.405  31.378  28.991  1.00  0.00    -0.014 A 
ATOM     90  C   UNL A   1      44.314  31.858  28.239  1.00  0.00     0.010 A 
ATOM     91  C   UNL A   1      46.679  31.923  28.747  1.00  0.00     0.010 A 
ATOM     92  C   UNL A   1      44.491  32.806  27.235  1.00  0.00     0.020 A 
ATOM     93  C   UNL A   1      46.857  32.906  27.757  1.00  0.00     0.020 A 
ATOM     94  C   UNL A   1      45.765  33.316  26.989  1.00  0.00     0.054 A 
BRANCH  94  95
ATOM     95  S   UNL A   1      45.950  34.503  25.631  1.00  0.00     0.124 S 
ATOM     96  O   UNL A   1      45.475  35.746  26.237  1.00  0.00    -0.237 OA
ATOM     97  O   UNL A   1      47.386  34.459  25.357  1.00  0.00    -0.237 OA
ATOM     98  O   UNL A   1      45.104  33.966  24.569  1.00  0.00    -0.744 OA
ENDBRANCH  94  95
ENDBRANCH  68  89
ENDBRANCH  42  43
ENDBRANCH  34  37
ENDBRANCH  32  33
ENDBRANCH   1  32
TORSDOF 18
ENDMDL
