MODEL 1
REMARK VINA RESULT:     -11.9      0.000      0.000
REMARK SMILES C[C@@H]1CCCN(C(=O)NC2(CC(=O)NCCCNC(=O)c3ccc(-c4c5nc(c(-c6ccc(S(=O)(=O)[O-])cc6)c6ccc([nH]6)c(-c6ccc(S(=O)(=O)[O-])cc6)c6nc(c(-c7ccc(S(=O)(=O)[O-])cc7)c7ccc4[nH]7)C=C6)C=C5)cc3)CCC2)[C@@H]1C
REMARK SMILES IDX 16 1 15 2 14 3 12 4 13 5 11 7 10 8 81 9 83 10 82 11 9 12
REMARK SMILES IDX 7 13 8 14 6 16 1 17 2 18 3 19 84 20 4 21 85 22 5 23 17 24
REMARK SMILES IDX 18 25 19 26 20 28 21 29 22 30 80 31 23 32 79 33 24 34 25 35
REMARK SMILES IDX 26 36 73 37 27 38 78 39 72 40 74 41 28 42 77 43 71 44 70 45
REMARK SMILES IDX 29 47 59 48 40 49 58 50 41 51 44 52 57 53 75 54 42 55 43 56
REMARK SMILES IDX 56 58 76 59 45 60 30 61 31 62 39 63 32 64 38 65 33 66 34 67
REMARK SMILES IDX 35 68 36 69 37 70 60 71 61 72 69 73 62 74 68 75 63 76 64 77
REMARK SMILES IDX 65 78 66 79 67 80 46 81 47 82 55 83 48 84 54 85 49 86 50 87
REMARK SMILES IDX 51 88 52 89 53 90
REMARK H PARENT 14 6 9 15 18 27 74 46 44 57
REMARK Flexibility Score: inf
ROOT
ATOM      1  C   UNL A   1      38.703  22.702  26.211  1.00  0.00     0.042 C 
ENDROOT
BRANCH   1   2
ATOM      2  C   UNL A   1      37.479  23.566  25.917  1.00  0.00     0.117 C 
BRANCH   2   3
ATOM      3  N   UNL A   1      37.266  23.663  24.486  1.00  0.00    -0.356 N 
ATOM      4  C   UNL A   1      36.501  22.876  23.684  1.00  0.00     0.222 C 
ATOM      5  O   UNL A   1      36.683  22.920  22.466  1.00  0.00    -0.275 OA
ATOM      6  H   UNL A   1      37.739  24.399  24.034  1.00  0.00     0.163 HD
BRANCH   4   7
ATOM      7  C   UNL A   1      35.415  22.005  24.265  1.00  0.00     0.128 C 
BRANCH   7   8
ATOM      8  C   UNL A   1      33.950  22.492  24.129  1.00  0.00     0.051 C 
ATOM      9  C   UNL A   1      33.397  22.617  25.565  1.00  0.00     0.029 C 
ATOM     10  C   UNL A   1      32.918  21.377  23.851  1.00  0.00     0.029 C 
ATOM     11  C   UNL A   1      32.572  21.337  25.349  1.00  0.00     0.005 C 
BRANCH   8  12
ATOM     12  N   UNL A   1      33.898  23.697  23.270  1.00  0.00    -0.332 N 
ATOM     13  C   UNL A   1      33.542  24.995  23.213  1.00  0.00     0.318 C 
ATOM     14  O   UNL A   1      33.868  25.500  22.132  1.00  0.00    -0.249 OA
ATOM     15  H   UNL A   1      34.274  23.452  22.394  1.00  0.00     0.165 HD
BRANCH  13  16
ATOM     16  N   UNL A   1      32.914  25.726  24.178  1.00  0.00    -0.322 N 
ATOM     17  C   UNL A   1      30.995  27.205  22.317  1.00  0.00     0.010 C 
ATOM     18  C   UNL A   1      30.818  27.008  23.828  1.00  0.00     0.008 C 
ATOM     19  C   UNL A   1      31.425  28.185  24.619  1.00  0.00     0.007 C 
ATOM     20  C   UNL A   1      31.433  25.680  24.341  1.00  0.00     0.086 C 
ATOM     21  C   UNL A   1      32.952  28.140  24.651  1.00  0.00     0.022 C 
ATOM     22  C   UNL A   1      30.652  24.451  23.866  1.00  0.00     0.031 C 
ATOM     23  C   UNL A   1      33.472  26.755  25.041  1.00  0.00     0.121 C 
ENDBRANCH  13  16
ENDBRANCH   8  12
ENDBRANCH   7   8
ENDBRANCH   4   7
ENDBRANCH   2   3
ENDBRANCH   1   2
BRANCH   1  24
ATOM     24  C   UNL A   1      39.776  23.429  27.005  1.00  0.00     0.118 C 
BRANCH  24  25
ATOM     25  N   UNL A   1      40.733  24.081  26.127  1.00  0.00    -0.352 N 
ATOM     26  C   UNL A   1      41.156  25.384  26.097  1.00  0.00     0.251 C 
ATOM     27  H   UNL A   1      41.143  23.495  25.450  1.00  0.00     0.163 HD
ATOM     28  O   UNL A   1      41.752  25.788  25.097  1.00  0.00    -0.269 OA
BRANCH  26  29
ATOM     29  C   UNL A   1      40.907  26.303  27.232  1.00  0.00     0.039 A 
ATOM     30  C   UNL A   1      41.651  27.484  27.312  1.00  0.00     0.014 A 
ATOM     31  C   UNL A   1      40.012  25.982  28.258  1.00  0.00     0.014 A 
ATOM     32  C   UNL A   1      41.483  28.344  28.400  1.00  0.00     0.010 A 
ATOM     33  C   UNL A   1      39.778  26.883  29.294  1.00  0.00     0.010 A 
ATOM     34  C   UNL A   1      40.534  28.058  29.395  1.00  0.00    -0.014 A 
BRANCH  34  35
ATOM     35  C   UNL A   1      40.365  28.953  30.568  1.00  0.00     0.031 A 
ATOM     36  C   UNL A   1      41.252  28.789  31.776  1.00  0.00     0.074 A 
ATOM     37  C   UNL A   1      39.408  29.902  30.554  1.00  0.00     0.049 A 
ATOM     38  N   UNL A   1      41.254  29.468  32.895  1.00  0.00    -0.248 NA
ATOM     39  C   UNL A   1      42.252  27.708  31.732  1.00  0.00     0.031 C 
ATOM     40  C   UNL A   1      38.463  30.138  29.459  1.00  0.00     0.029 A 
ATOM     41  N   UNL A   1      39.078  30.852  31.487  1.00  0.00    -0.354 N 
ATOM     42  C   UNL A   1      42.242  28.891  33.686  1.00  0.00     0.074 A 
ATOM     43  C   UNL A   1      42.778  27.772  32.945  1.00  0.00     0.031 C 
ATOM     44  C   UNL A   1      37.689  31.191  29.766  1.00  0.00     0.029 A 
ATOM     45  C   UNL A   1      38.058  31.684  31.089  1.00  0.00     0.049 A 
ATOM     46  H   UNL A   1      39.529  30.930  32.358  1.00  0.00     0.167 HD
ATOM     47  C   UNL A   1      42.686  29.274  34.909  1.00  0.00     0.031 A 
ATOM     48  C   UNL A   1      37.489  32.732  31.717  1.00  0.00     0.031 A 
ATOM     49  C   UNL A   1      42.165  30.398  35.638  1.00  0.00     0.049 A 
ATOM     50  C   UNL A   1      38.000  33.137  33.072  1.00  0.00     0.074 A 
ATOM     51  C   UNL A   1      42.567  30.889  36.868  1.00  0.00     0.029 A 
ATOM     52  N   UNL A   1      41.136  31.215  35.198  1.00  0.00    -0.354 N 
ATOM     53  N   UNL A   1      38.965  32.603  33.783  1.00  0.00    -0.248 NA
ATOM     54  C   UNL A   1      37.356  34.298  33.701  1.00  0.00     0.031 C 
ATOM     55  C   UNL A   1      41.757  31.985  37.187  1.00  0.00     0.029 A 
ATOM     56  C   UNL A   1      40.883  32.203  36.134  1.00  0.00     0.049 A 
ATOM     57  H   UNL A   1      40.655  31.109  34.345  1.00  0.00     0.167 HD
ATOM     58  C   UNL A   1      39.060  33.379  34.932  1.00  0.00     0.074 A 
ATOM     59  C   UNL A   1      38.068  34.430  34.812  1.00  0.00     0.031 C 
ATOM     60  C   UNL A   1      39.893  33.239  35.993  1.00  0.00     0.031 A 
BRANCH  47  61
ATOM     61  C   UNL A   1      43.802  28.472  35.525  1.00  0.00    -0.014 A 
ATOM     62  C   UNL A   1      45.147  28.765  35.230  1.00  0.00     0.010 A 
ATOM     63  C   UNL A   1      43.510  27.439  36.433  1.00  0.00     0.010 A 
ATOM     64  C   UNL A   1      46.177  28.015  35.803  1.00  0.00     0.020 A 
ATOM     65  C   UNL A   1      44.540  26.704  37.029  1.00  0.00     0.020 A 
ATOM     66  C   UNL A   1      45.867  26.987  36.696  1.00  0.00     0.054 A 
BRANCH  66  67
ATOM     67  S   UNL A   1      47.226  26.047  37.446  1.00  0.00     0.124 S 
ATOM     68  O   UNL A   1      47.798  25.368  36.285  1.00  0.00    -0.237 OA
ATOM     69  O   UNL A   1      48.058  27.095  38.031  1.00  0.00    -0.237 OA
ATOM     70  O   UNL A   1      46.557  25.177  38.409  1.00  0.00    -0.744 OA
ENDBRANCH  66  67
ENDBRANCH  47  61
BRANCH  48  71
ATOM     71  C   UNL A   1      36.392  33.492  31.060  1.00  0.00    -0.014 A 
ATOM     72  C   UNL A   1      35.221  33.807  31.771  1.00  0.00     0.010 A 
ATOM     73  C   UNL A   1      36.509  33.899  29.720  1.00  0.00     0.010 A 
ATOM     74  C   UNL A   1      34.174  34.489  31.146  1.00  0.00     0.020 A 
ATOM     75  C   UNL A   1      35.475  34.606  29.099  1.00  0.00     0.020 A 
ATOM     76  C   UNL A   1      34.307  34.883  29.811  1.00  0.00     0.054 A 
BRANCH  76  77
ATOM     77  S   UNL A   1      32.951  35.797  29.026  1.00  0.00     0.124 S 
ATOM     78  O   UNL A   1      32.362  34.781  28.160  1.00  0.00    -0.237 OA
ATOM     79  O   UNL A   1      32.138  36.206  30.169  1.00  0.00    -0.237 OA
ATOM     80  O   UNL A   1      33.633  36.890  28.336  1.00  0.00    -0.744 OA
ENDBRANCH  76  77
ENDBRANCH  48  71
BRANCH  60  81
ATOM     81  C   UNL A   1      39.789  34.267  37.087  1.00  0.00    -0.014 A 
ATOM     82  C   UNL A   1      39.021  34.026  38.240  1.00  0.00     0.010 A 
ATOM     83  C   UNL A   1      40.496  35.476  36.970  1.00  0.00     0.010 A 
ATOM     84  C   UNL A   1      38.928  34.998  39.239  1.00  0.00     0.020 A 
ATOM     85  C   UNL A   1      40.427  36.439  37.979  1.00  0.00     0.020 A 
ATOM     86  C   UNL A   1      39.628  36.202  39.100  1.00  0.00     0.054 A 
BRANCH  86  87
ATOM     87  S   UNL A   1      39.514  37.438  40.420  1.00  0.00     0.124 S 
ATOM     88  O   UNL A   1      38.619  38.430  39.830  1.00  0.00    -0.237 OA
ATOM     89  O   UNL A   1      38.957  36.673  41.533  1.00  0.00    -0.237 OA
ATOM     90  O   UNL A   1      40.896  37.876  40.604  1.00  0.00    -0.744 OA
ENDBRANCH  86  87
ENDBRANCH  60  81
ENDBRANCH  34  35
ENDBRANCH  26  29
ENDBRANCH  24  25
ENDBRANCH   1  24
TORSDOF 16
ENDMDL
MODEL 2
REMARK VINA RESULT:     -11.8      6.516     12.204
REMARK SMILES C[C@@H]1CCCN(C(=O)NC2(CC(=O)NCCCNC(=O)c3ccc(-c4c5nc(c(-c6ccc(S(=O)(=O)[O-])cc6)c6ccc([nH]6)c(-c6ccc(S(=O)(=O)[O-])cc6)c6nc(c(-c7ccc(S(=O)(=O)[O-])cc7)c7ccc4[nH]7)C=C6)C=C5)cc3)CCC2)[C@@H]1C
REMARK SMILES IDX 16 1 15 2 14 3 12 4 13 5 11 7 10 8 81 9 83 10 82 11 9 12
REMARK SMILES IDX 7 13 8 14 6 16 1 17 2 18 3 19 84 20 4 21 85 22 5 23 17 24
REMARK SMILES IDX 18 25 19 26 20 28 21 29 22 30 80 31 23 32 79 33 24 34 25 35
REMARK SMILES IDX 26 36 73 37 27 38 78 39 72 40 74 41 28 42 77 43 71 44 70 45
REMARK SMILES IDX 29 47 59 48 40 49 58 50 41 51 44 52 57 53 75 54 42 55 43 56
REMARK SMILES IDX 56 58 76 59 45 60 30 61 31 62 39 63 32 64 38 65 33 66 34 67
REMARK SMILES IDX 35 68 36 69 37 70 60 71 61 72 69 73 62 74 68 75 63 76 64 77
REMARK SMILES IDX 65 78 66 79 67 80 46 81 47 82 55 83 48 84 54 85 49 86 50 87
REMARK SMILES IDX 51 88 52 89 53 90
REMARK H PARENT 14 6 9 15 18 27 74 46 44 57
REMARK Flexibility Score: inf
ROOT
ATOM      1  C   UNL A   1      34.300  29.004  27.354  1.00  0.00     0.042 C 
ENDROOT
BRANCH   1   2
ATOM      2  C   UNL A   1      33.167  29.764  26.669  1.00  0.00     0.117 C 
BRANCH   2   3
ATOM      3  N   UNL A   1      33.397  29.825  25.238  1.00  0.00    -0.356 N 
ATOM      4  C   UNL A   1      32.877  29.039  24.259  1.00  0.00     0.222 C 
ATOM      5  O   UNL A   1      33.417  29.039  23.152  1.00  0.00    -0.275 OA
ATOM      6  H   UNL A   1      34.014  30.530  24.936  1.00  0.00     0.163 HD
BRANCH   4   7
ATOM      7  C   UNL A   1      31.632  28.223  24.503  1.00  0.00     0.128 C 
BRANCH   7   8
ATOM      8  C   UNL A   1      30.996  27.497  23.291  1.00  0.00     0.051 C 
ATOM      9  C   UNL A   1      30.293  28.586  22.451  1.00  0.00     0.029 C 
ATOM     10  C   UNL A   1      29.620  26.852  23.568  1.00  0.00     0.029 C 
ATOM     11  C   UNL A   1      28.931  28.084  22.958  1.00  0.00     0.005 C 
BRANCH   8  12
ATOM     12  N   UNL A   1      32.015  26.664  22.613  1.00  0.00    -0.332 N 
ATOM     13  C   UNL A   1      32.613  25.457  22.591  1.00  0.00     0.318 C 
ATOM     14  O   UNL A   1      33.400  25.366  21.639  1.00  0.00    -0.249 OA
ATOM     15  H   UNL A   1      32.412  27.207  21.894  1.00  0.00     0.165 HD
BRANCH  13  16
ATOM     16  N   UNL A   1      32.424  24.420  23.455  1.00  0.00    -0.322 N 
ATOM     17  C   UNL A   1      35.265  23.307  23.311  1.00  0.00     0.010 C 
ATOM     18  C   UNL A   1      34.251  23.055  24.434  1.00  0.00     0.008 C 
ATOM     19  C   UNL A   1      33.423  21.782  24.163  1.00  0.00     0.007 C 
ATOM     20  C   UNL A   1      33.288  24.250  24.658  1.00  0.00     0.086 C 
ATOM     21  C   UNL A   1      32.373  21.991  23.073  1.00  0.00     0.022 C 
ATOM     22  C   UNL A   1      33.995  25.465  25.267  1.00  0.00     0.031 C 
ATOM     23  C   UNL A   1      31.556  23.263  23.306  1.00  0.00     0.121 C 
ENDBRANCH  13  16
ENDBRANCH   8  12
ENDBRANCH   7   8
ENDBRANCH   4   7
ENDBRANCH   2   3
ENDBRANCH   1   2
BRANCH   1  24
ATOM     24  C   UNL A   1      35.458  29.896  27.770  1.00  0.00     0.118 C 
BRANCH  24  25
ATOM     25  N   UNL A   1      35.475  30.105  29.208  1.00  0.00    -0.352 N 
ATOM     26  C   UNL A   1      36.452  29.826  30.127  1.00  0.00     0.251 C 
ATOM     27  H   UNL A   1      34.657  30.511  29.579  1.00  0.00     0.163 HD
ATOM     28  O   UNL A   1      36.152  29.817  31.323  1.00  0.00    -0.269 OA
BRANCH  26  29
ATOM     29  C   UNL A   1      37.844  29.537  29.712  1.00  0.00     0.039 A 
ATOM     30  C   UNL A   1      38.181  29.673  28.362  1.00  0.00     0.014 A 
ATOM     31  C   UNL A   1      38.799  29.061  30.616  1.00  0.00     0.014 A 
ATOM     32  C   UNL A   1      39.469  29.352  27.927  1.00  0.00     0.010 A 
ATOM     33  C   UNL A   1      40.108  28.830  30.199  1.00  0.00     0.010 A 
ATOM     34  C   UNL A   1      40.450  28.941  28.845  1.00  0.00    -0.014 A 
BRANCH  34  35
ATOM     35  C   UNL A   1      41.815  28.574  28.390  1.00  0.00     0.031 A 
ATOM     36  C   UNL A   1      42.902  29.619  28.345  1.00  0.00     0.074 A 
ATOM     37  C   UNL A   1      42.075  27.309  28.006  1.00  0.00     0.049 A 
ATOM     38  N   UNL A   1      44.151  29.493  27.975  1.00  0.00    -0.248 NA
ATOM     39  C   UNL A   1      42.533  30.987  28.748  1.00  0.00     0.031 C 
ATOM     40  C   UNL A   1      41.100  26.216  27.970  1.00  0.00     0.029 A 
ATOM     41  N   UNL A   1      43.242  26.727  27.580  1.00  0.00    -0.354 N 
ATOM     42  C   UNL A   1      44.709  30.762  28.090  1.00  0.00     0.074 A 
ATOM     43  C   UNL A   1      43.652  31.654  28.508  1.00  0.00     0.031 C 
ATOM     44  C   UNL A   1      41.719  25.088  27.586  1.00  0.00     0.029 A 
ATOM     45  C   UNL A   1      43.123  25.383  27.316  1.00  0.00     0.049 A 
ATOM     46  H   UNL A   1      44.085  27.224  27.474  1.00  0.00     0.167 HD
ATOM     47  C   UNL A   1      45.994  31.148  27.893  1.00  0.00     0.031 A 
ATOM     48  C   UNL A   1      44.043  24.486  26.910  1.00  0.00     0.031 A 
ATOM     49  C   UNL A   1      47.050  30.257  27.495  1.00  0.00     0.049 A 
ATOM     50  C   UNL A   1      45.462  24.939  26.700  1.00  0.00     0.074 A 
ATOM     51  C   UNL A   1      48.390  30.541  27.300  1.00  0.00     0.029 A 
ATOM     52  N   UNL A   1      46.887  28.904  27.242  1.00  0.00    -0.354 N 
ATOM     53  N   UNL A   1      45.977  26.136  26.856  1.00  0.00    -0.248 NA
ATOM     54  C   UNL A   1      46.426  23.916  26.276  1.00  0.00     0.031 C 
ATOM     55  C   UNL A   1      49.032  29.365  26.897  1.00  0.00     0.029 A 
ATOM     56  C   UNL A   1      48.100  28.341  26.886  1.00  0.00     0.049 A 
ATOM     57  H   UNL A   1      46.033  28.416  27.306  1.00  0.00     0.167 HD
ATOM     58  C   UNL A   1      47.331  26.003  26.573  1.00  0.00     0.074 A 
ATOM     59  C   UNL A   1      47.558  24.607  26.256  1.00  0.00     0.031 C 
ATOM     60  C   UNL A   1      48.303  26.949  26.576  1.00  0.00     0.031 A 
BRANCH  47  61
ATOM     61  C   UNL A   1      46.325  32.600  28.121  1.00  0.00    -0.014 A 
ATOM     62  C   UNL A   1      46.606  33.453  27.037  1.00  0.00     0.010 A 
ATOM     63  C   UNL A   1      46.323  33.128  29.424  1.00  0.00     0.010 A 
ATOM     64  C   UNL A   1      46.915  34.797  27.256  1.00  0.00     0.020 A 
ATOM     65  C   UNL A   1      46.606  34.480  29.644  1.00  0.00     0.020 A 
ATOM     66  C   UNL A   1      46.916  35.302  28.558  1.00  0.00     0.054 A 
BRANCH  66  67
ATOM     67  S   UNL A   1      47.296  37.058  28.811  1.00  0.00     0.124 S 
ATOM     68  O   UNL A   1      48.755  37.063  28.746  1.00  0.00    -0.237 OA
ATOM     69  O   UNL A   1      46.617  37.698  27.686  1.00  0.00    -0.237 OA
ATOM     70  O   UNL A   1      46.729  37.350  30.124  1.00  0.00    -0.744 OA
ENDBRANCH  66  67
ENDBRANCH  47  61
BRANCH  48  71
ATOM     71  C   UNL A   1      43.661  23.064  26.704  1.00  0.00    -0.014 A 
ATOM     72  C   UNL A   1      43.070  22.328  27.747  1.00  0.00     0.010 A 
ATOM     73  C   UNL A   1      43.892  22.435  25.468  1.00  0.00     0.010 A 
ATOM     74  C   UNL A   1      42.745  20.980  27.567  1.00  0.00     0.020 A 
ATOM     75  C   UNL A   1      43.542  21.095  25.276  1.00  0.00     0.020 A 
ATOM     76  C   UNL A   1      42.985  20.371  26.332  1.00  0.00     0.054 A 
BRANCH  76  77
ATOM     77  S   UNL A   1      42.525  18.631  26.106  1.00  0.00     0.124 S 
ATOM     78  O   UNL A   1      41.123  18.737  25.714  1.00  0.00    -0.237 OA
ATOM     79  O   UNL A   1      43.444  18.191  25.060  1.00  0.00    -0.237 OA
ATOM     80  O   UNL A   1      42.765  18.042  27.422  1.00  0.00    -0.744 OA
ENDBRANCH  76  77
ENDBRANCH  48  71
BRANCH  60  81
ATOM     81  C   UNL A   1      49.702  26.495  26.261  1.00  0.00    -0.014 A 
ATOM     82  C   UNL A   1      50.226  26.604  24.962  1.00  0.00     0.010 A 
ATOM     83  C   UNL A   1      50.512  25.982  27.290  1.00  0.00     0.010 A 
ATOM     84  C   UNL A   1      51.525  26.166  24.687  1.00  0.00     0.020 A 
ATOM     85  C   UNL A   1      51.819  25.568  27.025  1.00  0.00     0.020 A 
ATOM     86  C   UNL A   1      52.311  25.646  25.721  1.00  0.00     0.054 A 
BRANCH  86  87
ATOM     87  S   UNL A   1      54.002  25.108  25.347  1.00  0.00     0.124 S 
ATOM     88  O   UNL A   1      54.391  26.042  24.294  1.00  0.00    -0.237 OA
ATOM     89  O   UNL A   1      54.687  25.282  26.626  1.00  0.00    -0.237 OA
ATOM     90  O   UNL A   1      53.836  23.720  24.920  1.00  0.00    -0.744 OA
ENDBRANCH  86  87
ENDBRANCH  60  81
ENDBRANCH  34  35
ENDBRANCH  26  29
ENDBRANCH  24  25
ENDBRANCH   1  24
TORSDOF 16
ENDMDL
MODEL 3
REMARK VINA RESULT:     -11.7      6.304      8.456
REMARK SMILES C[C@@H]1CCCN(C(=O)NC2(CC(=O)NCCCNC(=O)c3ccc(-c4c5nc(c(-c6ccc(S(=O)(=O)[O-])cc6)c6ccc([nH]6)c(-c6ccc(S(=O)(=O)[O-])cc6)c6nc(c(-c7ccc(S(=O)(=O)[O-])cc7)c7ccc4[nH]7)C=C6)C=C5)cc3)CCC2)[C@@H]1C
REMARK SMILES IDX 16 1 15 2 14 3 12 4 13 5 11 7 10 8 81 9 83 10 82 11 9 12
REMARK SMILES IDX 7 13 8 14 6 16 1 17 2 18 3 19 84 20 4 21 85 22 5 23 17 24
REMARK SMILES IDX 18 25 19 26 20 28 21 29 22 30 80 31 23 32 79 33 24 34 25 35
REMARK SMILES IDX 26 36 73 37 27 38 78 39 72 40 74 41 28 42 77 43 71 44 70 45
REMARK SMILES IDX 29 47 59 48 40 49 58 50 41 51 44 52 57 53 75 54 42 55 43 56
REMARK SMILES IDX 56 58 76 59 45 60 30 61 31 62 39 63 32 64 38 65 33 66 34 67
REMARK SMILES IDX 35 68 36 69 37 70 60 71 61 72 69 73 62 74 68 75 63 76 64 77
REMARK SMILES IDX 65 78 66 79 67 80 46 81 47 82 55 83 48 84 54 85 49 86 50 87
REMARK SMILES IDX 51 88 52 89 53 90
REMARK H PARENT 14 6 9 15 18 27 74 46 44 57
REMARK Flexibility Score: inf
ROOT
ATOM      1  C   UNL A   1      38.202  20.075  25.147  1.00  0.00     0.042 C 
ENDROOT
BRANCH   1   2
ATOM      2  C   UNL A   1      37.258  21.209  24.755  1.00  0.00     0.117 C 
BRANCH   2   3
ATOM      3  N   UNL A   1      36.523  21.674  25.915  1.00  0.00    -0.356 N 
ATOM      4  C   UNL A   1      35.336  22.335  25.961  1.00  0.00     0.222 C 
ATOM      5  O   UNL A   1      35.022  22.912  27.003  1.00  0.00    -0.275 OA
ATOM      6  H   UNL A   1      36.939  21.484  26.786  1.00  0.00     0.163 HD
BRANCH   4   7
ATOM      7  C   UNL A   1      34.396  22.320  24.781  1.00  0.00     0.128 C 
BRANCH   7   8
ATOM      8  C   UNL A   1      32.933  21.875  25.030  1.00  0.00     0.051 C 
ATOM      9  C   UNL A   1      32.998  20.405  25.496  1.00  0.00     0.029 C 
ATOM     10  C   UNL A   1      32.168  21.420  23.767  1.00  0.00     0.029 C 
ATOM     11  C   UNL A   1      32.479  19.956  24.119  1.00  0.00     0.005 C 
BRANCH   8  12
ATOM     12  N   UNL A   1      32.258  22.845  25.922  1.00  0.00    -0.332 N 
ATOM     13  C   UNL A   1      31.662  24.052  25.987  1.00  0.00     0.318 C 
ATOM     14  O   UNL A   1      31.198  24.260  27.116  1.00  0.00    -0.249 OA
ATOM     15  H   UNL A   1      32.237  22.453  26.824  1.00  0.00     0.165 HD
BRANCH  13  16
ATOM     16  N   UNL A   1      31.535  24.971  24.988  1.00  0.00    -0.322 N 
ATOM     17  C   UNL A   1      31.453  27.443  26.779  1.00  0.00     0.010 C 
ATOM     18  C   UNL A   1      31.808  27.419  25.287  1.00  0.00     0.008 C 
ATOM     19  C   UNL A   1      30.557  27.648  24.413  1.00  0.00     0.007 C 
ATOM     20  C   UNL A   1      32.498  26.101  24.850  1.00  0.00     0.086 C 
ATOM     21  C   UNL A   1      29.650  26.421  24.360  1.00  0.00     0.022 C 
ATOM     22  C   UNL A   1      33.915  25.967  25.416  1.00  0.00     0.031 C 
ATOM     23  C   UNL A   1      30.436  25.145  24.052  1.00  0.00     0.121 C 
ENDBRANCH  13  16
ENDBRANCH   8  12
ENDBRANCH   7   8
ENDBRANCH   4   7
ENDBRANCH   2   3
ENDBRANCH   1   2
BRANCH   1  24
ATOM     24  C   UNL A   1      39.314  20.515  26.086  1.00  0.00     0.118 C 
BRANCH  24  25
ATOM     25  N   UNL A   1      40.411  19.564  26.089  1.00  0.00    -0.352 N 
ATOM     26  C   UNL A   1      41.763  19.778  26.047  1.00  0.00     0.251 C 
ATOM     27  H   UNL A   1      40.141  18.617  26.130  1.00  0.00     0.163 HD
ATOM     28  O   UNL A   1      42.503  18.832  25.771  1.00  0.00    -0.269 OA
BRANCH  26  29
ATOM     29  C   UNL A   1      42.343  21.114  26.323  1.00  0.00     0.039 A 
ATOM     30  C   UNL A   1      42.637  21.456  27.645  1.00  0.00     0.014 A 
ATOM     31  C   UNL A   1      42.525  22.060  25.309  1.00  0.00     0.014 A 
ATOM     32  C   UNL A   1      43.130  22.728  27.946  1.00  0.00     0.010 A 
ATOM     33  C   UNL A   1      43.102  23.296  25.597  1.00  0.00     0.010 A 
ATOM     34  C   UNL A   1      43.380  23.656  26.922  1.00  0.00    -0.014 A 
BRANCH  34  35
ATOM     35  C   UNL A   1      43.880  25.019  27.233  1.00  0.00     0.031 A 
ATOM     36  C   UNL A   1      45.318  25.377  26.954  1.00  0.00     0.074 A 
ATOM     37  C   UNL A   1      43.048  25.929  27.775  1.00  0.00     0.049 A 
ATOM     38  N   UNL A   1      45.940  26.511  27.160  1.00  0.00    -0.248 NA
ATOM     39  C   UNL A   1      46.176  24.320  26.392  1.00  0.00     0.031 C 
ATOM     40  C   UNL A   1      41.645  25.694  28.125  1.00  0.00     0.029 A 
ATOM     41  N   UNL A   1      43.261  27.240  28.121  1.00  0.00    -0.354 N 
ATOM     42  C   UNL A   1      47.256  26.298  26.764  1.00  0.00     0.074 A 
ATOM     43  C   UNL A   1      47.359  24.914  26.361  1.00  0.00     0.031 C 
ATOM     44  C   UNL A   1      41.112  26.833  28.595  1.00  0.00     0.029 A 
ATOM     45  C   UNL A   1      42.141  27.868  28.613  1.00  0.00     0.049 A 
ATOM     46  H   UNL A   1      44.132  27.688  28.026  1.00  0.00     0.167 HD
ATOM     47  C   UNL A   1      48.283  27.182  26.713  1.00  0.00     0.031 A 
ATOM     48  C   UNL A   1      41.961  29.138  29.024  1.00  0.00     0.031 A 
ATOM     49  C   UNL A   1      48.176  28.563  27.096  1.00  0.00     0.049 A 
ATOM     50  C   UNL A   1      43.116  30.100  28.956  1.00  0.00     0.074 A 
ATOM     51  C   UNL A   1      49.148  29.547  27.052  1.00  0.00     0.029 A 
ATOM     52  N   UNL A   1      47.025  29.159  27.585  1.00  0.00    -0.354 N 
ATOM     53  N   UNL A   1      44.341  29.887  28.538  1.00  0.00    -0.248 NA
ATOM     54  C   UNL A   1      42.857  31.476  29.400  1.00  0.00     0.031 C 
ATOM     55  C   UNL A   1      48.591  30.733  27.545  1.00  0.00     0.029 A 
ATOM     56  C   UNL A   1      47.261  30.496  27.853  1.00  0.00     0.049 A 
ATOM     57  H   UNL A   1      46.164  28.698  27.722  1.00  0.00     0.167 HD
ATOM     58  C   UNL A   1      44.993  31.111  28.645  1.00  0.00     0.074 A 
ATOM     59  C   UNL A   1      44.020  32.061  29.148  1.00  0.00     0.031 C 
ATOM     60  C   UNL A   1      46.279  31.424  28.351  1.00  0.00     0.031 A 
BRANCH  47  61
ATOM     61  C   UNL A   1      49.610  26.676  26.209  1.00  0.00    -0.014 A 
ATOM     62  C   UNL A   1      50.050  26.983  24.908  1.00  0.00     0.010 A 
ATOM     63  C   UNL A   1      50.441  25.916  27.050  1.00  0.00     0.010 A 
ATOM     64  C   UNL A   1      51.280  26.509  24.446  1.00  0.00     0.020 A 
ATOM     65  C   UNL A   1      51.685  25.462  26.600  1.00  0.00     0.020 A 
ATOM     66  C   UNL A   1      52.088  25.748  25.294  1.00  0.00     0.054 A 
BRANCH  66  67
ATOM     67  S   UNL A   1      53.692  25.167  24.676  1.00  0.00     0.124 S 
ATOM     68  O   UNL A   1      53.594  23.726  24.894  1.00  0.00    -0.237 OA
ATOM     69  O   UNL A   1      53.672  25.592  23.278  1.00  0.00    -0.237 OA
ATOM     70  O   UNL A   1      54.661  25.861  25.520  1.00  0.00    -0.744 OA
ENDBRANCH  66  67
ENDBRANCH  47  61
BRANCH  48  71
ATOM     71  C   UNL A   1      40.628  29.586  29.510  1.00  0.00    -0.014 A 
ATOM     72  C   UNL A   1      40.393  29.758  30.886  1.00  0.00     0.010 A 
ATOM     73  C   UNL A   1      39.585  29.837  28.601  1.00  0.00     0.010 A 
ATOM     74  C   UNL A   1      39.131  30.143  31.346  1.00  0.00     0.020 A 
ATOM     75  C   UNL A   1      38.329  30.249  29.057  1.00  0.00     0.020 A 
ATOM     76  C   UNL A   1      38.105  30.384  30.428  1.00  0.00     0.054 A 
BRANCH  76  77
ATOM     77  S   UNL A   1      36.483  30.917  31.042  1.00  0.00     0.124 S 
ATOM     78  O   UNL A   1      36.828  32.102  31.821  1.00  0.00    -0.237 OA
ATOM     79  O   UNL A   1      35.740  31.163  29.808  1.00  0.00    -0.237 OA
ATOM     80  O   UNL A   1      36.020  29.769  31.819  1.00  0.00    -0.744 OA
ENDBRANCH  76  77
ENDBRANCH  48  71
BRANCH  60  81
ATOM     81  C   UNL A   1      46.695  32.858  28.535  1.00  0.00    -0.014 A 
ATOM     82  C   UNL A   1      47.261  33.302  29.743  1.00  0.00     0.010 A 
ATOM     83  C   UNL A   1      46.544  33.764  27.471  1.00  0.00     0.010 A 
ATOM     84  C   UNL A   1      47.630  34.640  29.897  1.00  0.00     0.020 A 
ATOM     85  C   UNL A   1      46.936  35.097  27.612  1.00  0.00     0.020 A 
ATOM     86  C   UNL A   1      47.460  35.531  28.832  1.00  0.00     0.054 A 
BRANCH  86  87
ATOM     87  S   UNL A   1      47.970  37.258  29.045  1.00  0.00     0.124 S 
ATOM     88  O   UNL A   1      49.280  37.268  28.399  1.00  0.00    -0.237 OA
ATOM     89  O   UNL A   1      46.919  37.994  28.347  1.00  0.00    -0.237 OA
ATOM     90  O   UNL A   1      47.988  37.436  30.495  1.00  0.00    -0.744 OA
ENDBRANCH  86  87
ENDBRANCH  60  81
ENDBRANCH  34  35
ENDBRANCH  26  29
ENDBRANCH  24  25
ENDBRANCH   1  24
TORSDOF 16
ENDMDL
