MODEL 1
REMARK VINA RESULT:     -12.2      0.000      0.000
REMARK SMILES O=C(Cn1cccc1C(=O)NCCCNC(=O)c1ccc(-c2c3nc(c(-c4ccc(S(=O)(=O)[O-])cc4)c4ccc([nH]4)c(-c4ccc(S(=O)(=O)[O-])cc4)c4nc(c(-c5ccc(S(=O)(=O)[O-])cc5)c5ccc2[nH]5)C=C4)C=C3)cc1)Nc1cccc(Br)c1
REMARK SMILES IDX 13 1 12 2 11 3 9 4 10 5 8 7 4 8 5 9 6 10 7 11 3 12 2 13 1 14
REMARK SMILES IDX 78 15 79 17 80 18 85 19 81 20 83 21 82 22 84 23 14 24 15 25
REMARK SMILES IDX 16 26 17 28 18 29 19 30 77 31 20 32 76 33 21 34 22 35 23 36
REMARK SMILES IDX 70 37 24 38 75 39 69 40 71 41 25 42 74 43 68 44 67 45 26 47
REMARK SMILES IDX 56 48 37 49 55 50 38 51 41 52 54 53 72 54 39 55 40 56 53 58
REMARK SMILES IDX 73 59 42 60 27 61 28 62 36 63 29 64 35 65 30 66 31 67 32 68
REMARK SMILES IDX 33 69 34 70 57 71 58 72 66 73 59 74 65 75 60 76 61 77 62 78
REMARK SMILES IDX 63 79 64 80 43 81 44 82 52 83 45 84 51 85 46 86 47 87 48 88
REMARK SMILES IDX 49 89 50 90
REMARK H PARENT 11 6 78 16 15 27 71 46 41 57
REMARK Flexibility Score: inf
ROOT
ATOM      1  C   UNL A   1      33.293  29.219  26.791  1.00  0.00     0.042 C 
ENDROOT
BRANCH   1   2
ATOM      2  C   UNL A   1      32.920  29.555  25.351  1.00  0.00     0.118 C 
BRANCH   2   3
ATOM      3  N   UNL A   1      33.287  28.566  24.368  1.00  0.00    -0.351 N 
ATOM      4  C   UNL A   1      32.547  27.939  23.403  1.00  0.00     0.267 C 
ATOM      5  O   UNL A   1      33.169  27.201  22.637  1.00  0.00    -0.268 OA
ATOM      6  H   UNL A   1      34.232  28.295  24.395  1.00  0.00     0.163 HD
BRANCH   4   7
ATOM      7  C   UNL A   1      31.106  28.094  23.274  1.00  0.00     0.107 A 
ATOM      8  N   UNL A   1      30.028  27.450  23.860  1.00  0.00    -0.334 N 
ATOM      9  C   UNL A   1      28.856  27.927  23.289  1.00  0.00     0.087 A 
ATOM     10  C   UNL A   1      29.151  29.015  22.514  1.00  0.00     0.020 A 
ATOM     11  C   UNL A   1      30.550  29.142  22.536  1.00  0.00     0.033 A 
BRANCH   8  12
ATOM     12  C   UNL A   1      29.929  26.376  24.847  1.00  0.00     0.222 C 
BRANCH  12  13
ATOM     13  C   UNL A   1      31.117  25.854  25.619  1.00  0.00     0.244 C 
ATOM     14  O   UNL A   1      31.207  26.210  26.798  1.00  0.00    -0.273 OA
ATOM     15  N   UNL A   1      32.000  25.004  25.000  1.00  0.00    -0.325 N 
ATOM     16  H   UNL A   1      31.966  24.965  24.017  1.00  0.00     0.169 HD
BRANCH  15  17
ATOM     17  C   UNL A   1      32.959  24.179  25.638  1.00  0.00     0.042 A 
ATOM     18  C   UNL A   1      32.481  23.210  26.528  1.00  0.00     0.026 A 
ATOM     19  C   UNL A   1      34.342  24.309  25.465  1.00  0.00     0.041 A 
ATOM     20  C   UNL A   1      33.364  22.367  27.211  1.00  0.00     0.003 A 
ATOM     21  C   UNL A   1      35.220  23.463  26.147  1.00  0.00     0.020 A 
ATOM     22  C   UNL A   1      34.738  22.490  27.015  1.00  0.00     0.016 A 
ATOM     23  Br  UNL A   1      37.085  23.645  25.885  1.00  0.00    -0.051 Br
ENDBRANCH  15  17
ENDBRANCH  12  13
ENDBRANCH   8  12
ENDBRANCH   4   7
ENDBRANCH   2   3
ENDBRANCH   1   2
BRANCH   1  24
ATOM     24  C   UNL A   1      34.787  29.255  27.099  1.00  0.00     0.118 C 
BRANCH  24  25
ATOM     25  N   UNL A   1      35.280  30.586  27.415  1.00  0.00    -0.352 N 
ATOM     26  C   UNL A   1      36.443  30.934  28.072  1.00  0.00     0.251 C 
ATOM     27  H   UNL A   1      34.713  31.335  27.121  1.00  0.00     0.163 HD
ATOM     28  O   UNL A   1      36.587  32.071  28.490  1.00  0.00    -0.269 OA
BRANCH  26  29
ATOM     29  C   UNL A   1      37.494  29.915  28.312  1.00  0.00     0.039 A 
ATOM     30  C   UNL A   1      38.562  29.841  27.410  1.00  0.00     0.014 A 
ATOM     31  C   UNL A   1      37.426  29.034  29.397  1.00  0.00     0.014 A 
ATOM     32  C   UNL A   1      39.607  28.953  27.657  1.00  0.00     0.010 A 
ATOM     33  C   UNL A   1      38.479  28.163  29.660  1.00  0.00     0.010 A 
ATOM     34  C   UNL A   1      39.588  28.147  28.808  1.00  0.00    -0.014 A 
BRANCH  34  35
ATOM     35  C   UNL A   1      40.849  27.485  29.223  1.00  0.00     0.031 A 
ATOM     36  C   UNL A   1      41.106  26.220  28.377  1.00  0.00     0.074 A 
ATOM     37  C   UNL A   1      41.540  28.016  30.281  1.00  0.00     0.049 A 
ATOM     38  N   UNL A   1      41.674  25.105  28.710  1.00  0.00    -0.248 NA
ATOM     39  C   UNL A   1      40.575  26.142  26.984  1.00  0.00     0.031 C 
ATOM     40  C   UNL A   1      41.211  29.303  30.937  1.00  0.00     0.029 A 
ATOM     41  N   UNL A   1      42.638  27.613  31.019  1.00  0.00    -0.354 N 
ATOM     42  C   UNL A   1      41.722  24.275  27.564  1.00  0.00     0.074 A 
ATOM     43  C   UNL A   1      40.934  24.926  26.563  1.00  0.00     0.031 C 
ATOM     44  C   UNL A   1      42.017  29.528  32.001  1.00  0.00     0.029 A 
ATOM     45  C   UNL A   1      42.948  28.426  32.148  1.00  0.00     0.049 A 
ATOM     46  H   UNL A   1      43.169  26.819  30.782  1.00  0.00     0.167 HD
ATOM     47  C   UNL A   1      42.525  23.171  27.482  1.00  0.00     0.031 A 
ATOM     48  C   UNL A   1      43.851  28.210  33.158  1.00  0.00     0.031 A 
ATOM     49  C   UNL A   1      43.214  22.999  28.714  1.00  0.00     0.049 A 
ATOM     50  C   UNL A   1      44.606  27.014  32.769  1.00  0.00     0.074 A 
ATOM     51  C   UNL A   1      42.797  22.630  29.966  1.00  0.00     0.029 A 
ATOM     52  N   UNL A   1      44.441  23.613  28.798  1.00  0.00    -0.354 N 
ATOM     53  N   UNL A   1      45.533  26.981  31.863  1.00  0.00    -0.248 NA
ATOM     54  C   UNL A   1      44.282  25.731  33.408  1.00  0.00     0.031 C 
ATOM     55  C   UNL A   1      43.533  23.492  30.803  1.00  0.00     0.029 A 
ATOM     56  C   UNL A   1      44.526  24.141  30.057  1.00  0.00     0.049 A 
ATOM     57  H   UNL A   1      45.124  23.663  28.092  1.00  0.00     0.167 HD
ATOM     58  C   UNL A   1      45.580  25.647  31.556  1.00  0.00     0.074 A 
ATOM     59  C   UNL A   1      45.102  24.937  32.725  1.00  0.00     0.031 C 
ATOM     60  C   UNL A   1      45.402  25.267  30.265  1.00  0.00     0.031 A 
BRANCH  47  61
ATOM     61  C   UNL A   1      43.011  22.333  26.325  1.00  0.00    -0.014 A 
ATOM     62  C   UNL A   1      42.640  20.958  26.339  1.00  0.00     0.010 A 
ATOM     63  C   UNL A   1      44.048  22.709  25.463  1.00  0.00     0.010 A 
ATOM     64  C   UNL A   1      43.372  19.987  25.657  1.00  0.00     0.020 A 
ATOM     65  C   UNL A   1      44.763  21.737  24.736  1.00  0.00     0.020 A 
ATOM     66  C   UNL A   1      44.456  20.380  24.885  1.00  0.00     0.054 A 
BRANCH  66  67
ATOM     67  S   UNL A   1      45.487  19.088  24.142  1.00  0.00     0.124 S 
ATOM     68  O   UNL A   1      46.805  19.716  24.127  1.00  0.00    -0.237 OA
ATOM     69  O   UNL A   1      45.333  17.979  25.083  1.00  0.00    -0.237 OA
ATOM     70  O   UNL A   1      44.875  18.872  22.833  1.00  0.00    -0.744 OA
ENDBRANCH  66  67
ENDBRANCH  47  61
BRANCH  48  71
ATOM     71  C   UNL A   1      44.206  28.761  34.527  1.00  0.00    -0.014 A 
ATOM     72  C   UNL A   1      43.356  29.426  35.418  1.00  0.00     0.010 A 
ATOM     73  C   UNL A   1      45.519  28.500  35.025  1.00  0.00     0.010 A 
ATOM     74  C   UNL A   1      43.749  29.663  36.763  1.00  0.00     0.020 A 
ATOM     75  C   UNL A   1      45.902  28.680  36.353  1.00  0.00     0.020 A 
ATOM     76  C   UNL A   1      44.997  29.235  37.235  1.00  0.00     0.054 A 
BRANCH  76  77
ATOM     77  S   UNL A   1      45.404  29.254  39.005  1.00  0.00     0.124 S 
ATOM     78  O   UNL A   1      44.559  30.329  39.513  1.00  0.00    -0.237 OA
ATOM     79  O   UNL A   1      45.041  27.905  39.434  1.00  0.00    -0.237 OA
ATOM     80  O   UNL A   1      46.840  29.531  39.021  1.00  0.00    -0.744 OA
ENDBRANCH  76  77
ENDBRANCH  48  71
BRANCH  60  81
ATOM     81  C   UNL A   1      45.798  26.302  29.219  1.00  0.00    -0.014 A 
ATOM     82  C   UNL A   1      44.800  26.853  28.389  1.00  0.00     0.010 A 
ATOM     83  C   UNL A   1      47.132  26.676  28.953  1.00  0.00     0.010 A 
ATOM     84  C   UNL A   1      45.113  27.724  27.335  1.00  0.00     0.020 A 
ATOM     85  C   UNL A   1      47.457  27.553  27.898  1.00  0.00     0.020 A 
ATOM     86  C   UNL A   1      46.441  28.072  27.093  1.00  0.00     0.054 A 
BRANCH  86  87
ATOM     87  S   UNL A   1      46.805  29.198  25.711  1.00  0.00     0.124 S 
ATOM     88  O   UNL A   1      46.034  30.392  26.052  1.00  0.00    -0.237 OA
ATOM     89  O   UNL A   1      48.255  29.347  25.799  1.00  0.00    -0.237 OA
ATOM     90  O   UNL A   1      46.329  28.475  24.533  1.00  0.00    -0.744 OA
ENDBRANCH  86  87
ENDBRANCH  60  81
ENDBRANCH  34  35
ENDBRANCH  26  29
ENDBRANCH  24  25
ENDBRANCH   1  24
TORSDOF 16
ENDMDL
MODEL 2
REMARK VINA RESULT:     -12.0      3.846      6.875
REMARK SMILES O=C(Cn1cccc1C(=O)NCCCNC(=O)c1ccc(-c2c3nc(c(-c4ccc(S(=O)(=O)[O-])cc4)c4ccc([nH]4)c(-c4ccc(S(=O)(=O)[O-])cc4)c4nc(c(-c5ccc(S(=O)(=O)[O-])cc5)c5ccc2[nH]5)C=C4)C=C3)cc1)Nc1cccc(Br)c1
REMARK SMILES IDX 13 1 12 2 11 3 9 4 10 5 8 7 4 8 5 9 6 10 7 11 3 12 2 13 1 14
REMARK SMILES IDX 78 15 79 17 80 18 85 19 81 20 83 21 82 22 84 23 14 24 15 25
REMARK SMILES IDX 16 26 17 28 18 29 19 30 77 31 20 32 76 33 21 34 22 35 23 36
REMARK SMILES IDX 70 37 24 38 75 39 69 40 71 41 25 42 74 43 68 44 67 45 26 47
REMARK SMILES IDX 56 48 37 49 55 50 38 51 41 52 54 53 72 54 39 55 40 56 53 58
REMARK SMILES IDX 73 59 42 60 27 61 28 62 36 63 29 64 35 65 30 66 31 67 32 68
REMARK SMILES IDX 33 69 34 70 57 71 58 72 66 73 59 74 65 75 60 76 61 77 62 78
REMARK SMILES IDX 63 79 64 80 43 81 44 82 52 83 45 84 51 85 46 86 47 87 48 88
REMARK SMILES IDX 49 89 50 90
REMARK H PARENT 11 6 78 16 15 27 71 46 41 57
REMARK Flexibility Score: inf
ROOT
ATOM      1  C   UNL A   1      37.208  32.810  30.686  1.00  0.00     0.042 C 
ENDROOT
BRANCH   1   2
ATOM      2  C   UNL A   1      38.429  32.208  31.374  1.00  0.00     0.118 C 
BRANCH   2   3
ATOM      3  N   UNL A   1      38.187  30.998  32.120  1.00  0.00    -0.351 N 
ATOM      4  C   UNL A   1      38.322  30.720  33.453  1.00  0.00     0.267 C 
ATOM      5  O   UNL A   1      37.941  29.607  33.816  1.00  0.00    -0.268 OA
ATOM      6  H   UNL A   1      37.870  30.241  31.577  1.00  0.00     0.163 HD
BRANCH   4   7
ATOM      7  C   UNL A   1      38.900  31.654  34.409  1.00  0.00     0.107 A 
ATOM      8  N   UNL A   1      38.379  32.721  35.124  1.00  0.00    -0.334 N 
ATOM      9  C   UNL A   1      39.411  33.342  35.815  1.00  0.00     0.087 A 
ATOM     10  C   UNL A   1      40.532  32.564  35.733  1.00  0.00     0.020 A 
ATOM     11  C   UNL A   1      40.202  31.491  34.887  1.00  0.00     0.033 A 
BRANCH   8  12
ATOM     12  C   UNL A   1      37.042  33.307  35.202  1.00  0.00     0.222 C 
BRANCH  12  13
ATOM     13  C   UNL A   1      36.541  34.349  34.231  1.00  0.00     0.244 C 
ATOM     14  O   UNL A   1      37.399  34.952  33.579  1.00  0.00    -0.273 OA
ATOM     15  N   UNL A   1      35.189  34.549  34.100  1.00  0.00    -0.325 N 
ATOM     16  H   UNL A   1      34.614  34.187  34.812  1.00  0.00     0.169 HD
BRANCH  15  17
ATOM     17  C   UNL A   1      34.540  35.227  33.038  1.00  0.00     0.042 A 
ATOM     18  C   UNL A   1      34.059  36.516  33.299  1.00  0.00     0.026 A 
ATOM     19  C   UNL A   1      34.316  34.669  31.774  1.00  0.00     0.041 A 
ATOM     20  C   UNL A   1      33.393  37.244  32.308  1.00  0.00     0.003 A 
ATOM     21  C   UNL A   1      33.653  35.401  30.787  1.00  0.00     0.020 A 
ATOM     22  C   UNL A   1      33.194  36.688  31.046  1.00  0.00     0.016 A 
ATOM     23  Br  UNL A   1      33.376  34.632  29.081  1.00  0.00    -0.051 Br
ENDBRANCH  15  17
ENDBRANCH  12  13
ENDBRANCH   8  12
ENDBRANCH   4   7
ENDBRANCH   2   3
ENDBRANCH   1   2
BRANCH   1  24
ATOM     24  C   UNL A   1      37.204  32.707  29.163  1.00  0.00     0.118 C 
BRANCH  24  25
ATOM     25  N   UNL A   1      36.050  31.997  28.635  1.00  0.00    -0.352 N 
ATOM     26  C   UNL A   1      35.985  30.702  28.162  1.00  0.00     0.251 C 
ATOM     27  H   UNL A   1      35.207  32.505  28.613  1.00  0.00     0.163 HD
ATOM     28  O   UNL A   1      35.018  30.341  27.513  1.00  0.00    -0.269 OA
BRANCH  26  29
ATOM     29  C   UNL A   1      37.111  29.767  28.401  1.00  0.00     0.039 A 
ATOM     30  C   UNL A   1      38.130  29.700  27.445  1.00  0.00     0.014 A 
ATOM     31  C   UNL A   1      37.159  28.954  29.540  1.00  0.00     0.014 A 
ATOM     32  C   UNL A   1      39.243  28.895  27.682  1.00  0.00     0.010 A 
ATOM     33  C   UNL A   1      38.280  28.167  29.792  1.00  0.00     0.010 A 
ATOM     34  C   UNL A   1      39.338  28.165  28.879  1.00  0.00    -0.014 A 
BRANCH  34  35
ATOM     35  C   UNL A   1      40.661  27.609  29.258  1.00  0.00     0.031 A 
ATOM     36  C   UNL A   1      40.972  26.335  28.446  1.00  0.00     0.074 A 
ATOM     37  C   UNL A   1      41.357  28.226  30.265  1.00  0.00     0.049 A 
ATOM     38  N   UNL A   1      41.631  25.275  28.791  1.00  0.00    -0.248 NA
ATOM     39  C   UNL A   1      40.387  26.167  27.083  1.00  0.00     0.031 C 
ATOM     40  C   UNL A   1      40.966  29.511  30.890  1.00  0.00     0.029 A 
ATOM     41  N   UNL A   1      42.512  27.929  30.966  1.00  0.00    -0.354 N 
ATOM     42  C   UNL A   1      41.689  24.408  27.673  1.00  0.00     0.074 A 
ATOM     43  C   UNL A   1      40.815  24.964  26.687  1.00  0.00     0.031 C 
ATOM     44  C   UNL A   1      41.798  29.832  31.908  1.00  0.00     0.029 A 
ATOM     45  C   UNL A   1      42.812  28.804  32.050  1.00  0.00     0.049 A 
ATOM     46  H   UNL A   1      43.088  27.166  30.732  1.00  0.00     0.167 HD
ATOM     47  C   UNL A   1      42.566  23.361  27.592  1.00  0.00     0.031 A 
ATOM     48  C   UNL A   1      43.771  28.691  33.025  1.00  0.00     0.031 A 
ATOM     49  C   UNL A   1      43.317  23.284  28.797  1.00  0.00     0.049 A 
ATOM     50  C   UNL A   1      44.592  27.536  32.643  1.00  0.00     0.074 A 
ATOM     51  C   UNL A   1      42.982  22.934  30.079  1.00  0.00     0.029 A 
ATOM     52  N   UNL A   1      44.500  23.986  28.804  1.00  0.00    -0.354 N 
ATOM     53  N   UNL A   1      45.479  27.535  31.697  1.00  0.00    -0.248 NA
ATOM     54  C   UNL A   1      44.388  26.259  33.341  1.00  0.00     0.031 C 
ATOM     55  C   UNL A   1      43.690  23.876  30.850  1.00  0.00     0.029 A 
ATOM     56  C   UNL A   1      44.601  24.565  30.039  1.00  0.00     0.049 A 
ATOM     57  H   UNL A   1      45.146  24.057  28.065  1.00  0.00     0.167 HD
ATOM     58  C   UNL A   1      45.608  26.196  31.435  1.00  0.00     0.074 A 
ATOM     59  C   UNL A   1      45.233  25.499  32.648  1.00  0.00     0.031 C 
ATOM     60  C   UNL A   1      45.402  25.757  30.167  1.00  0.00     0.031 A 
BRANCH  47  61
ATOM     61  C   UNL A   1      43.060  22.516  26.444  1.00  0.00    -0.014 A 
ATOM     62  C   UNL A   1      42.598  21.170  26.402  1.00  0.00     0.010 A 
ATOM     63  C   UNL A   1      44.168  22.838  25.651  1.00  0.00     0.010 A 
ATOM     64  C   UNL A   1      43.301  20.166  25.739  1.00  0.00     0.020 A 
ATOM     65  C   UNL A   1      44.857  21.835  24.941  1.00  0.00     0.020 A 
ATOM     66  C   UNL A   1      44.452  20.500  25.039  1.00  0.00     0.054 A 
BRANCH  66  67
ATOM     67  S   UNL A   1      45.435  19.155  24.323  1.00  0.00     0.124 S 
ATOM     68  O   UNL A   1      46.767  19.749  24.258  1.00  0.00    -0.237 OA
ATOM     69  O   UNL A   1      45.274  18.086  25.308  1.00  0.00    -0.237 OA
ATOM     70  O   UNL A   1      44.790  18.908  23.036  1.00  0.00    -0.744 OA
ENDBRANCH  66  67
ENDBRANCH  47  61
BRANCH  48  71
ATOM     71  C   UNL A   1      44.144  29.316  34.356  1.00  0.00    -0.014 A 
ATOM     72  C   UNL A   1      45.277  30.085  34.642  1.00  0.00     0.010 A 
ATOM     73  C   UNL A   1      43.205  29.202  35.427  1.00  0.00     0.010 A 
ATOM     74  C   UNL A   1      45.376  30.817  35.857  1.00  0.00     0.020 A 
ATOM     75  C   UNL A   1      43.262  29.952  36.601  1.00  0.00     0.020 A 
ATOM     76  C   UNL A   1      44.340  30.790  36.800  1.00  0.00     0.054 A 
BRANCH  76  77
ATOM     77  S   UNL A   1      44.304  31.937  38.208  1.00  0.00     0.124 S 
ATOM     78  O   UNL A   1      43.452  31.239  39.165  1.00  0.00    -0.237 OA
ATOM     79  O   UNL A   1      45.714  32.043  38.573  1.00  0.00    -0.237 OA
ATOM     80  O   UNL A   1      43.730  33.156  37.639  1.00  0.00    -0.744 OA
ENDBRANCH  76  77
ENDBRANCH  48  71
BRANCH  60  81
ATOM     81  C   UNL A   1      45.677  26.777  29.069  1.00  0.00    -0.014 A 
ATOM     82  C   UNL A   1      47.012  27.047  28.704  1.00  0.00     0.010 A 
ATOM     83  C   UNL A   1      44.674  27.556  28.454  1.00  0.00     0.010 A 
ATOM     84  C   UNL A   1      47.337  28.053  27.783  1.00  0.00     0.020 A 
ATOM     85  C   UNL A   1      44.991  28.568  27.526  1.00  0.00     0.020 A 
ATOM     86  C   UNL A   1      46.325  28.810  27.196  1.00  0.00     0.054 A 
BRANCH  86  87
ATOM     87  S   UNL A   1      46.791  30.112  26.012  1.00  0.00     0.124 S 
ATOM     88  O   UNL A   1      46.764  29.410  24.730  1.00  0.00    -0.237 OA
ATOM     89  O   UNL A   1      45.734  31.103  26.200  1.00  0.00    -0.237 OA
ATOM     90  O   UNL A   1      48.119  30.532  26.455  1.00  0.00    -0.744 OA
ENDBRANCH  86  87
ENDBRANCH  60  81
ENDBRANCH  34  35
ENDBRANCH  26  29
ENDBRANCH  24  25
ENDBRANCH   1  24
TORSDOF 16
ENDMDL
MODEL 3
REMARK VINA RESULT:     -11.9      3.420      9.140
REMARK SMILES O=C(Cn1cccc1C(=O)NCCCNC(=O)c1ccc(-c2c3nc(c(-c4ccc(S(=O)(=O)[O-])cc4)c4ccc([nH]4)c(-c4ccc(S(=O)(=O)[O-])cc4)c4nc(c(-c5ccc(S(=O)(=O)[O-])cc5)c5ccc2[nH]5)C=C4)C=C3)cc1)Nc1cccc(Br)c1
REMARK SMILES IDX 13 1 12 2 11 3 9 4 10 5 8 7 4 8 5 9 6 10 7 11 3 12 2 13 1 14
REMARK SMILES IDX 78 15 79 17 80 18 85 19 81 20 83 21 82 22 84 23 14 24 15 25
REMARK SMILES IDX 16 26 17 28 18 29 19 30 77 31 20 32 76 33 21 34 22 35 23 36
REMARK SMILES IDX 70 37 24 38 75 39 69 40 71 41 25 42 74 43 68 44 67 45 26 47
REMARK SMILES IDX 56 48 37 49 55 50 38 51 41 52 54 53 72 54 39 55 40 56 53 58
REMARK SMILES IDX 73 59 42 60 27 61 28 62 36 63 29 64 35 65 30 66 31 67 32 68
REMARK SMILES IDX 33 69 34 70 57 71 58 72 66 73 59 74 65 75 60 76 61 77 62 78
REMARK SMILES IDX 63 79 64 80 43 81 44 82 52 83 45 84 51 85 46 86 47 87 48 88
REMARK SMILES IDX 49 89 50 90
REMARK H PARENT 11 6 78 16 15 27 71 46 41 57
REMARK Flexibility Score: inf
ROOT
ATOM      1  C   UNL A   1      37.945  19.978  25.003  1.00  0.00     0.042 C 
ENDROOT
BRANCH   1   2
ATOM      2  C   UNL A   1      37.121  21.186  24.569  1.00  0.00     0.118 C 
BRANCH   2   3
ATOM      3  N   UNL A   1      36.393  21.851  25.622  1.00  0.00    -0.351 N 
ATOM      4  C   UNL A   1      35.054  21.901  25.897  1.00  0.00     0.267 C 
ATOM      5  O   UNL A   1      34.736  22.479  26.937  1.00  0.00    -0.268 OA
ATOM      6  H   UNL A   1      36.957  22.355  26.251  1.00  0.00     0.163 HD
BRANCH   4   7
ATOM      7  C   UNL A   1      34.037  21.336  25.022  1.00  0.00     0.107 A 
ATOM      8  N   UNL A   1      33.432  21.786  23.859  1.00  0.00    -0.334 N 
ATOM      9  C   UNL A   1      32.438  20.887  23.496  1.00  0.00     0.087 A 
ATOM     10  C   UNL A   1      32.546  19.767  24.272  1.00  0.00     0.020 A 
ATOM     11  C   UNL A   1      33.569  20.032  25.199  1.00  0.00     0.033 A 
BRANCH   8  12
ATOM     12  C   UNL A   1      33.597  22.997  23.058  1.00  0.00     0.222 C 
BRANCH  12  13
ATOM     13  C   UNL A   1      33.481  24.388  23.634  1.00  0.00     0.244 C 
ATOM     14  O   UNL A   1      33.513  25.323  22.826  1.00  0.00    -0.273 OA
ATOM     15  N   UNL A   1      33.315  24.544  24.988  1.00  0.00    -0.325 N 
ATOM     16  H   UNL A   1      33.527  23.766  25.554  1.00  0.00     0.169 HD
BRANCH  15  17
ATOM     17  C   UNL A   1      32.872  25.715  25.651  1.00  0.00     0.042 A 
ATOM     18  C   UNL A   1      31.495  25.852  25.860  1.00  0.00     0.026 A 
ATOM     19  C   UNL A   1      33.721  26.750  26.061  1.00  0.00     0.041 A 
ATOM     20  C   UNL A   1      30.977  26.987  26.492  1.00  0.00     0.003 A 
ATOM     21  C   UNL A   1      33.199  27.880  26.695  1.00  0.00     0.020 A 
ATOM     22  C   UNL A   1      31.832  28.002  26.916  1.00  0.00     0.016 A 
ATOM     23  Br  UNL A   1      34.367  29.259  27.256  1.00  0.00    -0.051 Br
ENDBRANCH  15  17
ENDBRANCH  12  13
ENDBRANCH   8  12
ENDBRANCH   4   7
ENDBRANCH   2   3
ENDBRANCH   1   2
BRANCH   1  24
ATOM     24  C   UNL A   1      39.203  20.303  25.803  1.00  0.00     0.118 C 
BRANCH  24  25
ATOM     25  N   UNL A   1      40.128  19.186  25.903  1.00  0.00    -0.352 N 
ATOM     26  C   UNL A   1      41.494  19.222  26.105  1.00  0.00     0.251 C 
ATOM     27  H   UNL A   1      39.731  18.290  25.816  1.00  0.00     0.163 HD
ATOM     28  O   UNL A   1      42.164  18.223  25.903  1.00  0.00    -0.269 OA
BRANCH  26  29
ATOM     29  C   UNL A   1      42.150  20.486  26.520  1.00  0.00     0.039 A 
ATOM     30  C   UNL A   1      42.746  21.278  25.532  1.00  0.00     0.014 A 
ATOM     31  C   UNL A   1      42.194  20.882  27.862  1.00  0.00     0.014 A 
ATOM     32  C   UNL A   1      43.294  22.511  25.879  1.00  0.00     0.010 A 
ATOM     33  C   UNL A   1      42.720  22.124  28.209  1.00  0.00     0.010 A 
ATOM     34  C   UNL A   1      43.238  22.954  27.210  1.00  0.00    -0.014 A 
BRANCH  34  35
ATOM     35  C   UNL A   1      43.502  24.389  27.485  1.00  0.00     0.031 A 
ATOM     36  C   UNL A   1      42.180  25.173  27.615  1.00  0.00     0.074 A 
ATOM     37  C   UNL A   1      44.805  24.811  27.517  1.00  0.00     0.049 A 
ATOM     38  N   UNL A   1      41.909  26.396  27.286  1.00  0.00    -0.248 NA
ATOM     39  C   UNL A   1      40.950  24.474  28.092  1.00  0.00     0.031 C 
ATOM     40  C   UNL A   1      45.981  23.911  27.467  1.00  0.00     0.029 A 
ATOM     41  N   UNL A   1      45.420  26.048  27.600  1.00  0.00    -0.354 N 
ATOM     42  C   UNL A   1      40.569  26.666  27.657  1.00  0.00     0.074 A 
ATOM     43  C   UNL A   1      40.001  25.413  28.048  1.00  0.00     0.031 C 
ATOM     44  C   UNL A   1      47.135  24.616  27.436  1.00  0.00     0.029 A 
ATOM     45  C   UNL A   1      46.839  26.036  27.466  1.00  0.00     0.049 A 
ATOM     46  H   UNL A   1      44.913  26.879  27.742  1.00  0.00     0.167 HD
ATOM     47  C   UNL A   1      40.066  27.935  27.744  1.00  0.00     0.031 A 
ATOM     48  C   UNL A   1      47.713  27.086  27.337  1.00  0.00     0.031 A 
ATOM     49  C   UNL A   1      41.069  28.865  27.357  1.00  0.00     0.049 A 
ATOM     50  C   UNL A   1      46.912  28.298  27.540  1.00  0.00     0.074 A 
ATOM     51  C   UNL A   1      41.651  29.154  26.151  1.00  0.00     0.029 A 
ATOM     52  N   UNL A   1      41.857  29.346  28.377  1.00  0.00    -0.354 N 
ATOM     53  N   UNL A   1      46.488  28.725  28.688  1.00  0.00    -0.248 NA
ATOM     54  C   UNL A   1      46.511  29.088  26.368  1.00  0.00     0.031 C 
ATOM     55  C   UNL A   1      43.005  29.331  26.496  1.00  0.00     0.029 A 
ATOM     56  C   UNL A   1      43.134  29.399  27.890  1.00  0.00     0.049 A 
ATOM     57  H   UNL A   1      41.560  29.601  29.280  1.00  0.00     0.167 HD
ATOM     58  C   UNL A   1      45.461  29.553  28.318  1.00  0.00     0.074 A 
ATOM     59  C   UNL A   1      45.756  30.001  26.973  1.00  0.00     0.031 C 
ATOM     60  C   UNL A   1      44.223  29.328  28.830  1.00  0.00     0.031 A 
BRANCH  47  61
ATOM     61  C   UNL A   1      38.839  28.515  28.403  1.00  0.00    -0.014 A 
ATOM     62  C   UNL A   1      38.289  29.684  27.804  1.00  0.00     0.010 A 
ATOM     63  C   UNL A   1      38.427  28.208  29.705  1.00  0.00     0.010 A 
ATOM     64  C   UNL A   1      37.506  30.585  28.522  1.00  0.00     0.020 A 
ATOM     65  C   UNL A   1      37.597  29.093  30.422  1.00  0.00     0.020 A 
ATOM     66  C   UNL A   1      37.193  30.301  29.844  1.00  0.00     0.054 A 
BRANCH  66  67
ATOM     67  S   UNL A   1      36.312  31.562  30.802  1.00  0.00     0.124 S 
ATOM     68  O   UNL A   1      36.013  30.853  32.043  1.00  0.00    -0.237 OA
ATOM     69  O   UNL A   1      37.308  32.627  30.915  1.00  0.00    -0.237 OA
ATOM     70  O   UNL A   1      35.159  31.885  29.965  1.00  0.00    -0.744 OA
ENDBRANCH  66  67
ENDBRANCH  47  61
BRANCH  48  71
ATOM     71  C   UNL A   1      49.162  27.343  26.968  1.00  0.00    -0.014 A 
ATOM     72  C   UNL A   1      50.188  27.775  27.816  1.00  0.00     0.010 A 
ATOM     73  C   UNL A   1      49.572  27.026  25.636  1.00  0.00     0.010 A 
ATOM     74  C   UNL A   1      51.547  27.733  27.400  1.00  0.00     0.020 A 
ATOM     75  C   UNL A   1      50.902  26.931  25.229  1.00  0.00     0.020 A 
ATOM     76  C   UNL A   1      51.896  27.255  26.130  1.00  0.00     0.054 A 
BRANCH  76  77
ATOM     77  S   UNL A   1      53.623  26.910  25.684  1.00  0.00     0.124 S 
ATOM     78  O   UNL A   1      54.291  26.907  26.981  1.00  0.00    -0.237 OA
ATOM     79  O   UNL A   1      53.531  25.615  25.015  1.00  0.00    -0.237 OA
ATOM     80  O   UNL A   1      53.977  28.025  24.805  1.00  0.00    -0.744 OA
ENDBRANCH  76  77
ENDBRANCH  48  71
BRANCH  60  81
ATOM     81  C   UNL A   1      44.194  28.642  30.190  1.00  0.00    -0.014 A 
ATOM     82  C   UNL A   1      44.586  29.369  31.333  1.00  0.00     0.010 A 
ATOM     83  C   UNL A   1      43.894  27.275  30.371  1.00  0.00     0.010 A 
ATOM     84  C   UNL A   1      44.689  28.765  32.594  1.00  0.00     0.020 A 
ATOM     85  C   UNL A   1      43.992  26.659  31.635  1.00  0.00     0.020 A 
ATOM     86  C   UNL A   1      44.390  27.411  32.741  1.00  0.00     0.054 A 
BRANCH  86  87
ATOM     87  S   UNL A   1      44.545  26.664  34.394  1.00  0.00     0.124 S 
ATOM     88  O   UNL A   1      44.132  27.749  35.282  1.00  0.00    -0.237 OA
ATOM     89  O   UNL A   1      43.620  25.536  34.318  1.00  0.00    -0.237 OA
ATOM     90  O   UNL A   1      45.957  26.299  34.485  1.00  0.00    -0.744 OA
ENDBRANCH  86  87
ENDBRANCH  60  81
ENDBRANCH  34  35
ENDBRANCH  26  29
ENDBRANCH  24  25
ENDBRANCH   1  24
TORSDOF 16
ENDMDL
