MODEL 1
REMARK VINA RESULT:     -14.5      0.000      0.000
REMARK SMILES Cc1cccc(OC2(C(=O)NCCCNC(=O)c3ccc(-c4c5nc(c(-c6ccc(S(=O)(=O)[O-])cc6)c6ccc([nH]6)c(-c6ccc(S(=O)(=O)[O-])cc6)c6nc(c(-c7ccc(S(=O)(=O)[O-])cc7)c7ccc4[nH]7)C=C6)C=C5)cc3)CCN(C(=O)c3cnc[nH]c3=O)CC2)c1
REMARK SMILES IDX 13 1 12 2 11 3 9 4 10 5 8 7 78 8 91 9 79 10 90 11 80 12
REMARK SMILES IDX 81 13 82 14 7 15 6 16 1 17 2 18 3 19 92 20 4 21 5 22 83 23
REMARK SMILES IDX 84 24 88 25 85 26 87 27 89 28 86 29 14 31 15 32 16 33 17 35
REMARK SMILES IDX 18 36 19 37 77 38 20 39 76 40 21 41 22 42 23 43 70 44 24 45
REMARK SMILES IDX 75 46 69 47 71 48 25 49 74 50 68 51 67 52 26 54 56 55 37 56
REMARK SMILES IDX 55 57 38 58 41 59 54 60 72 61 39 62 40 63 53 65 73 66 42 67
REMARK SMILES IDX 27 68 28 69 36 70 29 71 35 72 30 73 31 74 32 75 33 76 34 77
REMARK SMILES IDX 57 78 58 79 66 80 59 81 65 82 60 83 61 84 62 85 63 86 64 87
REMARK SMILES IDX 43 88 44 89 52 90 45 91 51 92 46 93 47 94 48 95 49 96 50 97
REMARK H PARENT 11 6 87 30 15 34 71 53 41 64
REMARK Flexibility Score: inf
ROOT
ATOM      1  C   UNL A   1      38.247  21.860  25.594  1.00  0.00     0.042 C 
ENDROOT
BRANCH   1   2
ATOM      2  C   UNL A   1      36.752  21.694  25.299  1.00  0.00     0.118 C 
BRANCH   2   3
ATOM      3  N   UNL A   1      35.901  21.689  26.501  1.00  0.00    -0.353 N 
ATOM      4  C   UNL A   1      34.562  21.796  26.751  1.00  0.00     0.264 C 
ATOM      5  O   UNL A   1      34.228  21.494  27.907  1.00  0.00    -0.270 OA
ATOM      6  H   UNL A   1      36.426  21.581  27.328  1.00  0.00     0.163 HD
BRANCH   4   7
ATOM      7  C   UNL A   1      33.475  22.222  25.704  1.00  0.00     0.190 C 
ATOM      8  C   UNL A   1      32.062  22.103  26.268  1.00  0.00     0.080 C 
ATOM      9  C   UNL A   1      33.720  23.703  25.295  1.00  0.00     0.080 C 
ATOM     10  C   UNL A   1      30.983  22.659  25.365  1.00  0.00     0.124 C 
ATOM     11  C   UNL A   1      32.590  24.222  24.385  1.00  0.00     0.124 C 
ATOM     12  N   UNL A   1      31.308  24.037  25.059  1.00  0.00    -0.338 N 
ATOM     13  C   UNL A   1      30.589  25.042  25.682  1.00  0.00     0.261 C 
ATOM     14  O   UNL A   1      29.928  24.877  26.703  1.00  0.00    -0.269 OA
BRANCH   7  15
ATOM     15  O   UNL A   1      33.769  21.512  24.479  1.00  0.00    -0.477 OA
BRANCH  15  16
ATOM     16  C   UNL A   1      33.640  20.212  24.123  1.00  0.00     0.121 A 
ATOM     17  C   UNL A   1      34.679  16.627  24.868  1.00  0.00     0.044 C 
ATOM     18  C   UNL A   1      33.954  17.797  24.269  1.00  0.00    -0.047 A 
ATOM     19  C   UNL A   1      32.844  17.590  23.450  1.00  0.00     0.003 A 
ATOM     20  C   UNL A   1      34.370  19.112  24.555  1.00  0.00     0.049 A 
ATOM     21  C   UNL A   1      32.147  18.680  22.942  1.00  0.00     0.004 A 
ATOM     22  C   UNL A   1      32.537  19.976  23.291  1.00  0.00     0.046 A 
ENDBRANCH  15  16
ENDBRANCH   7  15
BRANCH  13  23
ATOM     23  C   UNL A   1      30.555  26.334  24.986  1.00  0.00     0.123 A 
ATOM     24  C   UNL A   1      29.775  26.521  23.913  1.00  0.00     0.132 A 
ATOM     25  C   UNL A   1      31.458  27.431  25.374  1.00  0.00     0.263 A 
ATOM     26  N   UNL A   1      29.721  27.682  23.175  1.00  0.00    -0.246 NA
ATOM     27  N   UNL A   1      31.392  28.539  24.579  1.00  0.00    -0.312 N 
ATOM     28  O   UNL A   1      32.226  27.381  26.328  1.00  0.00    -0.269 OA
ATOM     29  C   UNL A   1      30.531  28.622  23.525  1.00  0.00     0.199 A 
ATOM     30  H   UNL A   1      31.984  29.301  24.772  1.00  0.00     0.171 HD
ENDBRANCH  13  23
ENDBRANCH   4   7
ENDBRANCH   2   3
ENDBRANCH   1   2
BRANCH   1  31
ATOM     31  C   UNL A   1      38.704  23.263  25.972  1.00  0.00     0.118 C 
BRANCH  31  32
ATOM     32  N   UNL A   1      40.041  23.282  26.575  1.00  0.00    -0.352 N 
ATOM     33  C   UNL A   1      40.693  24.331  27.195  1.00  0.00     0.251 C 
ATOM     34  H   UNL A   1      40.541  22.434  26.532  1.00  0.00     0.163 HD
ATOM     35  O   UNL A   1      41.830  24.270  27.647  1.00  0.00    -0.269 OA
BRANCH  33  36
ATOM     36  C   UNL A   1      39.906  25.561  27.369  1.00  0.00     0.039 A 
ATOM     37  C   UNL A   1      40.409  26.701  26.733  1.00  0.00     0.014 A 
ATOM     38  C   UNL A   1      39.055  25.637  28.473  1.00  0.00     0.014 A 
ATOM     39  C   UNL A   1      40.263  27.927  27.361  1.00  0.00     0.010 A 
ATOM     40  C   UNL A   1      38.958  26.855  29.122  1.00  0.00     0.010 A 
ATOM     41  C   UNL A   1      39.643  27.969  28.613  1.00  0.00    -0.014 A 
BRANCH  41  42
ATOM     42  C   UNL A   1      39.830  29.102  29.511  1.00  0.00     0.031 A 
ATOM     43  C   UNL A   1      38.800  30.151  29.582  1.00  0.00     0.074 A 
ATOM     44  C   UNL A   1      40.977  29.257  30.213  1.00  0.00     0.049 A 
ATOM     45  N   UNL A   1      39.065  31.394  29.798  1.00  0.00    -0.248 NA
ATOM     46  C   UNL A   1      37.387  29.884  29.345  1.00  0.00     0.031 C 
ATOM     47  C   UNL A   1      41.249  30.251  31.249  1.00  0.00     0.029 A 
ATOM     48  N   UNL A   1      42.216  28.677  29.965  1.00  0.00    -0.354 N 
ATOM     49  C   UNL A   1      37.869  32.034  29.999  1.00  0.00     0.074 A 
ATOM     50  C   UNL A   1      36.852  31.076  29.625  1.00  0.00     0.031 C 
ATOM     51  C   UNL A   1      42.577  30.382  31.384  1.00  0.00     0.029 A 
ATOM     52  C   UNL A   1      43.219  29.572  30.362  1.00  0.00     0.049 A 
ATOM     53  H   UNL A   1      42.364  27.786  29.575  1.00  0.00     0.167 HD
ATOM     54  C   UNL A   1      37.840  33.259  30.588  1.00  0.00     0.031 A 
ATOM     55  C   UNL A   1      44.148  30.026  29.471  1.00  0.00     0.031 A 
ATOM     56  C   UNL A   1      39.174  33.755  30.922  1.00  0.00     0.049 A 
ATOM     57  C   UNL A   1      44.048  31.512  29.169  1.00  0.00     0.074 A 
ATOM     58  C   UNL A   1      39.903  33.858  32.096  1.00  0.00     0.029 A 
ATOM     59  N   UNL A   1      40.078  33.972  29.896  1.00  0.00    -0.354 N 
ATOM     60  N   UNL A   1      43.186  32.323  29.723  1.00  0.00    -0.248 NA
ATOM     61  C   UNL A   1      44.859  32.190  28.157  1.00  0.00     0.031 C 
ATOM     62  C   UNL A   1      41.254  34.160  31.759  1.00  0.00     0.029 A 
ATOM     63  C   UNL A   1      41.340  34.256  30.384  1.00  0.00     0.049 A 
ATOM     64  H   UNL A   1      39.851  33.930  28.939  1.00  0.00     0.167 HD
ATOM     65  C   UNL A   1      43.260  33.557  29.129  1.00  0.00     0.074 A 
ATOM     66  C   UNL A   1      44.338  33.430  28.167  1.00  0.00     0.031 C 
ATOM     67  C   UNL A   1      42.398  34.573  29.437  1.00  0.00     0.031 A 
BRANCH  54  68
ATOM     68  C   UNL A   1      36.551  33.846  31.096  1.00  0.00    -0.014 A 
ATOM     69  C   UNL A   1      35.452  33.981  30.229  1.00  0.00     0.010 A 
ATOM     70  C   UNL A   1      36.393  34.341  32.405  1.00  0.00     0.010 A 
ATOM     71  C   UNL A   1      34.303  34.690  30.604  1.00  0.00     0.020 A 
ATOM     72  C   UNL A   1      35.269  35.092  32.780  1.00  0.00     0.020 A 
ATOM     73  C   UNL A   1      34.235  35.275  31.867  1.00  0.00     0.054 A 
BRANCH  73  74
ATOM     74  S   UNL A   1      32.802  36.304  32.280  1.00  0.00     0.124 S 
ATOM     75  O   UNL A   1      32.597  37.069  31.052  1.00  0.00    -0.237 OA
ATOM     76  O   UNL A   1      31.778  35.308  32.580  1.00  0.00    -0.237 OA
ATOM     77  O   UNL A   1      33.260  37.092  33.423  1.00  0.00    -0.744 OA
ENDBRANCH  73  74
ENDBRANCH  54  68
BRANCH  55  78
ATOM     78  C   UNL A   1      44.661  28.968  28.554  1.00  0.00    -0.014 A 
ATOM     79  C   UNL A   1      43.989  28.793  27.324  1.00  0.00     0.010 A 
ATOM     80  C   UNL A   1      45.953  28.434  28.694  1.00  0.00     0.010 A 
ATOM     81  C   UNL A   1      44.635  28.216  26.226  1.00  0.00     0.020 A 
ATOM     82  C   UNL A   1      46.607  27.858  27.591  1.00  0.00     0.020 A 
ATOM     83  C   UNL A   1      45.961  27.802  26.352  1.00  0.00     0.054 A 
BRANCH  83  84
ATOM     84  S   UNL A   1      46.849  27.277  24.852  1.00  0.00     0.124 S 
ATOM     85  O   UNL A   1      46.147  26.052  24.482  1.00  0.00    -0.237 OA
ATOM     86  O   UNL A   1      46.631  28.408  23.949  1.00  0.00    -0.237 OA
ATOM     87  O   UNL A   1      48.219  27.101  25.316  1.00  0.00    -0.744 OA
ENDBRANCH  83  84
ENDBRANCH  55  78
BRANCH  67  88
ATOM     88  C   UNL A   1      42.421  35.961  28.836  1.00  0.00    -0.014 A 
ATOM     89  C   UNL A   1      41.823  36.291  27.609  1.00  0.00     0.010 A 
ATOM     90  C   UNL A   1      43.183  36.976  29.466  1.00  0.00     0.010 A 
ATOM     91  C   UNL A   1      41.919  37.591  27.082  1.00  0.00     0.020 A 
ATOM     92  C   UNL A   1      43.301  38.265  28.942  1.00  0.00     0.020 A 
ATOM     93  C   UNL A   1      42.649  38.572  27.760  1.00  0.00     0.054 A 
BRANCH  93  94
ATOM     94  S   UNL A   1      42.768  40.237  27.059  1.00  0.00     0.124 S 
ATOM     95  O   UNL A   1      41.466  40.407  26.420  1.00  0.00    -0.237 OA
ATOM     96  O   UNL A   1      42.996  41.051  28.249  1.00  0.00    -0.237 OA
ATOM     97  O   UNL A   1      43.900  40.151  26.138  1.00  0.00    -0.744 OA
ENDBRANCH  93  94
ENDBRANCH  67  88
ENDBRANCH  41  42
ENDBRANCH  33  36
ENDBRANCH  31  32
ENDBRANCH   1  31
TORSDOF 16
ENDMDL
MODEL 2
REMARK VINA RESULT:     -13.2      2.398      3.302
REMARK SMILES Cc1cccc(OC2(C(=O)NCCCNC(=O)c3ccc(-c4c5nc(c(-c6ccc(S(=O)(=O)[O-])cc6)c6ccc([nH]6)c(-c6ccc(S(=O)(=O)[O-])cc6)c6nc(c(-c7ccc(S(=O)(=O)[O-])cc7)c7ccc4[nH]7)C=C6)C=C5)cc3)CCN(C(=O)c3cnc[nH]c3=O)CC2)c1
REMARK SMILES IDX 13 1 12 2 11 3 9 4 10 5 8 7 78 8 91 9 79 10 90 11 80 12
REMARK SMILES IDX 81 13 82 14 7 15 6 16 1 17 2 18 3 19 92 20 4 21 5 22 83 23
REMARK SMILES IDX 84 24 88 25 85 26 87 27 89 28 86 29 14 31 15 32 16 33 17 35
REMARK SMILES IDX 18 36 19 37 77 38 20 39 76 40 21 41 22 42 23 43 70 44 24 45
REMARK SMILES IDX 75 46 69 47 71 48 25 49 74 50 68 51 67 52 26 54 56 55 37 56
REMARK SMILES IDX 55 57 38 58 41 59 54 60 72 61 39 62 40 63 53 65 73 66 42 67
REMARK SMILES IDX 27 68 28 69 36 70 29 71 35 72 30 73 31 74 32 75 33 76 34 77
REMARK SMILES IDX 57 78 58 79 66 80 59 81 65 82 60 83 61 84 62 85 63 86 64 87
REMARK SMILES IDX 43 88 44 89 52 90 45 91 51 92 46 93 47 94 48 95 49 96 50 97
REMARK H PARENT 11 6 87 30 15 34 71 53 41 64
REMARK Flexibility Score: inf
ROOT
ATOM      1  C   UNL A   1      36.741  21.975  25.658  1.00  0.00     0.042 C 
ENDROOT
BRANCH   1   2
ATOM      2  C   UNL A   1      36.166  23.223  26.336  1.00  0.00     0.118 C 
BRANCH   2   3
ATOM      3  N   UNL A   1      34.998  22.956  27.193  1.00  0.00    -0.353 N 
ATOM      4  C   UNL A   1      33.650  22.843  27.003  1.00  0.00     0.264 C 
ATOM      5  O   UNL A   1      33.033  22.363  27.965  1.00  0.00    -0.270 OA
ATOM      6  H   UNL A   1      35.252  22.826  28.137  1.00  0.00     0.163 HD
BRANCH   4   7
ATOM      7  C   UNL A   1      32.884  23.232  25.690  1.00  0.00     0.190 C 
ATOM      8  C   UNL A   1      31.371  23.151  25.868  1.00  0.00     0.080 C 
ATOM      9  C   UNL A   1      33.258  24.691  25.301  1.00  0.00     0.080 C 
ATOM     10  C   UNL A   1      30.577  23.677  24.692  1.00  0.00     0.124 C 
ATOM     11  C   UNL A   1      32.416  25.180  24.106  1.00  0.00     0.124 C 
ATOM     12  N   UNL A   1      30.999  25.036  24.427  1.00  0.00    -0.338 N 
ATOM     13  C   UNL A   1      30.163  26.074  24.798  1.00  0.00     0.261 C 
ATOM     14  O   UNL A   1      29.254  25.961  25.616  1.00  0.00    -0.269 OA
BRANCH   7  15
ATOM     15  O   UNL A   1      33.474  22.466  24.615  1.00  0.00    -0.477 OA
BRANCH  15  16
ATOM     16  C   UNL A   1      33.267  21.203  24.172  1.00  0.00     0.121 A 
ATOM     17  C   UNL A   1      33.346  17.503  25.060  1.00  0.00     0.044 C 
ATOM     18  C   UNL A   1      33.096  18.773  24.299  1.00  0.00    -0.047 A 
ATOM     19  C   UNL A   1      32.340  18.751  23.127  1.00  0.00     0.003 A 
ATOM     20  C   UNL A   1      33.594  19.999  24.781  1.00  0.00     0.049 A 
ATOM     21  C   UNL A   1      32.068  19.940  22.458  1.00  0.00     0.004 A 
ATOM     22  C   UNL A   1      32.517  21.152  22.988  1.00  0.00     0.046 A 
ENDBRANCH  15  16
ENDBRANCH   7  15
BRANCH  13  23
ATOM     23  C   UNL A   1      30.338  27.335  24.067  1.00  0.00     0.123 A 
ATOM     24  C   UNL A   1      29.932  27.459  22.796  1.00  0.00     0.132 A 
ATOM     25  C   UNL A   1      31.067  28.466  24.665  1.00  0.00     0.263 A 
ATOM     26  N   UNL A   1      30.103  28.586  22.024  1.00  0.00    -0.246 NA
ATOM     27  N   UNL A   1      31.244  29.539  23.837  1.00  0.00    -0.312 N 
ATOM     28  O   UNL A   1      31.498  28.474  25.813  1.00  0.00    -0.269 OA
ATOM     29  C   UNL A   1      30.755  29.558  22.565  1.00  0.00     0.199 A 
ATOM     30  H   UNL A   1      31.740  30.321  24.170  1.00  0.00     0.171 HD
ENDBRANCH  13  23
ENDBRANCH   4   7
ENDBRANCH   2   3
ENDBRANCH   1   2
BRANCH   1  31
ATOM     31  C   UNL A   1      38.154  22.105  25.103  1.00  0.00     0.118 C 
BRANCH  31  32
ATOM     32  N   UNL A   1      39.167  21.518  25.985  1.00  0.00    -0.352 N 
ATOM     33  C   UNL A   1      40.078  22.161  26.802  1.00  0.00     0.251 C 
ATOM     34  H   UNL A   1      39.204  20.533  25.997  1.00  0.00     0.163 HD
ATOM     35  O   UNL A   1      40.917  21.590  27.489  1.00  0.00    -0.269 OA
BRANCH  33  36
ATOM     36  C   UNL A   1      39.946  23.624  26.880  1.00  0.00     0.039 A 
ATOM     37  C   UNL A   1      40.995  24.360  26.320  1.00  0.00     0.014 A 
ATOM     38  C   UNL A   1      39.109  24.149  27.865  1.00  0.00     0.014 A 
ATOM     39  C   UNL A   1      41.371  25.545  26.930  1.00  0.00     0.010 A 
ATOM     40  C   UNL A   1      39.522  25.306  28.503  1.00  0.00     0.010 A 
ATOM     41  C   UNL A   1      40.704  25.942  28.092  1.00  0.00    -0.014 A 
BRANCH  41  42
ATOM     42  C   UNL A   1      41.295  26.904  29.012  1.00  0.00     0.031 A 
ATOM     43  C   UNL A   1      40.534  28.104  29.398  1.00  0.00     0.074 A 
ATOM     44  C   UNL A   1      42.569  26.765  29.448  1.00  0.00     0.049 A 
ATOM     45  N   UNL A   1      41.082  29.244  29.648  1.00  0.00    -0.248 NA
ATOM     46  C   UNL A   1      39.079  28.124  29.465  1.00  0.00     0.031 C 
ATOM     47  C   UNL A   1      43.243  27.560  30.472  1.00  0.00     0.029 A 
ATOM     48  N   UNL A   1      43.589  26.008  28.881  1.00  0.00    -0.354 N 
ATOM     49  C   UNL A   1      40.107  30.057  30.163  1.00  0.00     0.074 A 
ATOM     50  C   UNL A   1      38.863  29.349  29.954  1.00  0.00     0.031 C 
ATOM     51  C   UNL A   1      44.569  27.435  30.314  1.00  0.00     0.029 A 
ATOM     52  C   UNL A   1      44.811  26.654  29.112  1.00  0.00     0.049 A 
ATOM     53  H   UNL A   1      43.471  25.159  28.397  1.00  0.00     0.167 HD
ATOM     54  C   UNL A   1      40.447  31.187  30.841  1.00  0.00     0.031 A 
ATOM     55  C   UNL A   1      45.608  27.040  28.074  1.00  0.00     0.031 A 
ATOM     56  C   UNL A   1      41.892  31.392  30.904  1.00  0.00     0.049 A 
ATOM     57  C   UNL A   1      45.749  28.546  27.923  1.00  0.00     0.074 A 
ATOM     58  C   UNL A   1      42.853  31.219  31.887  1.00  0.00     0.029 A 
ATOM     59  N   UNL A   1      42.591  31.568  29.721  1.00  0.00    -0.354 N 
ATOM     60  N   UNL A   1      45.201  29.424  28.720  1.00  0.00    -0.248 NA
ATOM     61  C   UNL A   1      46.453  29.186  26.811  1.00  0.00     0.031 C 
ATOM     62  C   UNL A   1      44.139  31.313  31.280  1.00  0.00     0.029 A 
ATOM     63  C   UNL A   1      43.957  31.560  29.933  1.00  0.00     0.049 A 
ATOM     64  H   UNL A   1      42.168  31.684  28.840  1.00  0.00     0.167 HD
ATOM     65  C   UNL A   1      45.397  30.688  28.225  1.00  0.00     0.074 A 
ATOM     66  C   UNL A   1      46.205  30.489  27.038  1.00  0.00     0.031 C 
ATOM     67  C   UNL A   1      44.838  31.796  28.800  1.00  0.00     0.031 A 
BRANCH  54  68
ATOM     68  C   UNL A   1      39.434  31.928  31.672  1.00  0.00    -0.014 A 
ATOM     69  C   UNL A   1      38.880  31.318  32.811  1.00  0.00     0.010 A 
ATOM     70  C   UNL A   1      38.945  33.204  31.331  1.00  0.00     0.010 A 
ATOM     71  C   UNL A   1      37.803  31.891  33.500  1.00  0.00     0.020 A 
ATOM     72  C   UNL A   1      37.839  33.769  31.983  1.00  0.00     0.020 A 
ATOM     73  C   UNL A   1      37.263  33.097  33.057  1.00  0.00     0.054 A 
BRANCH  73  74
ATOM     74  S   UNL A   1      35.785  33.749  33.876  1.00  0.00     0.124 S 
ATOM     75  O   UNL A   1      35.999  33.363  35.270  1.00  0.00    -0.237 OA
ATOM     76  O   UNL A   1      35.877  35.179  33.597  1.00  0.00    -0.237 OA
ATOM     77  O   UNL A   1      34.685  33.054  33.211  1.00  0.00    -0.744 OA
ENDBRANCH  73  74
ENDBRANCH  54  68
BRANCH  55  78
ATOM     78  C   UNL A   1      45.698  26.028  26.983  1.00  0.00    -0.014 A 
ATOM     79  C   UNL A   1      46.342  24.807  27.280  1.00  0.00     0.010 A 
ATOM     80  C   UNL A   1      44.868  26.090  25.850  1.00  0.00     0.010 A 
ATOM     81  C   UNL A   1      46.066  23.649  26.546  1.00  0.00     0.020 A 
ATOM     82  C   UNL A   1      44.585  24.927  25.113  1.00  0.00     0.020 A 
ATOM     83  C   UNL A   1      45.145  23.705  25.500  1.00  0.00     0.054 A 
BRANCH  83  84
ATOM     84  S   UNL A   1      44.628  22.145  24.718  1.00  0.00     0.124 S 
ATOM     85  O   UNL A   1      43.325  21.901  25.331  1.00  0.00    -0.237 OA
ATOM     86  O   UNL A   1      44.584  22.506  23.301  1.00  0.00    -0.237 OA
ATOM     87  O   UNL A   1      45.684  21.213  25.094  1.00  0.00    -0.744 OA
ENDBRANCH  83  84
ENDBRANCH  55  78
BRANCH  67  88
ATOM     88  C   UNL A   1      45.016  33.221  28.323  1.00  0.00    -0.014 A 
ATOM     89  C   UNL A   1      44.430  33.732  27.154  1.00  0.00     0.010 A 
ATOM     90  C   UNL A   1      45.915  34.074  29.009  1.00  0.00     0.010 A 
ATOM     91  C   UNL A   1      44.671  35.053  26.739  1.00  0.00     0.020 A 
ATOM     92  C   UNL A   1      46.176  35.382  28.597  1.00  0.00     0.020 A 
ATOM     93  C   UNL A   1      45.534  35.873  27.472  1.00  0.00     0.054 A 
BRANCH  93  94
ATOM     94  S   UNL A   1      45.839  37.569  26.916  1.00  0.00     0.124 S 
ATOM     95  O   UNL A   1      46.510  38.165  28.068  1.00  0.00    -0.237 OA
ATOM     96  O   UNL A   1      46.677  37.356  25.739  1.00  0.00    -0.237 OA
ATOM     97  O   UNL A   1      44.503  38.094  26.640  1.00  0.00    -0.744 OA
ENDBRANCH  93  94
ENDBRANCH  67  88
ENDBRANCH  41  42
ENDBRANCH  33  36
ENDBRANCH  31  32
ENDBRANCH   1  31
TORSDOF 16
ENDMDL
MODEL 3
REMARK VINA RESULT:     -12.6      4.972      9.840
REMARK SMILES Cc1cccc(OC2(C(=O)NCCCNC(=O)c3ccc(-c4c5nc(c(-c6ccc(S(=O)(=O)[O-])cc6)c6ccc([nH]6)c(-c6ccc(S(=O)(=O)[O-])cc6)c6nc(c(-c7ccc(S(=O)(=O)[O-])cc7)c7ccc4[nH]7)C=C6)C=C5)cc3)CCN(C(=O)c3cnc[nH]c3=O)CC2)c1
REMARK SMILES IDX 13 1 12 2 11 3 9 4 10 5 8 7 78 8 91 9 79 10 90 11 80 12
REMARK SMILES IDX 81 13 82 14 7 15 6 16 1 17 2 18 3 19 92 20 4 21 5 22 83 23
REMARK SMILES IDX 84 24 88 25 85 26 87 27 89 28 86 29 14 31 15 32 16 33 17 35
REMARK SMILES IDX 18 36 19 37 77 38 20 39 76 40 21 41 22 42 23 43 70 44 24 45
REMARK SMILES IDX 75 46 69 47 71 48 25 49 74 50 68 51 67 52 26 54 56 55 37 56
REMARK SMILES IDX 55 57 38 58 41 59 54 60 72 61 39 62 40 63 53 65 73 66 42 67
REMARK SMILES IDX 27 68 28 69 36 70 29 71 35 72 30 73 31 74 32 75 33 76 34 77
REMARK SMILES IDX 57 78 58 79 66 80 59 81 65 82 60 83 61 84 62 85 63 86 64 87
REMARK SMILES IDX 43 88 44 89 52 90 45 91 51 92 46 93 47 94 48 95 49 96 50 97
REMARK H PARENT 11 6 87 30 15 34 71 53 41 64
REMARK Flexibility Score: inf
ROOT
ATOM      1  C   UNL A   1      44.060  24.964  29.404  1.00  0.00     0.042 C 
ENDROOT
BRANCH   1   2
ATOM      2  C   UNL A   1      44.232  25.442  30.850  1.00  0.00     0.118 C 
BRANCH   2   3
ATOM      3  N   UNL A   1      45.630  25.697  31.235  1.00  0.00    -0.353 N 
ATOM      4  C   UNL A   1      46.447  25.316  32.263  1.00  0.00     0.264 C 
ATOM      5  O   UNL A   1      47.649  25.561  32.082  1.00  0.00    -0.270 OA
ATOM      6  H   UNL A   1      46.090  26.289  30.595  1.00  0.00     0.163 HD
BRANCH   4   7
ATOM      7  C   UNL A   1      45.978  24.590  33.571  1.00  0.00     0.190 C 
ATOM      8  C   UNL A   1      45.233  23.293  33.268  1.00  0.00     0.080 C 
ATOM      9  C   UNL A   1      47.226  24.252  34.436  1.00  0.00     0.080 C 
ATOM     10  C   UNL A   1      44.905  22.463  34.490  1.00  0.00     0.124 C 
ATOM     11  C   UNL A   1      46.839  23.399  35.661  1.00  0.00     0.124 C 
ATOM     12  N   UNL A   1      46.135  22.202  35.209  1.00  0.00    -0.338 N 
ATOM     13  C   UNL A   1      46.693  20.939  35.133  1.00  0.00     0.261 C 
ATOM     14  O   UNL A   1      46.417  20.121  34.260  1.00  0.00    -0.269 OA
BRANCH   7  15
ATOM     15  O   UNL A   1      45.300  25.577  34.382  1.00  0.00    -0.477 OA
BRANCH  15  16
ATOM     16  C   UNL A   1      43.990  25.870  34.559  1.00  0.00     0.121 A 
ATOM     17  C   UNL A   1      40.863  25.187  36.619  1.00  0.00     0.044 C 
ATOM     18  C   UNL A   1      41.796  25.815  35.624  1.00  0.00    -0.047 A 
ATOM     19  C   UNL A   1      41.433  26.991  34.967  1.00  0.00     0.003 A 
ATOM     20  C   UNL A   1      43.057  25.241  35.373  1.00  0.00     0.049 A 
ATOM     21  C   UNL A   1      42.324  27.595  34.088  1.00  0.00     0.004 A 
ATOM     22  C   UNL A   1      43.595  27.044  33.901  1.00  0.00     0.046 A 
ENDBRANCH  15  16
ENDBRANCH   7  15
BRANCH  13  23
ATOM     23  C   UNL A   1      47.575  20.557  36.243  1.00  0.00     0.123 A 
ATOM     24  C   UNL A   1      48.907  20.644  36.127  1.00  0.00     0.132 A 
ATOM     25  C   UNL A   1      47.033  19.960  37.475  1.00  0.00     0.263 A 
ATOM     26  N   UNL A   1      49.805  20.260  37.098  1.00  0.00    -0.246 NA
ATOM     27  N   UNL A   1      47.973  19.559  38.381  1.00  0.00    -0.312 N 
ATOM     28  O   UNL A   1      45.836  19.816  37.697  1.00  0.00    -0.269 OA
ATOM     29  C   UNL A   1      49.307  19.728  38.162  1.00  0.00     0.199 A 
ATOM     30  H   UNL A   1      47.677  19.133  39.218  1.00  0.00     0.171 HD
ENDBRANCH  13  23
ENDBRANCH   4   7
ENDBRANCH   2   3
ENDBRANCH   1   2
BRANCH   1  31
ATOM     31  C   UNL A   1      42.784  25.407  28.699  1.00  0.00     0.118 C 
BRANCH  31  32
ATOM     32  N   UNL A   1      42.257  24.388  27.785  1.00  0.00    -0.352 N 
ATOM     33  C   UNL A   1      41.003  24.313  27.208  1.00  0.00     0.251 C 
ATOM     34  H   UNL A   1      42.879  23.661  27.553  1.00  0.00     0.163 HD
ATOM     35  O   UNL A   1      40.632  23.404  26.475  1.00  0.00    -0.269 OA
BRANCH  33  36
ATOM     36  C   UNL A   1      40.114  25.458  27.456  1.00  0.00     0.039 A 
ATOM     37  C   UNL A   1      40.427  26.632  26.765  1.00  0.00     0.014 A 
ATOM     38  C   UNL A   1      39.378  25.464  28.642  1.00  0.00     0.014 A 
ATOM     39  C   UNL A   1      40.220  27.847  27.397  1.00  0.00     0.010 A 
ATOM     40  C   UNL A   1      39.223  26.676  29.290  1.00  0.00     0.010 A 
ATOM     41  C   UNL A   1      39.732  27.846  28.707  1.00  0.00    -0.014 A 
BRANCH  41  42
ATOM     42  C   UNL A   1      39.892  29.006  29.574  1.00  0.00     0.031 A 
ATOM     43  C   UNL A   1      38.847  30.043  29.601  1.00  0.00     0.074 A 
ATOM     44  C   UNL A   1      41.027  29.198  30.286  1.00  0.00     0.049 A 
ATOM     45  N   UNL A   1      39.092  31.296  29.784  1.00  0.00    -0.248 NA
ATOM     46  C   UNL A   1      37.441  29.750  29.353  1.00  0.00     0.031 C 
ATOM     47  C   UNL A   1      41.271  30.225  31.296  1.00  0.00     0.029 A 
ATOM     48  N   UNL A   1      42.277  28.628  30.072  1.00  0.00    -0.354 N 
ATOM     49  C   UNL A   1      37.885  31.924  29.950  1.00  0.00     0.074 A 
ATOM     50  C   UNL A   1      36.886  30.942  29.592  1.00  0.00     0.031 C 
ATOM     51  C   UNL A   1      42.596  30.378  31.445  1.00  0.00     0.029 A 
ATOM     52  C   UNL A   1      43.262  29.548  30.455  1.00  0.00     0.049 A 
ATOM     53  H   UNL A   1      42.442  27.728  29.709  1.00  0.00     0.167 HD
ATOM     54  C   UNL A   1      37.832  33.165  30.504  1.00  0.00     0.031 A 
ATOM     55  C   UNL A   1      44.197  29.989  29.563  1.00  0.00     0.031 A 
ATOM     56  C   UNL A   1      39.154  33.689  30.840  1.00  0.00     0.049 A 
ATOM     57  C   UNL A   1      44.081  31.464  29.218  1.00  0.00     0.074 A 
ATOM     58  C   UNL A   1      39.865  33.836  32.020  1.00  0.00     0.029 A 
ATOM     59  N   UNL A   1      40.069  33.889  29.821  1.00  0.00    -0.354 N 
ATOM     60  N   UNL A   1      43.201  32.278  29.737  1.00  0.00    -0.248 NA
ATOM     61  C   UNL A   1      44.896  32.123  28.196  1.00  0.00     0.031 C 
ATOM     62  C   UNL A   1      41.217  34.147  31.692  1.00  0.00     0.029 A 
ATOM     63  C   UNL A   1      41.320  34.204  30.316  1.00  0.00     0.049 A 
ATOM     64  H   UNL A   1      39.855  33.816  28.862  1.00  0.00     0.167 HD
ATOM     65  C   UNL A   1      43.266  33.496  29.108  1.00  0.00     0.074 A 
ATOM     66  C   UNL A   1      44.358  33.356  28.163  1.00  0.00     0.031 C 
ATOM     67  C   UNL A   1      42.386  34.508  29.374  1.00  0.00     0.031 A 
BRANCH  54  68
ATOM     68  C   UNL A   1      36.528  33.749  30.977  1.00  0.00    -0.014 A 
ATOM     69  C   UNL A   1      35.455  33.891  30.079  1.00  0.00     0.010 A 
ATOM     70  C   UNL A   1      36.332  34.235  32.284  1.00  0.00     0.010 A 
ATOM     71  C   UNL A   1      34.296  34.597  30.425  1.00  0.00     0.020 A 
ATOM     72  C   UNL A   1      35.197  34.983  32.631  1.00  0.00     0.020 A 
ATOM     73  C   UNL A   1      34.190  35.173  31.689  1.00  0.00     0.054 A 
BRANCH  73  74
ATOM     74  S   UNL A   1      32.745  36.199  32.067  1.00  0.00     0.124 S 
ATOM     75  O   UNL A   1      32.471  36.845  30.785  1.00  0.00    -0.237 OA
ATOM     76  O   UNL A   1      31.763  35.209  32.496  1.00  0.00    -0.237 OA
ATOM     77  O   UNL A   1      33.224  37.098  33.116  1.00  0.00    -0.744 OA
ENDBRANCH  73  74
ENDBRANCH  54  68
BRANCH  55  78
ATOM     78  C   UNL A   1      44.736  28.912  28.684  1.00  0.00    -0.014 A 
ATOM     79  C   UNL A   1      43.993  28.584  27.529  1.00  0.00     0.010 A 
ATOM     80  C   UNL A   1      46.079  28.505  28.756  1.00  0.00     0.010 A 
ATOM     81  C   UNL A   1      44.606  27.982  26.425  1.00  0.00     0.020 A 
ATOM     82  C   UNL A   1      46.700  27.906  27.646  1.00  0.00     0.020 A 
ATOM     83  C   UNL A   1      45.971  27.697  26.471  1.00  0.00     0.054 A 
BRANCH  83  84
ATOM     84  S   UNL A   1      46.789  27.137  24.944  1.00  0.00     0.124 S 
ATOM     85  O   UNL A   1      46.446  28.193  23.997  1.00  0.00    -0.237 OA
ATOM     86  O   UNL A   1      48.197  27.100  25.342  1.00  0.00    -0.237 OA
ATOM     87  O   UNL A   1      46.176  25.840  24.690  1.00  0.00    -0.744 OA
ENDBRANCH  83  84
ENDBRANCH  55  78
BRANCH  67  88
ATOM     88  C   UNL A   1      42.399  35.879  28.734  1.00  0.00    -0.014 A 
ATOM     89  C   UNL A   1      41.908  36.143  27.445  1.00  0.00     0.010 A 
ATOM     90  C   UNL A   1      43.045  36.949  29.400  1.00  0.00     0.010 A 
ATOM     91  C   UNL A   1      41.991  37.431  26.887  1.00  0.00     0.020 A 
ATOM     92  C   UNL A   1      43.149  38.228  28.850  1.00  0.00     0.020 A 
ATOM     93  C   UNL A   1      42.601  38.468  27.600  1.00  0.00     0.054 A 
BRANCH  93  94
ATOM     94  S   UNL A   1      42.705  40.116  26.861  1.00  0.00     0.124 S 
ATOM     95  O   UNL A   1      43.746  39.946  25.851  1.00  0.00    -0.237 OA
ATOM     96  O   UNL A   1      41.352  40.304  26.344  1.00  0.00    -0.237 OA
ATOM     97  O   UNL A   1      43.068  40.982  27.981  1.00  0.00    -0.744 OA
ENDBRANCH  93  94
ENDBRANCH  67  88
ENDBRANCH  41  42
ENDBRANCH  33  36
ENDBRANCH  31  32
ENDBRANCH   1  31
TORSDOF 16
ENDMDL
