MODEL 1
REMARK VINA RESULT:     -12.4      0.000      0.000
REMARK SMILES O=C(NCCCNC(=O)c1ccc(S(=O)(=O)NCc2ccn[nH]2)c(F)c1)c1ccc(-c2c3nc(c(-c4ccc(S(=O)(=O)[O-])cc4)c4ccc([nH]4)c(-c4ccc(S(=O)(=O)[O-])cc4)c4nc(c(-c5ccc(S(=O)(=O)[O-])cc5)c5ccc2[nH]5)C=C4)C=C3)cc1
REMARK SMILES IDX 5 1 4 2 3 3 1 4 2 5 27 7 28 8 86 9 29 10 85 11 30 12 31 13
REMARK SMILES IDX 32 14 79 15 33 16 84 17 78 18 80 19 34 20 83 21 77 22 76 23
REMARK SMILES IDX 35 25 65 26 46 27 64 28 47 29 50 30 63 31 81 32 48 33 49 34
REMARK SMILES IDX 62 36 82 37 51 38 36 39 37 40 45 41 38 42 44 43 39 44 40 45
REMARK SMILES IDX 41 46 42 47 43 48 66 49 67 50 75 51 68 52 74 53 69 54 70 55
REMARK SMILES IDX 71 56 72 57 73 58 52 59 53 60 61 61 54 62 60 63 55 64 56 65
REMARK SMILES IDX 57 66 58 67 59 68 6 69 7 70 8 71 9 73 10 74 11 75 26 76
REMARK SMILES IDX 12 77 24 78 13 79 25 80 14 81 15 82 16 83 17 84 18 86 19 87
REMARK SMILES IDX 20 88 23 89 21 90 22 91
REMARK H PARENT 3 6 80 24 50 35 7 72 17 85 23 92
REMARK Flexibility Score: inf
ROOT
ATOM      1  C   UNL A   1      39.099  22.350  26.333  1.00  0.00     0.042 C 
ENDROOT
BRANCH   1   2
ATOM      2  C   UNL A   1      39.822  23.532  26.961  1.00  0.00     0.118 C 
BRANCH   2   3
ATOM      3  N   UNL A   1      40.623  24.283  26.002  1.00  0.00    -0.352 N 
ATOM      4  O   UNL A   1      41.599  26.056  25.027  1.00  0.00    -0.269 OA
ATOM      5  C   UNL A   1      41.092  25.576  26.037  1.00  0.00     0.251 C 
ATOM      6  H   UNL A   1      40.872  23.779  25.193  1.00  0.00     0.163 HD
BRANCH   5   7
ATOM      7  C   UNL A   1      40.969  26.395  27.265  1.00  0.00     0.039 A 
ATOM      8  C   UNL A   1      40.048  26.062  28.256  1.00  0.00     0.014 A 
ATOM      9  C   UNL A   1      41.814  27.496  27.448  1.00  0.00     0.014 A 
ATOM     10  C   UNL A   1      39.838  26.925  29.323  1.00  0.00     0.010 A 
ATOM     11  C   UNL A   1      41.681  28.301  28.588  1.00  0.00     0.010 A 
ATOM     12  C   UNL A   1      40.665  28.044  29.518  1.00  0.00    -0.014 A 
BRANCH  12  13
ATOM     13  C   UNL A   1      40.467  28.862  30.744  1.00  0.00     0.031 A 
ATOM     14  C   UNL A   1      41.390  28.751  31.927  1.00  0.00     0.074 A 
ATOM     15  C   UNL A   1      39.483  29.784  30.741  1.00  0.00     0.049 A 
ATOM     16  N   UNL A   1      41.418  29.482  33.013  1.00  0.00    -0.248 NA
ATOM     17  C   UNL A   1      42.407  27.687  31.896  1.00  0.00     0.031 C 
ATOM     18  C   UNL A   1      38.506  29.969  29.661  1.00  0.00     0.029 A 
ATOM     19  N   UNL A   1      39.168  30.769  31.640  1.00  0.00    -0.354 N 
ATOM     20  C   UNL A   1      42.439  28.960  33.801  1.00  0.00     0.074 A 
ATOM     21  C   UNL A   1      42.992  27.835  33.079  1.00  0.00     0.031 C 
ATOM     22  C   UNL A   1      37.759  31.050  29.922  1.00  0.00     0.029 A 
ATOM     23  C   UNL A   1      38.156  31.597  31.213  1.00  0.00     0.049 A 
ATOM     24  H   UNL A   1      39.623  30.875  32.507  1.00  0.00     0.167 HD
ATOM     25  C   UNL A   1      42.879  29.387  35.010  1.00  0.00     0.031 A 
ATOM     26  C   UNL A   1      37.600  32.677  31.792  1.00  0.00     0.031 A 
ATOM     27  C   UNL A   1      42.324  30.506  35.728  1.00  0.00     0.049 A 
ATOM     28  C   UNL A   1      38.119  33.136  33.122  1.00  0.00     0.074 A 
ATOM     29  C   UNL A   1      42.703  31.013  36.960  1.00  0.00     0.029 A 
ATOM     30  N   UNL A   1      41.280  31.298  35.277  1.00  0.00    -0.354 N 
ATOM     31  N   UNL A   1      39.094  32.632  33.840  1.00  0.00    -0.248 NA
ATOM     32  C   UNL A   1      37.463  34.306  33.720  1.00  0.00     0.031 C 
ATOM     33  C   UNL A   1      41.863  32.089  37.269  1.00  0.00     0.029 A 
ATOM     34  C   UNL A   1      40.992  32.282  36.210  1.00  0.00     0.049 A 
ATOM     35  H   UNL A   1      40.810  31.178  34.420  1.00  0.00     0.167 HD
ATOM     36  C   UNL A   1      39.166  33.422  34.980  1.00  0.00     0.074 A 
ATOM     37  C   UNL A   1      38.163  34.459  34.836  1.00  0.00     0.031 C 
ATOM     38  C   UNL A   1      39.978  33.293  36.057  1.00  0.00     0.031 A 
BRANCH  25  39
ATOM     39  C   UNL A   1      44.012  28.627  35.649  1.00  0.00    -0.014 A 
ATOM     40  C   UNL A   1      45.349  29.007  35.435  1.00  0.00     0.010 A 
ATOM     41  C   UNL A   1      43.736  27.561  36.524  1.00  0.00     0.010 A 
ATOM     42  C   UNL A   1      46.391  28.317  36.063  1.00  0.00     0.020 A 
ATOM     43  C   UNL A   1      44.773  26.882  37.171  1.00  0.00     0.020 A 
ATOM     44  C   UNL A   1      46.096  27.258  36.925  1.00  0.00     0.054 A 
BRANCH  44  45
ATOM     45  S   UNL A   1      47.465  26.401  37.755  1.00  0.00     0.124 S 
ATOM     46  O   UNL A   1      46.831  25.149  38.162  1.00  0.00    -0.237 OA
ATOM     47  O   UNL A   1      48.461  26.286  36.693  1.00  0.00    -0.237 OA
ATOM     48  O   UNL A   1      47.825  27.302  38.848  1.00  0.00    -0.744 OA
ENDBRANCH  44  45
ENDBRANCH  25  39
BRANCH  26  49
ATOM     49  C   UNL A   1      36.475  33.377  31.118  1.00  0.00    -0.014 A 
ATOM     50  C   UNL A   1      35.271  33.633  31.798  1.00  0.00     0.010 A 
ATOM     51  C   UNL A   1      36.619  33.816  29.790  1.00  0.00     0.010 A 
ATOM     52  C   UNL A   1      34.227  34.304  31.154  1.00  0.00     0.020 A 
ATOM     53  C   UNL A   1      35.590  34.513  29.154  1.00  0.00     0.020 A 
ATOM     54  C   UNL A   1      34.394  34.740  29.836  1.00  0.00     0.054 A 
BRANCH  54  55
ATOM     55  S   UNL A   1      33.053  35.660  29.032  1.00  0.00     0.124 S 
ATOM     56  O   UNL A   1      32.430  34.628  28.211  1.00  0.00    -0.237 OA
ATOM     57  O   UNL A   1      32.262  36.131  30.167  1.00  0.00    -0.237 OA
ATOM     58  O   UNL A   1      33.756  36.709  28.297  1.00  0.00    -0.744 OA
ENDBRANCH  54  55
ENDBRANCH  26  49
BRANCH  38  59
ATOM     59  C   UNL A   1      39.806  34.303  37.157  1.00  0.00    -0.014 A 
ATOM     60  C   UNL A   1      40.287  35.616  37.010  1.00  0.00     0.010 A 
ATOM     61  C   UNL A   1      39.156  33.936  38.348  1.00  0.00     0.010 A 
ATOM     62  C   UNL A   1      40.163  36.533  38.056  1.00  0.00     0.020 A 
ATOM     63  C   UNL A   1      39.009  34.858  39.388  1.00  0.00     0.020 A 
ATOM     64  C   UNL A   1      39.534  36.145  39.243  1.00  0.00     0.054 A 
BRANCH  64  65
ATOM     65  S   UNL A   1      39.379  37.351  40.587  1.00  0.00     0.124 S 
ATOM     66  O   UNL A   1      38.731  38.473  39.912  1.00  0.00    -0.237 OA
ATOM     67  O   UNL A   1      38.555  36.645  41.564  1.00  0.00    -0.237 OA
ATOM     68  O   UNL A   1      40.761  37.585  41.001  1.00  0.00    -0.744 OA
ENDBRANCH  64  65
ENDBRANCH  38  59
ENDBRANCH  12  13
ENDBRANCH   5   7
ENDBRANCH   2   3
ENDBRANCH   1   2
BRANCH   1  69
ATOM     69  C   UNL A   1      37.786  22.719  25.661  1.00  0.00     0.118 C 
BRANCH  69  70
ATOM     70  N   UNL A   1      36.647  21.993  26.213  1.00  0.00    -0.352 N 
ATOM     71  C   UNL A   1      35.297  22.177  26.055  1.00  0.00     0.251 C 
ATOM     72  H   UNL A   1      36.889  21.242  26.800  1.00  0.00     0.163 HD
ATOM     73  O   UNL A   1      34.508  21.561  26.765  1.00  0.00    -0.269 OA
BRANCH  71  74
ATOM     74  C   UNL A   1      34.769  23.130  25.054  1.00  0.00     0.042 A 
ATOM     75  C   UNL A   1      34.801  24.509  25.272  1.00  0.00     0.015 A 
ATOM     76  C   UNL A   1      34.274  22.629  23.845  1.00  0.00     0.054 A 
ATOM     77  C   UNL A   1      34.183  25.370  24.365  1.00  0.00     0.026 A 
ATOM     78  C   UNL A   1      33.722  23.501  22.910  1.00  0.00     0.144 A 
ATOM     79  C   UNL A   1      33.613  24.855  23.194  1.00  0.00     0.118 A 
ATOM     80  F   UNL A   1      33.283  22.993  21.751  1.00  0.00    -0.205 F 
BRANCH  79  81
ATOM     81  S   UNL A   1      32.749  25.973  22.142  1.00  0.00     0.243 S 
ATOM     82  O   UNL A   1      33.353  25.855  20.834  1.00  0.00    -0.207 OA
ATOM     83  O   UNL A   1      31.340  25.701  22.337  1.00  0.00    -0.207 OA
BRANCH  81  84
ATOM     84  N   UNL A   1      32.993  27.532  22.694  1.00  0.00    -0.205 NA
ATOM     85  H   UNL A   1      32.999  28.124  21.863  1.00  0.00     0.141 HD
BRANCH  84  86
ATOM     86  C   UNL A   1      32.115  28.195  23.645  1.00  0.00     0.154 C 
BRANCH  86  87
ATOM     87  C   UNL A   1      30.944  28.806  22.999  1.00  0.00     0.050 A 
ATOM     88  C   UNL A   1      29.591  28.642  23.206  1.00  0.00     0.046 A 
ATOM     89  N   UNL A   1      31.050  29.665  21.940  1.00  0.00    -0.281 N 
ATOM     90  C   UNL A   1      28.976  29.409  22.201  1.00  0.00     0.135 A 
ATOM     91  N   UNL A   1      29.867  30.024  21.420  1.00  0.00    -0.184 NA
ATOM     92  H   UNL A   1      31.912  29.990  21.594  1.00  0.00     0.190 HD
ENDBRANCH  86  87
ENDBRANCH  84  86
ENDBRANCH  81  84
ENDBRANCH  79  81
ENDBRANCH  71  74
ENDBRANCH  69  70
ENDBRANCH   1  69
TORSDOF 17
ENDMDL
MODEL 2
REMARK VINA RESULT:     -12.4      6.814     12.378
REMARK SMILES O=C(NCCCNC(=O)c1ccc(S(=O)(=O)NCc2ccn[nH]2)c(F)c1)c1ccc(-c2c3nc(c(-c4ccc(S(=O)(=O)[O-])cc4)c4ccc([nH]4)c(-c4ccc(S(=O)(=O)[O-])cc4)c4nc(c(-c5ccc(S(=O)(=O)[O-])cc5)c5ccc2[nH]5)C=C4)C=C3)cc1
REMARK SMILES IDX 5 1 4 2 3 3 1 4 2 5 27 7 28 8 86 9 29 10 85 11 30 12 31 13
REMARK SMILES IDX 32 14 79 15 33 16 84 17 78 18 80 19 34 20 83 21 77 22 76 23
REMARK SMILES IDX 35 25 65 26 46 27 64 28 47 29 50 30 63 31 81 32 48 33 49 34
REMARK SMILES IDX 62 36 82 37 51 38 36 39 37 40 45 41 38 42 44 43 39 44 40 45
REMARK SMILES IDX 41 46 42 47 43 48 66 49 67 50 75 51 68 52 74 53 69 54 70 55
REMARK SMILES IDX 71 56 72 57 73 58 52 59 53 60 61 61 54 62 60 63 55 64 56 65
REMARK SMILES IDX 57 66 58 67 59 68 6 69 7 70 8 71 9 73 10 74 11 75 26 76
REMARK SMILES IDX 12 77 24 78 13 79 25 80 14 81 15 82 16 83 17 84 18 86 19 87
REMARK SMILES IDX 20 88 23 89 21 90 22 91
REMARK H PARENT 3 6 80 24 50 35 7 72 17 85 23 92
REMARK Flexibility Score: inf
ROOT
ATOM      1  C   UNL A   1      33.785  28.718  27.209  1.00  0.00     0.042 C 
ENDROOT
BRANCH   1   2
ATOM      2  C   UNL A   1      35.200  29.177  27.531  1.00  0.00     0.118 C 
BRANCH   2   3
ATOM      3  N   UNL A   1      35.324  29.737  28.871  1.00  0.00    -0.352 N 
ATOM      4  O   UNL A   1      36.239  30.184  30.874  1.00  0.00    -0.269 OA
ATOM      5  C   UNL A   1      36.411  29.832  29.710  1.00  0.00     0.251 C 
ATOM      6  H   UNL A   1      34.490  30.111  29.238  1.00  0.00     0.163 HD
BRANCH   5   7
ATOM      7  C   UNL A   1      37.771  29.494  29.231  1.00  0.00     0.039 A 
ATOM      8  C   UNL A   1      38.712  28.934  30.092  1.00  0.00     0.014 A 
ATOM      9  C   UNL A   1      38.104  29.708  27.888  1.00  0.00     0.014 A 
ATOM     10  C   UNL A   1      40.024  28.770  29.670  1.00  0.00     0.010 A 
ATOM     11  C   UNL A   1      39.399  29.429  27.433  1.00  0.00     0.010 A 
ATOM     12  C   UNL A   1      40.383  28.992  28.330  1.00  0.00    -0.014 A 
BRANCH  12  13
ATOM     13  C   UNL A   1      41.777  28.683  27.913  1.00  0.00     0.031 A 
ATOM     14  C   UNL A   1      42.861  29.725  27.946  1.00  0.00     0.074 A 
ATOM     15  C   UNL A   1      42.075  27.409  27.584  1.00  0.00     0.049 A 
ATOM     16  N   UNL A   1      44.145  29.577  27.729  1.00  0.00    -0.248 NA
ATOM     17  C   UNL A   1      42.464  31.109  28.253  1.00  0.00     0.031 C 
ATOM     18  C   UNL A   1      41.102  26.314  27.491  1.00  0.00     0.029 A 
ATOM     19  N   UNL A   1      43.276  26.804  27.320  1.00  0.00    -0.354 N 
ATOM     20  C   UNL A   1      44.705  30.843  27.858  1.00  0.00     0.074 A 
ATOM     21  C   UNL A   1      43.620  31.754  28.149  1.00  0.00     0.031 C 
ATOM     22  C   UNL A   1      41.752  25.164  27.273  1.00  0.00     0.029 A 
ATOM     23  C   UNL A   1      43.177  25.444  27.146  1.00  0.00     0.049 A 
ATOM     24  H   UNL A   1      44.127  27.296  27.260  1.00  0.00     0.167 HD
ATOM     25  C   UNL A   1      46.006  31.209  27.752  1.00  0.00     0.031 A 
ATOM     26  C   UNL A   1      44.123  24.516  26.907  1.00  0.00     0.031 A 
ATOM     27  C   UNL A   1      47.085  30.299  27.461  1.00  0.00     0.049 A 
ATOM     28  C   UNL A   1      45.556  24.949  26.813  1.00  0.00     0.074 A 
ATOM     29  C   UNL A   1      48.437  30.577  27.333  1.00  0.00     0.029 A 
ATOM     30  N   UNL A   1      46.939  28.935  27.260  1.00  0.00    -0.354 N 
ATOM     31  N   UNL A   1      46.060  26.151  26.951  1.00  0.00    -0.248 NA
ATOM     32  C   UNL A   1      46.544  23.901  26.529  1.00  0.00     0.031 C 
ATOM     33  C   UNL A   1      49.102  29.387  27.020  1.00  0.00     0.029 A 
ATOM     34  C   UNL A   1      48.173  28.360  26.998  1.00  0.00     0.049 A 
ATOM     35  H   UNL A   1      46.085  28.447  27.297  1.00  0.00     0.167 HD
ATOM     36  C   UNL A   1      47.429  26.006  26.765  1.00  0.00     0.074 A 
ATOM     37  C   UNL A   1      47.675  24.593  26.545  1.00  0.00     0.031 C 
ATOM     38  C   UNL A   1      48.395  26.956  26.762  1.00  0.00     0.031 A 
BRANCH  25  39
ATOM     39  C   UNL A   1      46.339  32.667  27.937  1.00  0.00    -0.014 A 
ATOM     40  C   UNL A   1      46.322  33.557  26.848  1.00  0.00     0.010 A 
ATOM     41  C   UNL A   1      46.609  33.165  29.224  1.00  0.00     0.010 A 
ATOM     42  C   UNL A   1      46.596  34.914  27.039  1.00  0.00     0.020 A 
ATOM     43  C   UNL A   1      46.863  34.526  29.423  1.00  0.00     0.020 A 
ATOM     44  C   UNL A   1      46.867  35.390  28.325  1.00  0.00     0.054 A 
BRANCH  44  45
ATOM     45  S   UNL A   1      47.185  37.163  28.551  1.00  0.00     0.124 S 
ATOM     46  O   UNL A   1      48.468  37.325  27.873  1.00  0.00    -0.237 OA
ATOM     47  O   UNL A   1      46.039  37.781  27.887  1.00  0.00    -0.237 OA
ATOM     48  O   UNL A   1      47.222  37.326  30.003  1.00  0.00    -0.744 OA
ENDBRANCH  44  45
ENDBRANCH  25  39
BRANCH  26  49
ATOM     49  C   UNL A   1      43.730  23.095  26.720  1.00  0.00    -0.014 A 
ATOM     50  C   UNL A   1      43.027  22.401  27.721  1.00  0.00     0.010 A 
ATOM     51  C   UNL A   1      44.040  22.435  25.517  1.00  0.00     0.010 A 
ATOM     52  C   UNL A   1      42.652  21.069  27.525  1.00  0.00     0.020 A 
ATOM     53  C   UNL A   1      43.642  21.113  25.306  1.00  0.00     0.020 A 
ATOM     54  C   UNL A   1      42.962  20.433  26.318  1.00  0.00     0.054 A 
BRANCH  54  55
ATOM     55  S   UNL A   1      42.421  18.722  26.054  1.00  0.00     0.124 S 
ATOM     56  O   UNL A   1      43.310  18.287  24.983  1.00  0.00    -0.237 OA
ATOM     57  O   UNL A   1      42.653  18.108  27.360  1.00  0.00    -0.237 OA
ATOM     58  O   UNL A   1      41.014  18.866  25.685  1.00  0.00    -0.744 OA
ENDBRANCH  54  55
ENDBRANCH  26  49
BRANCH  38  59
ATOM     59  C   UNL A   1      49.801  26.489  26.512  1.00  0.00    -0.014 A 
ATOM     60  C   UNL A   1      50.343  26.496  25.214  1.00  0.00     0.010 A 
ATOM     61  C   UNL A   1      50.590  26.040  27.585  1.00  0.00     0.010 A 
ATOM     62  C   UNL A   1      51.635  26.016  24.986  1.00  0.00     0.020 A 
ATOM     63  C   UNL A   1      51.891  25.582  27.365  1.00  0.00     0.020 A 
ATOM     64  C   UNL A   1      52.397  25.552  26.063  1.00  0.00     0.054 A 
BRANCH  64  65
ATOM     65  S   UNL A   1      54.073  24.937  25.748  1.00  0.00     0.124 S 
ATOM     66  O   UNL A   1      53.832  23.517  25.501  1.00  0.00    -0.237 OA
ATOM     67  O   UNL A   1      54.491  25.715  24.584  1.00  0.00    -0.237 OA
ATOM     68  O   UNL A   1      54.791  25.242  26.983  1.00  0.00    -0.744 OA
ENDBRANCH  64  65
ENDBRANCH  38  59
ENDBRANCH  12  13
ENDBRANCH   5   7
ENDBRANCH   2   3
ENDBRANCH   1   2
BRANCH   1  69
ATOM     69  C   UNL A   1      33.065  29.604  26.205  1.00  0.00     0.118 C 
BRANCH  69  70
ATOM     70  N   UNL A   1      33.446  29.316  24.826  1.00  0.00    -0.352 N 
ATOM     71  C   UNL A   1      33.555  28.128  24.149  1.00  0.00     0.251 C 
ATOM     72  H   UNL A   1      33.660  30.111  24.288  1.00  0.00     0.163 HD
ATOM     73  O   UNL A   1      34.076  28.102  23.038  1.00  0.00    -0.269 OA
BRANCH  71  74
ATOM     74  C   UNL A   1      33.080  26.862  24.749  1.00  0.00     0.042 A 
ATOM     75  C   UNL A   1      31.721  26.542  24.797  1.00  0.00     0.015 A 
ATOM     76  C   UNL A   1      34.025  25.949  25.229  1.00  0.00     0.054 A 
ATOM     77  C   UNL A   1      31.300  25.401  25.479  1.00  0.00     0.026 A 
ATOM     78  C   UNL A   1      33.601  24.775  25.847  1.00  0.00     0.144 A 
ATOM     79  C   UNL A   1      32.248  24.532  26.033  1.00  0.00     0.118 A 
ATOM     80  F   UNL A   1      34.531  23.910  26.271  1.00  0.00    -0.205 F 
BRANCH  79  81
ATOM     81  S   UNL A   1      31.656  23.168  26.978  1.00  0.00     0.243 S 
ATOM     82  O   UNL A   1      32.569  23.010  28.087  1.00  0.00    -0.207 OA
ATOM     83  O   UNL A   1      30.247  23.417  27.205  1.00  0.00    -0.207 OA
BRANCH  81  84
ATOM     84  N   UNL A   1      31.728  21.787  26.038  1.00  0.00    -0.205 NA
ATOM     85  H   UNL A   1      31.220  22.006  25.182  1.00  0.00     0.141 HD
BRANCH  84  86
ATOM     86  C   UNL A   1      32.973  21.167  25.614  1.00  0.00     0.154 C 
BRANCH  86  87
ATOM     87  C   UNL A   1      32.825  19.727  25.358  1.00  0.00     0.050 A 
ATOM     88  C   UNL A   1      32.613  19.017  24.195  1.00  0.00     0.046 A 
ATOM     89  N   UNL A   1      32.810  18.797  26.361  1.00  0.00    -0.281 N 
ATOM     90  C   UNL A   1      32.445  17.685  24.610  1.00  0.00     0.135 A 
ATOM     91  N   UNL A   1      32.552  17.552  25.933  1.00  0.00    -0.184 NA
ATOM     92  H   UNL A   1      32.973  19.019  27.305  1.00  0.00     0.190 HD
ENDBRANCH  86  87
ENDBRANCH  84  86
ENDBRANCH  81  84
ENDBRANCH  79  81
ENDBRANCH  71  74
ENDBRANCH  69  70
ENDBRANCH   1  69
TORSDOF 17
ENDMDL
MODEL 3
REMARK VINA RESULT:     -12.3      6.091      8.222
REMARK SMILES O=C(NCCCNC(=O)c1ccc(S(=O)(=O)NCc2ccn[nH]2)c(F)c1)c1ccc(-c2c3nc(c(-c4ccc(S(=O)(=O)[O-])cc4)c4ccc([nH]4)c(-c4ccc(S(=O)(=O)[O-])cc4)c4nc(c(-c5ccc(S(=O)(=O)[O-])cc5)c5ccc2[nH]5)C=C4)C=C3)cc1
REMARK SMILES IDX 5 1 4 2 3 3 1 4 2 5 27 7 28 8 86 9 29 10 85 11 30 12 31 13
REMARK SMILES IDX 32 14 79 15 33 16 84 17 78 18 80 19 34 20 83 21 77 22 76 23
REMARK SMILES IDX 35 25 65 26 46 27 64 28 47 29 50 30 63 31 81 32 48 33 49 34
REMARK SMILES IDX 62 36 82 37 51 38 36 39 37 40 45 41 38 42 44 43 39 44 40 45
REMARK SMILES IDX 41 46 42 47 43 48 66 49 67 50 75 51 68 52 74 53 69 54 70 55
REMARK SMILES IDX 71 56 72 57 73 58 52 59 53 60 61 61 54 62 60 63 55 64 56 65
REMARK SMILES IDX 57 66 58 67 59 68 6 69 7 70 8 71 9 73 10 74 11 75 26 76
REMARK SMILES IDX 12 77 24 78 13 79 25 80 14 81 15 82 16 83 17 84 18 86 19 87
REMARK SMILES IDX 20 88 23 89 21 90 22 91
REMARK H PARENT 3 6 80 24 50 35 7 72 17 85 23 92
REMARK Flexibility Score: inf
ROOT
ATOM      1  C   UNL A   1      37.749  20.316  24.991  1.00  0.00     0.042 C 
ENDROOT
BRANCH   1   2
ATOM      2  C   UNL A   1      38.999  20.876  25.653  1.00  0.00     0.118 C 
BRANCH   2   3
ATOM      3  N   UNL A   1      40.024  19.864  25.877  1.00  0.00    -0.352 N 
ATOM      4  O   UNL A   1      42.074  18.995  26.177  1.00  0.00    -0.269 OA
ATOM      5  C   UNL A   1      41.352  19.988  26.216  1.00  0.00     0.251 C 
ATOM      6  H   UNL A   1      39.714  18.936  25.770  1.00  0.00     0.163 HD
BRANCH   5   7
ATOM      7  C   UNL A   1      41.918  21.301  26.603  1.00  0.00     0.039 A 
ATOM      8  C   UNL A   1      42.069  22.318  25.663  1.00  0.00     0.014 A 
ATOM      9  C   UNL A   1      42.274  21.534  27.936  1.00  0.00     0.014 A 
ATOM     10  C   UNL A   1      42.742  23.482  26.005  1.00  0.00     0.010 A 
ATOM     11  C   UNL A   1      42.846  22.759  28.306  1.00  0.00     0.010 A 
ATOM     12  C   UNL A   1      43.120  23.731  27.335  1.00  0.00    -0.014 A 
BRANCH  12  13
ATOM     13  C   UNL A   1      43.731  25.047  27.660  1.00  0.00     0.031 A 
ATOM     14  C   UNL A   1      45.166  25.356  27.332  1.00  0.00     0.074 A 
ATOM     15  C   UNL A   1      42.936  26.005  28.182  1.00  0.00     0.049 A 
ATOM     16  N   UNL A   1      45.803  26.496  27.443  1.00  0.00    -0.248 NA
ATOM     17  C   UNL A   1      45.997  24.255  26.820  1.00  0.00     0.031 C 
ATOM     18  C   UNL A   1      41.533  25.817  28.568  1.00  0.00     0.029 A 
ATOM     19  N   UNL A   1      43.170  27.333  28.431  1.00  0.00    -0.354 N 
ATOM     20  C   UNL A   1      47.108  26.248  27.032  1.00  0.00     0.074 A 
ATOM     21  C   UNL A   1      47.180  24.844  26.691  1.00  0.00     0.031 C 
ATOM     22  C   UNL A   1      41.012  26.997  28.924  1.00  0.00     0.029 A 
ATOM     23  C   UNL A   1      42.054  28.014  28.856  1.00  0.00     0.049 A 
ATOM     24  H   UNL A   1      44.051  27.757  28.315  1.00  0.00     0.167 HD
ATOM     25  C   UNL A   1      48.147  27.114  26.940  1.00  0.00     0.031 A 
ATOM     26  C   UNL A   1      41.880  29.313  29.164  1.00  0.00     0.031 A 
ATOM     27  C   UNL A   1      48.072  28.512  27.281  1.00  0.00     0.049 A 
ATOM     28  C   UNL A   1      43.043  30.251  29.035  1.00  0.00     0.074 A 
ATOM     29  C   UNL A   1      49.072  29.469  27.221  1.00  0.00     0.029 A 
ATOM     30  N   UNL A   1      46.933  29.156  27.739  1.00  0.00    -0.354 N 
ATOM     31  N   UNL A   1      44.264  29.993  28.632  1.00  0.00    -0.248 NA
ATOM     32  C   UNL A   1      42.805  31.652  29.403  1.00  0.00     0.031 C 
ATOM     33  C   UNL A   1      48.546  30.683  27.677  1.00  0.00     0.029 A 
ATOM     34  C   UNL A   1      47.207  30.494  27.976  1.00  0.00     0.049 A 
ATOM     35  H   UNL A   1      46.058  28.726  27.876  1.00  0.00     0.167 HD
ATOM     36  C   UNL A   1      44.945  31.201  28.703  1.00  0.00     0.074 A 
ATOM     37  C   UNL A   1      43.988  32.196  29.149  1.00  0.00     0.031 C 
ATOM     38  C   UNL A   1      46.248  31.463  28.439  1.00  0.00     0.031 A 
BRANCH  25  39
ATOM     39  C   UNL A   1      49.469  26.571  26.462  1.00  0.00    -0.014 A 
ATOM     40  C   UNL A   1      49.903  26.784  25.141  1.00  0.00     0.010 A 
ATOM     41  C   UNL A   1      50.315  25.897  27.360  1.00  0.00     0.010 A 
ATOM     42  C   UNL A   1      51.148  26.308  24.721  1.00  0.00     0.020 A 
ATOM     43  C   UNL A   1      51.570  25.437  26.949  1.00  0.00     0.020 A 
ATOM     44  C   UNL A   1      51.973  25.635  25.627  1.00  0.00     0.054 A 
BRANCH  44  45
ATOM     45  S   UNL A   1      53.600  25.057  25.065  1.00  0.00     0.124 S 
ATOM     46  O   UNL A   1      54.497  25.746  25.988  1.00  0.00    -0.237 OA
ATOM     47  O   UNL A   1      53.504  23.610  25.243  1.00  0.00    -0.237 OA
ATOM     48  O   UNL A   1      53.667  25.508  23.677  1.00  0.00    -0.744 OA
ENDBRANCH  44  45
ENDBRANCH  25  39
BRANCH  26  49
ATOM     49  C   UNL A   1      40.554  29.786  29.642  1.00  0.00    -0.014 A 
ATOM     50  C   UNL A   1      39.502  30.023  28.740  1.00  0.00     0.010 A 
ATOM     51  C   UNL A   1      40.334  29.975  31.018  1.00  0.00     0.010 A 
ATOM     52  C   UNL A   1      38.257  30.454  29.207  1.00  0.00     0.020 A 
ATOM     53  C   UNL A   1      39.083  30.378  31.491  1.00  0.00     0.020 A 
ATOM     54  C   UNL A   1      38.056  30.629  30.580  1.00  0.00     0.054 A 
BRANCH  54  55
ATOM     55  S   UNL A   1      36.419  31.134  31.177  1.00  0.00     0.124 S 
ATOM     56  O   UNL A   1      36.017  29.977  31.969  1.00  0.00    -0.237 OA
ATOM     57  O   UNL A   1      36.715  32.348  31.934  1.00  0.00    -0.237 OA
ATOM     58  O   UNL A   1      35.662  31.348  29.946  1.00  0.00    -0.744 OA
ENDBRANCH  54  55
ENDBRANCH  26  49
BRANCH  38  59
ATOM     59  C   UNL A   1      46.703  32.883  28.628  1.00  0.00    -0.014 A 
ATOM     60  C   UNL A   1      46.620  33.812  27.575  1.00  0.00     0.010 A 
ATOM     61  C   UNL A   1      47.215  33.294  29.871  1.00  0.00     0.010 A 
ATOM     62  C   UNL A   1      47.089  35.116  27.747  1.00  0.00     0.020 A 
ATOM     63  C   UNL A   1      47.662  34.605  30.054  1.00  0.00     0.020 A 
ATOM     64  C   UNL A   1      47.617  35.501  28.983  1.00  0.00     0.054 A 
BRANCH  64  65
ATOM     65  S   UNL A   1      48.216  37.200  29.189  1.00  0.00     0.124 S 
ATOM     66  O   UNL A   1      48.036  37.412  30.623  1.00  0.00    -0.237 OA
ATOM     67  O   UNL A   1      49.602  37.113  28.735  1.00  0.00    -0.237 OA
ATOM     68  O   UNL A   1      47.334  37.984  28.327  1.00  0.00    -0.744 OA
ENDBRANCH  64  65
ENDBRANCH  38  59
ENDBRANCH  12  13
ENDBRANCH   5   7
ENDBRANCH   2   3
ENDBRANCH   1   2
BRANCH   1  69
ATOM     69  C   UNL A   1      36.613  21.320  24.872  1.00  0.00     0.118 C 
BRANCH  69  70
ATOM     70  N   UNL A   1      35.365  20.829  25.446  1.00  0.00    -0.352 N 
ATOM     71  C   UNL A   1      34.087  21.325  25.385  1.00  0.00     0.251 C 
ATOM     72  H   UNL A   1      35.454  19.999  25.966  1.00  0.00     0.163 HD
ATOM     73  O   UNL A   1      33.211  20.850  26.102  1.00  0.00    -0.269 OA
BRANCH  71  74
ATOM     74  C   UNL A   1      33.746  22.448  24.484  1.00  0.00     0.042 A 
ATOM     75  C   UNL A   1      33.313  22.229  23.175  1.00  0.00     0.015 A 
ATOM     76  C   UNL A   1      33.815  23.754  24.983  1.00  0.00     0.054 A 
ATOM     77  C   UNL A   1      33.121  23.310  22.317  1.00  0.00     0.026 A 
ATOM     78  C   UNL A   1      33.553  24.831  24.140  1.00  0.00     0.144 A 
ATOM     79  C   UNL A   1      33.274  24.617  22.798  1.00  0.00     0.118 A 
ATOM     80  F   UNL A   1      33.599  26.066  24.656  1.00  0.00    -0.205 F 
BRANCH  79  81
ATOM     81  S   UNL A   1      33.128  25.939  21.643  1.00  0.00     0.243 S 
ATOM     82  O   UNL A   1      34.248  26.820  21.884  1.00  0.00    -0.207 OA
ATOM     83  O   UNL A   1      32.935  25.320  20.347  1.00  0.00    -0.207 OA
BRANCH  81  84
ATOM     84  N   UNL A   1      31.719  26.781  21.959  1.00  0.00    -0.205 NA
ATOM     85  H   UNL A   1      31.111  26.130  22.455  1.00  0.00     0.141 HD
BRANCH  84  86
ATOM     86  C   UNL A   1      31.677  28.021  22.719  1.00  0.00     0.154 C 
BRANCH  86  87
ATOM     87  C   UNL A   1      30.484  28.825  22.416  1.00  0.00     0.050 A 
ATOM     88  C   UNL A   1      29.162  28.682  22.784  1.00  0.00     0.046 A 
ATOM     89  N   UNL A   1      30.515  29.906  21.579  1.00  0.00    -0.281 N 
ATOM     90  C   UNL A   1      28.483  29.697  22.087  1.00  0.00     0.135 A 
ATOM     91  N   UNL A   1      29.306  30.437  21.342  1.00  0.00    -0.184 NA
ATOM     92  H   UNL A   1      31.346  30.262  21.189  1.00  0.00     0.190 HD
ENDBRANCH  86  87
ENDBRANCH  84  86
ENDBRANCH  81  84
ENDBRANCH  79  81
ENDBRANCH  71  74
ENDBRANCH  69  70
ENDBRANCH   1  69
TORSDOF 17
ENDMDL
