MODEL 1
REMARK VINA RESULT:     -12.0      0.000      0.000
REMARK SMILES O=C(NCCCNC(=O)c1ccc(-c2c3nc(c(-c4ccc(S(=O)(=O)[O-])cc4)c4ccc([nH]4)c(-c4ccc(S(=O)(=O)[O-])cc4)c4nc(c(-c5ccc(S(=O)(=O)[O-])cc5)c5ccc2[nH]5)C=C4)C=C3)cc1)c1ccc(NC(=O)[C@@H]2CC=CC[C@H]2C(=O)Nc2cccc([N+](=O)[O-])c2)cc1
REMARK SMILES IDX 4 1 3 2 1 3 2 4 70 6 71 7 96 8 72 9 95 10 73 11 74 12 75 13
REMARK SMILES IDX 76 15 77 16 78 17 82 18 79 19 81 20 80 21 83 22 84 23 85 24
REMARK SMILES IDX 86 26 87 27 94 28 88 29 90 30 89 31 91 32 92 33 93 34 5 35
REMARK SMILES IDX 6 36 7 37 8 38 9 40 10 41 11 42 69 43 12 44 68 45 13 46
REMARK SMILES IDX 14 47 15 48 62 49 16 50 67 51 61 52 63 53 17 54 66 55 60 56
REMARK SMILES IDX 59 57 18 59 48 60 29 61 47 62 30 63 33 64 46 65 64 66 31 67
REMARK SMILES IDX 32 68 45 70 65 71 34 72 19 73 20 74 28 75 21 76 27 77 22 78
REMARK SMILES IDX 23 79 24 80 25 81 26 82 49 83 50 84 58 85 51 86 57 87 52 88
REMARK SMILES IDX 53 89 54 90 55 91 56 92 35 93 36 94 44 95 37 96 43 97 38 98
REMARK SMILES IDX 39 99 40 100 41 101 42 102
REMARK H PARENT 3 5 74 14 85 25 7 39 63 58 33 69
REMARK Flexibility Score: inf
ROOT
ATOM      1  C   UNL A   1      32.058  31.051  26.673  1.00  0.00     0.118 C 
ENDROOT
BRANCH   1   2
ATOM      2  N   UNL A   1      33.501  30.827  26.631  1.00  0.00    -0.352 N 
ATOM      3  O   UNL A   1      35.418  29.647  26.923  1.00  0.00    -0.269 OA
ATOM      4  C   UNL A   1      34.202  29.654  26.812  1.00  0.00     0.251 C 
ATOM      5  H   UNL A   1      34.049  31.624  26.450  1.00  0.00     0.163 HD
BRANCH   4   6
ATOM      6  C   UNL A   1      33.442  28.393  26.859  1.00  0.00     0.039 A 
ATOM      7  C   UNL A   1      33.998  27.259  26.283  1.00  0.00     0.016 A 
ATOM      8  C   UNL A   1      32.158  28.349  27.395  1.00  0.00     0.016 A 
ATOM      9  C   UNL A   1      33.206  26.140  26.070  1.00  0.00     0.027 A 
ATOM     10  C   UNL A   1      31.403  27.176  27.261  1.00  0.00     0.027 A 
ATOM     11  C   UNL A   1      31.910  26.069  26.558  1.00  0.00     0.041 A 
BRANCH  11  12
ATOM     12  N   UNL A   1      31.072  24.953  26.432  1.00  0.00    -0.326 N 
ATOM     13  C   UNL A   1      31.245  23.628  26.194  1.00  0.00     0.228 C 
ATOM     14  H   UNL A   1      30.123  25.188  26.544  1.00  0.00     0.169 HD
ATOM     15  O   UNL A   1      30.230  22.921  26.288  1.00  0.00    -0.274 OA
BRANCH  13  16
ATOM     16  C   UNL A   1      32.537  22.962  25.738  1.00  0.00     0.095 C 
ATOM     17  C   UNL A   1      33.638  22.832  26.801  1.00  0.00     0.041 C 
ATOM     18  C   UNL A   1      32.925  23.382  24.312  1.00  0.00     0.095 C 
ATOM     19  C   UNL A   1      35.029  22.756  26.243  1.00  0.00    -0.030 C 
ATOM     20  C   UNL A   1      34.310  22.909  23.845  1.00  0.00     0.041 C 
ATOM     21  C   UNL A   1      35.325  22.785  24.938  1.00  0.00    -0.030 C 
BRANCH  18  22
ATOM     22  C   UNL A   1      31.831  23.099  23.254  1.00  0.00     0.228 C 
ATOM     23  O   UNL A   1      31.634  21.927  22.908  1.00  0.00    -0.274 OA
ATOM     24  N   UNL A   1      30.982  24.046  22.739  1.00  0.00    -0.326 N 
ATOM     25  H   UNL A   1      30.249  23.688  22.188  1.00  0.00     0.169 HD
BRANCH  24  26
ATOM     26  C   UNL A   1      30.991  25.439  22.870  1.00  0.00     0.048 A 
ATOM     27  C   UNL A   1      29.911  26.065  23.493  1.00  0.00     0.026 A 
ATOM     28  C   UNL A   1      32.054  26.210  22.415  1.00  0.00     0.111 A 
ATOM     29  C   UNL A   1      29.991  27.419  23.833  1.00  0.00     0.009 A 
ATOM     30  C   UNL A   1      32.177  27.538  22.828  1.00  0.00     0.271 A 
ATOM     31  C   UNL A   1      31.147  28.149  23.548  1.00  0.00     0.086 A 
BRANCH  30  32
ATOM     32  N   UNL A   1      33.432  28.257  22.580  1.00  0.00     0.062 N 
ATOM     33  O   UNL A   1      33.716  29.197  23.334  1.00  0.00    -0.258 OA
ATOM     34  O   UNL A   1      34.154  27.860  21.653  1.00  0.00    -0.258 OA
ENDBRANCH  30  32
ENDBRANCH  24  26
ENDBRANCH  18  22
ENDBRANCH  13  16
ENDBRANCH  11  12
ENDBRANCH   4   6
ENDBRANCH   1   2
BRANCH   1  35
ATOM     35  C   UNL A   1      31.691  32.443  27.146  1.00  0.00     0.042 C 
BRANCH  35  36
ATOM     36  C   UNL A   1      32.879  33.377  27.267  1.00  0.00     0.118 C 
BRANCH  36  37
ATOM     37  N   UNL A   1      32.567  34.599  27.992  1.00  0.00    -0.352 N 
ATOM     38  C   UNL A   1      33.087  35.073  29.171  1.00  0.00     0.251 C 
ATOM     39  H   UNL A   1      31.881  35.171  27.575  1.00  0.00     0.163 HD
ATOM     40  O   UNL A   1      32.580  36.058  29.698  1.00  0.00    -0.269 OA
BRANCH  38  41
ATOM     41  C   UNL A   1      34.230  34.386  29.811  1.00  0.00     0.039 A 
ATOM     42  C   UNL A   1      35.510  34.582  29.286  1.00  0.00     0.014 A 
ATOM     43  C   UNL A   1      34.052  33.545  30.913  1.00  0.00     0.014 A 
ATOM     44  C   UNL A   1      36.609  33.972  29.893  1.00  0.00     0.010 A 
ATOM     45  C   UNL A   1      35.155  33.025  31.579  1.00  0.00     0.010 A 
ATOM     46  C   UNL A   1      36.444  33.210  31.061  1.00  0.00    -0.014 A 
BRANCH  46  47
ATOM     47  C   UNL A   1      37.604  32.568  31.728  1.00  0.00     0.031 A 
ATOM     48  C   UNL A   1      38.105  33.096  33.047  1.00  0.00     0.074 A 
ATOM     49  C   UNL A   1      38.232  31.537  31.129  1.00  0.00     0.049 A 
ATOM     50  N   UNL A   1      39.099  32.669  33.782  1.00  0.00    -0.248 NA
ATOM     51  C   UNL A   1      37.418  34.275  33.601  1.00  0.00     0.031 C 
ATOM     52  C   UNL A   1      37.883  30.975  29.822  1.00  0.00     0.029 A 
ATOM     53  N   UNL A   1      39.297  30.777  31.542  1.00  0.00    -0.354 N 
ATOM     54  C   UNL A   1      39.169  33.535  34.867  1.00  0.00     0.074 A 
ATOM     55  C   UNL A   1      38.157  34.547  34.666  1.00  0.00     0.031 C 
ATOM     56  C   UNL A   1      38.692  29.937  29.560  1.00  0.00     0.029 A 
ATOM     57  C   UNL A   1      39.638  29.781  30.660  1.00  0.00     0.049 A 
ATOM     58  H   UNL A   1      39.771  30.932  32.391  1.00  0.00     0.167 HD
ATOM     59  C   UNL A   1      39.985  33.482  35.946  1.00  0.00     0.031 A 
ATOM     60  C   UNL A   1      40.602  28.842  30.730  1.00  0.00     0.031 A 
ATOM     61  C   UNL A   1      40.978  32.462  36.152  1.00  0.00     0.049 A 
ATOM     62  C   UNL A   1      41.476  28.782  31.952  1.00  0.00     0.074 A 
ATOM     63  C   UNL A   1      41.810  32.278  37.242  1.00  0.00     0.029 A 
ATOM     64  N   UNL A   1      41.277  31.455  35.247  1.00  0.00    -0.354 N 
ATOM     65  N   UNL A   1      41.473  29.564  33.007  1.00  0.00    -0.248 NA
ATOM     66  C   UNL A   1      42.469  27.701  32.003  1.00  0.00     0.031 C 
ATOM     67  C   UNL A   1      42.646  31.189  36.974  1.00  0.00     0.029 A 
ATOM     68  C   UNL A   1      42.293  30.657  35.744  1.00  0.00     0.049 A 
ATOM     69  H   UNL A   1      40.830  31.326  34.378  1.00  0.00     0.167 HD
ATOM     70  C   UNL A   1      42.445  29.051  33.859  1.00  0.00     0.074 A 
ATOM     71  C   UNL A   1      43.001  27.884  33.204  1.00  0.00     0.031 C 
ATOM     72  C   UNL A   1      42.840  29.504  35.075  1.00  0.00     0.031 A 
BRANCH  59  73
ATOM     73  C   UNL A   1      39.835  34.564  36.985  1.00  0.00    -0.014 A 
ATOM     74  C   UNL A   1      38.941  34.421  38.062  1.00  0.00     0.010 A 
ATOM     75  C   UNL A   1      40.616  35.731  36.895  1.00  0.00     0.010 A 
ATOM     76  C   UNL A   1      38.795  35.446  39.001  1.00  0.00     0.020 A 
ATOM     77  C   UNL A   1      40.496  36.744  37.850  1.00  0.00     0.020 A 
ATOM     78  C   UNL A   1      39.570  36.603  38.887  1.00  0.00     0.054 A 
BRANCH  78  79
ATOM     79  S   UNL A   1      39.371  37.909  40.129  1.00  0.00     0.124 S 
ATOM     80  O   UNL A   1      39.227  37.136  41.359  1.00  0.00    -0.237 OA
ATOM     81  O   UNL A   1      40.616  38.663  40.003  1.00  0.00    -0.237 OA
ATOM     82  O   UNL A   1      38.170  38.620  39.695  1.00  0.00    -0.744 OA
ENDBRANCH  78  79
ENDBRANCH  59  73
BRANCH  60  83
ATOM     83  C   UNL A   1      40.762  27.863  29.621  1.00  0.00    -0.014 A 
ATOM     84  C   UNL A   1      39.933  26.729  29.541  1.00  0.00     0.010 A 
ATOM     85  C   UNL A   1      41.729  28.074  28.621  1.00  0.00     0.010 A 
ATOM     86  C   UNL A   1      40.079  25.818  28.491  1.00  0.00     0.020 A 
ATOM     87  C   UNL A   1      41.858  27.179  27.555  1.00  0.00     0.020 A 
ATOM     88  C   UNL A   1      41.037  26.051  27.502  1.00  0.00     0.054 A 
BRANCH  88  89
ATOM     89  S   UNL A   1      41.164  24.888  26.115  1.00  0.00     0.124 S 
ATOM     90  O   UNL A   1      41.792  25.711  25.086  1.00  0.00    -0.237 OA
ATOM     91  O   UNL A   1      41.996  23.823  26.671  1.00  0.00    -0.237 OA
ATOM     92  O   UNL A   1      39.776  24.511  25.857  1.00  0.00    -0.744 OA
ENDBRANCH  88  89
ENDBRANCH  60  83
BRANCH  72  93
ATOM     93  C   UNL A   1      43.902  28.713  35.792  1.00  0.00    -0.014 A 
ATOM     94  C   UNL A   1      45.267  29.026  35.655  1.00  0.00     0.010 A 
ATOM     95  C   UNL A   1      43.523  27.656  36.640  1.00  0.00     0.010 A 
ATOM     96  C   UNL A   1      46.235  28.265  36.316  1.00  0.00     0.020 A 
ATOM     97  C   UNL A   1      44.486  26.913  37.326  1.00  0.00     0.020 A 
ATOM     98  C   UNL A   1      45.837  27.209  37.143  1.00  0.00     0.054 A 
BRANCH  98  99
ATOM     99  S   UNL A   1      47.111  26.244  38.001  1.00  0.00     0.124 S 
ATOM    100  O   UNL A   1      48.087  26.019  36.939  1.00  0.00    -0.237 OA
ATOM    101  O   UNL A   1      47.537  27.150  39.066  1.00  0.00    -0.237 OA
ATOM    102  O   UNL A   1      46.396  25.053  38.455  1.00  0.00    -0.744 OA
ENDBRANCH  98  99
ENDBRANCH  72  93
ENDBRANCH  46  47
ENDBRANCH  38  41
ENDBRANCH  36  37
ENDBRANCH  35  36
ENDBRANCH   1  35
TORSDOF 18
ENDMDL
MODEL 2
REMARK VINA RESULT:     -12.0      2.598      8.254
REMARK SMILES O=C(NCCCNC(=O)c1ccc(-c2c3nc(c(-c4ccc(S(=O)(=O)[O-])cc4)c4ccc([nH]4)c(-c4ccc(S(=O)(=O)[O-])cc4)c4nc(c(-c5ccc(S(=O)(=O)[O-])cc5)c5ccc2[nH]5)C=C4)C=C3)cc1)c1ccc(NC(=O)[C@@H]2CC=CC[C@H]2C(=O)Nc2cccc([N+](=O)[O-])c2)cc1
REMARK SMILES IDX 4 1 3 2 1 3 2 4 70 6 71 7 96 8 72 9 95 10 73 11 74 12 75 13
REMARK SMILES IDX 76 15 77 16 78 17 82 18 79 19 81 20 80 21 83 22 84 23 85 24
REMARK SMILES IDX 86 26 87 27 94 28 88 29 90 30 89 31 91 32 92 33 93 34 5 35
REMARK SMILES IDX 6 36 7 37 8 38 9 40 10 41 11 42 69 43 12 44 68 45 13 46
REMARK SMILES IDX 14 47 15 48 62 49 16 50 67 51 61 52 63 53 17 54 66 55 60 56
REMARK SMILES IDX 59 57 18 59 48 60 29 61 47 62 30 63 33 64 46 65 64 66 31 67
REMARK SMILES IDX 32 68 45 70 65 71 34 72 19 73 20 74 28 75 21 76 27 77 22 78
REMARK SMILES IDX 23 79 24 80 25 81 26 82 49 83 50 84 58 85 51 86 57 87 52 88
REMARK SMILES IDX 53 89 54 90 55 91 56 92 35 93 36 94 44 95 37 96 43 97 38 98
REMARK SMILES IDX 39 99 40 100 41 101 42 102
REMARK H PARENT 3 5 74 14 85 25 7 39 63 58 33 69
REMARK Flexibility Score: inf
ROOT
ATOM      1  C   UNL A   1      37.286  22.989  25.804  1.00  0.00     0.118 C 
ENDROOT
BRANCH   1   2
ATOM      2  N   UNL A   1      36.841  21.677  25.339  1.00  0.00    -0.352 N 
ATOM      3  O   UNL A   1      35.320  20.058  24.871  1.00  0.00    -0.269 OA
ATOM      4  C   UNL A   1      35.560  21.236  25.088  1.00  0.00     0.251 C 
ATOM      5  H   UNL A   1      37.554  21.017  25.184  1.00  0.00     0.163 HD
BRANCH   4   6
ATOM      6  C   UNL A   1      34.473  22.231  25.079  1.00  0.00     0.039 A 
ATOM      7  C   UNL A   1      33.698  22.380  26.221  1.00  0.00     0.016 A 
ATOM      8  C   UNL A   1      34.170  22.953  23.928  1.00  0.00     0.016 A 
ATOM      9  C   UNL A   1      32.515  23.100  26.157  1.00  0.00     0.027 A 
ATOM     10  C   UNL A   1      33.023  23.756  23.910  1.00  0.00     0.027 A 
ATOM     11  C   UNL A   1      32.159  23.806  25.017  1.00  0.00     0.041 A 
BRANCH  11  12
ATOM     12  N   UNL A   1      31.010  24.598  24.898  1.00  0.00    -0.326 N 
ATOM     13  C   UNL A   1      30.732  25.925  24.961  1.00  0.00     0.228 C 
ATOM     14  H   UNL A   1      30.204  24.059  24.725  1.00  0.00     0.169 HD
ATOM     15  O   UNL A   1      29.572  26.253  24.666  1.00  0.00    -0.274 OA
BRANCH  13  16
ATOM     16  C   UNL A   1      31.678  27.016  25.446  1.00  0.00     0.095 C 
ATOM     17  C   UNL A   1      31.904  27.084  26.963  1.00  0.00     0.041 C 
ATOM     18  C   UNL A   1      31.492  28.324  24.661  1.00  0.00     0.095 C 
ATOM     19  C   UNL A   1      32.304  28.439  27.468  1.00  0.00    -0.030 C 
ATOM     20  C   UNL A   1      32.269  29.531  25.210  1.00  0.00     0.041 C 
ATOM     21  C   UNL A   1      32.470  29.518  26.693  1.00  0.00    -0.030 C 
BRANCH  18  22
ATOM     22  C   UNL A   1      31.669  28.171  23.132  1.00  0.00     0.228 C 
ATOM     23  O   UNL A   1      32.676  27.587  22.710  1.00  0.00    -0.274 OA
ATOM     24  N   UNL A   1      30.735  28.545  22.198  1.00  0.00    -0.326 N 
ATOM     25  H   UNL A   1      30.930  28.251  21.279  1.00  0.00     0.169 HD
BRANCH  24  26
ATOM     26  C   UNL A   1      29.552  29.278  22.343  1.00  0.00     0.048 A 
ATOM     27  C   UNL A   1      28.434  28.651  22.893  1.00  0.00     0.026 A 
ATOM     28  C   UNL A   1      29.469  30.613  21.970  1.00  0.00     0.111 A 
ATOM     29  C   UNL A   1      27.315  29.410  23.251  1.00  0.00     0.009 A 
ATOM     30  C   UNL A   1      28.392  31.391  22.403  1.00  0.00     0.271 A 
ATOM     31  C   UNL A   1      27.310  30.793  23.055  1.00  0.00     0.086 A 
BRANCH  30  32
ATOM     32  N   UNL A   1      28.448  32.849  22.251  1.00  0.00     0.062 N 
ATOM     33  O   UNL A   1      29.123  33.489  23.069  1.00  0.00    -0.258 OA
ATOM     34  O   UNL A   1      27.847  33.355  21.291  1.00  0.00    -0.258 OA
ENDBRANCH  30  32
ENDBRANCH  24  26
ENDBRANCH  18  22
ENDBRANCH  13  16
ENDBRANCH  11  12
ENDBRANCH   4   6
ENDBRANCH   1   2
BRANCH   1  35
ATOM     35  C   UNL A   1      38.713  22.979  26.315  1.00  0.00     0.042 C 
BRANCH  35  36
ATOM     36  C   UNL A   1      39.220  24.346  26.730  1.00  0.00     0.118 C 
BRANCH  36  37
ATOM     37  N   UNL A   1      40.290  24.837  25.875  1.00  0.00    -0.352 N 
ATOM     38  C   UNL A   1      41.079  25.952  26.016  1.00  0.00     0.251 C 
ATOM     39  H   UNL A   1      40.475  24.289  25.078  1.00  0.00     0.163 HD
ATOM     40  O   UNL A   1      41.830  26.275  25.101  1.00  0.00    -0.269 OA
BRANCH  38  41
ATOM     41  C   UNL A   1      41.004  26.768  27.248  1.00  0.00     0.039 A 
ATOM     42  C   UNL A   1      41.663  27.999  27.277  1.00  0.00     0.014 A 
ATOM     43  C   UNL A   1      40.301  26.328  28.372  1.00  0.00     0.014 A 
ATOM     44  C   UNL A   1      41.578  28.803  28.415  1.00  0.00     0.010 A 
ATOM     45  C   UNL A   1      40.129  27.173  29.462  1.00  0.00     0.010 A 
ATOM     46  C   UNL A   1      40.788  28.409  29.508  1.00  0.00    -0.014 A 
BRANCH  46  47
ATOM     47  C   UNL A   1      40.675  29.260  30.718  1.00  0.00     0.031 A 
ATOM     48  C   UNL A   1      39.591  30.302  30.811  1.00  0.00     0.074 A 
ATOM     49  C   UNL A   1      41.570  29.123  31.716  1.00  0.00     0.049 A 
ATOM     50  N   UNL A   1      39.330  31.136  31.784  1.00  0.00    -0.248 NA
ATOM     51  C   UNL A   1      38.700  30.448  29.647  1.00  0.00     0.031 C 
ATOM     52  C   UNL A   1      42.702  28.194  31.719  1.00  0.00     0.029 A 
ATOM     53  N   UNL A   1      41.667  29.766  32.924  1.00  0.00    -0.354 N 
ATOM     54  C   UNL A   1      38.266  31.913  31.343  1.00  0.00     0.074 A 
ATOM     55  C   UNL A   1      37.967  31.494  29.993  1.00  0.00     0.031 C 
ATOM     56  C   UNL A   1      43.355  28.300  32.887  1.00  0.00     0.029 A 
ATOM     57  C   UNL A   1      42.711  29.327  33.701  1.00  0.00     0.049 A 
ATOM     58  H   UNL A   1      41.045  30.475  33.207  1.00  0.00     0.167 HD
ATOM     59  C   UNL A   1      37.582  32.874  32.008  1.00  0.00     0.031 A 
ATOM     60  C   UNL A   1      43.105  29.704  34.933  1.00  0.00     0.031 A 
ATOM     61  C   UNL A   1      37.870  33.276  33.359  1.00  0.00     0.049 A 
ATOM     62  C   UNL A   1      42.312  30.750  35.665  1.00  0.00     0.074 A 
ATOM     63  C   UNL A   1      37.195  34.191  34.148  1.00  0.00     0.029 A 
ATOM     64  N   UNL A   1      38.922  32.789  34.121  1.00  0.00    -0.354 N 
ATOM     65  N   UNL A   1      41.257  31.418  35.260  1.00  0.00    -0.248 NA
ATOM     66  C   UNL A   1      42.750  31.077  37.028  1.00  0.00     0.031 C 
ATOM     67  C   UNL A   1      37.869  34.293  35.370  1.00  0.00     0.029 A 
ATOM     68  C   UNL A   1      38.926  33.398  35.365  1.00  0.00     0.049 A 
ATOM     69  H   UNL A   1      39.568  32.109  33.822  1.00  0.00     0.167 HD
ATOM     70  C   UNL A   1      40.889  32.226  36.331  1.00  0.00     0.074 A 
ATOM     71  C   UNL A   1      41.823  31.948  37.403  1.00  0.00     0.031 C 
ATOM     72  C   UNL A   1      39.868  33.116  36.418  1.00  0.00     0.031 A 
BRANCH  59  73
ATOM     73  C   UNL A   1      36.455  33.558  31.277  1.00  0.00    -0.014 A 
ATOM     74  C   UNL A   1      35.260  33.902  31.935  1.00  0.00     0.010 A 
ATOM     75  C   UNL A   1      36.602  33.882  29.915  1.00  0.00     0.010 A 
ATOM     76  C   UNL A   1      34.215  34.511  31.235  1.00  0.00     0.020 A 
ATOM     77  C   UNL A   1      35.572  34.521  29.219  1.00  0.00     0.020 A 
ATOM     78  C   UNL A   1      34.376  34.813  29.881  1.00  0.00     0.054 A 
BRANCH  78  79
ATOM     79  S   UNL A   1      33.010  35.618  29.001  1.00  0.00     0.124 S 
ATOM     80  O   UNL A   1      33.715  36.609  28.192  1.00  0.00    -0.237 OA
ATOM     81  O   UNL A   1      32.412  34.511  28.257  1.00  0.00    -0.237 OA
ATOM     82  O   UNL A   1      32.180  36.164  30.072  1.00  0.00    -0.744 OA
ENDBRANCH  78  79
ENDBRANCH  59  73
BRANCH  60  83
ATOM     83  C   UNL A   1      44.290  29.057  35.560  1.00  0.00    -0.014 A 
ATOM     84  C   UNL A   1      44.142  27.899  36.344  1.00  0.00     0.010 A 
ATOM     85  C   UNL A   1      45.579  29.582  35.353  1.00  0.00     0.010 A 
ATOM     86  C   UNL A   1      45.259  27.287  36.921  1.00  0.00     0.020 A 
ATOM     87  C   UNL A   1      46.699  28.957  35.906  1.00  0.00     0.020 A 
ATOM     88  C   UNL A   1      46.531  27.818  36.695  1.00  0.00     0.054 A 
BRANCH  88  89
ATOM     89  S   UNL A   1      47.972  26.970  37.402  1.00  0.00     0.124 S 
ATOM     90  O   UNL A   1      48.036  25.757  36.594  1.00  0.00    -0.237 OA
ATOM     91  O   UNL A   1      49.044  27.937  37.184  1.00  0.00    -0.237 OA
ATOM     92  O   UNL A   1      47.599  26.773  38.802  1.00  0.00    -0.744 OA
ENDBRANCH  88  89
ENDBRANCH  60  83
BRANCH  72  93
ATOM     93  C   UNL A   1      39.687  33.828  37.733  1.00  0.00    -0.014 A 
ATOM     94  C   UNL A   1      40.333  35.049  38.000  1.00  0.00     0.010 A 
ATOM     95  C   UNL A   1      38.833  33.278  38.705  1.00  0.00     0.010 A 
ATOM     96  C   UNL A   1      40.164  35.681  39.234  1.00  0.00     0.020 A 
ATOM     97  C   UNL A   1      38.637  33.922  39.929  1.00  0.00     0.020 A 
ATOM     98  C   UNL A   1      39.322  35.110  40.193  1.00  0.00     0.054 A 
BRANCH  98  99
ATOM     99  S   UNL A   1      39.107  35.955  41.783  1.00  0.00     0.124 S 
ATOM    100  O   UNL A   1      37.783  35.494  42.194  1.00  0.00    -0.237 OA
ATOM    101  O   UNL A   1      40.224  35.445  42.573  1.00  0.00    -0.237 OA
ATOM    102  O   UNL A   1      39.193  37.372  41.437  1.00  0.00    -0.744 OA
ENDBRANCH  98  99
ENDBRANCH  72  93
ENDBRANCH  46  47
ENDBRANCH  38  41
ENDBRANCH  36  37
ENDBRANCH  35  36
ENDBRANCH   1  35
TORSDOF 18
ENDMDL
MODEL 3
REMARK VINA RESULT:     -12.0      6.162     10.349
REMARK SMILES O=C(NCCCNC(=O)c1ccc(-c2c3nc(c(-c4ccc(S(=O)(=O)[O-])cc4)c4ccc([nH]4)c(-c4ccc(S(=O)(=O)[O-])cc4)c4nc(c(-c5ccc(S(=O)(=O)[O-])cc5)c5ccc2[nH]5)C=C4)C=C3)cc1)c1ccc(NC(=O)[C@@H]2CC=CC[C@H]2C(=O)Nc2cccc([N+](=O)[O-])c2)cc1
REMARK SMILES IDX 4 1 3 2 1 3 2 4 70 6 71 7 96 8 72 9 95 10 73 11 74 12 75 13
REMARK SMILES IDX 76 15 77 16 78 17 82 18 79 19 81 20 80 21 83 22 84 23 85 24
REMARK SMILES IDX 86 26 87 27 94 28 88 29 90 30 89 31 91 32 92 33 93 34 5 35
REMARK SMILES IDX 6 36 7 37 8 38 9 40 10 41 11 42 69 43 12 44 68 45 13 46
REMARK SMILES IDX 14 47 15 48 62 49 16 50 67 51 61 52 63 53 17 54 66 55 60 56
REMARK SMILES IDX 59 57 18 59 48 60 29 61 47 62 30 63 33 64 46 65 64 66 31 67
REMARK SMILES IDX 32 68 45 70 65 71 34 72 19 73 20 74 28 75 21 76 27 77 22 78
REMARK SMILES IDX 23 79 24 80 25 81 26 82 49 83 50 84 58 85 51 86 57 87 52 88
REMARK SMILES IDX 53 89 54 90 55 91 56 92 35 93 36 94 44 95 37 96 43 97 38 98
REMARK SMILES IDX 39 99 40 100 41 101 42 102
REMARK H PARENT 3 5 74 14 85 25 7 39 63 58 33 69
REMARK Flexibility Score: inf
ROOT
ATOM      1  C   UNL A   1      37.556  20.902  25.342  1.00  0.00     0.118 C 
ENDROOT
BRANCH   1   2
ATOM      2  N   UNL A   1      38.016  22.083  26.069  1.00  0.00    -0.352 N 
ATOM      3  O   UNL A   1      38.210  24.306  26.485  1.00  0.00    -0.269 OA
ATOM      4  C   UNL A   1      37.614  23.395  25.933  1.00  0.00     0.251 C 
ATOM      5  H   UNL A   1      38.708  21.921  26.748  1.00  0.00     0.163 HD
BRANCH   4   6
ATOM      6  C   UNL A   1      36.429  23.674  25.104  1.00  0.00     0.039 A 
ATOM      7  C   UNL A   1      36.388  23.172  23.810  1.00  0.00     0.016 A 
ATOM      8  C   UNL A   1      35.403  24.491  25.570  1.00  0.00     0.016 A 
ATOM      9  C   UNL A   1      35.428  23.637  22.925  1.00  0.00     0.027 A 
ATOM     10  C   UNL A   1      34.383  24.874  24.690  1.00  0.00     0.027 A 
ATOM     11  C   UNL A   1      34.408  24.480  23.341  1.00  0.00     0.041 A 
BRANCH  11  12
ATOM     12  N   UNL A   1      33.374  24.945  22.518  1.00  0.00    -0.326 N 
ATOM     13  C   UNL A   1      32.523  26.001  22.528  1.00  0.00     0.228 C 
ATOM     14  H   UNL A   1      33.229  24.360  21.739  1.00  0.00     0.169 HD
ATOM     15  O   UNL A   1      31.813  26.137  21.520  1.00  0.00    -0.274 OA
BRANCH  13  16
ATOM     16  C   UNL A   1      32.301  26.962  23.689  1.00  0.00     0.095 C 
ATOM     17  C   UNL A   1      33.414  27.992  23.930  1.00  0.00     0.041 C 
ATOM     18  C   UNL A   1      31.661  26.261  24.897  1.00  0.00     0.095 C 
ATOM     19  C   UNL A   1      33.498  28.492  25.343  1.00  0.00    -0.030 C 
ATOM     20  C   UNL A   1      31.579  27.108  26.176  1.00  0.00     0.041 C 
ATOM     21  C   UNL A   1      32.684  28.105  26.333  1.00  0.00    -0.030 C 
BRANCH  18  22
ATOM     22  C   UNL A   1      30.317  25.563  24.580  1.00  0.00     0.228 C 
ATOM     23  O   UNL A   1      29.325  26.268  24.355  1.00  0.00    -0.274 OA
ATOM     24  N   UNL A   1      30.160  24.208  24.424  1.00  0.00    -0.326 N 
ATOM     25  H   UNL A   1      29.280  23.931  24.082  1.00  0.00     0.169 HD
BRANCH  24  26
ATOM     26  C   UNL A   1      31.050  23.159  24.674  1.00  0.00     0.048 A 
ATOM     27  C   UNL A   1      31.466  22.359  23.609  1.00  0.00     0.026 A 
ATOM     28  C   UNL A   1      31.542  22.905  25.949  1.00  0.00     0.111 A 
ATOM     29  C   UNL A   1      32.515  21.450  23.788  1.00  0.00     0.009 A 
ATOM     30  C   UNL A   1      32.645  22.064  26.114  1.00  0.00     0.271 A 
ATOM     31  C   UNL A   1      33.144  21.336  25.030  1.00  0.00     0.086 A 
BRANCH  30  32
ATOM     32  N   UNL A   1      33.332  22.021  27.410  1.00  0.00     0.062 N 
ATOM     33  O   UNL A   1      34.495  21.598  27.433  1.00  0.00    -0.258 OA
ATOM     34  O   UNL A   1      32.721  22.445  28.403  1.00  0.00    -0.258 OA
ENDBRANCH  30  32
ENDBRANCH  24  26
ENDBRANCH  18  22
ENDBRANCH  13  16
ENDBRANCH  11  12
ENDBRANCH   4   6
ENDBRANCH   1   2
BRANCH   1  35
ATOM     35  C   UNL A   1      38.622  19.831  25.224  1.00  0.00     0.042 C 
BRANCH  35  36
ATOM     36  C   UNL A   1      39.748  19.981  26.228  1.00  0.00     0.118 C 
BRANCH  36  37
ATOM     37  N   UNL A   1      40.837  19.043  26.001  1.00  0.00    -0.352 N 
ATOM     38  C   UNL A   1      42.187  19.278  25.908  1.00  0.00     0.251 C 
ATOM     39  H   UNL A   1      40.567  18.101  25.899  1.00  0.00     0.163 HD
ATOM     40  O   UNL A   1      42.932  18.366  25.561  1.00  0.00    -0.269 OA
BRANCH  38  41
ATOM     41  C   UNL A   1      42.732  20.622  26.198  1.00  0.00     0.039 A 
ATOM     42  C   UNL A   1      43.201  21.398  25.135  1.00  0.00     0.014 A 
ATOM     43  C   UNL A   1      42.793  21.119  27.503  1.00  0.00     0.014 A 
ATOM     44  C   UNL A   1      43.688  22.684  25.379  1.00  0.00     0.010 A 
ATOM     45  C   UNL A   1      43.178  22.435  27.731  1.00  0.00     0.010 A 
ATOM     46  C   UNL A   1      43.656  23.223  26.676  1.00  0.00    -0.014 A 
BRANCH  46  47
ATOM     47  C   UNL A   1      44.154  24.594  26.948  1.00  0.00     0.031 A 
ATOM     48  C   UNL A   1      43.200  25.671  27.394  1.00  0.00     0.074 A 
ATOM     49  C   UNL A   1      45.457  24.880  26.757  1.00  0.00     0.049 A 
ATOM     50  N   UNL A   1      43.447  26.923  27.682  1.00  0.00    -0.248 NA
ATOM     51  C   UNL A   1      41.778  25.303  27.503  1.00  0.00     0.031 C 
ATOM     52  C   UNL A   1      46.470  23.941  26.268  1.00  0.00     0.029 A 
ATOM     53  N   UNL A   1      46.154  26.046  26.952  1.00  0.00    -0.354 N 
ATOM     54  C   UNL A   1      42.215  27.492  27.984  1.00  0.00     0.074 A 
ATOM     55  C   UNL A   1      41.216  26.467  27.787  1.00  0.00     0.031 C 
ATOM     56  C   UNL A   1      47.663  24.556  26.239  1.00  0.00     0.029 A 
ATOM     57  C   UNL A   1      47.495  25.940  26.673  1.00  0.00     0.049 A 
ATOM     58  H   UNL A   1      45.733  26.879  27.264  1.00  0.00     0.167 HD
ATOM     59  C   UNL A   1      41.940  28.748  28.410  1.00  0.00     0.031 A 
ATOM     60  C   UNL A   1      48.482  26.853  26.760  1.00  0.00     0.031 A 
ATOM     61  C   UNL A   1      42.940  29.760  28.623  1.00  0.00     0.049 A 
ATOM     62  C   UNL A   1      48.160  28.232  27.265  1.00  0.00     0.074 A 
ATOM     63  C   UNL A   1      42.775  31.042  29.117  1.00  0.00     0.029 A 
ATOM     64  N   UNL A   1      44.291  29.606  28.352  1.00  0.00    -0.354 N 
ATOM     65  N   UNL A   1      46.998  28.728  27.623  1.00  0.00    -0.248 NA
ATOM     66  C   UNL A   1      49.284  29.167  27.399  1.00  0.00     0.031 C 
ATOM     67  C   UNL A   1      44.021  31.679  29.098  1.00  0.00     0.029 A 
ATOM     68  C   UNL A   1      44.970  30.775  28.650  1.00  0.00     0.049 A 
ATOM     69  H   UNL A   1      44.706  28.785  28.000  1.00  0.00     0.167 HD
ATOM     70  C   UNL A   1      47.258  30.025  28.050  1.00  0.00     0.074 A 
ATOM     71  C   UNL A   1      48.687  30.228  27.922  1.00  0.00     0.031 C 
ATOM     72  C   UNL A   1      46.391  30.963  28.509  1.00  0.00     0.031 A 
BRANCH  59  73
ATOM     73  C   UNL A   1      40.496  29.093  28.669  1.00  0.00    -0.014 A 
ATOM     74  C   UNL A   1      39.604  29.344  27.610  1.00  0.00     0.010 A 
ATOM     75  C   UNL A   1      40.018  29.145  29.992  1.00  0.00     0.010 A 
ATOM     76  C   UNL A   1      38.275  29.688  27.870  1.00  0.00     0.020 A 
ATOM     77  C   UNL A   1      38.681  29.458  30.255  1.00  0.00     0.020 A 
ATOM     78  C   UNL A   1      37.823  29.747  29.191  1.00  0.00     0.054 A 
BRANCH  78  79
ATOM     79  S   UNL A   1      36.089  30.183  29.498  1.00  0.00     0.124 S 
ATOM     80  O   UNL A   1      36.133  31.642  29.452  1.00  0.00    -0.237 OA
ATOM     81  O   UNL A   1      35.395  29.539  28.385  1.00  0.00    -0.237 OA
ATOM     82  O   UNL A   1      35.815  29.610  30.813  1.00  0.00    -0.744 OA
ENDBRANCH  78  79
ENDBRANCH  59  73
BRANCH  60  83
ATOM     83  C   UNL A   1      49.874  26.474  26.392  1.00  0.00    -0.014 A 
ATOM     84  C   UNL A   1      50.739  25.910  27.347  1.00  0.00     0.010 A 
ATOM     85  C   UNL A   1      50.333  26.651  25.074  1.00  0.00     0.010 A 
ATOM     86  C   UNL A   1      52.041  25.545  26.994  1.00  0.00     0.020 A 
ATOM     87  C   UNL A   1      51.625  26.260  24.712  1.00  0.00     0.020 A 
ATOM     88  C   UNL A   1      52.475  25.718  25.678  1.00  0.00     0.054 A 
BRANCH  88  89
ATOM     89  S   UNL A   1      54.148  25.177  25.229  1.00  0.00     0.124 S 
ATOM     90  O   UNL A   1      54.893  25.443  26.455  1.00  0.00    -0.237 OA
ATOM     91  O   UNL A   1      53.946  23.768  24.901  1.00  0.00    -0.237 OA
ATOM     92  O   UNL A   1      54.488  26.029  24.091  1.00  0.00    -0.744 OA
ENDBRANCH  88  89
ENDBRANCH  60  83
BRANCH  72  93
ATOM     93  C   UNL A   1      46.972  32.284  28.941  1.00  0.00    -0.014 A 
ATOM     94  C   UNL A   1      47.080  33.365  28.046  1.00  0.00     0.010 A 
ATOM     95  C   UNL A   1      47.391  32.453  30.273  1.00  0.00     0.010 A 
ATOM     96  C   UNL A   1      47.640  34.574  28.465  1.00  0.00     0.020 A 
ATOM     97  C   UNL A   1      47.922  33.670  30.704  1.00  0.00     0.020 A 
ATOM     98  C   UNL A   1      48.063  34.716  29.791  1.00  0.00     0.054 A 
BRANCH  98  99
ATOM     99  S   UNL A   1      48.774  36.300  30.316  1.00  0.00     0.124 S 
ATOM    100  O   UNL A   1      48.862  36.127  31.763  1.00  0.00    -0.237 OA
ATOM    101  O   UNL A   1      50.052  36.330  29.608  1.00  0.00    -0.237 OA
ATOM    102  O   UNL A   1      47.796  37.287  29.864  1.00  0.00    -0.744 OA
ENDBRANCH  98  99
ENDBRANCH  72  93
ENDBRANCH  46  47
ENDBRANCH  38  41
ENDBRANCH  36  37
ENDBRANCH  35  36
ENDBRANCH   1  35
TORSDOF 18
ENDMDL
