MODEL 1
REMARK VINA RESULT:     -10.1      0.000      0.000
REMARK SMILES CC[C@](C)(NC(=O)Cc1cccc(F)c1)C(=O)NCCCNC(=O)c1ccc(-c2c3nc(c(-c4ccc(S(=O)(=O)[O-])cc4)c4ccc([nH]4)c(-c4ccc(S(=O)(=O)[O-])cc4)c4nc(c(-c5ccc(S(=O)(=O)[O-])cc5)c5ccc2[nH]5)C=C4)C=C3)cc1
REMARK SMILES IDX 20 1 19 2 18 3 16 4 17 5 3 7 4 8 2 9 1 10 5 11 6 12 7 14
REMARK SMILES IDX 8 15 9 16 10 17 15 18 11 19 13 20 12 21 14 22 21 23 22 24
REMARK SMILES IDX 23 25 24 27 25 28 26 29 84 30 27 31 83 32 28 33 29 34 30 35
REMARK SMILES IDX 77 36 31 37 82 38 76 39 78 40 32 41 81 42 75 43 74 44 33 46
REMARK SMILES IDX 63 47 44 48 62 49 45 50 48 51 61 52 79 53 46 54 47 55 60 57
REMARK SMILES IDX 80 58 49 59 34 60 35 61 43 62 36 63 42 64 37 65 38 66 39 67
REMARK SMILES IDX 40 68 41 69 64 70 65 71 73 72 66 73 72 74 67 75 68 76 69 77
REMARK SMILES IDX 70 78 71 79 50 80 51 81 59 82 52 83 58 84 53 85 54 86 55 87
REMARK SMILES IDX 56 88 57 89
REMARK H PARENT 18 6 5 13 22 26 78 45 48 56
REMARK Flexibility Score: inf
ROOT
ATOM      1  C   UNL A   1      32.703  27.989  26.045  1.00  0.00     0.042 C 
ENDROOT
BRANCH   1   2
ATOM      2  C   UNL A   1      32.145  27.955  24.629  1.00  0.00     0.117 C 
BRANCH   2   3
ATOM      3  N   UNL A   1      33.128  27.630  23.607  1.00  0.00    -0.354 N 
ATOM      4  C   UNL A   1      33.359  26.478  22.911  1.00  0.00     0.245 C 
ATOM      5  O   UNL A   1      34.137  26.554  21.955  1.00  0.00    -0.272 OA
ATOM      6  H   UNL A   1      33.733  28.372  23.376  1.00  0.00     0.163 HD
BRANCH   4   7
ATOM      7  C   UNL A   1      32.588  25.169  23.229  1.00  0.00     0.116 C 
ATOM      8  C   UNL A   1      33.189  23.962  22.479  1.00  0.00     0.045 C 
BRANCH   7   9
ATOM      9  C   UNL A   1      31.112  25.283  22.716  1.00  0.00     0.035 C 
ATOM     10  C   UNL A   1      30.039  25.139  23.796  1.00  0.00     0.007 C 
ENDBRANCH   7   9
BRANCH   7  11
ATOM     11  N   UNL A   1      32.572  24.875  24.690  1.00  0.00    -0.342 N 
ATOM     12  C   UNL A   1      33.515  24.333  25.521  1.00  0.00     0.225 C 
ATOM     13  H   UNL A   1      31.729  25.113  25.139  1.00  0.00     0.164 HD
ATOM     14  O   UNL A   1      33.087  23.655  26.462  1.00  0.00    -0.275 OA
BRANCH  12  15
ATOM     15  C   UNL A   1      35.000  24.650  25.425  1.00  0.00     0.135 C 
BRANCH  15  16
ATOM     16  C   UNL A   1      36.000  23.524  25.383  1.00  0.00    -0.036 A 
ATOM     17  C   UNL A   1      35.782  22.323  24.704  1.00  0.00     0.004 A 
ATOM     18  C   UNL A   1      37.220  23.693  26.061  1.00  0.00     0.043 A 
ATOM     19  C   UNL A   1      36.812  21.387  24.563  1.00  0.00     0.003 A 
ATOM     20  C   UNL A   1      38.222  22.734  25.958  1.00  0.00     0.123 A 
ATOM     21  C   UNL A   1      38.041  21.598  25.182  1.00  0.00     0.039 A 
ATOM     22  F   UNL A   1      39.382  22.916  26.602  1.00  0.00    -0.207 F 
ENDBRANCH  15  16
ENDBRANCH  12  15
ENDBRANCH   7  11
ENDBRANCH   4   7
ENDBRANCH   2   3
ENDBRANCH   1   2
BRANCH   1  23
ATOM     23  C   UNL A   1      34.024  28.731  26.174  1.00  0.00     0.118 C 
BRANCH  23  24
ATOM     24  N   UNL A   1      33.855  30.040  26.787  1.00  0.00    -0.352 N 
ATOM     25  C   UNL A   1      34.615  30.659  27.750  1.00  0.00     0.251 C 
ATOM     26  H   UNL A   1      33.084  30.559  26.462  1.00  0.00     0.163 HD
ATOM     27  O   UNL A   1      34.174  31.648  28.326  1.00  0.00    -0.269 OA
BRANCH  25  28
ATOM     28  C   UNL A   1      35.947  30.122  28.103  1.00  0.00     0.039 A 
ATOM     29  C   UNL A   1      36.973  30.171  27.156  1.00  0.00     0.014 A 
ATOM     30  C   UNL A   1      36.181  29.558  29.360  1.00  0.00     0.014 A 
ATOM     31  C   UNL A   1      38.252  29.724  27.499  1.00  0.00     0.010 A 
ATOM     32  C   UNL A   1      37.473  29.190  29.726  1.00  0.00     0.010 A 
ATOM     33  C   UNL A   1      38.522  29.267  28.799  1.00  0.00    -0.014 A 
BRANCH  33  34
ATOM     34  C   UNL A   1      39.893  28.875  29.215  1.00  0.00     0.031 A 
ATOM     35  C   UNL A   1      40.779  29.860  29.929  1.00  0.00     0.074 A 
ATOM     36  C   UNL A   1      40.367  27.656  28.884  1.00  0.00     0.049 A 
ATOM     37  N   UNL A   1      42.026  29.727  30.301  1.00  0.00    -0.248 NA
ATOM     38  C   UNL A   1      40.195  31.173  30.247  1.00  0.00     0.031 C 
ATOM     39  C   UNL A   1      39.622  26.624  28.160  1.00  0.00     0.029 A 
ATOM     40  N   UNL A   1      41.595  27.084  29.104  1.00  0.00    -0.354 N 
ATOM     41  C   UNL A   1      42.380  30.941  30.879  1.00  0.00     0.074 A 
ATOM     42  C   UNL A   1      41.232  31.813  30.767  1.00  0.00     0.031 C 
ATOM     43  C   UNL A   1      40.398  25.539  28.017  1.00  0.00     0.029 A 
ATOM     44  C   UNL A   1      41.710  25.811  28.596  1.00  0.00     0.049 A 
ATOM     45  H   UNL A   1      42.325  27.541  29.582  1.00  0.00     0.167 HD
ATOM     46  C   UNL A   1      43.550  31.292  31.465  1.00  0.00     0.031 A 
ATOM     47  C   UNL A   1      42.756  24.962  28.582  1.00  0.00     0.031 A 
ATOM     48  C   UNL A   1      44.689  30.421  31.581  1.00  0.00     0.049 A 
ATOM     49  C   UNL A   1      44.053  25.385  29.218  1.00  0.00     0.074 A 
ATOM     50  C   UNL A   1      45.898  30.665  32.208  1.00  0.00     0.029 A 
ATOM     51  N   UNL A   1      44.764  29.140  31.054  1.00  0.00    -0.354 N 
ATOM     52  N   UNL A   1      44.344  26.513  29.820  1.00  0.00    -0.248 NA
ATOM     53  C   UNL A   1      45.158  24.419  29.176  1.00  0.00     0.031 C 
ATOM     54  C   UNL A   1      46.725  29.555  32.011  1.00  0.00     0.029 A 
ATOM     55  C   UNL A   1      46.010  28.593  31.314  1.00  0.00     0.049 A 
ATOM     56  H   UNL A   1      44.039  28.686  30.566  1.00  0.00     0.167 HD
ATOM     57  C   UNL A   1      45.661  26.382  30.248  1.00  0.00     0.074 A 
ATOM     58  C   UNL A   1      46.101  25.060  29.852  1.00  0.00     0.031 C 
ATOM     59  C   UNL A   1      46.437  27.279  30.908  1.00  0.00     0.031 A 
BRANCH  46  60
ATOM     60  C   UNL A   1      43.659  32.688  32.021  1.00  0.00    -0.014 A 
ATOM     61  C   UNL A   1      43.398  32.952  33.379  1.00  0.00     0.010 A 
ATOM     62  C   UNL A   1      44.067  33.744  31.187  1.00  0.00     0.010 A 
ATOM     63  C   UNL A   1      43.502  34.253  33.881  1.00  0.00     0.020 A 
ATOM     64  C   UNL A   1      44.202  35.042  31.691  1.00  0.00     0.020 A 
ATOM     65  C   UNL A   1      43.900  35.289  33.033  1.00  0.00     0.054 A 
BRANCH  65  66
ATOM     66  S   UNL A   1      44.048  36.963  33.717  1.00  0.00     0.124 S 
ATOM     67  O   UNL A   1      44.581  37.707  32.577  1.00  0.00    -0.237 OA
ATOM     68  O   UNL A   1      42.672  37.281  34.084  1.00  0.00    -0.237 OA
ATOM     69  O   UNL A   1      44.969  36.800  34.838  1.00  0.00    -0.744 OA
ENDBRANCH  65  66
ENDBRANCH  46  60
BRANCH  47  70
ATOM     70  C   UNL A   1      42.618  23.623  27.948  1.00  0.00    -0.014 A 
ATOM     71  C   UNL A   1      42.237  22.506  28.713  1.00  0.00     0.010 A 
ATOM     72  C   UNL A   1      42.854  23.458  26.570  1.00  0.00     0.010 A 
ATOM     73  C   UNL A   1      42.110  21.249  28.118  1.00  0.00     0.020 A 
ATOM     74  C   UNL A   1      42.700  22.208  25.965  1.00  0.00     0.020 A 
ATOM     75  C   UNL A   1      42.340  21.107  26.746  1.00  0.00     0.054 A 
BRANCH  75  76
ATOM     76  S   UNL A   1      42.117  19.475  25.986  1.00  0.00     0.124 S 
ATOM     77  O   UNL A   1      42.927  19.590  24.778  1.00  0.00    -0.237 OA
ATOM     78  O   UNL A   1      42.634  18.576  27.014  1.00  0.00    -0.237 OA
ATOM     79  O   UNL A   1      40.674  19.394  25.768  1.00  0.00    -0.744 OA
ENDBRANCH  75  76
ENDBRANCH  47  70
BRANCH  59  80
ATOM     80  C   UNL A   1      47.836  26.853  31.266  1.00  0.00    -0.014 A 
ATOM     81  C   UNL A   1      48.093  26.104  32.428  1.00  0.00     0.010 A 
ATOM     82  C   UNL A   1      48.899  27.157  30.397  1.00  0.00     0.010 A 
ATOM     83  C   UNL A   1      49.394  25.691  32.729  1.00  0.00     0.020 A 
ATOM     84  C   UNL A   1      50.196  26.720  30.678  1.00  0.00     0.020 A 
ATOM     85  C   UNL A   1      50.437  26.000  31.850  1.00  0.00     0.054 A 
BRANCH  85  86
ATOM     86  S   UNL A   1      52.108  25.408  32.237  1.00  0.00     0.124 S 
ATOM     87  O   UNL A   1      51.881  23.983  32.461  1.00  0.00    -0.237 OA
ATOM     88  O   UNL A   1      52.856  25.744  31.028  1.00  0.00    -0.237 OA
ATOM     89  O   UNL A   1      52.480  26.174  33.425  1.00  0.00    -0.744 OA
ENDBRANCH  85  86
ENDBRANCH  59  80
ENDBRANCH  33  34
ENDBRANCH  25  28
ENDBRANCH  23  24
ENDBRANCH   1  23
TORSDOF 17
ENDMDL
MODEL 2
REMARK VINA RESULT:      -9.9      1.448      2.982
REMARK SMILES CC[C@](C)(NC(=O)Cc1cccc(F)c1)C(=O)NCCCNC(=O)c1ccc(-c2c3nc(c(-c4ccc(S(=O)(=O)[O-])cc4)c4ccc([nH]4)c(-c4ccc(S(=O)(=O)[O-])cc4)c4nc(c(-c5ccc(S(=O)(=O)[O-])cc5)c5ccc2[nH]5)C=C4)C=C3)cc1
REMARK SMILES IDX 20 1 19 2 18 3 16 4 17 5 3 7 4 8 2 9 1 10 5 11 6 12 7 14
REMARK SMILES IDX 8 15 9 16 10 17 15 18 11 19 13 20 12 21 14 22 21 23 22 24
REMARK SMILES IDX 23 25 24 27 25 28 26 29 84 30 27 31 83 32 28 33 29 34 30 35
REMARK SMILES IDX 77 36 31 37 82 38 76 39 78 40 32 41 81 42 75 43 74 44 33 46
REMARK SMILES IDX 63 47 44 48 62 49 45 50 48 51 61 52 79 53 46 54 47 55 60 57
REMARK SMILES IDX 80 58 49 59 34 60 35 61 43 62 36 63 42 64 37 65 38 66 39 67
REMARK SMILES IDX 40 68 41 69 64 70 65 71 73 72 66 73 72 74 67 75 68 76 69 77
REMARK SMILES IDX 70 78 71 79 50 80 51 81 59 82 52 83 58 84 53 85 54 86 55 87
REMARK SMILES IDX 56 88 57 89
REMARK H PARENT 18 6 5 13 22 26 78 45 48 56
REMARK Flexibility Score: inf
ROOT
ATOM      1  C   UNL A   1      33.753  28.211  25.156  1.00  0.00     0.042 C 
ENDROOT
BRANCH   1   2
ATOM      2  C   UNL A   1      34.051  26.784  24.718  1.00  0.00     0.117 C 
BRANCH   2   3
ATOM      3  N   UNL A   1      33.779  25.778  25.732  1.00  0.00    -0.354 N 
ATOM      4  C   UNL A   1      34.028  24.435  25.762  1.00  0.00     0.245 C 
ATOM      5  O   UNL A   1      33.867  23.865  26.845  1.00  0.00    -0.272 OA
ATOM      6  H   UNL A   1      33.337  26.126  26.541  1.00  0.00     0.163 HD
BRANCH   4   7
ATOM      7  C   UNL A   1      34.603  23.689  24.529  1.00  0.00     0.116 C 
ATOM      8  C   UNL A   1      34.243  22.189  24.557  1.00  0.00     0.045 C 
BRANCH   7   9
ATOM      9  C   UNL A   1      36.168  23.739  24.559  1.00  0.00     0.035 C 
ATOM     10  C   UNL A   1      36.865  22.661  23.727  1.00  0.00     0.007 C 
ENDBRANCH   7   9
BRANCH   7  11
ATOM     11  N   UNL A   1      34.123  24.280  23.248  1.00  0.00    -0.342 N 
ATOM     12  C   UNL A   1      33.116  23.915  22.397  1.00  0.00     0.225 C 
ATOM     13  H   UNL A   1      34.621  25.079  22.963  1.00  0.00     0.164 HD
ATOM     14  O   UNL A   1      33.306  24.145  21.198  1.00  0.00    -0.275 OA
BRANCH  12  15
ATOM     15  C   UNL A   1      31.763  23.402  22.868  1.00  0.00     0.135 C 
BRANCH  15  16
ATOM     16  C   UNL A   1      31.037  24.126  23.972  1.00  0.00    -0.036 A 
ATOM     17  C   UNL A   1      30.670  23.525  25.178  1.00  0.00     0.004 A 
ATOM     18  C   UNL A   1      30.714  25.482  23.778  1.00  0.00     0.043 A 
ATOM     19  C   UNL A   1      30.149  24.291  26.227  1.00  0.00     0.003 A 
ATOM     20  C   UNL A   1      30.148  26.224  24.809  1.00  0.00     0.123 A 
ATOM     21  C   UNL A   1      29.898  25.648  26.046  1.00  0.00     0.039 A 
ATOM     22  F   UNL A   1      29.858  27.517  24.611  1.00  0.00    -0.207 F 
ENDBRANCH  15  16
ENDBRANCH  12  15
ENDBRANCH   7  11
ENDBRANCH   4   7
ENDBRANCH   2   3
ENDBRANCH   1   2
BRANCH   1  23
ATOM     23  C   UNL A   1      33.663  28.392  26.663  1.00  0.00     0.118 C 
BRANCH  23  24
ATOM     24  N   UNL A   1      33.570  29.795  27.037  1.00  0.00    -0.352 N 
ATOM     25  C   UNL A   1      34.425  30.555  27.798  1.00  0.00     0.251 C 
ATOM     26  H   UNL A   1      32.779  30.270  26.693  1.00  0.00     0.163 HD
ATOM     27  O   UNL A   1      34.054  31.645  28.221  1.00  0.00    -0.269 OA
BRANCH  25  28
ATOM     28  C   UNL A   1      35.777  30.050  28.124  1.00  0.00     0.039 A 
ATOM     29  C   UNL A   1      36.773  30.091  27.145  1.00  0.00     0.014 A 
ATOM     30  C   UNL A   1      36.059  29.524  29.387  1.00  0.00     0.014 A 
ATOM     31  C   UNL A   1      38.069  29.675  27.459  1.00  0.00     0.010 A 
ATOM     32  C   UNL A   1      37.368  29.187  29.723  1.00  0.00     0.010 A 
ATOM     33  C   UNL A   1      38.386  29.257  28.762  1.00  0.00    -0.014 A 
BRANCH  33  34
ATOM     34  C   UNL A   1      39.776  28.899  29.145  1.00  0.00     0.031 A 
ATOM     35  C   UNL A   1      40.662  29.914  29.817  1.00  0.00     0.074 A 
ATOM     36  C   UNL A   1      40.265  27.684  28.822  1.00  0.00     0.049 A 
ATOM     37  N   UNL A   1      41.922  29.812  30.156  1.00  0.00    -0.248 NA
ATOM     38  C   UNL A   1      40.061  31.221  30.129  1.00  0.00     0.031 C 
ATOM     39  C   UNL A   1      39.521  26.626  28.136  1.00  0.00     0.029 A 
ATOM     40  N   UNL A   1      41.510  27.140  29.016  1.00  0.00    -0.354 N 
ATOM     41  C   UNL A   1      42.268  31.042  30.702  1.00  0.00     0.074 A 
ATOM     42  C   UNL A   1      41.100  31.890  30.609  1.00  0.00     0.031 C 
ATOM     43  C   UNL A   1      40.314  25.553  27.990  1.00  0.00     0.029 A 
ATOM     44  C   UNL A   1      41.637  25.861  28.526  1.00  0.00     0.049 A 
ATOM     45  H   UNL A   1      42.244  27.619  29.465  1.00  0.00     0.167 HD
ATOM     46  C   UNL A   1      43.447  31.427  31.249  1.00  0.00     0.031 A 
ATOM     47  C   UNL A   1      42.699  25.033  28.497  1.00  0.00     0.031 A 
ATOM     48  C   UNL A   1      44.605  30.579  31.347  1.00  0.00     0.049 A 
ATOM     49  C   UNL A   1      44.004  25.492  29.088  1.00  0.00     0.074 A 
ATOM     50  C   UNL A   1      45.827  30.858  31.935  1.00  0.00     0.029 A 
ATOM     51  N   UNL A   1      44.691  29.291  30.840  1.00  0.00    -0.354 N 
ATOM     52  N   UNL A   1      44.289  26.635  29.663  1.00  0.00    -0.248 NA
ATOM     53  C   UNL A   1      45.127  24.547  29.031  1.00  0.00     0.031 C 
ATOM     54  C   UNL A   1      46.669  29.761  31.734  1.00  0.00     0.029 A 
ATOM     55  C   UNL A   1      45.954  28.774  31.073  1.00  0.00     0.049 A 
ATOM     56  H   UNL A   1      43.962  28.815  30.380  1.00  0.00     0.167 HD
ATOM     57  C   UNL A   1      45.621  26.538  30.055  1.00  0.00     0.074 A 
ATOM     58  C   UNL A   1      46.075  25.218  29.669  1.00  0.00     0.031 C 
ATOM     59  C   UNL A   1      46.396  27.461  30.678  1.00  0.00     0.031 A 
BRANCH  46  60
ATOM     60  C   UNL A   1      43.543  32.834  31.778  1.00  0.00    -0.014 A 
ATOM     61  C   UNL A   1      43.944  33.897  30.948  1.00  0.00     0.010 A 
ATOM     62  C   UNL A   1      43.187  33.106  33.112  1.00  0.00     0.010 A 
ATOM     63  C   UNL A   1      44.029  35.197  31.452  1.00  0.00     0.020 A 
ATOM     64  C   UNL A   1      43.242  34.411  33.613  1.00  0.00     0.020 A 
ATOM     65  C   UNL A   1      43.680  35.445  32.783  1.00  0.00     0.054 A 
BRANCH  65  66
ATOM     66  S   UNL A   1      43.779  37.146  33.404  1.00  0.00     0.124 S 
ATOM     67  O   UNL A   1      42.556  37.248  34.198  1.00  0.00    -0.237 OA
ATOM     68  O   UNL A   1      45.023  37.136  34.168  1.00  0.00    -0.237 OA
ATOM     69  O   UNL A   1      43.801  37.959  32.191  1.00  0.00    -0.744 OA
ENDBRANCH  65  66
ENDBRANCH  46  60
BRANCH  47  70
ATOM     70  C   UNL A   1      42.569  23.680  27.890  1.00  0.00    -0.014 A 
ATOM     71  C   UNL A   1      42.186  22.578  28.675  1.00  0.00     0.010 A 
ATOM     72  C   UNL A   1      42.817  23.487  26.518  1.00  0.00     0.010 A 
ATOM     73  C   UNL A   1      42.067  21.308  28.105  1.00  0.00     0.020 A 
ATOM     74  C   UNL A   1      42.672  22.224  25.938  1.00  0.00     0.020 A 
ATOM     75  C   UNL A   1      42.308  21.139  26.738  1.00  0.00     0.054 A 
BRANCH  75  76
ATOM     76  S   UNL A   1      42.096  19.491  26.010  1.00  0.00     0.124 S 
ATOM     77  O   UNL A   1      42.580  18.623  27.078  1.00  0.00    -0.237 OA
ATOM     78  O   UNL A   1      40.658  19.443  25.755  1.00  0.00    -0.237 OA
ATOM     79  O   UNL A   1      42.931  19.537  24.811  1.00  0.00    -0.744 OA
ENDBRANCH  75  76
ENDBRANCH  47  70
BRANCH  59  80
ATOM     80  C   UNL A   1      47.813  27.069  31.003  1.00  0.00    -0.014 A 
ATOM     81  C   UNL A   1      48.117  26.344  32.169  1.00  0.00     0.010 A 
ATOM     82  C   UNL A   1      48.845  27.379  30.100  1.00  0.00     0.010 A 
ATOM     83  C   UNL A   1      49.434  25.962  32.439  1.00  0.00     0.020 A 
ATOM     84  C   UNL A   1      50.158  26.973  30.351  1.00  0.00     0.020 A 
ATOM     85  C   UNL A   1      50.446  26.278  31.526  1.00  0.00     0.054 A 
BRANCH  85  86
ATOM     86  S   UNL A   1      52.139  25.725  31.876  1.00  0.00     0.124 S 
ATOM     87  O   UNL A   1      52.801  25.946  30.594  1.00  0.00    -0.237 OA
ATOM     88  O   UNL A   1      52.550  26.617  32.958  1.00  0.00    -0.237 OA
ATOM     89  O   UNL A   1      51.974  24.325  32.260  1.00  0.00    -0.744 OA
ENDBRANCH  85  86
ENDBRANCH  59  80
ENDBRANCH  33  34
ENDBRANCH  25  28
ENDBRANCH  23  24
ENDBRANCH   1  23
TORSDOF 17
ENDMDL
MODEL 3
REMARK VINA RESULT:      -9.8      3.943     10.726
REMARK SMILES CC[C@](C)(NC(=O)Cc1cccc(F)c1)C(=O)NCCCNC(=O)c1ccc(-c2c3nc(c(-c4ccc(S(=O)(=O)[O-])cc4)c4ccc([nH]4)c(-c4ccc(S(=O)(=O)[O-])cc4)c4nc(c(-c5ccc(S(=O)(=O)[O-])cc5)c5ccc2[nH]5)C=C4)C=C3)cc1
REMARK SMILES IDX 20 1 19 2 18 3 16 4 17 5 3 7 4 8 2 9 1 10 5 11 6 12 7 14
REMARK SMILES IDX 8 15 9 16 10 17 15 18 11 19 13 20 12 21 14 22 21 23 22 24
REMARK SMILES IDX 23 25 24 27 25 28 26 29 84 30 27 31 83 32 28 33 29 34 30 35
REMARK SMILES IDX 77 36 31 37 82 38 76 39 78 40 32 41 81 42 75 43 74 44 33 46
REMARK SMILES IDX 63 47 44 48 62 49 45 50 48 51 61 52 79 53 46 54 47 55 60 57
REMARK SMILES IDX 80 58 49 59 34 60 35 61 43 62 36 63 42 64 37 65 38 66 39 67
REMARK SMILES IDX 40 68 41 69 64 70 65 71 73 72 66 73 72 74 67 75 68 76 69 77
REMARK SMILES IDX 70 78 71 79 50 80 51 81 59 82 52 83 58 84 53 85 54 86 55 87
REMARK SMILES IDX 56 88 57 89
REMARK H PARENT 18 6 5 13 22 26 78 45 48 56
REMARK Flexibility Score: inf
ROOT
ATOM      1  C   UNL A   1      42.476  22.142  25.546  1.00  0.00     0.042 C 
ENDROOT
BRANCH   1   2
ATOM      2  C   UNL A   1      43.793  22.715  26.048  1.00  0.00     0.117 C 
BRANCH   2   3
ATOM      3  N   UNL A   1      44.790  22.923  25.010  1.00  0.00    -0.354 N 
ATOM      4  C   UNL A   1      45.712  23.914  24.829  1.00  0.00     0.245 C 
ATOM      5  O   UNL A   1      46.567  23.723  23.959  1.00  0.00    -0.272 OA
ATOM      6  H   UNL A   1      44.802  22.226  24.314  1.00  0.00     0.163 HD
BRANCH   4   7
ATOM      7  C   UNL A   1      45.756  25.159  25.754  1.00  0.00     0.116 C 
ATOM      8  C   UNL A   1      46.440  24.840  27.100  1.00  0.00     0.045 C 
BRANCH   7   9
ATOM      9  C   UNL A   1      44.299  25.599  26.124  1.00  0.00     0.035 C 
ATOM     10  C   UNL A   1      43.488  26.185  24.967  1.00  0.00     0.007 C 
ENDBRANCH   7   9
BRANCH   7  11
ATOM     11  N   UNL A   1      46.461  26.304  25.111  1.00  0.00    -0.342 N 
ATOM     12  C   UNL A   1      46.504  27.637  25.417  1.00  0.00     0.225 C 
ATOM     13  H   UNL A   1      46.993  26.055  24.321  1.00  0.00     0.164 HD
ATOM     14  O   UNL A   1      46.615  28.412  24.461  1.00  0.00    -0.275 OA
BRANCH  12  15
ATOM     15  C   UNL A   1      46.575  28.168  26.841  1.00  0.00     0.135 C 
BRANCH  15  16
ATOM     16  C   UNL A   1      45.606  29.232  27.288  1.00  0.00    -0.036 A 
ATOM     17  C   UNL A   1      45.969  30.324  28.078  1.00  0.00     0.004 A 
ATOM     18  C   UNL A   1      44.263  29.119  26.884  1.00  0.00     0.043 A 
ATOM     19  C   UNL A   1      45.063  31.363  28.319  1.00  0.00     0.003 A 
ATOM     20  C   UNL A   1      43.355  30.132  27.172  1.00  0.00     0.123 A 
ATOM     21  C   UNL A   1      43.753  31.272  27.854  1.00  0.00     0.039 A 
ATOM     22  F   UNL A   1      42.083  30.014  26.770  1.00  0.00    -0.207 F 
ENDBRANCH  15  16
ENDBRANCH  12  15
ENDBRANCH   7  11
ENDBRANCH   4   7
ENDBRANCH   2   3
ENDBRANCH   1   2
BRANCH   1  23
ATOM     23  C   UNL A   1      41.402  22.023  26.616  1.00  0.00     0.118 C 
BRANCH  23  24
ATOM     24  N   UNL A   1      40.062  22.106  26.054  1.00  0.00    -0.352 N 
ATOM     25  C   UNL A   1      39.088  23.054  26.255  1.00  0.00     0.251 C 
ATOM     26  H   UNL A   1      39.819  21.378  25.438  1.00  0.00     0.163 HD
ATOM     27  O   UNL A   1      37.936  22.824  25.902  1.00  0.00    -0.269 OA
BRANCH  25  28
ATOM     28  C   UNL A   1      39.424  24.336  26.914  1.00  0.00     0.039 A 
ATOM     29  C   UNL A   1      39.046  24.536  28.244  1.00  0.00     0.014 A 
ATOM     30  C   UNL A   1      40.098  25.342  26.219  1.00  0.00     0.014 A 
ATOM     31  C   UNL A   1      39.413  25.716  28.897  1.00  0.00     0.010 A 
ATOM     32  C   UNL A   1      40.533  26.480  26.893  1.00  0.00     0.010 A 
ATOM     33  C   UNL A   1      40.193  26.680  28.239  1.00  0.00    -0.014 A 
BRANCH  33  34
ATOM     34  C   UNL A   1      40.674  27.899  28.939  1.00  0.00     0.031 A 
ATOM     35  C   UNL A   1      42.048  27.928  29.553  1.00  0.00     0.074 A 
ATOM     36  C   UNL A   1      39.846  28.953  29.087  1.00  0.00     0.049 A 
ATOM     37  N   UNL A   1      42.612  28.868  30.266  1.00  0.00    -0.248 NA
ATOM     38  C   UNL A   1      42.890  26.736  29.357  1.00  0.00     0.031 C 
ATOM     39  C   UNL A   1      38.477  29.035  28.573  1.00  0.00     0.029 A 
ATOM     40  N   UNL A   1      40.032  30.154  29.725  1.00  0.00    -0.354 N 
ATOM     41  C   UNL A   1      43.863  28.377  30.619  1.00  0.00     0.074 A 
ATOM     42  C   UNL A   1      43.959  27.038  30.081  1.00  0.00     0.031 C 
ATOM     43  C   UNL A   1      37.957  30.230  28.895  1.00  0.00     0.029 A 
ATOM     44  C   UNL A   1      38.933  30.981  29.677  1.00  0.00     0.049 A 
ATOM     45  H   UNL A   1      40.872  30.401  30.175  1.00  0.00     0.167 HD
ATOM     46  C   UNL A   1      44.852  28.991  31.314  1.00  0.00     0.031 A 
ATOM     47  C   UNL A   1      38.728  32.200  30.213  1.00  0.00     0.031 A 
ATOM     48  C   UNL A   1      44.757  30.325  31.843  1.00  0.00     0.049 A 
ATOM     49  C   UNL A   1      39.831  32.851  31.002  1.00  0.00     0.074 A 
ATOM     50  C   UNL A   1      45.724  31.056  32.511  1.00  0.00     0.029 A 
ATOM     51  N   UNL A   1      43.629  31.129  31.771  1.00  0.00    -0.354 N 
ATOM     52  N   UNL A   1      41.033  32.396  31.265  1.00  0.00    -0.248 NA
ATOM     53  C   UNL A   1      39.552  34.180  31.560  1.00  0.00     0.031 C 
ATOM     54  C   UNL A   1      45.163  32.278  32.892  1.00  0.00     0.029 A 
ATOM     55  C   UNL A   1      43.865  32.335  32.409  1.00  0.00     0.049 A 
ATOM     56  H   UNL A   1      42.784  30.878  31.331  1.00  0.00     0.167 HD
ATOM     57  C   UNL A   1      41.661  33.394  32.002  1.00  0.00     0.074 A 
ATOM     58  C   UNL A   1      40.712  34.482  32.126  1.00  0.00     0.031 C 
ATOM     59  C   UNL A   1      42.910  33.407  32.531  1.00  0.00     0.031 A 
BRANCH  46  60
ATOM     60  C   UNL A   1      46.123  28.217  31.549  1.00  0.00    -0.014 A 
ATOM     61  C   UNL A   1      47.201  28.299  30.648  1.00  0.00     0.010 A 
ATOM     62  C   UNL A   1      46.259  27.429  32.707  1.00  0.00     0.010 A 
ATOM     63  C   UNL A   1      48.374  27.574  30.879  1.00  0.00     0.020 A 
ATOM     64  C   UNL A   1      47.441  26.726  32.957  1.00  0.00     0.020 A 
ATOM     65  C   UNL A   1      48.485  26.791  32.030  1.00  0.00     0.054 A 
BRANCH  65  66
ATOM     66  S   UNL A   1      50.027  25.879  32.315  1.00  0.00     0.124 S 
ATOM     67  O   UNL A   1      51.029  26.934  32.177  1.00  0.00    -0.237 OA
ATOM     68  O   UNL A   1      49.847  25.360  33.668  1.00  0.00    -0.237 OA
ATOM     69  O   UNL A   1      50.036  24.871  31.258  1.00  0.00    -0.744 OA
ENDBRANCH  65  66
ENDBRANCH  46  60
BRANCH  47  70
ATOM     70  C   UNL A   1      37.422  32.887  30.016  1.00  0.00    -0.014 A 
ATOM     71  C   UNL A   1      37.148  33.569  28.817  1.00  0.00     0.010 A 
ATOM     72  C   UNL A   1      36.439  32.854  31.022  1.00  0.00     0.010 A 
ATOM     73  C   UNL A   1      35.923  34.216  28.634  1.00  0.00     0.020 A 
ATOM     74  C   UNL A   1      35.202  33.475  30.832  1.00  0.00     0.020 A 
ATOM     75  C   UNL A   1      34.956  34.163  29.642  1.00  0.00     0.054 A 
BRANCH  75  76
ATOM     76  S   UNL A   1      33.354  34.965  29.360  1.00  0.00     0.124 S 
ATOM     77  O   UNL A   1      32.759  34.107  28.340  1.00  0.00    -0.237 OA
ATOM     78  O   UNL A   1      32.734  34.904  30.681  1.00  0.00    -0.237 OA
ATOM     79  O   UNL A   1      33.717  36.309  28.915  1.00  0.00    -0.744 OA
ENDBRANCH  75  76
ENDBRANCH  47  70
BRANCH  59  80
ATOM     80  C   UNL A   1      43.336  34.646  33.273  1.00  0.00    -0.014 A 
ATOM     81  C   UNL A   1      43.310  34.696  34.678  1.00  0.00     0.010 A 
ATOM     82  C   UNL A   1      43.824  35.753  32.557  1.00  0.00     0.010 A 
ATOM     83  C   UNL A   1      43.739  35.843  35.352  1.00  0.00     0.020 A 
ATOM     84  C   UNL A   1      44.281  36.890  33.227  1.00  0.00     0.020 A 
ATOM     85  C   UNL A   1      44.224  36.933  34.621  1.00  0.00     0.054 A 
BRANCH  85  86
ATOM     86  S   UNL A   1      44.821  38.390  35.522  1.00  0.00     0.124 S 
ATOM     87  O   UNL A   1      46.178  37.988  35.883  1.00  0.00    -0.237 OA
ATOM     88  O   UNL A   1      44.724  39.448  34.520  1.00  0.00    -0.237 OA
ATOM     89  O   UNL A   1      43.889  38.512  36.640  1.00  0.00    -0.744 OA
ENDBRANCH  85  86
ENDBRANCH  59  80
ENDBRANCH  33  34
ENDBRANCH  25  28
ENDBRANCH  23  24
ENDBRANCH   1  23
TORSDOF 17
ENDMDL
