MODEL 1
REMARK VINA RESULT:     -10.7      0.000      0.000
REMARK SMILES CC[C@@H]1CCCCN1c1ccc(NC(=O)CCC(=O)NCCCNC(=O)c2ccc(-c3c4nc(c(-c5ccc(S(=O)(=O)[O-])cc5)c5ccc([nH]5)c(-c5ccc(S(=O)(=O)[O-])cc5)c5nc(c(-c6ccc(S(=O)(=O)[O-])cc6)c6ccc3[nH]6)C=C5)C=C4)cc2)cc1
REMARK SMILES IDX 21 1 20 2 18 3 19 4 17 6 16 7 14 8 13 9 15 11 12 12 9 13
REMARK SMILES IDX 10 14 88 15 11 16 87 17 8 18 3 19 4 20 5 21 7 22 6 23 2 24
REMARK SMILES IDX 1 25 22 26 23 27 24 28 25 29 26 31 27 32 28 33 86 34 29 35
REMARK SMILES IDX 85 36 30 37 31 38 32 39 79 40 33 41 84 42 78 43 80 44 34 45
REMARK SMILES IDX 83 46 77 47 76 48 35 50 65 51 46 52 64 53 47 54 50 55 63 56
REMARK SMILES IDX 81 57 48 58 49 59 62 61 82 62 51 63 36 64 37 65 45 66 38 67
REMARK SMILES IDX 44 68 39 69 40 70 41 71 42 72 43 73 66 74 67 75 75 76 68 77
REMARK SMILES IDX 74 78 69 79 70 80 71 81 72 82 73 83 52 84 53 85 61 86 54 87
REMARK SMILES IDX 60 88 55 89 56 90 57 91 58 92 59 93
REMARK H PARENT 20 5 13 10 24 30 80 49 50 60
REMARK Flexibility Score: inf
ROOT
ATOM      1  C   UNL A   1      37.573  22.205  25.477  1.00  0.00     0.117 C 
ENDROOT
BRANCH   1   2
ATOM      2  N   UNL A   1      36.873  22.701  24.303  1.00  0.00    -0.356 N 
ATOM      3  C   UNL A   1      35.602  22.453  23.878  1.00  0.00     0.220 C 
ATOM      4  O   UNL A   1      35.093  23.205  23.046  1.00  0.00    -0.275 OA
ATOM      5  H   UNL A   1      37.395  23.307  23.729  1.00  0.00     0.163 HD
BRANCH   3   6
ATOM      6  C   UNL A   1      34.827  21.267  24.399  1.00  0.00     0.110 C 
BRANCH   6   7
ATOM      7  C   UNL A   1      33.351  21.289  24.019  1.00  0.00     0.110 C 
BRANCH   7   8
ATOM      8  C   UNL A   1      32.422  20.813  25.115  1.00  0.00     0.224 C 
ATOM      9  N   UNL A   1      31.797  21.659  25.986  1.00  0.00    -0.326 N 
ATOM     10  H   UNL A   1      31.214  21.210  26.640  1.00  0.00     0.169 HD
ATOM     11  O   UNL A   1      32.125  19.613  25.168  1.00  0.00    -0.275 OA
BRANCH   9  12
ATOM     12  C   UNL A   1      31.837  23.055  26.110  1.00  0.00     0.041 A 
ATOM     13  C   UNL A   1      31.802  25.881  25.928  1.00  0.00     0.037 A 
ATOM     14  C   UNL A   1      32.980  25.183  26.200  1.00  0.00     0.028 A 
ATOM     15  C   UNL A   1      30.618  25.134  25.884  1.00  0.00     0.028 A 
ATOM     16  C   UNL A   1      33.001  23.786  26.295  1.00  0.00     0.028 A 
ATOM     17  C   UNL A   1      30.628  23.742  26.006  1.00  0.00     0.028 A 
BRANCH  13  18
ATOM     18  N   UNL A   1      31.754  27.251  25.725  1.00  0.00    -0.369 N 
ATOM     19  C   UNL A   1      32.324  27.954  24.557  1.00  0.00     0.082 C 
ATOM     20  C   UNL A   1      33.753  28.425  24.880  1.00  0.00     0.025 C 
ATOM     21  C   UNL A   1      33.792  29.229  26.183  1.00  0.00     0.004 C 
ATOM     22  C   UNL A   1      31.686  28.062  26.947  1.00  0.00     0.117 C 
ATOM     23  C   UNL A   1      33.101  28.495  27.335  1.00  0.00     0.021 C 
BRANCH  19  24
ATOM     24  C   UNL A   1      32.250  27.195  23.223  1.00  0.00     0.021 C 
ATOM     25  C   UNL A   1      30.888  27.300  22.548  1.00  0.00     0.006 C 
ENDBRANCH  19  24
ENDBRANCH  13  18
ENDBRANCH   9  12
ENDBRANCH   7   8
ENDBRANCH   6   7
ENDBRANCH   3   6
ENDBRANCH   1   2
BRANCH   1  26
ATOM     26  C   UNL A   1      38.541  21.058  25.208  1.00  0.00     0.042 C 
BRANCH  26  27
ATOM     27  C   UNL A   1      39.275  20.516  26.429  1.00  0.00     0.118 C 
BRANCH  27  28
ATOM     28  N   UNL A   1      40.318  19.564  26.104  1.00  0.00    -0.352 N 
ATOM     29  C   UNL A   1      41.675  19.760  26.000  1.00  0.00     0.251 C 
ATOM     30  H   UNL A   1      40.010  18.644  25.931  1.00  0.00     0.163 HD
ATOM     31  O   UNL A   1      42.390  18.840  25.621  1.00  0.00    -0.269 OA
BRANCH  29  32
ATOM     32  C   UNL A   1      42.275  21.080  26.315  1.00  0.00     0.039 A 
ATOM     33  C   UNL A   1      42.566  21.370  27.651  1.00  0.00     0.014 A 
ATOM     34  C   UNL A   1      42.507  22.045  25.329  1.00  0.00     0.014 A 
ATOM     35  C   UNL A   1      43.104  22.613  27.994  1.00  0.00     0.010 A 
ATOM     36  C   UNL A   1      43.110  23.260  25.665  1.00  0.00     0.010 A 
ATOM     37  C   UNL A   1      43.390  23.572  27.005  1.00  0.00    -0.014 A 
BRANCH  37  38
ATOM     38  C   UNL A   1      43.921  24.909  27.395  1.00  0.00     0.031 A 
ATOM     39  C   UNL A   1      45.379  25.240  27.189  1.00  0.00     0.074 A 
ATOM     40  C   UNL A   1      43.093  25.842  27.907  1.00  0.00     0.049 A 
ATOM     41  N   UNL A   1      46.000  26.379  27.375  1.00  0.00    -0.248 NA
ATOM     42  C   UNL A   1      46.256  24.150  26.733  1.00  0.00     0.031 C 
ATOM     43  C   UNL A   1      41.670  25.643  28.198  1.00  0.00     0.029 A 
ATOM     44  N   UNL A   1      43.320  27.150  28.259  1.00  0.00    -0.354 N 
ATOM     45  C   UNL A   1      47.335  26.140  27.062  1.00  0.00     0.074 A 
ATOM     46  C   UNL A   1      47.445  24.735  26.737  1.00  0.00     0.031 C 
ATOM     47  C   UNL A   1      41.145  26.798  28.636  1.00  0.00     0.029 A 
ATOM     48  C   UNL A   1      42.194  27.813  28.687  1.00  0.00     0.049 A 
ATOM     49  H   UNL A   1      44.207  27.575  28.207  1.00  0.00     0.167 HD
ATOM     50  C   UNL A   1      48.372  27.011  27.017  1.00  0.00     0.031 A 
ATOM     51  C   UNL A   1      42.017  29.096  29.066  1.00  0.00     0.031 A 
ATOM     52  C   UNL A   1      48.264  28.411  27.336  1.00  0.00     0.049 A 
ATOM     53  C   UNL A   1      43.185  30.046  29.012  1.00  0.00     0.074 A 
ATOM     54  C   UNL A   1      49.247  29.385  27.276  1.00  0.00     0.029 A 
ATOM     55  N   UNL A   1      47.109  29.037  27.777  1.00  0.00    -0.354 N 
ATOM     56  N   UNL A   1      44.421  29.815  28.639  1.00  0.00    -0.248 NA
ATOM     57  C   UNL A   1      42.924  31.437  29.410  1.00  0.00     0.031 C 
ATOM     58  C   UNL A   1      48.699  30.588  27.737  1.00  0.00     0.029 A 
ATOM     59  C   UNL A   1      47.359  30.379  28.016  1.00  0.00     0.049 A 
ATOM     60  H   UNL A   1      46.238  28.593  27.901  1.00  0.00     0.167 HD
ATOM     61  C   UNL A   1      45.078  31.039  28.726  1.00  0.00     0.074 A 
ATOM     62  C   UNL A   1      44.096  32.009  29.167  1.00  0.00     0.031 C 
ATOM     63  C   UNL A   1      46.376  31.334  28.462  1.00  0.00     0.031 A 
BRANCH  50  64
ATOM     64  C   UNL A   1      49.721  26.470  26.614  1.00  0.00    -0.014 A 
ATOM     65  C   UNL A   1      50.149  26.505  25.273  1.00  0.00     0.010 A 
ATOM     66  C   UNL A   1      50.590  25.952  27.591  1.00  0.00     0.010 A 
ATOM     67  C   UNL A   1      51.398  25.990  24.912  1.00  0.00     0.020 A 
ATOM     68  C   UNL A   1      51.853  25.466  27.241  1.00  0.00     0.020 A 
ATOM     69  C   UNL A   1      52.241  25.471  25.899  1.00  0.00     0.054 A 
BRANCH  69  70
ATOM     70  S   UNL A   1      53.863  24.826  25.405  1.00  0.00     0.124 S 
ATOM     71  O   UNL A   1      54.639  24.990  26.633  1.00  0.00    -0.237 OA
ATOM     72  O   UNL A   1      53.559  23.447  25.034  1.00  0.00    -0.237 OA
ATOM     73  O   UNL A   1      54.259  25.693  24.298  1.00  0.00    -0.744 OA
ENDBRANCH  69  70
ENDBRANCH  50  64
BRANCH  51  74
ATOM     74  C   UNL A   1      40.672  29.567  29.504  1.00  0.00    -0.014 A 
ATOM     75  C   UNL A   1      39.662  29.839  28.563  1.00  0.00     0.010 A 
ATOM     76  C   UNL A   1      40.396  29.749  30.871  1.00  0.00     0.010 A 
ATOM     77  C   UNL A   1      38.411  30.305  28.980  1.00  0.00     0.020 A 
ATOM     78  C   UNL A   1      39.136  30.185  31.294  1.00  0.00     0.020 A 
ATOM     79  C   UNL A   1      38.155  30.473  30.344  1.00  0.00     0.054 A 
BRANCH  79  80
ATOM     80  S   UNL A   1      36.510  31.035  30.864  1.00  0.00     0.124 S 
ATOM     81  O   UNL A   1      35.954  29.828  31.468  1.00  0.00    -0.237 OA
ATOM     82  O   UNL A   1      36.825  32.120  31.790  1.00  0.00    -0.237 OA
ATOM     83  O   UNL A   1      35.881  31.455  29.614  1.00  0.00    -0.744 OA
ENDBRANCH  79  80
ENDBRANCH  51  74
BRANCH  63  84
ATOM     84  C   UNL A   1      46.801  32.774  28.604  1.00  0.00    -0.014 A 
ATOM     85  C   UNL A   1      46.696  33.682  27.535  1.00  0.00     0.010 A 
ATOM     86  C   UNL A   1      47.291  33.232  29.842  1.00  0.00     0.010 A 
ATOM     87  C   UNL A   1      47.126  35.003  27.684  1.00  0.00     0.020 A 
ATOM     88  C   UNL A   1      47.688  34.561  30.006  1.00  0.00     0.020 A 
ATOM     89  C   UNL A   1      47.625  35.433  28.918  1.00  0.00     0.054 A 
BRANCH  89  90
ATOM     90  S   UNL A   1      48.168  37.155  29.090  1.00  0.00     0.124 S 
ATOM     91  O   UNL A   1      46.912  37.841  29.386  1.00  0.00    -0.237 OA
ATOM     92  O   UNL A   1      49.120  37.083  30.195  1.00  0.00    -0.237 OA
ATOM     93  O   UNL A   1      48.755  37.466  27.788  1.00  0.00    -0.744 OA
ENDBRANCH  89  90
ENDBRANCH  63  84
ENDBRANCH  37  38
ENDBRANCH  29  32
ENDBRANCH  27  28
ENDBRANCH  26  27
ENDBRANCH   1  26
TORSDOF 18
ENDMDL
MODEL 2
REMARK VINA RESULT:     -10.6      5.878      8.017
REMARK SMILES CC[C@@H]1CCCCN1c1ccc(NC(=O)CCC(=O)NCCCNC(=O)c2ccc(-c3c4nc(c(-c5ccc(S(=O)(=O)[O-])cc5)c5ccc([nH]5)c(-c5ccc(S(=O)(=O)[O-])cc5)c5nc(c(-c6ccc(S(=O)(=O)[O-])cc6)c6ccc3[nH]6)C=C5)C=C4)cc2)cc1
REMARK SMILES IDX 21 1 20 2 18 3 19 4 17 6 16 7 14 8 13 9 15 11 12 12 9 13
REMARK SMILES IDX 10 14 88 15 11 16 87 17 8 18 3 19 4 20 5 21 7 22 6 23 2 24
REMARK SMILES IDX 1 25 22 26 23 27 24 28 25 29 26 31 27 32 28 33 86 34 29 35
REMARK SMILES IDX 85 36 30 37 31 38 32 39 79 40 33 41 84 42 78 43 80 44 34 45
REMARK SMILES IDX 83 46 77 47 76 48 35 50 65 51 46 52 64 53 47 54 50 55 63 56
REMARK SMILES IDX 81 57 48 58 49 59 62 61 82 62 51 63 36 64 37 65 45 66 38 67
REMARK SMILES IDX 44 68 39 69 40 70 41 71 42 72 43 73 66 74 67 75 75 76 68 77
REMARK SMILES IDX 74 78 69 79 70 80 71 81 72 82 73 83 52 84 53 85 61 86 54 87
REMARK SMILES IDX 60 88 55 89 56 90 57 91 58 92 59 93
REMARK H PARENT 20 5 13 10 24 30 80 49 50 60
REMARK Flexibility Score: inf
ROOT
ATOM      1  C   UNL A   1      38.534  22.799  26.467  1.00  0.00     0.117 C 
ENDROOT
BRANCH   1   2
ATOM      2  N   UNL A   1      38.053  22.966  25.106  1.00  0.00    -0.356 N 
ATOM      3  C   UNL A   1      36.978  22.402  24.486  1.00  0.00     0.220 C 
ATOM      4  O   UNL A   1      36.557  22.906  23.444  1.00  0.00    -0.275 OA
ATOM      5  H   UNL A   1      38.583  23.579  24.547  1.00  0.00     0.163 HD
BRANCH   3   6
ATOM      6  C   UNL A   1      36.317  21.168  25.051  1.00  0.00     0.110 C 
BRANCH   6   7
ATOM      7  C   UNL A   1      35.056  21.466  25.854  1.00  0.00     0.110 C 
BRANCH   7   8
ATOM      8  C   UNL A   1      33.773  21.032  25.178  1.00  0.00     0.224 C 
ATOM      9  N   UNL A   1      32.687  21.848  25.039  1.00  0.00    -0.326 N 
ATOM     10  H   UNL A   1      31.926  21.435  24.570  1.00  0.00     0.169 HD
ATOM     11  O   UNL A   1      33.732  19.924  24.629  1.00  0.00    -0.275 OA
BRANCH   9  12
ATOM     12  C   UNL A   1      32.466  23.171  25.446  1.00  0.00     0.041 A 
ATOM     13  C   UNL A   1      31.748  25.871  25.910  1.00  0.00     0.037 A 
ATOM     14  C   UNL A   1      33.061  25.508  25.610  1.00  0.00     0.028 A 
ATOM     15  C   UNL A   1      30.831  24.830  26.104  1.00  0.00     0.028 A 
ATOM     16  C   UNL A   1      33.422  24.174  25.384  1.00  0.00     0.028 A 
ATOM     17  C   UNL A   1      31.191  23.494  25.908  1.00  0.00     0.028 A 
BRANCH  13  18
ATOM     18  N   UNL A   1      31.327  27.185  26.041  1.00  0.00    -0.369 N 
ATOM     19  C   UNL A   1      31.023  28.092  24.915  1.00  0.00     0.082 C 
ATOM     20  C   UNL A   1      32.273  28.916  24.558  1.00  0.00     0.025 C 
ATOM     21  C   UNL A   1      32.850  29.613  25.793  1.00  0.00     0.004 C 
ATOM     22  C   UNL A   1      31.773  27.865  27.264  1.00  0.00     0.117 C 
ATOM     23  C   UNL A   1      33.054  28.644  26.960  1.00  0.00     0.021 C 
BRANCH  19  24
ATOM     24  C   UNL A   1      30.391  27.430  23.680  1.00  0.00     0.021 C 
ATOM     25  C   UNL A   1      31.410  27.073  22.605  1.00  0.00     0.006 C 
ENDBRANCH  19  24
ENDBRANCH  13  18
ENDBRANCH   9  12
ENDBRANCH   7   8
ENDBRANCH   6   7
ENDBRANCH   3   6
ENDBRANCH   1   2
BRANCH   1  26
ATOM     26  C   UNL A   1      39.949  22.244  26.584  1.00  0.00     0.042 C 
BRANCH  26  27
ATOM     27  C   UNL A   1      41.003  23.224  27.084  1.00  0.00     0.118 C 
BRANCH  27  28
ATOM     28  N   UNL A   1      41.581  24.040  26.035  1.00  0.00    -0.352 N 
ATOM     29  C   UNL A   1      41.759  25.403  25.990  1.00  0.00     0.251 C 
ATOM     30  H   UNL A   1      41.890  23.547  25.240  1.00  0.00     0.163 HD
ATOM     31  O   UNL A   1      42.188  25.920  24.965  1.00  0.00    -0.269 OA
BRANCH  29  32
ATOM     32  C   UNL A   1      41.411  26.250  27.156  1.00  0.00     0.039 A 
ATOM     33  C   UNL A   1      42.186  27.387  27.400  1.00  0.00     0.014 A 
ATOM     34  C   UNL A   1      40.371  25.918  28.032  1.00  0.00     0.014 A 
ATOM     35  C   UNL A   1      41.909  28.196  28.505  1.00  0.00     0.010 A 
ATOM     36  C   UNL A   1      40.052  26.767  29.096  1.00  0.00     0.010 A 
ATOM     37  C   UNL A   1      40.835  27.901  29.363  1.00  0.00    -0.014 A 
BRANCH  37  38
ATOM     38  C   UNL A   1      40.584  28.750  30.562  1.00  0.00     0.031 A 
ATOM     39  C   UNL A   1      41.445  28.605  31.793  1.00  0.00     0.074 A 
ATOM     40  C   UNL A   1      39.602  29.674  30.543  1.00  0.00     0.049 A 
ATOM     41  N   UNL A   1      41.442  29.320  32.892  1.00  0.00    -0.248 NA
ATOM     42  C   UNL A   1      42.426  27.507  31.800  1.00  0.00     0.031 C 
ATOM     43  C   UNL A   1      38.668  29.893  29.436  1.00  0.00     0.029 A 
ATOM     44  N   UNL A   1      39.236  30.616  31.474  1.00  0.00    -0.354 N 
ATOM     45  C   UNL A   1      42.412  28.757  33.715  1.00  0.00     0.074 A 
ATOM     46  C   UNL A   1      42.938  27.605  33.018  1.00  0.00     0.031 C 
ATOM     47  C   UNL A   1      37.871  30.932  29.731  1.00  0.00     0.029 A 
ATOM     48  C   UNL A   1      38.213  31.437  31.059  1.00  0.00     0.049 A 
ATOM     49  H   UNL A   1      39.666  30.697  32.355  1.00  0.00     0.167 HD
ATOM     50  C   UNL A   1      42.850  29.174  34.928  1.00  0.00     0.031 A 
ATOM     51  C   UNL A   1      37.624  32.487  31.667  1.00  0.00     0.031 A 
ATOM     52  C   UNL A   1      42.331  30.323  35.623  1.00  0.00     0.049 A 
ATOM     53  C   UNL A   1      38.125  32.930  33.017  1.00  0.00     0.074 A 
ATOM     54  C   UNL A   1      42.741  30.854  36.835  1.00  0.00     0.029 A 
ATOM     55  N   UNL A   1      41.288  31.117  35.172  1.00  0.00    -0.354 N 
ATOM     56  N   UNL A   1      39.095  32.430  33.743  1.00  0.00    -0.248 NA
ATOM     57  C   UNL A   1      37.463  34.097  33.617  1.00  0.00     0.031 C 
ATOM     58  C   UNL A   1      41.907  31.933  37.144  1.00  0.00     0.029 A 
ATOM     59  C   UNL A   1      41.024  32.119  36.092  1.00  0.00     0.049 A 
ATOM     60  H   UNL A   1      40.806  30.989  34.323  1.00  0.00     0.167 HD
ATOM     61  C   UNL A   1      39.182  33.240  34.871  1.00  0.00     0.074 A 
ATOM     62  C   UNL A   1      38.179  34.274  34.719  1.00  0.00     0.031 C 
ATOM     63  C   UNL A   1      40.018  33.139  35.935  1.00  0.00     0.031 A 
BRANCH  50  64
ATOM     64  C   UNL A   1      43.946  28.373  35.587  1.00  0.00    -0.014 A 
ATOM     65  C   UNL A   1      45.304  28.661  35.347  1.00  0.00     0.010 A 
ATOM     66  C   UNL A   1      43.619  27.343  36.486  1.00  0.00     0.010 A 
ATOM     67  C   UNL A   1      46.309  27.904  35.956  1.00  0.00     0.020 A 
ATOM     68  C   UNL A   1      44.620  26.604  37.123  1.00  0.00     0.020 A 
ATOM     69  C   UNL A   1      45.960  26.878  36.839  1.00  0.00     0.054 A 
BRANCH  69  70
ATOM     70  S   UNL A   1      47.285  25.924  37.628  1.00  0.00     0.124 S 
ATOM     71  O   UNL A   1      48.421  26.205  36.753  1.00  0.00    -0.237 OA
ATOM     72  O   UNL A   1      47.357  26.519  38.960  1.00  0.00    -0.237 OA
ATOM     73  O   UNL A   1      46.795  24.548  37.590  1.00  0.00    -0.744 OA
ENDBRANCH  69  70
ENDBRANCH  50  64
BRANCH  51  74
ATOM     74  C   UNL A   1      36.510  33.213  30.992  1.00  0.00    -0.014 A 
ATOM     75  C   UNL A   1      36.765  34.095  29.927  1.00  0.00     0.010 A 
ATOM     76  C   UNL A   1      35.182  33.025  31.418  1.00  0.00     0.010 A 
ATOM     77  C   UNL A   1      35.718  34.792  29.316  1.00  0.00     0.020 A 
ATOM     78  C   UNL A   1      34.129  33.696  30.789  1.00  0.00     0.020 A 
ATOM     79  C   UNL A   1      34.405  34.586  29.750  1.00  0.00     0.054 A 
BRANCH  79  80
ATOM     80  S   UNL A   1      33.057  35.466  28.912  1.00  0.00     0.124 S 
ATOM     81  O   UNL A   1      32.431  34.398  28.138  1.00  0.00    -0.237 OA
ATOM     82  O   UNL A   1      32.273  35.981  30.031  1.00  0.00    -0.237 OA
ATOM     83  O   UNL A   1      33.750  36.484  28.126  1.00  0.00    -0.744 OA
ENDBRANCH  79  80
ENDBRANCH  51  74
BRANCH  63  84
ATOM     84  C   UNL A   1      39.912  34.200  37.002  1.00  0.00    -0.014 A 
ATOM     85  C   UNL A   1      39.015  34.076  38.078  1.00  0.00     0.010 A 
ATOM     86  C   UNL A   1      40.748  35.331  36.938  1.00  0.00     0.010 A 
ATOM     87  C   UNL A   1      38.915  35.087  39.037  1.00  0.00     0.020 A 
ATOM     88  C   UNL A   1      40.676  36.328  37.914  1.00  0.00     0.020 A 
ATOM     89  C   UNL A   1      39.743  36.211  38.945  1.00  0.00     0.054 A 
BRANCH  89  90
ATOM     90  S   UNL A   1      39.601  37.506  40.206  1.00  0.00     0.124 S 
ATOM     91  O   UNL A   1      39.030  36.772  41.332  1.00  0.00    -0.237 OA
ATOM     92  O   UNL A   1      40.986  37.941  40.377  1.00  0.00    -0.237 OA
ATOM     93  O   UNL A   1      38.715  38.493  39.593  1.00  0.00    -0.744 OA
ENDBRANCH  89  90
ENDBRANCH  63  84
ENDBRANCH  37  38
ENDBRANCH  29  32
ENDBRANCH  27  28
ENDBRANCH  26  27
ENDBRANCH   1  26
TORSDOF 18
ENDMDL
MODEL 3
REMARK VINA RESULT:     -10.5      2.304      3.721
REMARK SMILES CC[C@@H]1CCCCN1c1ccc(NC(=O)CCC(=O)NCCCNC(=O)c2ccc(-c3c4nc(c(-c5ccc(S(=O)(=O)[O-])cc5)c5ccc([nH]5)c(-c5ccc(S(=O)(=O)[O-])cc5)c5nc(c(-c6ccc(S(=O)(=O)[O-])cc6)c6ccc3[nH]6)C=C5)C=C4)cc2)cc1
REMARK SMILES IDX 21 1 20 2 18 3 19 4 17 6 16 7 14 8 13 9 15 11 12 12 9 13
REMARK SMILES IDX 10 14 88 15 11 16 87 17 8 18 3 19 4 20 5 21 7 22 6 23 2 24
REMARK SMILES IDX 1 25 22 26 23 27 24 28 25 29 26 31 27 32 28 33 86 34 29 35
REMARK SMILES IDX 85 36 30 37 31 38 32 39 79 40 33 41 84 42 78 43 80 44 34 45
REMARK SMILES IDX 83 46 77 47 76 48 35 50 65 51 46 52 64 53 47 54 50 55 63 56
REMARK SMILES IDX 81 57 48 58 49 59 62 61 82 62 51 63 36 64 37 65 45 66 38 67
REMARK SMILES IDX 44 68 39 69 40 70 41 71 42 72 43 73 66 74 67 75 75 76 68 77
REMARK SMILES IDX 74 78 69 79 70 80 71 81 72 82 73 83 52 84 53 85 61 86 54 87
REMARK SMILES IDX 60 88 55 89 56 90 57 91 58 92 59 93
REMARK H PARENT 20 5 13 10 24 30 80 49 50 60
REMARK Flexibility Score: inf
ROOT
ATOM      1  C   UNL A   1      34.281  22.961  25.341  1.00  0.00     0.117 C 
ENDROOT
BRANCH   1   2
ATOM      2  N   UNL A   1      33.411  22.239  24.427  1.00  0.00    -0.356 N 
ATOM      3  C   UNL A   1      32.712  22.691  23.349  1.00  0.00     0.220 C 
ATOM      4  O   UNL A   1      32.293  21.878  22.524  1.00  0.00    -0.275 OA
ATOM      5  H   UNL A   1      33.313  21.277  24.615  1.00  0.00     0.163 HD
BRANCH   3   6
ATOM      6  C   UNL A   1      32.433  24.164  23.167  1.00  0.00     0.110 C 
BRANCH   6   7
ATOM      7  C   UNL A   1      33.467  24.878  22.306  1.00  0.00     0.110 C 
BRANCH   7   8
ATOM      8  C   UNL A   1      32.874  25.815  21.275  1.00  0.00     0.224 C 
ATOM      9  N   UNL A   1      32.421  27.068  21.576  1.00  0.00    -0.326 N 
ATOM     10  H   UNL A   1      32.069  27.569  20.804  1.00  0.00     0.169 HD
ATOM     11  O   UNL A   1      32.892  25.482  20.084  1.00  0.00    -0.275 OA
BRANCH   9  12
ATOM     12  C   UNL A   1      32.369  27.767  22.790  1.00  0.00     0.041 A 
ATOM     13  C   UNL A   1      32.539  28.859  25.398  1.00  0.00     0.037 A 
ATOM     14  C   UNL A   1      31.331  28.387  24.883  1.00  0.00     0.028 A 
ATOM     15  C   UNL A   1      33.632  28.894  24.522  1.00  0.00     0.028 A 
ATOM     16  C   UNL A   1      31.242  27.851  23.593  1.00  0.00     0.028 A 
ATOM     17  C   UNL A   1      33.542  28.385  23.222  1.00  0.00     0.028 A 
BRANCH  13  18
ATOM     18  N   UNL A   1      32.694  29.304  26.700  1.00  0.00    -0.369 N 
ATOM     19  C   UNL A   1      32.544  30.707  27.139  1.00  0.00     0.082 C 
ATOM     20  C   UNL A   1      33.916  31.405  27.129  1.00  0.00     0.025 C 
ATOM     21  C   UNL A   1      34.953  30.603  27.920  1.00  0.00     0.004 C 
ATOM     22  C   UNL A   1      33.604  28.504  27.531  1.00  0.00     0.117 C 
ATOM     23  C   UNL A   1      34.997  29.134  27.491  1.00  0.00     0.021 C 
BRANCH  19  24
ATOM     24  C   UNL A   1      31.472  31.523  26.400  1.00  0.00     0.021 C 
ATOM     25  C   UNL A   1      31.544  33.016  26.698  1.00  0.00     0.006 C 
ENDBRANCH  19  24
ENDBRANCH  13  18
ENDBRANCH   9  12
ENDBRANCH   7   8
ENDBRANCH   6   7
ENDBRANCH   3   6
ENDBRANCH   1   2
BRANCH   1  26
ATOM     26  C   UNL A   1      35.712  23.150  24.850  1.00  0.00     0.042 C 
BRANCH  26  27
ATOM     27  C   UNL A   1      36.766  23.313  25.939  1.00  0.00     0.118 C 
BRANCH  27  28
ATOM     28  N   UNL A   1      37.705  22.211  26.007  1.00  0.00    -0.352 N 
ATOM     29  C   UNL A   1      39.045  22.227  26.314  1.00  0.00     0.251 C 
ATOM     30  H   UNL A   1      37.330  21.324  25.802  1.00  0.00     0.163 HD
ATOM     31  O   UNL A   1      39.695  21.192  26.228  1.00  0.00    -0.269 OA
BRANCH  29  32
ATOM     32  C   UNL A   1      39.713  23.488  26.720  1.00  0.00     0.039 A 
ATOM     33  C   UNL A   1      40.383  23.514  27.946  1.00  0.00     0.014 A 
ATOM     34  C   UNL A   1      39.649  24.647  25.940  1.00  0.00     0.014 A 
ATOM     35  C   UNL A   1      41.000  24.691  28.379  1.00  0.00     0.010 A 
ATOM     36  C   UNL A   1      40.326  25.802  26.342  1.00  0.00     0.010 A 
ATOM     37  C   UNL A   1      40.986  25.848  27.580  1.00  0.00    -0.014 A 
BRANCH  37  38
ATOM     38  C   UNL A   1      41.610  27.106  28.079  1.00  0.00     0.031 A 
ATOM     39  C   UNL A   1      43.100  27.315  27.967  1.00  0.00     0.074 A 
ATOM     40  C   UNL A   1      40.840  28.079  28.608  1.00  0.00     0.049 A 
ATOM     41  N   UNL A   1      43.808  28.380  28.255  1.00  0.00    -0.248 NA
ATOM     42  C   UNL A   1      43.903  26.178  27.487  1.00  0.00     0.031 C 
ATOM     43  C   UNL A   1      39.392  27.994  28.815  1.00  0.00     0.029 A 
ATOM     44  N   UNL A   1      41.162  29.338  29.052  1.00  0.00    -0.354 N 
ATOM     45  C   UNL A   1      45.132  28.039  27.993  1.00  0.00     0.074 A 
ATOM     46  C   UNL A   1      45.136  26.651  27.587  1.00  0.00     0.031 C 
ATOM     47  C   UNL A   1      38.947  29.164  29.298  1.00  0.00     0.029 A 
ATOM     48  C   UNL A   1      40.076  30.075  29.466  1.00  0.00     0.049 A 
ATOM     49  H   UNL A   1      42.084  29.683  29.072  1.00  0.00     0.167 HD
ATOM     50  C   UNL A   1      46.243  28.813  28.055  1.00  0.00     0.031 A 
ATOM     51  C   UNL A   1      39.992  31.344  29.916  1.00  0.00     0.031 A 
ATOM     52  C   UNL A   1      46.241  30.196  28.456  1.00  0.00     0.049 A 
ATOM     53  C   UNL A   1      41.240  32.185  29.979  1.00  0.00     0.074 A 
ATOM     54  C   UNL A   1      47.307  31.079  28.506  1.00  0.00     0.029 A 
ATOM     55  N   UNL A   1      45.122  30.898  28.878  1.00  0.00    -0.354 N 
ATOM     56  N   UNL A   1      42.470  31.866  29.654  1.00  0.00    -0.248 NA
ATOM     57  C   UNL A   1      41.082  33.569  30.450  1.00  0.00     0.031 C 
ATOM     58  C   UNL A   1      46.843  32.297  29.014  1.00  0.00     0.029 A 
ATOM     59  C   UNL A   1      45.475  32.195  29.213  1.00  0.00     0.049 A 
ATOM     60  H   UNL A   1      44.211  30.529  28.931  1.00  0.00     0.167 HD
ATOM     61  C   UNL A   1      43.226  33.017  29.850  1.00  0.00     0.074 A 
ATOM     62  C   UNL A   1      42.311  34.045  30.302  1.00  0.00     0.031 C 
ATOM     63  C   UNL A   1      44.557  33.208  29.670  1.00  0.00     0.031 A 
BRANCH  50  64
ATOM     64  C   UNL A   1      47.559  28.176  27.686  1.00  0.00    -0.014 A 
ATOM     65  C   UNL A   1      48.340  27.507  28.648  1.00  0.00     0.010 A 
ATOM     66  C   UNL A   1      48.006  28.212  26.353  1.00  0.00     0.010 A 
ATOM     67  C   UNL A   1      49.563  26.930  28.293  1.00  0.00     0.020 A 
ATOM     68  C   UNL A   1      49.213  27.608  25.986  1.00  0.00     0.020 A 
ATOM     69  C   UNL A   1      49.993  26.986  26.964  1.00  0.00     0.054 A 
BRANCH  69  70
ATOM     70  S   UNL A   1      51.575  26.213  26.529  1.00  0.00     0.124 S 
ATOM     71  O   UNL A   1      51.638  26.447  25.088  1.00  0.00    -0.237 OA
ATOM     72  O   UNL A   1      52.532  26.971  27.330  1.00  0.00    -0.237 OA
ATOM     73  O   UNL A   1      51.401  24.818  26.925  1.00  0.00    -0.744 OA
ENDBRANCH  69  70
ENDBRANCH  50  64
BRANCH  51  74
ATOM     74  C   UNL A   1      38.672  31.909  30.315  1.00  0.00    -0.014 A 
ATOM     75  C   UNL A   1      38.148  31.679  31.600  1.00  0.00     0.010 A 
ATOM     76  C   UNL A   1      37.927  32.681  29.405  1.00  0.00     0.010 A 
ATOM     77  C   UNL A   1      36.896  32.190  31.959  1.00  0.00     0.020 A 
ATOM     78  C   UNL A   1      36.690  33.220  29.770  1.00  0.00     0.020 A 
ATOM     79  C   UNL A   1      36.177  32.961  31.041  1.00  0.00     0.054 A 
BRANCH  79  80
ATOM     80  S   UNL A   1      34.576  33.653  31.544  1.00  0.00     0.124 S 
ATOM     81  O   UNL A   1      33.900  33.818  30.261  1.00  0.00    -0.237 OA
ATOM     82  O   UNL A   1      34.040  32.608  32.413  1.00  0.00    -0.237 OA
ATOM     83  O   UNL A   1      34.939  34.893  32.225  1.00  0.00    -0.744 OA
ENDBRANCH  79  80
ENDBRANCH  51  74
BRANCH  63  84
ATOM     84  C   UNL A   1      45.099  34.593  29.923  1.00  0.00    -0.014 A 
ATOM     85  C   UNL A   1      45.134  35.567  28.910  1.00  0.00     0.010 A 
ATOM     86  C   UNL A   1      45.558  34.931  31.211  1.00  0.00     0.010 A 
ATOM     87  C   UNL A   1      45.669  36.833  29.163  1.00  0.00     0.020 A 
ATOM     88  C   UNL A   1      46.061  36.206  31.477  1.00  0.00     0.020 A 
ATOM     89  C   UNL A   1      46.135  37.143  30.445  1.00  0.00     0.054 A 
BRANCH  89  90
ATOM     90  S   UNL A   1      46.817  38.795  30.751  1.00  0.00     0.124 S 
ATOM     91  O   UNL A   1      45.863  39.343  31.712  1.00  0.00    -0.237 OA
ATOM     92  O   UNL A   1      48.145  38.501  31.283  1.00  0.00    -0.237 OA
ATOM     93  O   UNL A   1      46.805  39.426  29.433  1.00  0.00    -0.744 OA
ENDBRANCH  89  90
ENDBRANCH  63  84
ENDBRANCH  37  38
ENDBRANCH  29  32
ENDBRANCH  27  28
ENDBRANCH  26  27
ENDBRANCH   1  26
TORSDOF 18
ENDMDL
