MODEL 1
REMARK VINA RESULT:     -11.7      0.000      0.000
REMARK SMILES O=C1Nc2ccccc2/C1=C/c1cccc(C(=O)NCCCNC(=O)c2ccc(-c3c4nc(c(-c5ccc(S(=O)(=O)[O-])cc5)c5ccc([nH]5)c(-c5ccc(S(=O)(=O)[O-])cc5)c5nc(c(-c6ccc(S(=O)(=O)[O-])cc6)c6ccc3[nH]6)C=C5)C=C4)cc2)c1
REMARK SMILES IDX 22 1 21 2 20 3 19 4 17 5 18 6 16 8 12 9 13 10 86 11 14 12
REMARK SMILES IDX 15 13 11 14 1 15 2 16 3 17 10 18 4 19 9 21 5 22 8 23 6 24
REMARK SMILES IDX 7 25 23 26 24 27 25 29 26 30 27 31 85 32 28 33 84 34 29 35
REMARK SMILES IDX 30 36 31 37 78 38 32 39 83 40 77 41 79 42 33 43 82 44 76 45
REMARK SMILES IDX 75 46 34 48 64 49 45 50 63 51 46 52 49 53 62 54 80 55 47 56
REMARK SMILES IDX 48 57 61 59 81 60 50 61 35 62 36 63 44 64 37 65 43 66 38 67
REMARK SMILES IDX 39 68 40 69 41 70 42 71 65 72 66 73 74 74 67 75 73 76 68 77
REMARK SMILES IDX 69 78 70 79 71 80 72 81 51 82 52 83 60 84 53 85 59 86 54 87
REMARK SMILES IDX 55 88 56 89 57 90 58 91
REMARK H PARENT 19 7 3 20 23 28 79 47 49 58
REMARK Flexibility Score: inf
ROOT
ATOM      1  C   UNL A   1      34.115  28.931  26.124  1.00  0.00     0.118 C 
ENDROOT
BRANCH   1   2
ATOM      2  C   UNL A   1      33.378  28.936  24.788  1.00  0.00     0.042 C 
BRANCH   2   3
ATOM      3  C   UNL A   1      31.958  29.494  24.898  1.00  0.00     0.118 C 
BRANCH   3   4
ATOM      4  N   UNL A   1      31.067  28.843  23.951  1.00  0.00    -0.352 N 
ATOM      5  C   UNL A   1      30.680  27.538  23.774  1.00  0.00     0.251 C 
ATOM      6  O   UNL A   1      29.849  27.318  22.890  1.00  0.00    -0.269 OA
ATOM      7  H   UNL A   1      30.658  29.465  23.306  1.00  0.00     0.163 HD
BRANCH   5   8
ATOM      8  C   UNL A   1      31.163  26.399  24.609  1.00  0.00     0.040 A 
ATOM      9  C   UNL A   1      32.908  25.000  25.573  1.00  0.00    -0.024 A 
ATOM     10  C   UNL A   1      31.975  24.383  26.406  1.00  0.00     0.008 A 
ATOM     11  C   UNL A   1      32.476  25.934  24.622  1.00  0.00     0.022 A 
ATOM     12  C   UNL A   1      30.631  24.750  26.324  1.00  0.00     0.001 A 
ATOM     13  C   UNL A   1      30.235  25.770  25.451  1.00  0.00     0.014 A 
BRANCH   9  14
ATOM     14  C   UNL A   1      34.348  24.751  25.694  1.00  0.00     0.022 C 
ATOM     15  O   UNL A   1      33.152  22.387  24.081  1.00  0.00    -0.269 OA
ATOM     16  C   UNL A   1      34.288  22.482  24.496  1.00  0.00     0.256 C 
ATOM     17  N   UNL A   1      35.288  21.534  24.347  1.00  0.00    -0.321 N 
ATOM     18  C   UNL A   1      34.933  23.616  25.272  1.00  0.00     0.050 C 
ATOM     19  C   UNL A   1      36.474  21.948  24.939  1.00  0.00     0.049 A 
ATOM     20  H   UNL A   1      35.173  20.676  23.879  1.00  0.00     0.170 HD
ATOM     21  C   UNL A   1      36.323  23.214  25.517  1.00  0.00     0.011 A 
ATOM     22  C   UNL A   1      37.652  21.233  25.003  1.00  0.00     0.027 A 
ATOM     23  C   UNL A   1      37.372  23.793  26.207  1.00  0.00     0.011 A 
ATOM     24  C   UNL A   1      38.716  21.816  25.692  1.00  0.00     0.002 A 
ATOM     25  C   UNL A   1      38.576  23.082  26.292  1.00  0.00     0.001 A 
ENDBRANCH   9  14
ENDBRANCH   5   8
ENDBRANCH   3   4
ENDBRANCH   2   3
ENDBRANCH   1   2
BRANCH   1  26
ATOM     26  N   UNL A   1      33.887  30.165  26.867  1.00  0.00    -0.352 N 
ATOM     27  C   UNL A   1      34.585  30.712  27.913  1.00  0.00     0.251 C 
ATOM     28  H   UNL A   1      33.108  30.689  26.570  1.00  0.00     0.163 HD
ATOM     29  O   UNL A   1      34.073  31.614  28.572  1.00  0.00    -0.269 OA
BRANCH  27  30
ATOM     30  C   UNL A   1      35.939  30.223  28.250  1.00  0.00     0.039 A 
ATOM     31  C   UNL A   1      36.957  30.343  27.301  1.00  0.00     0.014 A 
ATOM     32  C   UNL A   1      36.195  29.607  29.477  1.00  0.00     0.014 A 
ATOM     33  C   UNL A   1      38.243  29.892  27.604  1.00  0.00     0.010 A 
ATOM     34  C   UNL A   1      37.495  29.237  29.811  1.00  0.00     0.010 A 
ATOM     35  C   UNL A   1      38.530  29.365  28.874  1.00  0.00    -0.014 A 
BRANCH  35  36
ATOM     36  C   UNL A   1      39.904  28.941  29.241  1.00  0.00     0.031 A 
ATOM     37  C   UNL A   1      40.826  29.892  29.958  1.00  0.00     0.074 A 
ATOM     38  C   UNL A   1      40.341  27.719  28.876  1.00  0.00     0.049 A 
ATOM     39  N   UNL A   1      42.072  29.718  30.316  1.00  0.00    -0.248 NA
ATOM     40  C   UNL A   1      40.285  31.220  30.290  1.00  0.00     0.031 C 
ATOM     41  C   UNL A   1      39.552  26.723  28.147  1.00  0.00     0.029 A 
ATOM     42  N   UNL A   1      41.554  27.108  29.065  1.00  0.00    -0.354 N 
ATOM     43  C   UNL A   1      42.468  30.916  30.901  1.00  0.00     0.074 A 
ATOM     44  C   UNL A   1      41.348  31.827  30.794  1.00  0.00     0.031 C 
ATOM     45  C   UNL A   1      40.288  25.612  27.985  1.00  0.00     0.029 A 
ATOM     46  C   UNL A   1      41.615  25.834  28.551  1.00  0.00     0.049 A 
ATOM     47  H   UNL A   1      42.309  27.541  29.523  1.00  0.00     0.167 HD
ATOM     48  C   UNL A   1      43.647  31.225  31.493  1.00  0.00     0.031 A 
ATOM     49  C   UNL A   1      42.626  24.944  28.532  1.00  0.00     0.031 A 
ATOM     50  C   UNL A   1      44.757  30.314  31.590  1.00  0.00     0.049 A 
ATOM     51  C   UNL A   1      43.937  25.318  29.167  1.00  0.00     0.074 A 
ATOM     52  C   UNL A   1      45.979  30.508  32.208  1.00  0.00     0.029 A 
ATOM     53  N   UNL A   1      44.782  29.036  31.048  1.00  0.00    -0.354 N 
ATOM     54  N   UNL A   1      44.271  26.434  29.771  1.00  0.00    -0.248 NA
ATOM     55  C   UNL A   1      45.002  24.309  29.127  1.00  0.00     0.031 C 
ATOM     56  C   UNL A   1      46.766  29.374  31.985  1.00  0.00     0.029 A 
ATOM     57  C   UNL A   1      46.009  28.441  31.292  1.00  0.00     0.049 A 
ATOM     58  H   UNL A   1      44.037  28.614  30.562  1.00  0.00     0.167 HD
ATOM     59  C   UNL A   1      45.578  26.249  30.210  1.00  0.00     0.074 A 
ATOM     60  C   UNL A   1      45.964  24.910  29.814  1.00  0.00     0.031 C 
ATOM     61  C   UNL A   1      46.382  27.109  30.884  1.00  0.00     0.031 A 
BRANCH  48  62
ATOM     62  C   UNL A   1      43.795  32.613  32.064  1.00  0.00    -0.014 A 
ATOM     63  C   UNL A   1      43.568  32.869  33.429  1.00  0.00     0.010 A 
ATOM     64  C   UNL A   1      44.181  33.678  31.227  1.00  0.00     0.010 A 
ATOM     65  C   UNL A   1      43.667  34.169  33.934  1.00  0.00     0.020 A 
ATOM     66  C   UNL A   1      44.315  34.973  31.736  1.00  0.00     0.020 A 
ATOM     67  C   UNL A   1      44.035  35.213  33.082  1.00  0.00     0.054 A 
BRANCH  67  68
ATOM     68  S   UNL A   1      44.155  36.889  33.766  1.00  0.00     0.124 S 
ATOM     69  O   UNL A   1      44.848  36.648  35.030  1.00  0.00    -0.237 OA
ATOM     70  O   UNL A   1      44.932  37.595  32.750  1.00  0.00    -0.237 OA
ATOM     71  O   UNL A   1      42.764  37.315  33.891  1.00  0.00    -0.744 OA
ENDBRANCH  67  68
ENDBRANCH  48  62
BRANCH  49  72
ATOM     72  C   UNL A   1      42.422  23.606  27.913  1.00  0.00    -0.014 A 
ATOM     73  C   UNL A   1      42.739  23.392  26.561  1.00  0.00     0.010 A 
ATOM     74  C   UNL A   1      41.944  22.528  28.681  1.00  0.00     0.010 A 
ATOM     75  C   UNL A   1      42.573  22.129  25.984  1.00  0.00     0.020 A 
ATOM     76  C   UNL A   1      41.806  21.257  28.117  1.00  0.00     0.020 A 
ATOM     77  C   UNL A   1      42.114  21.067  26.769  1.00  0.00     0.054 A 
BRANCH  77  78
ATOM     78  S   UNL A   1      41.975  19.422  26.016  1.00  0.00     0.124 S 
ATOM     79  O   UNL A   1      42.792  19.567  24.815  1.00  0.00    -0.237 OA
ATOM     80  O   UNL A   1      42.522  18.554  27.054  1.00  0.00    -0.237 OA
ATOM     81  O   UNL A   1      40.540  19.273  25.782  1.00  0.00    -0.744 OA
ENDBRANCH  77  78
ENDBRANCH  49  72
BRANCH  61  82
ATOM     82  C   UNL A   1      47.752  26.617  31.270  1.00  0.00    -0.014 A 
ATOM     83  C   UNL A   1      47.961  25.868  32.441  1.00  0.00     0.010 A 
ATOM     84  C   UNL A   1      48.842  26.866  30.413  1.00  0.00     0.010 A 
ATOM     85  C   UNL A   1      49.240  25.408  32.767  1.00  0.00     0.020 A 
ATOM     86  C   UNL A   1      50.115  26.379  30.718  1.00  0.00     0.020 A 
ATOM     87  C   UNL A   1      50.308  25.665  31.901  1.00  0.00     0.054 A 
BRANCH  87  88
ATOM     88  S   UNL A   1      51.947  25.017  32.325  1.00  0.00     0.124 S 
ATOM     89  O   UNL A   1      52.183  25.619  33.634  1.00  0.00    -0.237 OA
ATOM     90  O   UNL A   1      51.730  23.572  32.328  1.00  0.00    -0.237 OA
ATOM     91  O   UNL A   1      52.805  25.510  31.249  1.00  0.00    -0.744 OA
ENDBRANCH  87  88
ENDBRANCH  61  82
ENDBRANCH  35  36
ENDBRANCH  27  30
ENDBRANCH   1  26
TORSDOF 14
ENDMDL
MODEL 2
REMARK VINA RESULT:     -11.7      1.567      2.253
REMARK SMILES O=C1Nc2ccccc2/C1=C/c1cccc(C(=O)NCCCNC(=O)c2ccc(-c3c4nc(c(-c5ccc(S(=O)(=O)[O-])cc5)c5ccc([nH]5)c(-c5ccc(S(=O)(=O)[O-])cc5)c5nc(c(-c6ccc(S(=O)(=O)[O-])cc6)c6ccc3[nH]6)C=C5)C=C4)cc2)c1
REMARK SMILES IDX 22 1 21 2 20 3 19 4 17 5 18 6 16 8 12 9 13 10 86 11 14 12
REMARK SMILES IDX 15 13 11 14 1 15 2 16 3 17 10 18 4 19 9 21 5 22 8 23 6 24
REMARK SMILES IDX 7 25 23 26 24 27 25 29 26 30 27 31 85 32 28 33 84 34 29 35
REMARK SMILES IDX 30 36 31 37 78 38 32 39 83 40 77 41 79 42 33 43 82 44 76 45
REMARK SMILES IDX 75 46 34 48 64 49 45 50 63 51 46 52 49 53 62 54 80 55 47 56
REMARK SMILES IDX 48 57 61 59 81 60 50 61 35 62 36 63 44 64 37 65 43 66 38 67
REMARK SMILES IDX 39 68 40 69 41 70 42 71 65 72 66 73 74 74 67 75 73 76 68 77
REMARK SMILES IDX 69 78 70 79 71 80 72 81 51 82 52 83 60 84 53 85 59 86 54 87
REMARK SMILES IDX 55 88 56 89 57 90 58 91
REMARK H PARENT 19 7 3 20 23 28 79 47 49 58
REMARK Flexibility Score: inf
ROOT
ATOM      1  C   UNL A   1      33.710  28.293  26.929  1.00  0.00     0.118 C 
ENDROOT
BRANCH   1   2
ATOM      2  C   UNL A   1      34.302  28.096  25.537  1.00  0.00     0.042 C 
BRANCH   2   3
ATOM      3  C   UNL A   1      33.277  28.310  24.422  1.00  0.00     0.118 C 
BRANCH   3   4
ATOM      4  N   UNL A   1      33.642  27.565  23.228  1.00  0.00    -0.352 N 
ATOM      5  C   UNL A   1      33.319  26.311  22.771  1.00  0.00     0.251 C 
ATOM      6  O   UNL A   1      33.763  25.989  21.667  1.00  0.00    -0.269 OA
ATOM      7  H   UNL A   1      34.243  28.060  22.625  1.00  0.00     0.163 HD
BRANCH   5   8
ATOM      8  C   UNL A   1      32.437  25.354  23.501  1.00  0.00     0.040 A 
ATOM      9  C   UNL A   1      31.618  23.120  24.022  1.00  0.00    -0.024 A 
ATOM     10  C   UNL A   1      30.903  23.618  25.109  1.00  0.00     0.008 A 
ATOM     11  C   UNL A   1      32.301  24.006  23.177  1.00  0.00     0.022 A 
ATOM     12  C   UNL A   1      30.927  24.988  25.380  1.00  0.00     0.001 A 
ATOM     13  C   UNL A   1      31.711  25.843  24.597  1.00  0.00     0.014 A 
BRANCH   9  14
ATOM     14  C   UNL A   1      31.734  21.683  23.755  1.00  0.00     0.022 C 
ATOM     15  O   UNL A   1      33.959  22.410  25.789  1.00  0.00    -0.269 OA
ATOM     16  C   UNL A   1      33.808  21.346  25.227  1.00  0.00     0.256 C 
ATOM     17  N   UNL A   1      34.620  20.232  25.369  1.00  0.00    -0.321 N 
ATOM     18  C   UNL A   1      32.734  20.927  24.241  1.00  0.00     0.050 C 
ATOM     19  C   UNL A   1      34.175  19.174  24.586  1.00  0.00     0.049 A 
ATOM     20  H   UNL A   1      35.413  20.193  25.953  1.00  0.00     0.170 HD
ATOM     21  C   UNL A   1      33.024  19.534  23.876  1.00  0.00     0.011 A 
ATOM     22  C   UNL A   1      34.769  17.934  24.467  1.00  0.00     0.027 A 
ATOM     23  C   UNL A   1      32.443  18.643  22.993  1.00  0.00     0.011 A 
ATOM     24  C   UNL A   1      34.184  17.029  23.582  1.00  0.00     0.002 A 
ATOM     25  C   UNL A   1      33.034  17.381  22.850  1.00  0.00     0.001 A 
ENDBRANCH   9  14
ENDBRANCH   5   8
ENDBRANCH   3   4
ENDBRANCH   2   3
ENDBRANCH   1   2
BRANCH   1  26
ATOM     26  N   UNL A   1      33.607  29.706  27.274  1.00  0.00    -0.352 N 
ATOM     27  C   UNL A   1      34.456  30.507  27.993  1.00  0.00     0.251 C 
ATOM     28  H   UNL A   1      32.800  30.157  26.936  1.00  0.00     0.163 HD
ATOM     29  O   UNL A   1      34.056  31.596  28.400  1.00  0.00    -0.269 OA
BRANCH  27  30
ATOM     30  C   UNL A   1      35.839  30.071  28.280  1.00  0.00     0.039 A 
ATOM     31  C   UNL A   1      36.802  30.171  27.273  1.00  0.00     0.014 A 
ATOM     32  C   UNL A   1      36.176  29.522  29.519  1.00  0.00     0.014 A 
ATOM     33  C   UNL A   1      38.115  29.769  27.528  1.00  0.00     0.010 A 
ATOM     34  C   UNL A   1      37.501  29.202  29.800  1.00  0.00     0.010 A 
ATOM     35  C   UNL A   1      38.482  29.312  28.804  1.00  0.00    -0.014 A 
BRANCH  35  36
ATOM     36  C   UNL A   1      39.885  28.941  29.117  1.00  0.00     0.031 A 
ATOM     37  C   UNL A   1      40.805  29.937  29.771  1.00  0.00     0.074 A 
ATOM     38  C   UNL A   1      40.346  27.727  28.757  1.00  0.00     0.049 A 
ATOM     39  N   UNL A   1      42.071  29.813  30.075  1.00  0.00    -0.248 NA
ATOM     40  C   UNL A   1      40.235  31.254  30.100  1.00  0.00     0.031 C 
ATOM     41  C   UNL A   1      39.559  26.689  28.085  1.00  0.00     0.029 A 
ATOM     42  N   UNL A   1      41.587  27.160  28.902  1.00  0.00    -0.354 N 
ATOM     43  C   UNL A   1      42.452  31.036  30.616  1.00  0.00     0.074 A 
ATOM     44  C   UNL A   1      41.299  31.907  30.542  1.00  0.00     0.031 C 
ATOM     45  C   UNL A   1      40.326  25.599  27.913  1.00  0.00     0.029 A 
ATOM     46  C   UNL A   1      41.668  25.877  28.413  1.00  0.00     0.049 A 
ATOM     47  H   UNL A   1      42.346  27.628  29.317  1.00  0.00     0.167 HD
ATOM     48  C   UNL A   1      43.645  31.396  31.147  1.00  0.00     0.031 A 
ATOM     49  C   UNL A   1      42.707  25.021  28.366  1.00  0.00     0.031 A 
ATOM     50  C   UNL A   1      44.789  30.525  31.213  1.00  0.00     0.049 A 
ATOM     51  C   UNL A   1      44.031  25.453  28.932  1.00  0.00     0.074 A 
ATOM     52  C   UNL A   1      46.030  30.773  31.769  1.00  0.00     0.029 A 
ATOM     53  N   UNL A   1      44.833  29.237  30.696  1.00  0.00    -0.354 N 
ATOM     54  N   UNL A   1      44.354  26.592  29.497  1.00  0.00    -0.248 NA
ATOM     55  C   UNL A   1      45.127  24.478  28.864  1.00  0.00     0.031 C 
ATOM     56  C   UNL A   1      46.844  29.661  31.534  1.00  0.00     0.029 A 
ATOM     57  C   UNL A   1      46.089  28.689  30.896  1.00  0.00     0.049 A 
ATOM     58  H   UNL A   1      44.082  28.780  30.254  1.00  0.00     0.167 HD
ATOM     59  C   UNL A   1      45.685  26.460  29.880  1.00  0.00     0.074 A 
ATOM     60  C   UNL A   1      46.099  25.126  29.494  1.00  0.00     0.031 C 
ATOM     61  C   UNL A   1      46.489  27.360  30.499  1.00  0.00     0.031 A 
BRANCH  48  62
ATOM     62  C   UNL A   1      43.772  32.801  31.682  1.00  0.00    -0.014 A 
ATOM     63  C   UNL A   1      43.426  33.110  33.011  1.00  0.00     0.010 A 
ATOM     64  C   UNL A   1      44.258  33.827  30.850  1.00  0.00     0.010 A 
ATOM     65  C   UNL A   1      43.507  34.425  33.479  1.00  0.00     0.020 A 
ATOM     66  C   UNL A   1      44.374  35.137  31.324  1.00  0.00     0.020 A 
ATOM     67  C   UNL A   1      43.976  35.431  32.630  1.00  0.00     0.054 A 
BRANCH  67  68
ATOM     68  S   UNL A   1      44.071  37.127  33.265  1.00  0.00     0.124 S 
ATOM     69  O   UNL A   1      42.996  37.138  34.255  1.00  0.00    -0.237 OA
ATOM     70  O   UNL A   1      45.425  37.190  33.808  1.00  0.00    -0.237 OA
ATOM     71  O   UNL A   1      43.836  37.955  32.084  1.00  0.00    -0.744 OA
ENDBRANCH  67  68
ENDBRANCH  48  62
BRANCH  49  72
ATOM     72  C   UNL A   1      42.521  23.664  27.785  1.00  0.00    -0.014 A 
ATOM     73  C   UNL A   1      42.873  23.408  26.448  1.00  0.00     0.010 A 
ATOM     74  C   UNL A   1      42.024  22.610  28.574  1.00  0.00     0.010 A 
ATOM     75  C   UNL A   1      42.724  22.127  25.907  1.00  0.00     0.020 A 
ATOM     76  C   UNL A   1      41.902  21.321  28.046  1.00  0.00     0.020 A 
ATOM     77  C   UNL A   1      42.246  21.089  26.714  1.00  0.00     0.054 A 
BRANCH  77  78
ATOM     78  S   UNL A   1      42.129  19.422  26.009  1.00  0.00     0.124 S 
ATOM     79  O   UNL A   1      42.688  18.599  27.077  1.00  0.00    -0.237 OA
ATOM     80  O   UNL A   1      40.693  19.276  25.784  1.00  0.00    -0.237 OA
ATOM     81  O   UNL A   1      42.937  19.506  24.794  1.00  0.00    -0.744 OA
ENDBRANCH  77  78
ENDBRANCH  49  72
BRANCH  61  82
ATOM     82  C   UNL A   1      47.891  26.923  30.831  1.00  0.00    -0.014 A 
ATOM     83  C   UNL A   1      48.968  27.188  29.966  1.00  0.00     0.010 A 
ATOM     84  C   UNL A   1      48.142  26.281  32.059  1.00  0.00     0.010 A 
ATOM     85  C   UNL A   1      50.263  26.788  30.307  1.00  0.00     0.020 A 
ATOM     86  C   UNL A   1      49.440  25.910  32.418  1.00  0.00     0.020 A 
ATOM     87  C   UNL A   1      50.490  26.154  31.532  1.00  0.00     0.054 A 
BRANCH  87  88
ATOM     88  S   UNL A   1      52.186  25.686  31.969  1.00  0.00     0.124 S 
ATOM     89  O   UNL A   1      52.916  26.011  30.746  1.00  0.00    -0.237 OA
ATOM     90  O   UNL A   1      52.470  26.544  33.116  1.00  0.00    -0.237 OA
ATOM     91  O   UNL A   1      52.087  24.260  32.273  1.00  0.00    -0.744 OA
ENDBRANCH  87  88
ENDBRANCH  61  82
ENDBRANCH  35  36
ENDBRANCH  27  30
ENDBRANCH   1  26
TORSDOF 14
ENDMDL
MODEL 3
REMARK VINA RESULT:     -11.5      4.271     10.566
REMARK SMILES O=C1Nc2ccccc2/C1=C/c1cccc(C(=O)NCCCNC(=O)c2ccc(-c3c4nc(c(-c5ccc(S(=O)(=O)[O-])cc5)c5ccc([nH]5)c(-c5ccc(S(=O)(=O)[O-])cc5)c5nc(c(-c6ccc(S(=O)(=O)[O-])cc6)c6ccc3[nH]6)C=C5)C=C4)cc2)c1
REMARK SMILES IDX 22 1 21 2 20 3 19 4 17 5 18 6 16 8 12 9 13 10 86 11 14 12
REMARK SMILES IDX 15 13 11 14 1 15 2 16 3 17 10 18 4 19 9 21 5 22 8 23 6 24
REMARK SMILES IDX 7 25 23 26 24 27 25 29 26 30 27 31 85 32 28 33 84 34 29 35
REMARK SMILES IDX 30 36 31 37 78 38 32 39 83 40 77 41 79 42 33 43 82 44 76 45
REMARK SMILES IDX 75 46 34 48 64 49 45 50 63 51 46 52 49 53 62 54 80 55 47 56
REMARK SMILES IDX 48 57 61 59 81 60 50 61 35 62 36 63 44 64 37 65 43 66 38 67
REMARK SMILES IDX 39 68 40 69 41 70 42 71 65 72 66 73 74 74 67 75 73 76 68 77
REMARK SMILES IDX 69 78 70 79 71 80 72 81 51 82 52 83 60 84 53 85 59 86 54 87
REMARK SMILES IDX 55 88 56 89 57 90 58 91
REMARK H PARENT 19 7 3 20 23 28 79 47 49 58
REMARK Flexibility Score: inf
ROOT
ATOM      1  C   UNL A   1      38.501  24.165  26.505  1.00  0.00     0.118 C 
ENDROOT
BRANCH   1   2
ATOM      2  C   UNL A   1      37.600  23.295  25.634  1.00  0.00     0.042 C 
BRANCH   2   3
ATOM      3  C   UNL A   1      36.168  23.822  25.551  1.00  0.00     0.118 C 
BRANCH   3   4
ATOM      4  N   UNL A   1      35.618  23.632  24.219  1.00  0.00    -0.352 N 
ATOM      5  C   UNL A   1      34.404  23.935  23.654  1.00  0.00     0.251 C 
ATOM      6  O   UNL A   1      34.270  23.684  22.454  1.00  0.00    -0.269 OA
ATOM      7  H   UNL A   1      36.245  23.199  23.594  1.00  0.00     0.163 HD
BRANCH   5   8
ATOM      8  C   UNL A   1      33.276  24.583  24.385  1.00  0.00     0.040 A 
ATOM      9  C   UNL A   1      31.333  26.044  24.526  1.00  0.00    -0.024 A 
ATOM     10  C   UNL A   1      31.037  25.555  25.797  1.00  0.00     0.008 A 
ATOM     11  C   UNL A   1      32.500  25.620  23.875  1.00  0.00     0.022 A 
ATOM     12  C   UNL A   1      31.873  24.601  26.379  1.00  0.00     0.001 A 
ATOM     13  C   UNL A   1      32.969  24.100  25.666  1.00  0.00     0.014 A 
BRANCH   9  14
ATOM     14  C   UNL A   1      30.432  26.952  23.808  1.00  0.00     0.022 C 
ATOM     15  O   UNL A   1      32.381  28.720  25.451  1.00  0.00    -0.269 OA
ATOM     16  C   UNL A   1      31.410  29.094  24.827  1.00  0.00     0.256 C 
ATOM     17  N   UNL A   1      30.961  30.402  24.736  1.00  0.00    -0.321 N 
ATOM     18  C   UNL A   1      30.435  28.284  23.994  1.00  0.00     0.050 C 
ATOM     19  C   UNL A   1      29.821  30.495  23.945  1.00  0.00     0.049 A 
ATOM     20  H   UNL A   1      31.394  31.170  25.174  1.00  0.00     0.170 HD
ATOM     21  C   UNL A   1      29.453  29.235  23.459  1.00  0.00     0.011 A 
ATOM     22  C   UNL A   1      29.102  31.640  23.675  1.00  0.00     0.027 A 
ATOM     23  C   UNL A   1      28.313  29.092  22.690  1.00  0.00     0.011 A 
ATOM     24  C   UNL A   1      27.954  31.503  22.894  1.00  0.00     0.002 A 
ATOM     25  C   UNL A   1      27.561  30.241  22.410  1.00  0.00     0.001 A 
ENDBRANCH   9  14
ENDBRANCH   5   8
ENDBRANCH   3   4
ENDBRANCH   2   3
ENDBRANCH   1   2
BRANCH   1  26
ATOM     26  N   UNL A   1      39.901  24.048  26.116  1.00  0.00    -0.352 N 
ATOM     27  C   UNL A   1      40.981  24.826  26.443  1.00  0.00     0.251 C 
ATOM     28  H   UNL A   1      40.103  23.288  25.523  1.00  0.00     0.163 HD
ATOM     29  O   UNL A   1      42.020  24.718  25.795  1.00  0.00    -0.269 OA
BRANCH  27  30
ATOM     30  C   UNL A   1      40.902  25.787  27.563  1.00  0.00     0.039 A 
ATOM     31  C   UNL A   1      41.842  26.819  27.637  1.00  0.00     0.014 A 
ATOM     32  C   UNL A   1      39.937  25.647  28.563  1.00  0.00     0.014 A 
ATOM     33  C   UNL A   1      41.779  27.739  28.685  1.00  0.00     0.010 A 
ATOM     34  C   UNL A   1      39.822  26.613  29.558  1.00  0.00     0.010 A 
ATOM     35  C   UNL A   1      40.749  27.663  29.636  1.00  0.00    -0.014 A 
BRANCH  35  36
ATOM     36  C   UNL A   1      40.623  28.669  30.721  1.00  0.00     0.031 A 
ATOM     37  C   UNL A   1      41.512  28.592  31.933  1.00  0.00     0.074 A 
ATOM     38  C   UNL A   1      39.667  29.615  30.640  1.00  0.00     0.049 A 
ATOM     39  N   UNL A   1      41.517  29.348  33.001  1.00  0.00    -0.248 NA
ATOM     40  C   UNL A   1      42.507  27.507  31.962  1.00  0.00     0.031 C 
ATOM     41  C   UNL A   1      38.722  29.770  29.531  1.00  0.00     0.029 A 
ATOM     42  N   UNL A   1      39.330  30.625  31.505  1.00  0.00    -0.354 N 
ATOM     43  C   UNL A   1      42.500  28.823  33.832  1.00  0.00     0.074 A 
ATOM     44  C   UNL A   1      43.028  27.649  33.171  1.00  0.00     0.031 C 
ATOM     45  C   UNL A   1      37.939  30.835  29.766  1.00  0.00     0.029 A 
ATOM     46  C   UNL A   1      38.290  31.407  31.062  1.00  0.00     0.049 A 
ATOM     47  H   UNL A   1      39.789  30.774  32.363  1.00  0.00     0.167 HD
ATOM     48  C   UNL A   1      42.941  29.286  35.027  1.00  0.00     0.031 A 
ATOM     49  C   UNL A   1      37.682  32.464  31.635  1.00  0.00     0.031 A 
ATOM     50  C   UNL A   1      42.406  30.453  35.679  1.00  0.00     0.049 A 
ATOM     51  C   UNL A   1      38.166  32.943  32.975  1.00  0.00     0.074 A 
ATOM     52  C   UNL A   1      42.809  31.034  36.868  1.00  0.00     0.029 A 
ATOM     53  N   UNL A   1      41.347  31.211  35.202  1.00  0.00    -0.354 N 
ATOM     54  N   UNL A   1      39.140  32.471  33.717  1.00  0.00    -0.248 NA
ATOM     55  C   UNL A   1      37.475  34.104  33.550  1.00  0.00     0.031 C 
ATOM     56  C   UNL A   1      41.953  32.106  37.140  1.00  0.00     0.029 A 
ATOM     57  C   UNL A   1      41.063  32.239  36.086  1.00  0.00     0.049 A 
ATOM     58  H   UNL A   1      40.867  31.043  34.358  1.00  0.00     0.167 HD
ATOM     59  C   UNL A   1      39.199  33.298  34.834  1.00  0.00     0.074 A 
ATOM     60  C   UNL A   1      38.171  34.305  34.661  1.00  0.00     0.031 C 
ATOM     61  C   UNL A   1      40.031  33.231  35.903  1.00  0.00     0.031 A 
BRANCH  48  62
ATOM     62  C   UNL A   1      44.044  28.515  35.707  1.00  0.00    -0.014 A 
ATOM     63  C   UNL A   1      45.398  28.763  35.410  1.00  0.00     0.010 A 
ATOM     64  C   UNL A   1      43.727  27.538  36.669  1.00  0.00     0.010 A 
ATOM     65  C   UNL A   1      46.407  28.010  36.017  1.00  0.00     0.020 A 
ATOM     66  C   UNL A   1      44.735  26.807  37.303  1.00  0.00     0.020 A 
ATOM     67  C   UNL A   1      46.068  27.032  36.956  1.00  0.00     0.054 A 
BRANCH  67  68
ATOM     68  S   UNL A   1      47.400  26.072  37.726  1.00  0.00     0.124 S 
ATOM     69  O   UNL A   1      47.365  26.560  39.103  1.00  0.00    -0.237 OA
ATOM     70  O   UNL A   1      46.951  24.695  37.538  1.00  0.00    -0.237 OA
ATOM     71  O   UNL A   1      48.588  26.448  36.963  1.00  0.00    -0.744 OA
ENDBRANCH  67  68
ENDBRANCH  48  62
BRANCH  49  72
ATOM     72  C   UNL A   1      36.570  33.152  30.924  1.00  0.00    -0.014 A 
ATOM     73  C   UNL A   1      35.269  33.136  31.456  1.00  0.00     0.010 A 
ATOM     74  C   UNL A   1      36.811  33.857  29.730  1.00  0.00     0.010 A 
ATOM     75  C   UNL A   1      34.227  33.803  30.804  1.00  0.00     0.020 A 
ATOM     76  C   UNL A   1      35.779  34.551  29.091  1.00  0.00     0.020 A 
ATOM     77  C   UNL A   1      34.491  34.514  29.629  1.00  0.00     0.054 A 
BRANCH  77  78
ATOM     78  S   UNL A   1      33.139  35.430  28.841  1.00  0.00     0.124 S 
ATOM     79  O   UNL A   1      32.414  35.955  29.993  1.00  0.00    -0.237 OA
ATOM     80  O   UNL A   1      33.854  36.418  28.038  1.00  0.00    -0.237 OA
ATOM     81  O   UNL A   1      32.435  34.406  28.071  1.00  0.00    -0.744 OA
ENDBRANCH  77  78
ENDBRANCH  49  72
BRANCH  61  82
ATOM     82  C   UNL A   1      39.891  34.297  36.957  1.00  0.00    -0.014 A 
ATOM     83  C   UNL A   1      40.520  35.547  36.825  1.00  0.00     0.010 A 
ATOM     84  C   UNL A   1      39.070  34.059  38.077  1.00  0.00     0.010 A 
ATOM     85  C   UNL A   1      40.359  36.527  37.809  1.00  0.00     0.020 A 
ATOM     86  C   UNL A   1      38.879  35.047  39.045  1.00  0.00     0.020 A 
ATOM     87  C   UNL A   1      39.537  36.270  38.912  1.00  0.00     0.054 A 
BRANCH  87  88
ATOM     88  S   UNL A   1      39.310  37.575  40.150  1.00  0.00     0.124 S 
ATOM     89  O   UNL A   1      38.979  36.805  41.346  1.00  0.00    -0.237 OA
ATOM     90  O   UNL A   1      40.615  38.231  40.167  1.00  0.00    -0.237 OA
ATOM     91  O   UNL A   1      38.220  38.383  39.608  1.00  0.00    -0.744 OA
ENDBRANCH  87  88
ENDBRANCH  61  82
ENDBRANCH  35  36
ENDBRANCH  27  30
ENDBRANCH   1  26
TORSDOF 14
ENDMDL
