MODEL 1
REMARK VINA RESULT:     -12.4      0.000      0.000
REMARK SMILES CCn1c(=O)n(CC)c2cc(C(=O)NCCCNC(=O)c3ccc(-c4c5nc(c(-c6ccc(S(=O)(=O)[O-])cc6)c6ccc([nH]6)c(-c6ccc(S(=O)(=O)[O-])cc6)c6nc(c(-c7ccc(S(=O)(=O)[O-])cc7)c7ccc4[nH]7)C=C6)C=C5)cc3)ccc21
REMARK SMILES IDX 17 1 16 2 15 3 14 4 12 5 13 6 11 8 3 9 4 10 83 11 5 12 6 13
REMARK SMILES IDX 9 14 82 15 10 16 81 17 2 18 1 19 7 20 8 21 18 22 19 23 20 25
REMARK SMILES IDX 21 26 22 27 80 28 23 29 79 30 24 31 25 32 26 33 73 34 27 35
REMARK SMILES IDX 78 36 72 37 74 38 28 39 77 40 71 41 70 42 29 44 59 45 40 46
REMARK SMILES IDX 58 47 41 48 44 49 57 50 75 51 42 52 43 53 56 55 76 56 45 57
REMARK SMILES IDX 30 58 31 59 39 60 32 61 38 62 33 63 34 64 35 65 36 66 37 67
REMARK SMILES IDX 60 68 61 69 69 70 62 71 68 72 63 73 64 74 65 75 66 76 67 77
REMARK SMILES IDX 46 78 47 79 55 80 48 81 54 82 49 83 50 84 51 85 52 86 53 87
REMARK H PARENT 14 7 18 24 74 43 44 54
REMARK Flexibility Score: inf
ROOT
ATOM      1  C   UNL A   1      42.459  21.658  27.398  1.00  0.00     0.118 C 
ENDROOT
BRANCH   1   2
ATOM      2  C   UNL A   1      40.936  21.722  27.532  1.00  0.00     0.042 C 
BRANCH   2   3
ATOM      3  C   UNL A   1      40.212  21.723  26.180  1.00  0.00     0.118 C 
BRANCH   3   4
ATOM      4  N   UNL A   1      39.232  22.796  26.093  1.00  0.00    -0.352 N 
ATOM      5  C   UNL A   1      37.890  22.838  25.819  1.00  0.00     0.251 C 
ATOM      6  O   UNL A   1      37.345  23.942  25.905  1.00  0.00    -0.269 OA
ATOM      7  H   UNL A   1      39.618  23.684  26.270  1.00  0.00     0.163 HD
BRANCH   5   8
ATOM      8  C   UNL A   1      37.051  21.653  25.466  1.00  0.00     0.042 A 
ATOM      9  N   UNL A   1      34.273  18.617  24.693  1.00  0.00    -0.292 N 
ATOM     10  C   UNL A   1      33.074  19.316  24.984  1.00  0.00     0.329 A 
ATOM     11  C   UNL A   1      35.355  19.494  24.891  1.00  0.00     0.069 A 
ATOM     12  O   UNL A   1      31.929  18.874  24.914  1.00  0.00    -0.248 OA
ATOM     13  N   UNL A   1      33.444  20.623  25.356  1.00  0.00    -0.292 N 
ATOM     14  C   UNL A   1      34.842  20.722  25.317  1.00  0.00     0.070 A 
ATOM     15  C   UNL A   1      36.711  19.341  24.706  1.00  0.00     0.029 A 
ATOM     16  C   UNL A   1      35.658  21.801  25.612  1.00  0.00     0.042 A 
ATOM     17  C   UNL A   1      37.551  20.437  24.967  1.00  0.00     0.016 A 
BRANCH   9  18
ATOM     18  C   UNL A   1      34.240  17.233  24.284  1.00  0.00     0.124 C 
ATOM     19  C   UNL A   1      33.953  16.886  22.838  1.00  0.00     0.028 C 
ENDBRANCH   9  18
BRANCH  13  20
ATOM     20  C   UNL A   1      32.515  21.690  25.627  1.00  0.00     0.124 C 
ATOM     21  C   UNL A   1      32.019  22.396  24.377  1.00  0.00     0.028 C 
ENDBRANCH  13  20
ENDBRANCH   5   8
ENDBRANCH   3   4
ENDBRANCH   2   3
ENDBRANCH   1   2
BRANCH   1  22
ATOM     22  N   UNL A   1      42.951  22.173  26.134  1.00  0.00    -0.352 N 
ATOM     23  C   UNL A   1      43.174  23.413  25.602  1.00  0.00     0.251 C 
ATOM     24  H   UNL A   1      43.181  21.453  25.504  1.00  0.00     0.163 HD
ATOM     25  O   UNL A   1      43.645  23.420  24.460  1.00  0.00    -0.269 OA
BRANCH  23  26
ATOM     26  C   UNL A   1      42.868  24.718  26.257  1.00  0.00     0.039 A 
ATOM     27  C   UNL A   1      43.480  25.223  27.402  1.00  0.00     0.014 A 
ATOM     28  C   UNL A   1      41.849  25.485  25.656  1.00  0.00     0.014 A 
ATOM     29  C   UNL A   1      43.042  26.424  27.966  1.00  0.00     0.010 A 
ATOM     30  C   UNL A   1      41.418  26.692  26.207  1.00  0.00     0.010 A 
ATOM     31  C   UNL A   1      41.992  27.148  27.387  1.00  0.00    -0.014 A 
BRANCH  31  32
ATOM     32  C   UNL A   1      41.592  28.406  28.023  1.00  0.00     0.031 A 
ATOM     33  C   UNL A   1      42.555  29.539  27.891  1.00  0.00     0.074 A 
ATOM     34  C   UNL A   1      40.413  28.623  28.641  1.00  0.00     0.049 A 
ATOM     35  N   UNL A   1      43.230  30.122  28.827  1.00  0.00    -0.248 NA
ATOM     36  C   UNL A   1      42.862  30.024  26.539  1.00  0.00     0.031 C 
ATOM     37  C   UNL A   1      39.214  27.780  28.654  1.00  0.00     0.029 A 
ATOM     38  N   UNL A   1      40.019  29.726  29.343  1.00  0.00    -0.354 N 
ATOM     39  C   UNL A   1      43.941  31.153  28.216  1.00  0.00     0.074 A 
ATOM     40  C   UNL A   1      43.756  30.981  26.796  1.00  0.00     0.031 C 
ATOM     41  C   UNL A   1      38.170  28.494  29.137  1.00  0.00     0.029 A 
ATOM     42  C   UNL A   1      38.661  29.774  29.619  1.00  0.00     0.049 A 
ATOM     43  H   UNL A   1      40.647  30.428  29.630  1.00  0.00     0.167 HD
ATOM     44  C   UNL A   1      44.522  32.165  28.922  1.00  0.00     0.031 A 
ATOM     45  C   UNL A   1      37.983  30.810  30.170  1.00  0.00     0.031 A 
ATOM     46  C   UNL A   1      44.619  31.860  30.323  1.00  0.00     0.049 A 
ATOM     47  C   UNL A   1      38.959  31.637  30.916  1.00  0.00     0.074 A 
ATOM     48  C   UNL A   1      45.289  30.913  31.070  1.00  0.00     0.029 A 
ATOM     49  N   UNL A   1      43.671  32.401  31.158  1.00  0.00    -0.354 N 
ATOM     50  N   UNL A   1      39.575  31.240  31.994  1.00  0.00    -0.248 NA
ATOM     51  C   UNL A   1      39.537  32.797  30.257  1.00  0.00     0.031 C 
ATOM     52  C   UNL A   1      44.412  30.604  32.148  1.00  0.00     0.029 A 
ATOM     53  C   UNL A   1      43.279  31.412  32.024  1.00  0.00     0.049 A 
ATOM     54  H   UNL A   1      43.336  33.326  31.139  1.00  0.00     0.167 HD
ATOM     55  C   UNL A   1      40.831  31.818  31.917  1.00  0.00     0.074 A 
ATOM     56  C   UNL A   1      40.707  32.853  30.894  1.00  0.00     0.031 C 
ATOM     57  C   UNL A   1      41.919  31.232  32.498  1.00  0.00     0.031 A 
BRANCH  44  58
ATOM     58  C   UNL A   1      44.764  33.556  28.392  1.00  0.00    -0.014 A 
ATOM     59  C   UNL A   1      43.722  34.409  27.978  1.00  0.00     0.010 A 
ATOM     60  C   UNL A   1      46.045  34.136  28.528  1.00  0.00     0.010 A 
ATOM     61  C   UNL A   1      43.938  35.762  27.700  1.00  0.00     0.020 A 
ATOM     62  C   UNL A   1      46.264  35.501  28.294  1.00  0.00     0.020 A 
ATOM     63  C   UNL A   1      45.205  36.305  27.877  1.00  0.00     0.054 A 
BRANCH  63  64
ATOM     64  S   UNL A   1      45.413  38.088  27.635  1.00  0.00     0.124 S 
ATOM     65  O   UNL A   1      46.610  38.140  26.800  1.00  0.00    -0.237 OA
ATOM     66  O   UNL A   1      44.166  38.461  26.974  1.00  0.00    -0.237 OA
ATOM     67  O   UNL A   1      45.575  38.602  28.992  1.00  0.00    -0.744 OA
ENDBRANCH  63  64
ENDBRANCH  44  58
BRANCH  45  68
ATOM     68  C   UNL A   1      36.667  31.354  29.750  1.00  0.00    -0.014 A 
ATOM     69  C   UNL A   1      36.485  31.790  28.422  1.00  0.00     0.010 A 
ATOM     70  C   UNL A   1      35.726  31.762  30.716  1.00  0.00     0.010 A 
ATOM     71  C   UNL A   1      35.462  32.684  28.090  1.00  0.00     0.020 A 
ATOM     72  C   UNL A   1      34.698  32.661  30.388  1.00  0.00     0.020 A 
ATOM     73  C   UNL A   1      34.602  33.148  29.084  1.00  0.00     0.054 A 
BRANCH  73  74
ATOM     74  S   UNL A   1      33.436  34.474  28.659  1.00  0.00     0.124 S 
ATOM     75  O   UNL A   1      32.548  33.804  27.714  1.00  0.00    -0.237 OA
ATOM     76  O   UNL A   1      32.844  34.800  29.953  1.00  0.00    -0.237 OA
ATOM     77  O   UNL A   1      34.288  35.514  28.087  1.00  0.00    -0.744 OA
ENDBRANCH  73  74
ENDBRANCH  45  68
BRANCH  57  78
ATOM     78  C   UNL A   1      41.705  30.114  33.498  1.00  0.00    -0.014 A 
ATOM     79  C   UNL A   1      41.990  30.386  34.850  1.00  0.00     0.010 A 
ATOM     80  C   UNL A   1      41.425  28.782  33.133  1.00  0.00     0.010 A 
ATOM     81  C   UNL A   1      42.031  29.364  35.801  1.00  0.00     0.020 A 
ATOM     82  C   UNL A   1      41.436  27.753  34.088  1.00  0.00     0.020 A 
ATOM     83  C   UNL A   1      41.768  28.049  35.412  1.00  0.00     0.054 A 
BRANCH  83  84
ATOM     84  S   UNL A   1      41.902  26.740  36.661  1.00  0.00     0.124 S 
ATOM     85  O   UNL A   1      42.054  25.541  35.840  1.00  0.00    -0.237 OA
ATOM     86  O   UNL A   1      43.089  27.133  37.417  1.00  0.00    -0.237 OA
ATOM     87  O   UNL A   1      40.644  26.824  37.400  1.00  0.00    -0.744 OA
ENDBRANCH  83  84
ENDBRANCH  57  78
ENDBRANCH  31  32
ENDBRANCH  23  26
ENDBRANCH   1  22
TORSDOF 15
ENDMDL
MODEL 2
REMARK VINA RESULT:     -12.1      1.339      2.105
REMARK SMILES CCn1c(=O)n(CC)c2cc(C(=O)NCCCNC(=O)c3ccc(-c4c5nc(c(-c6ccc(S(=O)(=O)[O-])cc6)c6ccc([nH]6)c(-c6ccc(S(=O)(=O)[O-])cc6)c6nc(c(-c7ccc(S(=O)(=O)[O-])cc7)c7ccc4[nH]7)C=C6)C=C5)cc3)ccc21
REMARK SMILES IDX 17 1 16 2 15 3 14 4 12 5 13 6 11 8 3 9 4 10 83 11 5 12 6 13
REMARK SMILES IDX 9 14 82 15 10 16 81 17 2 18 1 19 7 20 8 21 18 22 19 23 20 25
REMARK SMILES IDX 21 26 22 27 80 28 23 29 79 30 24 31 25 32 26 33 73 34 27 35
REMARK SMILES IDX 78 36 72 37 74 38 28 39 77 40 71 41 70 42 29 44 59 45 40 46
REMARK SMILES IDX 58 47 41 48 44 49 57 50 75 51 42 52 43 53 56 55 76 56 45 57
REMARK SMILES IDX 30 58 31 59 39 60 32 61 38 62 33 63 34 64 35 65 36 66 37 67
REMARK SMILES IDX 60 68 61 69 69 70 62 71 68 72 63 73 64 74 65 75 66 76 67 77
REMARK SMILES IDX 46 78 47 79 55 80 48 81 54 82 49 83 50 84 51 85 52 86 53 87
REMARK H PARENT 14 7 18 24 74 43 44 54
REMARK Flexibility Score: inf
ROOT
ATOM      1  C   UNL A   1      41.191  21.650  26.631  1.00  0.00     0.118 C 
ENDROOT
BRANCH   1   2
ATOM      2  C   UNL A   1      40.223  22.753  27.064  1.00  0.00     0.042 C 
BRANCH   2   3
ATOM      3  C   UNL A   1      38.929  22.777  26.243  1.00  0.00     0.118 C 
BRANCH   3   4
ATOM      4  N   UNL A   1      38.535  21.443  25.816  1.00  0.00    -0.352 N 
ATOM      5  C   UNL A   1      37.525  20.956  25.028  1.00  0.00     0.251 C 
ATOM      6  O   UNL A   1      37.532  19.741  24.811  1.00  0.00    -0.269 OA
ATOM      7  H   UNL A   1      39.121  20.736  26.171  1.00  0.00     0.163 HD
BRANCH   5   8
ATOM      8  C   UNL A   1      36.456  21.787  24.395  1.00  0.00     0.042 A 
ATOM      9  N   UNL A   1      33.105  23.834  22.942  1.00  0.00    -0.292 N 
ATOM     10  C   UNL A   1      32.129  23.368  23.859  1.00  0.00     0.329 A 
ATOM     11  C   UNL A   1      34.340  23.249  23.275  1.00  0.00     0.069 A 
ATOM     12  O   UNL A   1      30.938  23.671  23.884  1.00  0.00    -0.248 OA
ATOM     13  N   UNL A   1      32.789  22.500  24.751  1.00  0.00    -0.292 N 
ATOM     14  C   UNL A   1      34.138  22.415  24.379  1.00  0.00     0.070 A 
ATOM     15  C   UNL A   1      35.603  23.396  22.747  1.00  0.00     0.029 A 
ATOM     16  C   UNL A   1      35.164  21.679  24.946  1.00  0.00     0.042 A 
ATOM     17  C   UNL A   1      36.663  22.684  23.333  1.00  0.00     0.016 A 
BRANCH   9  18
ATOM     18  C   UNL A   1      32.746  24.744  21.881  1.00  0.00     0.124 C 
ATOM     19  C   UNL A   1      33.181  26.193  21.959  1.00  0.00     0.028 C 
ENDBRANCH   9  18
BRANCH  13  20
ATOM     20  C   UNL A   1      32.178  21.895  25.907  1.00  0.00     0.124 C 
ATOM     21  C   UNL A   1      32.272  22.748  27.160  1.00  0.00     0.028 C 
ENDBRANCH  13  20
ENDBRANCH   5   8
ENDBRANCH   3   4
ENDBRANCH   2   3
ENDBRANCH   1   2
BRANCH   1  22
ATOM     22  N   UNL A   1      42.210  22.106  25.703  1.00  0.00    -0.352 N 
ATOM     23  C   UNL A   1      42.862  23.284  25.467  1.00  0.00     0.251 C 
ATOM     24  H   UNL A   1      42.504  21.391  25.093  1.00  0.00     0.163 HD
ATOM     25  O   UNL A   1      43.712  23.246  24.572  1.00  0.00    -0.269 OA
BRANCH  23  26
ATOM     26  C   UNL A   1      42.610  24.581  26.158  1.00  0.00     0.039 A 
ATOM     27  C   UNL A   1      43.057  24.932  27.431  1.00  0.00     0.014 A 
ATOM     28  C   UNL A   1      41.830  25.517  25.448  1.00  0.00     0.014 A 
ATOM     29  C   UNL A   1      42.679  26.150  28.001  1.00  0.00     0.010 A 
ATOM     30  C   UNL A   1      41.463  26.741  26.008  1.00  0.00     0.010 A 
ATOM     31  C   UNL A   1      41.859  27.047  27.303  1.00  0.00    -0.014 A 
BRANCH  31  32
ATOM     32  C   UNL A   1      41.513  28.312  27.956  1.00  0.00     0.031 A 
ATOM     33  C   UNL A   1      42.517  29.409  27.826  1.00  0.00     0.074 A 
ATOM     34  C   UNL A   1      40.349  28.566  28.587  1.00  0.00     0.049 A 
ATOM     35  N   UNL A   1      43.223  29.956  28.762  1.00  0.00    -0.248 NA
ATOM     36  C   UNL A   1      42.830  29.897  26.477  1.00  0.00     0.031 C 
ATOM     37  C   UNL A   1      39.120  27.770  28.603  1.00  0.00     0.029 A 
ATOM     38  N   UNL A   1      40.004  29.676  29.304  1.00  0.00    -0.354 N 
ATOM     39  C   UNL A   1      43.966  30.966  28.155  1.00  0.00     0.074 A 
ATOM     40  C   UNL A   1      43.762  30.815  26.734  1.00  0.00     0.031 C 
ATOM     41  C   UNL A   1      38.107  28.518  29.103  1.00  0.00     0.029 A 
ATOM     42  C   UNL A   1      38.651  29.773  29.593  1.00  0.00     0.049 A 
ATOM     43  H   UNL A   1      40.661  30.351  29.593  1.00  0.00     0.167 HD
ATOM     44  C   UNL A   1      44.591  31.948  28.865  1.00  0.00     0.031 A 
ATOM     45  C   UNL A   1      38.017  30.828  30.161  1.00  0.00     0.031 A 
ATOM     46  C   UNL A   1      44.689  31.624  30.262  1.00  0.00     0.049 A 
ATOM     47  C   UNL A   1      39.031  31.609  30.907  1.00  0.00     0.074 A 
ATOM     48  C   UNL A   1      45.330  30.645  30.993  1.00  0.00     0.029 A 
ATOM     49  N   UNL A   1      43.770  32.192  31.111  1.00  0.00    -0.354 N 
ATOM     50  N   UNL A   1      39.641  31.178  31.974  1.00  0.00    -0.248 NA
ATOM     51  C   UNL A   1      39.646  32.754  30.253  1.00  0.00     0.031 C 
ATOM     52  C   UNL A   1      44.452  30.359  32.076  1.00  0.00     0.029 A 
ATOM     53  C   UNL A   1      43.349  31.210  31.971  1.00  0.00     0.049 A 
ATOM     54  H   UNL A   1      43.471  33.129  31.104  1.00  0.00     0.167 HD
ATOM     55  C   UNL A   1      40.917  31.710  31.891  1.00  0.00     0.074 A 
ATOM     56  C   UNL A   1      40.824  32.759  30.880  1.00  0.00     0.031 C 
ATOM     57  C   UNL A   1      41.988  31.077  32.456  1.00  0.00     0.031 A 
BRANCH  44  58
ATOM     58  C   UNL A   1      44.881  33.334  28.347  1.00  0.00    -0.014 A 
ATOM     59  C   UNL A   1      43.876  34.200  27.875  1.00  0.00     0.010 A 
ATOM     60  C   UNL A   1      46.161  33.897  28.551  1.00  0.00     0.010 A 
ATOM     61  C   UNL A   1      44.125  35.549  27.607  1.00  0.00     0.020 A 
ATOM     62  C   UNL A   1      46.412  35.259  28.327  1.00  0.00     0.020 A 
ATOM     63  C   UNL A   1      45.388  36.075  27.852  1.00  0.00     0.054 A 
BRANCH  63  64
ATOM     64  S   UNL A   1      45.633  37.855  27.619  1.00  0.00     0.124 S 
ATOM     65  O   UNL A   1      45.856  38.309  28.990  1.00  0.00    -0.237 OA
ATOM     66  O   UNL A   1      46.799  37.897  26.743  1.00  0.00    -0.237 OA
ATOM     67  O   UNL A   1      44.382  38.298  27.011  1.00  0.00    -0.744 OA
ENDBRANCH  63  64
ENDBRANCH  44  58
BRANCH  45  68
ATOM     68  C   UNL A   1      36.720  31.426  29.759  1.00  0.00    -0.014 A 
ATOM     69  C   UNL A   1      36.597  32.041  28.497  1.00  0.00     0.010 A 
ATOM     70  C   UNL A   1      35.733  31.698  30.727  1.00  0.00     0.010 A 
ATOM     71  C   UNL A   1      35.585  32.972  28.243  1.00  0.00     0.020 A 
ATOM     72  C   UNL A   1      34.716  32.634  30.478  1.00  0.00     0.020 A 
ATOM     73  C   UNL A   1      34.677  33.296  29.250  1.00  0.00     0.054 A 
BRANCH  73  74
ATOM     74  S   UNL A   1      33.526  34.669  28.957  1.00  0.00     0.124 S 
ATOM     75  O   UNL A   1      32.511  34.039  28.119  1.00  0.00    -0.237 OA
ATOM     76  O   UNL A   1      33.096  35.014  30.310  1.00  0.00    -0.237 OA
ATOM     77  O   UNL A   1      34.349  35.677  28.293  1.00  0.00    -0.744 OA
ENDBRANCH  73  74
ENDBRANCH  45  68
BRANCH  57  78
ATOM     78  C   UNL A   1      41.741  29.957  33.447  1.00  0.00    -0.014 A 
ATOM     79  C   UNL A   1      41.867  30.260  34.816  1.00  0.00     0.010 A 
ATOM     80  C   UNL A   1      41.582  28.607  33.076  1.00  0.00     0.010 A 
ATOM     81  C   UNL A   1      41.873  29.251  35.782  1.00  0.00     0.020 A 
ATOM     82  C   UNL A   1      41.558  27.589  34.044  1.00  0.00     0.020 A 
ATOM     83  C   UNL A   1      41.733  27.918  35.390  1.00  0.00     0.054 A 
BRANCH  83  84
ATOM     84  S   UNL A   1      41.816  26.632  36.667  1.00  0.00     0.124 S 
ATOM     85  O   UNL A   1      40.562  26.830  37.390  1.00  0.00    -0.237 OA
ATOM     86  O   UNL A   1      41.896  25.402  35.882  1.00  0.00    -0.237 OA
ATOM     87  O   UNL A   1      43.022  26.961  37.424  1.00  0.00    -0.744 OA
ENDBRANCH  83  84
ENDBRANCH  57  78
ENDBRANCH  31  32
ENDBRANCH  23  26
ENDBRANCH   1  22
TORSDOF 15
ENDMDL
MODEL 3
REMARK VINA RESULT:     -12.0      1.668      2.164
REMARK SMILES CCn1c(=O)n(CC)c2cc(C(=O)NCCCNC(=O)c3ccc(-c4c5nc(c(-c6ccc(S(=O)(=O)[O-])cc6)c6ccc([nH]6)c(-c6ccc(S(=O)(=O)[O-])cc6)c6nc(c(-c7ccc(S(=O)(=O)[O-])cc7)c7ccc4[nH]7)C=C6)C=C5)cc3)ccc21
REMARK SMILES IDX 17 1 16 2 15 3 14 4 12 5 13 6 11 8 3 9 4 10 83 11 5 12 6 13
REMARK SMILES IDX 9 14 82 15 10 16 81 17 2 18 1 19 7 20 8 21 18 22 19 23 20 25
REMARK SMILES IDX 21 26 22 27 80 28 23 29 79 30 24 31 25 32 26 33 73 34 27 35
REMARK SMILES IDX 78 36 72 37 74 38 28 39 77 40 71 41 70 42 29 44 59 45 40 46
REMARK SMILES IDX 58 47 41 48 44 49 57 50 75 51 42 52 43 53 56 55 76 56 45 57
REMARK SMILES IDX 30 58 31 59 39 60 32 61 38 62 33 63 34 64 35 65 36 66 37 67
REMARK SMILES IDX 60 68 61 69 69 70 62 71 68 72 63 73 64 74 65 75 66 76 67 77
REMARK SMILES IDX 46 78 47 79 55 80 48 81 54 82 49 83 50 84 51 85 52 86 53 87
REMARK H PARENT 14 7 18 24 74 43 44 54
REMARK Flexibility Score: inf
ROOT
ATOM      1  C   UNL A   1      41.617  21.502  26.959  1.00  0.00     0.118 C 
ENDROOT
BRANCH   1   2
ATOM      2  C   UNL A   1      40.517  20.564  26.458  1.00  0.00     0.042 C 
BRANCH   2   3
ATOM      3  C   UNL A   1      39.343  21.303  25.806  1.00  0.00     0.118 C 
BRANCH   3   4
ATOM      4  N   UNL A   1      39.218  22.664  26.305  1.00  0.00    -0.352 N 
ATOM      5  C   UNL A   1      38.273  23.647  26.160  1.00  0.00     0.251 C 
ATOM      6  O   UNL A   1      38.457  24.686  26.801  1.00  0.00    -0.269 OA
ATOM      7  H   UNL A   1      39.976  22.939  26.869  1.00  0.00     0.163 HD
BRANCH   5   8
ATOM      8  C   UNL A   1      37.041  23.533  25.323  1.00  0.00     0.042 A 
ATOM      9  N   UNL A   1      33.338  23.521  23.368  1.00  0.00    -0.292 N 
ATOM     10  C   UNL A   1      32.656  24.486  24.151  1.00  0.00     0.329 A 
ATOM     11  C   UNL A   1      34.643  23.382  23.875  1.00  0.00     0.069 A 
ATOM     12  O   UNL A   1      31.499  24.874  23.999  1.00  0.00    -0.248 OA
ATOM     13  N   UNL A   1      33.563  24.930  25.133  1.00  0.00    -0.292 N 
ATOM     14  C   UNL A   1      34.772  24.238  24.973  1.00  0.00     0.070 A 
ATOM     15  C   UNL A   1      35.717  22.627  23.462  1.00  0.00     0.029 A 
ATOM     16  C   UNL A   1      35.942  24.326  25.707  1.00  0.00     0.042 A 
ATOM     17  C   UNL A   1      36.924  22.731  24.174  1.00  0.00     0.016 A 
BRANCH   9  18
ATOM     18  C   UNL A   1      32.675  22.860  22.270  1.00  0.00     0.124 C 
ATOM     19  C   UNL A   1      32.168  21.442  22.446  1.00  0.00     0.028 C 
ENDBRANCH   9  18
BRANCH  13  20
ATOM     20  C   UNL A   1      33.301  25.994  26.069  1.00  0.00     0.124 C 
ATOM     21  C   UNL A   1      33.651  27.372  25.536  1.00  0.00     0.028 C 
ENDBRANCH  13  20
ENDBRANCH   5   8
ENDBRANCH   3   4
ENDBRANCH   2   3
ENDBRANCH   1   2
BRANCH   1  22
ATOM     22  N   UNL A   1      42.429  22.062  25.895  1.00  0.00    -0.352 N 
ATOM     23  C   UNL A   1      42.922  23.300  25.588  1.00  0.00     0.251 C 
ATOM     24  H   UNL A   1      42.690  21.384  25.231  1.00  0.00     0.163 HD
ATOM     25  O   UNL A   1      43.621  23.351  24.571  1.00  0.00    -0.269 OA
BRANCH  23  26
ATOM     26  C   UNL A   1      42.661  24.561  26.339  1.00  0.00     0.039 A 
ATOM     27  C   UNL A   1      43.177  24.891  27.591  1.00  0.00     0.014 A 
ATOM     28  C   UNL A   1      41.793  25.482  25.716  1.00  0.00     0.014 A 
ATOM     29  C   UNL A   1      42.785  26.072  28.228  1.00  0.00     0.010 A 
ATOM     30  C   UNL A   1      41.411  26.669  26.341  1.00  0.00     0.010 A 
ATOM     31  C   UNL A   1      41.881  26.951  27.617  1.00  0.00    -0.014 A 
BRANCH  31  32
ATOM     32  C   UNL A   1      41.524  28.177  28.335  1.00  0.00     0.031 A 
ATOM     33  C   UNL A   1      42.534  29.275  28.292  1.00  0.00     0.074 A 
ATOM     34  C   UNL A   1      40.346  28.399  28.954  1.00  0.00     0.049 A 
ATOM     35  N   UNL A   1      43.220  29.764  29.274  1.00  0.00    -0.248 NA
ATOM     36  C   UNL A   1      42.879  29.840  26.981  1.00  0.00     0.031 C 
ATOM     37  C   UNL A   1      39.115  27.608  28.896  1.00  0.00     0.029 A 
ATOM     38  N   UNL A   1      39.989  29.467  29.728  1.00  0.00    -0.354 N 
ATOM     39  C   UNL A   1      43.980  30.805  28.744  1.00  0.00     0.074 A 
ATOM     40  C   UNL A   1      43.808  30.738  27.313  1.00  0.00     0.031 C 
ATOM     41  C   UNL A   1      38.094  28.330  29.417  1.00  0.00     0.029 A 
ATOM     42  C   UNL A   1      38.630  29.552  29.992  1.00  0.00     0.049 A 
ATOM     43  H   UNL A   1      40.642  30.120  30.070  1.00  0.00     0.167 HD
ATOM     44  C   UNL A   1      44.592  31.740  29.525  1.00  0.00     0.031 A 
ATOM     45  C   UNL A   1      37.988  30.575  30.607  1.00  0.00     0.031 A 
ATOM     46  C   UNL A   1      44.658  31.335  30.901  1.00  0.00     0.049 A 
ATOM     47  C   UNL A   1      38.987  31.307  31.419  1.00  0.00     0.074 A 
ATOM     48  C   UNL A   1      45.280  30.311  31.587  1.00  0.00     0.029 A 
ATOM     49  N   UNL A   1      43.722  31.855  31.762  1.00  0.00    -0.354 N 
ATOM     50  N   UNL A   1      39.571  30.811  32.472  1.00  0.00    -0.248 NA
ATOM     51  C   UNL A   1      39.620  32.485  30.848  1.00  0.00     0.031 C 
ATOM     52  C   UNL A   1      44.377  29.966  32.632  1.00  0.00     0.029 A 
ATOM     53  C   UNL A   1      43.279  30.826  32.553  1.00  0.00     0.049 A 
ATOM     54  H   UNL A   1      43.426  32.793  31.804  1.00  0.00     0.167 HD
ATOM     55  C   UNL A   1      40.851  31.341  32.450  1.00  0.00     0.074 A 
ATOM     56  C   UNL A   1      40.784  32.448  31.500  1.00  0.00     0.031 C 
ATOM     57  C   UNL A   1      41.907  30.671  33.000  1.00  0.00     0.031 A 
BRANCH  44  58
ATOM     58  C   UNL A   1      44.898  33.153  29.095  1.00  0.00    -0.014 A 
ATOM     59  C   UNL A   1      46.211  33.632  28.920  1.00  0.00     0.010 A 
ATOM     60  C   UNL A   1      43.853  33.973  28.615  1.00  0.00     0.010 A 
ATOM     61  C   UNL A   1      46.476  34.864  28.315  1.00  0.00     0.020 A 
ATOM     62  C   UNL A   1      44.109  35.190  27.966  1.00  0.00     0.020 A 
ATOM     63  C   UNL A   1      45.424  35.628  27.824  1.00  0.00     0.054 A 
BRANCH  63  64
ATOM     64  S   UNL A   1      45.819  37.151  26.928  1.00  0.00     0.124 S 
ATOM     65  O   UNL A   1      46.651  37.862  27.895  1.00  0.00    -0.237 OA
ATOM     66  O   UNL A   1      46.513  36.648  25.747  1.00  0.00    -0.237 OA
ATOM     67  O   UNL A   1      44.510  37.748  26.672  1.00  0.00    -0.744 OA
ENDBRANCH  63  64
ENDBRANCH  44  58
BRANCH  45  68
ATOM     68  C   UNL A   1      36.701  31.201  30.212  1.00  0.00    -0.014 A 
ATOM     69  C   UNL A   1      36.503  31.603  28.876  1.00  0.00     0.010 A 
ATOM     70  C   UNL A   1      35.829  31.712  31.194  1.00  0.00     0.010 A 
ATOM     71  C   UNL A   1      35.537  32.558  28.545  1.00  0.00     0.020 A 
ATOM     72  C   UNL A   1      34.859  32.673  30.868  1.00  0.00     0.020 A 
ATOM     73  C   UNL A   1      34.750  33.120  29.550  1.00  0.00     0.054 A 
BRANCH  73  74
ATOM     74  S   UNL A   1      33.670  34.514  29.116  1.00  0.00     0.124 S 
ATOM     75  O   UNL A   1      34.618  35.462  28.537  1.00  0.00    -0.237 OA
ATOM     76  O   UNL A   1      32.736  33.906  28.172  1.00  0.00    -0.237 OA
ATOM     77  O   UNL A   1      33.088  34.914  30.394  1.00  0.00    -0.744 OA
ENDBRANCH  73  74
ENDBRANCH  45  68
BRANCH  57  78
ATOM     78  C   UNL A   1      41.634  29.496  33.917  1.00  0.00    -0.014 A 
ATOM     79  C   UNL A   1      41.656  29.735  35.305  1.00  0.00     0.010 A 
ATOM     80  C   UNL A   1      41.550  28.161  33.473  1.00  0.00     0.010 A 
ATOM     81  C   UNL A   1      41.633  28.680  36.220  1.00  0.00     0.020 A 
ATOM     82  C   UNL A   1      41.498  27.097  34.388  1.00  0.00     0.020 A 
ATOM     83  C   UNL A   1      41.569  27.365  35.757  1.00  0.00     0.054 A 
BRANCH  83  84
ATOM     84  S   UNL A   1      41.612  26.021  36.975  1.00  0.00     0.124 S 
ATOM     85  O   UNL A   1      40.273  26.084  37.555  1.00  0.00    -0.237 OA
ATOM     86  O   UNL A   1      41.880  24.845  36.150  1.00  0.00    -0.237 OA
ATOM     87  O   UNL A   1      42.695  26.398  37.881  1.00  0.00    -0.744 OA
ENDBRANCH  83  84
ENDBRANCH  57  78
ENDBRANCH  31  32
ENDBRANCH  23  26
ENDBRANCH   1  22
TORSDOF 15
ENDMDL
