MODEL 1
REMARK VINA RESULT:     -12.8      0.000      0.000
REMARK SMILES Cc1ccc([C@@H](CC(=O)NCCCNC(=O)c2ccc(-c3c4nc(c(-c5ccc(S(=O)(=O)[O-])cc5)c5ccc([nH]5)c(-c5ccc(S(=O)(=O)[O-])cc5)c5nc(c(-c6ccc(S(=O)(=O)[O-])cc6)c6ccc3[nH]6)C=C5)C=C4)cc2)NC(=O)c2ccc(OC(F)F)cc2)cc1
REMARK SMILES IDX 11 1 10 2 8 3 9 4 7 6 6 7 5 8 1 9 2 10 3 11 91 12 4 13 90 14
REMARK SMILES IDX 77 15 78 16 79 18 80 19 81 20 89 21 82 22 88 23 83 24 84 25
REMARK SMILES IDX 85 26 86 27 87 28 12 29 13 30 14 31 15 32 16 34 17 35 18 36
REMARK SMILES IDX 76 37 19 38 75 39 20 40 21 41 22 42 69 43 23 44 74 45 68 46
REMARK SMILES IDX 70 47 24 48 73 49 67 50 66 51 25 53 55 54 36 55 54 56 37 57
REMARK SMILES IDX 40 58 53 59 71 60 38 61 39 62 52 64 72 65 41 66 26 67 27 68
REMARK SMILES IDX 35 69 28 70 34 71 29 72 30 73 31 74 32 75 33 76 56 77 57 78
REMARK SMILES IDX 65 79 58 80 64 81 59 82 60 83 61 84 62 85 63 86 42 87 43 88
REMARK SMILES IDX 51 89 44 90 50 91 45 92 46 93 47 94 48 95 49 96
REMARK H PARENT 10 5 77 17 14 33 70 52 40 63
REMARK Flexibility Score: inf
ROOT
ATOM      1  C   UNL A   1      31.435  30.158  25.714  1.00  0.00     0.117 C 
ENDROOT
BRANCH   1   2
ATOM      2  N   UNL A   1      32.417  29.912  24.667  1.00  0.00    -0.356 N 
ATOM      3  C   UNL A   1      33.301  28.903  24.474  1.00  0.00     0.222 C 
ATOM      4  O   UNL A   1      34.063  28.972  23.506  1.00  0.00    -0.275 OA
ATOM      5  H   UNL A   1      32.444  30.607  23.970  1.00  0.00     0.163 HD
BRANCH   3   6
ATOM      6  C   UNL A   1      33.306  27.687  25.364  1.00  0.00     0.129 C 
BRANCH   6   7
ATOM      7  C   UNL A   1      32.491  26.472  24.874  1.00  0.00     0.122 C 
BRANCH   7   8
ATOM      8  C   UNL A   1      32.830  25.259  25.736  1.00  0.00    -0.025 A 
ATOM      9  C   UNL A   1      33.829  21.434  27.475  1.00  0.00     0.044 C 
ATOM     10  C   UNL A   1      33.505  22.807  26.965  1.00  0.00    -0.051 A 
ATOM     11  C   UNL A   1      32.206  23.315  27.054  1.00  0.00     0.004 A 
ATOM     12  C   UNL A   1      34.480  23.553  26.303  1.00  0.00     0.004 A 
ATOM     13  C   UNL A   1      31.871  24.532  26.453  1.00  0.00     0.006 A 
ATOM     14  C   UNL A   1      34.148  24.768  25.705  1.00  0.00     0.006 A 
ENDBRANCH   7   8
BRANCH   7  15
ATOM     15  N   UNL A   1      32.545  26.188  23.442  1.00  0.00    -0.345 N 
ATOM     16  C   UNL A   1      31.622  26.440  22.460  1.00  0.00     0.251 C 
ATOM     17  H   UNL A   1      33.371  25.748  23.136  1.00  0.00     0.164 HD
ATOM     18  O   UNL A   1      31.679  25.840  21.389  1.00  0.00    -0.269 OA
BRANCH  16  19
ATOM     19  C   UNL A   1      30.541  27.426  22.667  1.00  0.00     0.040 A 
ATOM     20  C   UNL A   1      29.416  27.064  23.410  1.00  0.00     0.017 A 
ATOM     21  C   UNL A   1      30.575  28.666  22.029  1.00  0.00     0.017 A 
ATOM     22  C   UNL A   1      28.360  27.968  23.559  1.00  0.00     0.047 A 
ATOM     23  C   UNL A   1      29.526  29.577  22.195  1.00  0.00     0.047 A 
ATOM     24  C   UNL A   1      28.416  29.235  22.967  1.00  0.00     0.126 A 
BRANCH  24  25
ATOM     25  O   UNL A   1      27.323  30.023  23.193  1.00  0.00    -0.435 OA
BRANCH  25  26
ATOM     26  C   UNL A   1      27.533  31.411  23.414  1.00  0.00     0.542 C 
ATOM     27  F   UNL A   1      28.517  31.596  24.327  1.00  0.00    -0.167 F 
ATOM     28  F   UNL A   1      27.899  32.021  22.261  1.00  0.00    -0.167 F 
ENDBRANCH  25  26
ENDBRANCH  24  25
ENDBRANCH  16  19
ENDBRANCH   7  15
ENDBRANCH   6   7
ENDBRANCH   3   6
ENDBRANCH   1   2
BRANCH   1  29
ATOM     29  C   UNL A   1      31.937  31.262  26.639  1.00  0.00     0.042 C 
BRANCH  29  30
ATOM     30  C   UNL A   1      33.156  30.846  27.457  1.00  0.00     0.118 C 
BRANCH  30  31
ATOM     31  N   UNL A   1      33.888  31.969  28.051  1.00  0.00    -0.352 N 
ATOM     32  C   UNL A   1      35.212  31.980  28.460  1.00  0.00     0.251 C 
ATOM     33  H   UNL A   1      33.385  32.806  28.174  1.00  0.00     0.163 HD
ATOM     34  O   UNL A   1      35.800  32.994  28.822  1.00  0.00    -0.269 OA
BRANCH  32  35
ATOM     35  C   UNL A   1      35.886  30.678  28.516  1.00  0.00     0.039 A 
ATOM     36  C   UNL A   1      36.048  30.079  29.770  1.00  0.00     0.014 A 
ATOM     37  C   UNL A   1      36.707  30.374  27.431  1.00  0.00     0.014 A 
ATOM     38  C   UNL A   1      37.195  29.330  30.009  1.00  0.00     0.010 A 
ATOM     39  C   UNL A   1      37.865  29.670  27.688  1.00  0.00     0.010 A 
ATOM     40  C   UNL A   1      38.152  29.234  28.998  1.00  0.00    -0.014 A 
BRANCH  40  41
ATOM     41  C   UNL A   1      39.556  28.904  29.236  1.00  0.00     0.031 A 
ATOM     42  C   UNL A   1      40.075  27.557  28.905  1.00  0.00     0.074 A 
ATOM     43  C   UNL A   1      40.443  29.882  29.545  1.00  0.00     0.049 A 
ATOM     44  N   UNL A   1      41.258  27.143  29.219  1.00  0.00    -0.248 NA
ATOM     45  C   UNL A   1      39.266  26.525  28.263  1.00  0.00     0.031 C 
ATOM     46  C   UNL A   1      41.884  29.851  29.298  1.00  0.00     0.029 A 
ATOM     47  N   UNL A   1      40.273  31.023  30.336  1.00  0.00    -0.354 N 
ATOM     48  C   UNL A   1      41.479  25.970  28.541  1.00  0.00     0.074 A 
ATOM     49  C   UNL A   1      40.173  25.560  28.085  1.00  0.00     0.031 C 
ATOM     50  C   UNL A   1      42.487  30.699  30.142  1.00  0.00     0.029 A 
ATOM     51  C   UNL A   1      41.475  31.190  31.055  1.00  0.00     0.049 A 
ATOM     52  H   UNL A   1      39.473  31.595  30.381  1.00  0.00     0.167 HD
ATOM     53  C   UNL A   1      42.761  25.554  28.337  1.00  0.00     0.031 A 
ATOM     54  C   UNL A   1      41.580  31.207  32.417  1.00  0.00     0.031 A 
ATOM     55  C   UNL A   1      43.727  26.324  29.124  1.00  0.00     0.049 A 
ATOM     56  C   UNL A   1      42.537  30.174  32.983  1.00  0.00     0.074 A 
ATOM     57  C   UNL A   1      44.749  27.217  28.852  1.00  0.00     0.029 A 
ATOM     58  N   UNL A   1      43.559  26.356  30.499  1.00  0.00    -0.354 N 
ATOM     59  N   UNL A   1      43.275  29.379  32.262  1.00  0.00    -0.248 NA
ATOM     60  C   UNL A   1      42.637  29.870  34.414  1.00  0.00     0.031 C 
ATOM     61  C   UNL A   1      45.205  27.764  30.090  1.00  0.00     0.029 A 
ATOM     62  C   UNL A   1      44.471  27.187  31.109  1.00  0.00     0.049 A 
ATOM     63  H   UNL A   1      42.870  25.845  30.982  1.00  0.00     0.167 HD
ATOM     64  C   UNL A   1      43.803  28.399  33.063  1.00  0.00     0.074 A 
ATOM     65  C   UNL A   1      43.420  28.776  34.410  1.00  0.00     0.031 C 
ATOM     66  C   UNL A   1      44.430  27.299  32.557  1.00  0.00     0.031 A 
BRANCH  53  67
ATOM     67  C   UNL A   1      43.182  24.529  27.301  1.00  0.00    -0.014 A 
ATOM     68  C   UNL A   1      43.587  23.243  27.717  1.00  0.00     0.010 A 
ATOM     69  C   UNL A   1      43.283  24.784  25.920  1.00  0.00     0.010 A 
ATOM     70  C   UNL A   1      44.108  22.295  26.818  1.00  0.00     0.020 A 
ATOM     71  C   UNL A   1      43.784  23.845  25.009  1.00  0.00     0.020 A 
ATOM     72  C   UNL A   1      44.214  22.610  25.466  1.00  0.00     0.054 A 
BRANCH  72  73
ATOM     73  S   UNL A   1      44.939  21.414  24.318  1.00  0.00     0.124 S 
ATOM     74  O   UNL A   1      44.236  20.183  24.667  1.00  0.00    -0.237 OA
ATOM     75  O   UNL A   1      44.611  21.985  23.016  1.00  0.00    -0.237 OA
ATOM     76  O   UNL A   1      46.362  21.427  24.658  1.00  0.00    -0.744 OA
ENDBRANCH  72  73
ENDBRANCH  53  67
BRANCH  54  77
ATOM     77  C   UNL A   1      40.361  31.701  33.111  1.00  0.00    -0.014 A 
ATOM     78  C   UNL A   1      39.353  30.754  33.380  1.00  0.00     0.010 A 
ATOM     79  C   UNL A   1      40.421  32.883  33.870  1.00  0.00     0.010 A 
ATOM     80  C   UNL A   1      38.558  30.884  34.516  1.00  0.00     0.020 A 
ATOM     81  C   UNL A   1      39.621  33.015  35.010  1.00  0.00     0.020 A 
ATOM     82  C   UNL A   1      38.756  31.976  35.363  1.00  0.00     0.054 A 
BRANCH  82  83
ATOM     83  S   UNL A   1      38.080  31.869  37.047  1.00  0.00     0.124 S 
ATOM     84  O   UNL A   1      37.712  30.462  37.151  1.00  0.00    -0.237 OA
ATOM     85  O   UNL A   1      39.230  32.286  37.846  1.00  0.00    -0.237 OA
ATOM     86  O   UNL A   1      36.969  32.816  37.024  1.00  0.00    -0.744 OA
ENDBRANCH  82  83
ENDBRANCH  54  77
BRANCH  66  87
ATOM     87  C   UNL A   1      44.973  26.173  33.399  1.00  0.00    -0.014 A 
ATOM     88  C   UNL A   1      46.347  25.971  33.598  1.00  0.00     0.010 A 
ATOM     89  C   UNL A   1      44.094  25.195  33.919  1.00  0.00     0.010 A 
ATOM     90  C   UNL A   1      46.817  24.863  34.321  1.00  0.00     0.020 A 
ATOM     91  C   UNL A   1      44.551  24.080  34.625  1.00  0.00     0.020 A 
ATOM     92  C   UNL A   1      45.915  23.927  34.833  1.00  0.00     0.054 A 
BRANCH  92  93
ATOM     93  S   UNL A   1      46.542  22.478  35.721  1.00  0.00     0.124 S 
ATOM     94  O   UNL A   1      47.176  21.703  34.658  1.00  0.00    -0.237 OA
ATOM     95  O   UNL A   1      47.455  23.085  36.685  1.00  0.00    -0.237 OA
ATOM     96  O   UNL A   1      45.343  21.872  36.296  1.00  0.00    -0.744 OA
ENDBRANCH  92  93
ENDBRANCH  66  87
ENDBRANCH  40  41
ENDBRANCH  32  35
ENDBRANCH  30  31
ENDBRANCH  29  30
ENDBRANCH   1  29
TORSDOF 19
ENDMDL
MODEL 2
REMARK VINA RESULT:     -12.7      4.324     10.305
REMARK SMILES Cc1ccc([C@@H](CC(=O)NCCCNC(=O)c2ccc(-c3c4nc(c(-c5ccc(S(=O)(=O)[O-])cc5)c5ccc([nH]5)c(-c5ccc(S(=O)(=O)[O-])cc5)c5nc(c(-c6ccc(S(=O)(=O)[O-])cc6)c6ccc3[nH]6)C=C5)C=C4)cc2)NC(=O)c2ccc(OC(F)F)cc2)cc1
REMARK SMILES IDX 11 1 10 2 8 3 9 4 7 6 6 7 5 8 1 9 2 10 3 11 91 12 4 13 90 14
REMARK SMILES IDX 77 15 78 16 79 18 80 19 81 20 89 21 82 22 88 23 83 24 84 25
REMARK SMILES IDX 85 26 86 27 87 28 12 29 13 30 14 31 15 32 16 34 17 35 18 36
REMARK SMILES IDX 76 37 19 38 75 39 20 40 21 41 22 42 69 43 23 44 74 45 68 46
REMARK SMILES IDX 70 47 24 48 73 49 67 50 66 51 25 53 55 54 36 55 54 56 37 57
REMARK SMILES IDX 40 58 53 59 71 60 38 61 39 62 52 64 72 65 41 66 26 67 27 68
REMARK SMILES IDX 35 69 28 70 34 71 29 72 30 73 31 74 32 75 33 76 56 77 57 78
REMARK SMILES IDX 65 79 58 80 64 81 59 82 60 83 61 84 62 85 63 86 42 87 43 88
REMARK SMILES IDX 51 89 44 90 50 91 45 92 46 93 47 94 48 95 49 96
REMARK H PARENT 10 5 77 17 14 33 70 52 40 63
REMARK Flexibility Score: inf
ROOT
ATOM      1  C   UNL A   1      36.835  21.193  25.133  1.00  0.00     0.117 C 
ENDROOT
BRANCH   1   2
ATOM      2  N   UNL A   1      36.405  22.022  24.014  1.00  0.00    -0.356 N 
ATOM      3  C   UNL A   1      35.299  22.781  23.823  1.00  0.00     0.222 C 
ATOM      4  O   UNL A   1      35.165  23.353  22.738  1.00  0.00    -0.275 OA
ATOM      5  H   UNL A   1      37.035  22.033  23.257  1.00  0.00     0.163 HD
BRANCH   3   6
ATOM      6  C   UNL A   1      34.294  22.991  24.926  1.00  0.00     0.129 C 
BRANCH   6   7
ATOM      7  C   UNL A   1      32.822  22.682  24.584  1.00  0.00     0.122 C 
BRANCH   7   8
ATOM      8  C   UNL A   1      32.662  21.180  24.365  1.00  0.00    -0.025 A 
ATOM      9  C   UNL A   1      33.011  16.928  23.697  1.00  0.00     0.044 C 
ATOM     10  C   UNL A   1      32.789  18.387  23.959  1.00  0.00    -0.051 A 
ATOM     11  C   UNL A   1      32.339  19.236  22.944  1.00  0.00     0.004 A 
ATOM     12  C   UNL A   1      33.128  18.934  25.197  1.00  0.00     0.004 A 
ATOM     13  C   UNL A   1      32.268  20.617  23.145  1.00  0.00     0.006 A 
ATOM     14  C   UNL A   1      33.056  20.311  25.400  1.00  0.00     0.006 A 
ENDBRANCH   7   8
BRANCH   7  15
ATOM     15  N   UNL A   1      32.220  23.481  23.520  1.00  0.00    -0.345 N 
ATOM     16  C   UNL A   1      31.793  24.785  23.532  1.00  0.00     0.251 C 
ATOM     17  H   UNL A   1      32.103  23.012  22.662  1.00  0.00     0.164 HD
ATOM     18  O   UNL A   1      31.014  25.188  22.672  1.00  0.00    -0.269 OA
BRANCH  16  19
ATOM     19  C   UNL A   1      32.253  25.725  24.575  1.00  0.00     0.040 A 
ATOM     20  C   UNL A   1      31.444  25.961  25.688  1.00  0.00     0.017 A 
ATOM     21  C   UNL A   1      33.420  26.468  24.402  1.00  0.00     0.017 A 
ATOM     22  C   UNL A   1      31.840  26.897  26.649  1.00  0.00     0.047 A 
ATOM     23  C   UNL A   1      33.824  27.389  25.374  1.00  0.00     0.047 A 
ATOM     24  C   UNL A   1      33.040  27.603  26.507  1.00  0.00     0.126 A 
BRANCH  24  25
ATOM     25  O   UNL A   1      33.311  28.482  27.518  1.00  0.00    -0.435 OA
BRANCH  25  26
ATOM     26  C   UNL A   1      32.969  29.848  27.325  1.00  0.00     0.542 C 
ATOM     27  F   UNL A   1      33.569  30.328  26.210  1.00  0.00    -0.167 F 
ATOM     28  F   UNL A   1      31.628  29.982  27.181  1.00  0.00    -0.167 F 
ENDBRANCH  25  26
ENDBRANCH  24  25
ENDBRANCH  16  19
ENDBRANCH   7  15
ENDBRANCH   6   7
ENDBRANCH   3   6
ENDBRANCH   1   2
BRANCH   1  29
ATOM     29  C   UNL A   1      38.321  21.413  25.392  1.00  0.00     0.042 C 
BRANCH  29  30
ATOM     30  C   UNL A   1      38.609  22.702  26.157  1.00  0.00     0.118 C 
BRANCH  30  31
ATOM     31  N   UNL A   1      39.894  22.703  26.863  1.00  0.00    -0.352 N 
ATOM     32  C   UNL A   1      40.436  23.737  27.610  1.00  0.00     0.251 C 
ATOM     33  H   UNL A   1      40.431  21.880  26.799  1.00  0.00     0.163 HD
ATOM     34  O   UNL A   1      41.453  23.622  28.286  1.00  0.00    -0.269 OA
BRANCH  32  35
ATOM     35  C   UNL A   1      39.769  25.038  27.498  1.00  0.00     0.039 A 
ATOM     36  C   UNL A   1      40.298  25.971  26.599  1.00  0.00     0.014 A 
ATOM     37  C   UNL A   1      38.988  25.414  28.591  1.00  0.00     0.014 A 
ATOM     38  C   UNL A   1      40.238  27.321  26.925  1.00  0.00     0.010 A 
ATOM     39  C   UNL A   1      38.973  26.750  28.931  1.00  0.00     0.010 A 
ATOM     40  C   UNL A   1      39.680  27.688  28.151  1.00  0.00    -0.014 A 
BRANCH  40  41
ATOM     41  C   UNL A   1      39.958  28.955  28.824  1.00  0.00     0.031 A 
ATOM     42  C   UNL A   1      38.976  30.063  28.769  1.00  0.00     0.074 A 
ATOM     43  C   UNL A   1      40.999  29.054  29.687  1.00  0.00     0.049 A 
ATOM     44  N   UNL A   1      39.209  31.254  29.210  1.00  0.00    -0.248 NA
ATOM     45  C   UNL A   1      37.670  29.941  28.128  1.00  0.00     0.031 C 
ATOM     46  C   UNL A   1      41.112  29.997  30.799  1.00  0.00     0.029 A 
ATOM     47  N   UNL A   1      42.269  28.474  29.622  1.00  0.00    -0.354 N 
ATOM     48  C   UNL A   1      38.014  31.929  29.230  1.00  0.00     0.074 A 
ATOM     49  C   UNL A   1      37.129  31.128  28.420  1.00  0.00     0.031 C 
ATOM     50  C   UNL A   1      42.407  30.159  31.101  1.00  0.00     0.029 A 
ATOM     51  C   UNL A   1      43.174  29.444  30.100  1.00  0.00     0.049 A 
ATOM     52  H   UNL A   1      42.489  27.568  29.305  1.00  0.00     0.167 HD
ATOM     53  C   UNL A   1      37.881  33.019  30.038  1.00  0.00     0.031 A 
ATOM     54  C   UNL A   1      44.222  29.959  29.392  1.00  0.00     0.031 A 
ATOM     55  C   UNL A   1      39.165  33.465  30.585  1.00  0.00     0.049 A 
ATOM     56  C   UNL A   1      44.203  31.471  29.256  1.00  0.00     0.074 A 
ATOM     57  C   UNL A   1      39.749  33.519  31.839  1.00  0.00     0.029 A 
ATOM     58  N   UNL A   1      40.172  33.784  29.689  1.00  0.00    -0.354 N 
ATOM     59  N   UNL A   1      43.327  32.251  29.823  1.00  0.00    -0.248 NA
ATOM     60  C   UNL A   1      45.099  32.209  28.361  1.00  0.00     0.031 C 
ATOM     61  C   UNL A   1      41.116  33.901  31.677  1.00  0.00     0.029 A 
ATOM     62  C   UNL A   1      41.350  34.095  30.329  1.00  0.00     0.049 A 
ATOM     63  H   UNL A   1      40.057  33.789  28.711  1.00  0.00     0.167 HD
ATOM     64  C   UNL A   1      43.422  33.508  29.282  1.00  0.00     0.074 A 
ATOM     65  C   UNL A   1      44.579  33.448  28.409  1.00  0.00     0.031 C 
ATOM     66  C   UNL A   1      42.490  34.476  29.512  1.00  0.00     0.031 A 
BRANCH  53  67
ATOM     67  C   UNL A   1      36.556  33.619  30.467  1.00  0.00    -0.014 A 
ATOM     68  C   UNL A   1      35.639  34.059  29.489  1.00  0.00     0.010 A 
ATOM     69  C   UNL A   1      36.182  33.858  31.804  1.00  0.00     0.010 A 
ATOM     70  C   UNL A   1      34.455  34.738  29.824  1.00  0.00     0.020 A 
ATOM     71  C   UNL A   1      34.998  34.518  32.156  1.00  0.00     0.020 A 
ATOM     72  C   UNL A   1      34.148  34.974  31.161  1.00  0.00     0.054 A 
BRANCH  72  73
ATOM     73  S   UNL A   1      32.654  35.900  31.592  1.00  0.00     0.124 S 
ATOM     74  O   UNL A   1      32.054  36.148  30.284  1.00  0.00    -0.237 OA
ATOM     75  O   UNL A   1      31.938  34.964  32.452  1.00  0.00    -0.237 OA
ATOM     76  O   UNL A   1      33.168  37.091  32.268  1.00  0.00    -0.744 OA
ENDBRANCH  72  73
ENDBRANCH  53  67
BRANCH  54  77
ATOM     77  C   UNL A   1      44.783  29.026  28.379  1.00  0.00    -0.014 A 
ATOM     78  C   UNL A   1      45.661  28.028  28.849  1.00  0.00     0.010 A 
ATOM     79  C   UNL A   1      44.117  28.842  27.155  1.00  0.00     0.010 A 
ATOM     80  C   UNL A   1      45.708  26.787  28.220  1.00  0.00     0.020 A 
ATOM     81  C   UNL A   1      44.165  27.595  26.522  1.00  0.00     0.020 A 
ATOM     82  C   UNL A   1      44.898  26.558  27.106  1.00  0.00     0.054 A 
BRANCH  82  83
ATOM     83  S   UNL A   1      44.605  24.832  26.619  1.00  0.00     0.124 S 
ATOM     84  O   UNL A   1      44.620  24.134  27.899  1.00  0.00    -0.237 OA
ATOM     85  O   UNL A   1      43.301  24.934  25.966  1.00  0.00    -0.237 OA
ATOM     86  O   UNL A   1      45.721  24.541  25.723  1.00  0.00    -0.744 OA
ENDBRANCH  82  83
ENDBRANCH  54  77
BRANCH  66  87
ATOM     87  C   UNL A   1      42.527  35.849  28.893  1.00  0.00    -0.014 A 
ATOM     88  C   UNL A   1      41.848  36.163  27.706  1.00  0.00     0.010 A 
ATOM     89  C   UNL A   1      43.370  36.845  29.439  1.00  0.00     0.010 A 
ATOM     90  C   UNL A   1      41.973  37.431  27.116  1.00  0.00     0.020 A 
ATOM     91  C   UNL A   1      43.515  38.104  28.852  1.00  0.00     0.020 A 
ATOM     92  C   UNL A   1      42.803  38.394  27.696  1.00  0.00     0.054 A 
BRANCH  92  93
ATOM     93  S   UNL A   1      42.992  40.007  26.894  1.00  0.00     0.124 S 
ATOM     94  O   UNL A   1      43.001  40.928  28.028  1.00  0.00    -0.237 OA
ATOM     95  O   UNL A   1      44.267  39.854  26.200  1.00  0.00    -0.237 OA
ATOM     96  O   UNL A   1      41.819  40.108  26.027  1.00  0.00    -0.744 OA
ENDBRANCH  92  93
ENDBRANCH  66  87
ENDBRANCH  40  41
ENDBRANCH  32  35
ENDBRANCH  30  31
ENDBRANCH  29  30
ENDBRANCH   1  29
TORSDOF 19
ENDMDL
MODEL 3
REMARK VINA RESULT:     -12.7      3.883     10.036
REMARK SMILES Cc1ccc([C@@H](CC(=O)NCCCNC(=O)c2ccc(-c3c4nc(c(-c5ccc(S(=O)(=O)[O-])cc5)c5ccc([nH]5)c(-c5ccc(S(=O)(=O)[O-])cc5)c5nc(c(-c6ccc(S(=O)(=O)[O-])cc6)c6ccc3[nH]6)C=C5)C=C4)cc2)NC(=O)c2ccc(OC(F)F)cc2)cc1
REMARK SMILES IDX 11 1 10 2 8 3 9 4 7 6 6 7 5 8 1 9 2 10 3 11 91 12 4 13 90 14
REMARK SMILES IDX 77 15 78 16 79 18 80 19 81 20 89 21 82 22 88 23 83 24 84 25
REMARK SMILES IDX 85 26 86 27 87 28 12 29 13 30 14 31 15 32 16 34 17 35 18 36
REMARK SMILES IDX 76 37 19 38 75 39 20 40 21 41 22 42 69 43 23 44 74 45 68 46
REMARK SMILES IDX 70 47 24 48 73 49 67 50 66 51 25 53 55 54 36 55 54 56 37 57
REMARK SMILES IDX 40 58 53 59 71 60 38 61 39 62 52 64 72 65 41 66 26 67 27 68
REMARK SMILES IDX 35 69 28 70 34 71 29 72 30 73 31 74 32 75 33 76 56 77 57 78
REMARK SMILES IDX 65 79 58 80 64 81 59 82 60 83 61 84 62 85 63 86 42 87 43 88
REMARK SMILES IDX 51 89 44 90 50 91 45 92 46 93 47 94 48 95 49 96
REMARK H PARENT 10 5 77 17 14 33 70 52 40 63
REMARK Flexibility Score: inf
ROOT
ATOM      1  C   UNL A   1      35.322  22.393  24.525  1.00  0.00     0.117 C 
ENDROOT
BRANCH   1   2
ATOM      2  N   UNL A   1      34.194  21.478  24.400  1.00  0.00    -0.356 N 
ATOM      3  C   UNL A   1      32.903  21.677  24.037  1.00  0.00     0.222 C 
ATOM      4  O   UNL A   1      32.136  20.713  24.064  1.00  0.00    -0.275 OA
ATOM      5  H   UNL A   1      34.409  20.543  24.621  1.00  0.00     0.163 HD
BRANCH   3   6
ATOM      6  C   UNL A   1      32.430  23.017  23.534  1.00  0.00     0.129 C 
BRANCH   6   7
ATOM      7  C   UNL A   1      31.012  23.449  23.962  1.00  0.00     0.122 C 
BRANCH   7   8
ATOM      8  C   UNL A   1      30.754  24.874  23.477  1.00  0.00    -0.025 A 
ATOM      9  C   UNL A   1      30.531  29.114  22.692  1.00  0.00     0.044 C 
ATOM     10  C   UNL A   1      30.562  27.626  22.870  1.00  0.00    -0.051 A 
ATOM     11  C   UNL A   1      29.504  26.957  23.490  1.00  0.00     0.004 A 
ATOM     12  C   UNL A   1      31.699  26.904  22.506  1.00  0.00     0.004 A 
ATOM     13  C   UNL A   1      29.594  25.593  23.785  1.00  0.00     0.006 A 
ATOM     14  C   UNL A   1      31.789  25.543  22.798  1.00  0.00     0.006 A 
ENDBRANCH   7   8
BRANCH   7  15
ATOM     15  N   UNL A   1      30.669  23.254  25.368  1.00  0.00    -0.345 N 
ATOM     16  C   UNL A   1      31.199  23.835  26.492  1.00  0.00     0.251 C 
ATOM     17  H   UNL A   1      29.947  22.605  25.534  1.00  0.00     0.164 HD
ATOM     18  O   UNL A   1      31.033  23.316  27.593  1.00  0.00    -0.269 OA
BRANCH  16  19
ATOM     19  C   UNL A   1      31.980  25.087  26.405  1.00  0.00     0.040 A 
ATOM     20  C   UNL A   1      31.341  26.309  26.627  1.00  0.00     0.017 A 
ATOM     21  C   UNL A   1      33.309  25.071  25.984  1.00  0.00     0.017 A 
ATOM     22  C   UNL A   1      32.057  27.502  26.484  1.00  0.00     0.047 A 
ATOM     23  C   UNL A   1      34.028  26.264  25.861  1.00  0.00     0.047 A 
ATOM     24  C   UNL A   1      33.407  27.486  26.117  1.00  0.00     0.126 A 
BRANCH  24  25
ATOM     25  O   UNL A   1      33.989  28.719  26.018  1.00  0.00    -0.435 OA
BRANCH  25  26
ATOM     26  C   UNL A   1      34.043  29.528  27.186  1.00  0.00     0.542 C 
ATOM     27  F   UNL A   1      34.993  29.066  28.032  1.00  0.00    -0.167 F 
ATOM     28  F   UNL A   1      34.345  30.808  26.858  1.00  0.00    -0.167 F 
ENDBRANCH  25  26
ENDBRANCH  24  25
ENDBRANCH  16  19
ENDBRANCH   7  15
ENDBRANCH   6   7
ENDBRANCH   3   6
ENDBRANCH   1   2
BRANCH   1  29
ATOM     29  C   UNL A   1      36.403  21.757  25.391  1.00  0.00     0.042 C 
BRANCH  29  30
ATOM     30  C   UNL A   1      37.811  21.984  24.849  1.00  0.00     0.118 C 
BRANCH  30  31
ATOM     31  N   UNL A   1      38.878  21.543  25.753  1.00  0.00    -0.352 N 
ATOM     32  C   UNL A   1      39.551  22.313  26.688  1.00  0.00     0.251 C 
ATOM     33  H   UNL A   1      39.146  20.598  25.690  1.00  0.00     0.163 HD
ATOM     34  O   UNL A   1      40.337  21.849  27.507  1.00  0.00    -0.269 OA
BRANCH  32  35
ATOM     35  C   UNL A   1      39.338  23.763  26.612  1.00  0.00     0.039 A 
ATOM     36  C   UNL A   1      40.209  24.510  25.811  1.00  0.00     0.014 A 
ATOM     37  C   UNL A   1      38.625  24.327  27.668  1.00  0.00     0.014 A 
ATOM     38  C   UNL A   1      40.549  25.797  26.214  1.00  0.00     0.010 A 
ATOM     39  C   UNL A   1      39.001  25.586  28.089  1.00  0.00     0.010 A 
ATOM     40  C   UNL A   1      40.031  26.277  27.419  1.00  0.00    -0.014 A 
BRANCH  40  41
ATOM     41  C   UNL A   1      40.635  27.365  28.187  1.00  0.00     0.031 A 
ATOM     42  C   UNL A   1      39.859  28.592  28.483  1.00  0.00     0.074 A 
ATOM     43  C   UNL A   1      41.816  27.175  28.823  1.00  0.00     0.049 A 
ATOM     44  N   UNL A   1      40.364  29.649  29.025  1.00  0.00    -0.248 NA
ATOM     45  C   UNL A   1      38.457  28.758  28.112  1.00  0.00     0.031 C 
ATOM     46  C   UNL A   1      42.284  27.895  30.007  1.00  0.00     0.029 A 
ATOM     47  N   UNL A   1      42.938  26.443  28.423  1.00  0.00    -0.354 N 
ATOM     48  C   UNL A   1      39.323  30.469  29.380  1.00  0.00     0.074 A 
ATOM     49  C   UNL A   1      38.184  29.944  28.666  1.00  0.00     0.031 C 
ATOM     50  C   UNL A   1      43.621  27.824  30.057  1.00  0.00     0.029 A 
ATOM     51  C   UNL A   1      44.064  27.187  28.834  1.00  0.00     0.049 A 
ATOM     52  H   UNL A   1      42.942  25.581  27.948  1.00  0.00     0.167 HD
ATOM     53  C   UNL A   1      39.522  31.419  30.338  1.00  0.00     0.031 A 
ATOM     54  C   UNL A   1      45.039  27.662  28.003  1.00  0.00     0.031 A 
ATOM     55  C   UNL A   1      40.940  31.586  30.667  1.00  0.00     0.049 A 
ATOM     56  C   UNL A   1      45.249  29.164  28.080  1.00  0.00     0.074 A 
ATOM     57  C   UNL A   1      41.742  31.351  31.771  1.00  0.00     0.029 A 
ATOM     58  N   UNL A   1      41.808  31.907  29.636  1.00  0.00    -0.354 N 
ATOM     59  N   UNL A   1      44.633  29.952  28.914  1.00  0.00    -0.248 NA
ATOM     60  C   UNL A   1      46.080  29.909  27.130  1.00  0.00     0.031 C 
ATOM     61  C   UNL A   1      43.102  31.562  31.387  1.00  0.00     0.029 A 
ATOM     62  C   UNL A   1      43.118  31.942  30.058  1.00  0.00     0.049 A 
ATOM     63  H   UNL A   1      41.521  32.090  28.712  1.00  0.00     0.167 HD
ATOM     64  C   UNL A   1      44.838  31.256  28.541  1.00  0.00     0.074 A 
ATOM     65  C   UNL A   1      45.792  31.183  27.451  1.00  0.00     0.031 C 
ATOM     66  C   UNL A   1      44.139  32.291  29.086  1.00  0.00     0.031 A 
BRANCH  53  67
ATOM     67  C   UNL A   1      38.417  32.117  31.106  1.00  0.00    -0.014 A 
ATOM     68  C   UNL A   1      37.926  31.543  32.298  1.00  0.00     0.010 A 
ATOM     69  C   UNL A   1      37.760  33.287  30.677  1.00  0.00     0.010 A 
ATOM     70  C   UNL A   1      36.819  32.073  32.984  1.00  0.00     0.020 A 
ATOM     71  C   UNL A   1      36.667  33.838  31.358  1.00  0.00     0.020 A 
ATOM     72  C   UNL A   1      36.188  33.216  32.499  1.00  0.00     0.054 A 
BRANCH  72  73
ATOM     73  S   UNL A   1      34.727  33.865  33.347  1.00  0.00     0.124 S 
ATOM     74  O   UNL A   1      35.108  33.752  34.752  1.00  0.00    -0.237 OA
ATOM     75  O   UNL A   1      34.634  35.223  32.823  1.00  0.00    -0.237 OA
ATOM     76  O   UNL A   1      33.654  32.965  32.926  1.00  0.00    -0.744 OA
ENDBRANCH  72  73
ENDBRANCH  53  67
BRANCH  54  77
ATOM     77  C   UNL A   1      45.243  26.841  26.780  1.00  0.00    -0.014 A 
ATOM     78  C   UNL A   1      46.266  25.873  26.826  1.00  0.00     0.010 A 
ATOM     79  C   UNL A   1      44.197  26.700  25.851  1.00  0.00     0.010 A 
ATOM     80  C   UNL A   1      46.135  24.684  26.112  1.00  0.00     0.020 A 
ATOM     81  C   UNL A   1      44.067  25.507  25.132  1.00  0.00     0.020 A 
ATOM     82  C   UNL A   1      44.995  24.482  25.332  1.00  0.00     0.054 A 
BRANCH  82  83
ATOM     83  S   UNL A   1      44.613  22.779  24.825  1.00  0.00     0.124 S 
ATOM     84  O   UNL A   1      45.678  22.486  23.873  1.00  0.00    -0.237 OA
ATOM     85  O   UNL A   1      44.691  22.073  26.103  1.00  0.00    -0.237 OA
ATOM     86  O   UNL A   1      43.271  22.888  24.263  1.00  0.00    -0.744 OA
ENDBRANCH  82  83
ENDBRANCH  54  77
BRANCH  66  87
ATOM     87  C   UNL A   1      44.293  33.730  28.664  1.00  0.00    -0.014 A 
ATOM     88  C   UNL A   1      44.826  34.714  29.511  1.00  0.00     0.010 A 
ATOM     89  C   UNL A   1      43.775  34.159  27.420  1.00  0.00     0.010 A 
ATOM     90  C   UNL A   1      44.878  36.059  29.112  1.00  0.00     0.020 A 
ATOM     91  C   UNL A   1      43.806  35.497  27.020  1.00  0.00     0.020 A 
ATOM     92  C   UNL A   1      44.370  36.441  27.867  1.00  0.00     0.054 A 
BRANCH  92  93
ATOM     93  S   UNL A   1      44.400  38.188  27.390  1.00  0.00     0.124 S 
ATOM     94  O   UNL A   1      44.486  38.869  28.679  1.00  0.00    -0.237 OA
ATOM     95  O   UNL A   1      45.602  38.256  26.564  1.00  0.00    -0.237 OA
ATOM     96  O   UNL A   1      43.141  38.378  26.673  1.00  0.00    -0.744 OA
ENDBRANCH  92  93
ENDBRANCH  66  87
ENDBRANCH  40  41
ENDBRANCH  32  35
ENDBRANCH  30  31
ENDBRANCH  29  30
ENDBRANCH   1  29
TORSDOF 19
ENDMDL
