MODEL 1
REMARK VINA RESULT:      -9.2      0.000      0.000
REMARK SMILES O=C(NCCCNC(=O)c1ccccc1NCCCO)c1ccc(-c2c3nc(c(-c4ccc(S(=O)(=O)[O-])cc4)c4ccc([nH]4)c(-c4ccc(S(=O)(=O)[O-])cc4)c4nc(c(-c5ccc(S(=O)(=O)[O-])cc5)c5ccc2[nH]5)C=C4)C=C3)cc1
REMARK SMILES IDX 6 1 5 2 4 3 3 4 1 5 2 6 21 8 22 9 80 10 23 11 79 12 24 13
REMARK SMILES IDX 25 14 26 15 73 16 27 17 78 18 72 19 74 20 28 21 77 22 71 23
REMARK SMILES IDX 70 24 29 26 59 27 40 28 58 29 41 30 44 31 57 32 75 33 42 34
REMARK SMILES IDX 43 35 56 37 76 38 45 39 30 40 31 41 39 42 32 43 38 44 33 45
REMARK SMILES IDX 34 46 35 47 36 48 37 49 60 50 61 51 69 52 62 53 68 54 63 55
REMARK SMILES IDX 64 56 65 57 66 58 67 59 46 60 47 61 55 62 48 63 54 64 49 65
REMARK SMILES IDX 50 66 51 67 52 68 53 69 7 70 8 71 9 73 10 74 11 75 15 76
REMARK SMILES IDX 12 77 14 78 13 79 16 80 17 82 18 83 19 84 20 85
REMARK H PARENT 3 7 74 25 44 36 7 72 16 81 20 86
REMARK Flexibility Score: inf
ROOT
ATOM      1  C   UNL A   1      36.016  32.671  30.262  1.00  0.00     0.118 C 
ENDROOT
BRANCH   1   2
ATOM      2  C   UNL A   1      34.707  33.098  29.630  1.00  0.00     0.042 C 
BRANCH   2   3
ATOM      3  C   UNL A   1      34.655  32.927  28.120  1.00  0.00     0.118 C 
BRANCH   3   4
ATOM      4  N   UNL A   1      33.882  31.766  27.695  1.00  0.00    -0.352 N 
ATOM      5  O   UNL A   1      33.471  29.675  26.988  1.00  0.00    -0.269 OA
ATOM      6  C   UNL A   1      34.257  30.454  27.515  1.00  0.00     0.251 C 
ATOM      7  H   UNL A   1      32.934  31.952  27.505  1.00  0.00     0.163 HD
BRANCH   6   8
ATOM      8  C   UNL A   1      35.603  29.993  27.924  1.00  0.00     0.039 A 
ATOM      9  C   UNL A   1      35.818  29.416  29.177  1.00  0.00     0.014 A 
ATOM     10  C   UNL A   1      36.669  30.125  27.030  1.00  0.00     0.014 A 
ATOM     11  C   UNL A   1      37.111  29.147  29.608  1.00  0.00     0.010 A 
ATOM     12  C   UNL A   1      37.957  29.751  27.424  1.00  0.00     0.010 A 
ATOM     13  C   UNL A   1      38.195  29.297  28.732  1.00  0.00    -0.014 A 
BRANCH  13  14
ATOM     14  C   UNL A   1      39.563  28.927  29.172  1.00  0.00     0.031 A 
ATOM     15  C   UNL A   1      40.426  29.910  29.913  1.00  0.00     0.074 A 
ATOM     16  C   UNL A   1      40.034  27.698  28.881  1.00  0.00     0.049 A 
ATOM     17  N   UNL A   1      41.671  29.787  30.296  1.00  0.00    -0.248 NA
ATOM     18  C   UNL A   1      39.815  31.202  30.260  1.00  0.00     0.031 C 
ATOM     19  C   UNL A   1      39.284  26.652  28.180  1.00  0.00     0.029 A 
ATOM     20  N   UNL A   1      41.253  27.121  29.130  1.00  0.00    -0.354 N 
ATOM     21  C   UNL A   1      42.005  30.995  30.898  1.00  0.00     0.074 A 
ATOM     22  C   UNL A   1      40.835  31.844  30.812  1.00  0.00     0.031 C 
ATOM     23  C   UNL A   1      40.052  25.560  28.069  1.00  0.00     0.029 A 
ATOM     24  C   UNL A   1      41.371  25.851  28.620  1.00  0.00     0.049 A 
ATOM     25  H   UNL A   1      41.974  27.574  29.626  1.00  0.00     0.167 HD
ATOM     26  C   UNL A   1      43.180  31.363  31.466  1.00  0.00     0.031 A 
ATOM     27  C   UNL A   1      42.429  25.023  28.558  1.00  0.00     0.031 A 
ATOM     28  C   UNL A   1      44.340  30.512  31.531  1.00  0.00     0.049 A 
ATOM     29  C   UNL A   1      43.737  25.464  29.146  1.00  0.00     0.074 A 
ATOM     30  C   UNL A   1      45.570  30.777  32.107  1.00  0.00     0.029 A 
ATOM     31  N   UNL A   1      44.419  29.235  30.991  1.00  0.00    -0.354 N 
ATOM     32  N   UNL A   1      44.028  26.601  29.732  1.00  0.00    -0.248 NA
ATOM     33  C   UNL A   1      44.855  24.517  29.071  1.00  0.00     0.031 C 
ATOM     34  C   UNL A   1      46.412  29.688  31.860  1.00  0.00     0.029 A 
ATOM     35  C   UNL A   1      45.684  28.711  31.195  1.00  0.00     0.049 A 
ATOM     36  H   UNL A   1      43.684  28.771  30.529  1.00  0.00     0.167 HD
ATOM     37  C   UNL A   1      45.356  26.495  30.125  1.00  0.00     0.074 A 
ATOM     38  C   UNL A   1      45.810  25.182  29.709  1.00  0.00     0.031 C 
ATOM     39  C   UNL A   1      46.123  27.401  30.780  1.00  0.00     0.031 A 
BRANCH  26  40
ATOM     40  C   UNL A   1      43.281  32.767  32.008  1.00  0.00    -0.014 A 
ATOM     41  C   UNL A   1      43.790  33.824  31.231  1.00  0.00     0.010 A 
ATOM     42  C   UNL A   1      42.853  33.034  33.322  1.00  0.00     0.010 A 
ATOM     43  C   UNL A   1      43.935  35.101  31.781  1.00  0.00     0.020 A 
ATOM     44  C   UNL A   1      42.966  34.317  33.865  1.00  0.00     0.020 A 
ATOM     45  C   UNL A   1      43.534  35.337  33.099  1.00  0.00     0.054 A 
BRANCH  45  46
ATOM     46  S   UNL A   1      43.767  36.994  33.799  1.00  0.00     0.124 S 
ATOM     47  O   UNL A   1      43.874  37.814  32.596  1.00  0.00    -0.237 OA
ATOM     48  O   UNL A   1      42.548  37.186  34.582  1.00  0.00    -0.237 OA
ATOM     49  O   UNL A   1      44.994  36.871  34.581  1.00  0.00    -0.744 OA
ENDBRANCH  45  46
ENDBRANCH  26  40
BRANCH  27  50
ATOM     50  C   UNL A   1      42.274  23.704  27.888  1.00  0.00    -0.014 A 
ATOM     51  C   UNL A   1      42.961  23.419  26.697  1.00  0.00     0.010 A 
ATOM     52  C   UNL A   1      41.506  22.692  28.496  1.00  0.00     0.010 A 
ATOM     53  C   UNL A   1      42.892  22.141  26.132  1.00  0.00     0.020 A 
ATOM     54  C   UNL A   1      41.458  21.407  27.951  1.00  0.00     0.020 A 
ATOM     55  C   UNL A   1      42.151  21.141  26.769  1.00  0.00     0.054 A 
BRANCH  55  56
ATOM     56  S   UNL A   1      42.162  19.468  26.069  1.00  0.00     0.124 S 
ATOM     57  O   UNL A   1      40.744  19.237  25.811  1.00  0.00    -0.237 OA
ATOM     58  O   UNL A   1      43.004  19.628  24.885  1.00  0.00    -0.237 OA
ATOM     59  O   UNL A   1      42.746  18.655  27.133  1.00  0.00    -0.744 OA
ENDBRANCH  55  56
ENDBRANCH  27  50
BRANCH  39  60
ATOM     60  C   UNL A   1      47.525  26.996  31.145  1.00  0.00    -0.014 A 
ATOM     61  C   UNL A   1      47.801  26.289  32.328  1.00  0.00     0.010 A 
ATOM     62  C   UNL A   1      48.568  27.243  30.234  1.00  0.00     0.010 A 
ATOM     63  C   UNL A   1      49.098  25.839  32.593  1.00  0.00     0.020 A 
ATOM     64  C   UNL A   1      49.858  26.772  30.481  1.00  0.00     0.020 A 
ATOM     65  C   UNL A   1      50.117  26.076  31.662  1.00  0.00     0.054 A 
BRANCH  65  66
ATOM     66  S   UNL A   1      51.769  25.400  31.985  1.00  0.00     0.124 S 
ATOM     67  O   UNL A   1      52.152  26.103  33.207  1.00  0.00    -0.237 OA
ATOM     68  O   UNL A   1      51.506  23.971  32.137  1.00  0.00    -0.237 OA
ATOM     69  O   UNL A   1      52.532  25.764  30.793  1.00  0.00    -0.744 OA
ENDBRANCH  65  66
ENDBRANCH  39  60
ENDBRANCH  13  14
ENDBRANCH   6   8
ENDBRANCH   3   4
ENDBRANCH   2   3
ENDBRANCH   1   2
BRANCH   1  70
ATOM     70  N   UNL A   1      37.083  33.645  30.174  1.00  0.00    -0.352 N 
ATOM     71  C   UNL A   1      37.815  34.190  31.199  1.00  0.00     0.253 C 
ATOM     72  H   UNL A   1      37.311  33.955  29.268  1.00  0.00     0.163 HD
ATOM     73  O   UNL A   1      38.742  34.954  30.938  1.00  0.00    -0.269 OA
BRANCH  71  74
ATOM     74  C   UNL A   1      37.444  33.940  32.613  1.00  0.00     0.062 A 
ATOM     75  C   UNL A   1      38.327  33.078  33.292  1.00  0.00     0.016 A 
ATOM     76  C   UNL A   1      36.307  34.494  33.255  1.00  0.00     0.047 A 
ATOM     77  C   UNL A   1      38.129  32.779  34.632  1.00  0.00     0.001 A 
ATOM     78  C   UNL A   1      36.166  34.198  34.621  1.00  0.00     0.026 A 
ATOM     79  C   UNL A   1      37.054  33.348  35.299  1.00  0.00     0.002 A 
BRANCH  76  80
ATOM     80  N   UNL A   1      35.412  35.318  32.584  1.00  0.00    -0.384 N 
ATOM     81  H   UNL A   1      35.792  35.902  31.887  1.00  0.00     0.160 HD
BRANCH  80  82
ATOM     82  C   UNL A   1      33.974  35.413  32.796  1.00  0.00     0.115 C 
BRANCH  82  83
ATOM     83  C   UNL A   1      33.219  35.841  31.532  1.00  0.00     0.049 C 
BRANCH  83  84
ATOM     84  C   UNL A   1      33.375  37.306  31.127  1.00  0.00     0.158 C 
BRANCH  84  85
ATOM     85  O   UNL A   1      34.159  38.021  32.071  1.00  0.00    -0.396 OA
ATOM     86  H   UNL A   1      35.080  37.724  32.016  1.00  0.00     0.210 HD
ENDBRANCH  84  85
ENDBRANCH  83  84
ENDBRANCH  82  83
ENDBRANCH  80  82
ENDBRANCH  76  80
ENDBRANCH  71  74
ENDBRANCH   1  70
TORSDOF 18
ENDMDL
MODEL 2
REMARK VINA RESULT:      -9.2      3.428     10.507
REMARK SMILES O=C(NCCCNC(=O)c1ccccc1NCCCO)c1ccc(-c2c3nc(c(-c4ccc(S(=O)(=O)[O-])cc4)c4ccc([nH]4)c(-c4ccc(S(=O)(=O)[O-])cc4)c4nc(c(-c5ccc(S(=O)(=O)[O-])cc5)c5ccc2[nH]5)C=C4)C=C3)cc1
REMARK SMILES IDX 6 1 5 2 4 3 3 4 1 5 2 6 21 8 22 9 80 10 23 11 79 12 24 13
REMARK SMILES IDX 25 14 26 15 73 16 27 17 78 18 72 19 74 20 28 21 77 22 71 23
REMARK SMILES IDX 70 24 29 26 59 27 40 28 58 29 41 30 44 31 57 32 75 33 42 34
REMARK SMILES IDX 43 35 56 37 76 38 45 39 30 40 31 41 39 42 32 43 38 44 33 45
REMARK SMILES IDX 34 46 35 47 36 48 37 49 60 50 61 51 69 52 62 53 68 54 63 55
REMARK SMILES IDX 64 56 65 57 66 58 67 59 46 60 47 61 55 62 48 63 54 64 49 65
REMARK SMILES IDX 50 66 51 67 52 68 53 69 7 70 8 71 9 73 10 74 11 75 15 76
REMARK SMILES IDX 12 77 14 78 13 79 16 80 17 82 18 83 19 84 20 85
REMARK H PARENT 3 7 74 25 44 36 7 72 16 81 20 86
REMARK Flexibility Score: inf
ROOT
ATOM      1  C   UNL A   1      33.838  24.212  25.342  1.00  0.00     0.118 C 
ENDROOT
BRANCH   1   2
ATOM      2  C   UNL A   1      34.906  23.437  26.088  1.00  0.00     0.042 C 
BRANCH   2   3
ATOM      3  C   UNL A   1      36.322  23.937  25.854  1.00  0.00     0.118 C 
BRANCH   3   4
ATOM      4  N   UNL A   1      37.327  22.884  25.924  1.00  0.00    -0.352 N 
ATOM      5  O   UNL A   1      39.354  21.941  26.135  1.00  0.00    -0.269 OA
ATOM      6  C   UNL A   1      38.646  22.924  26.315  1.00  0.00     0.251 C 
ATOM      7  H   UNL A   1      37.009  21.995  25.646  1.00  0.00     0.163 HD
BRANCH   6   8
ATOM      8  C   UNL A   1      39.214  24.151  26.920  1.00  0.00     0.039 A 
ATOM      9  C   UNL A   1      39.024  24.444  28.272  1.00  0.00     0.014 A 
ATOM     10  C   UNL A   1      39.968  25.017  26.123  1.00  0.00     0.014 A 
ATOM     11  C   UNL A   1      39.416  25.676  28.780  1.00  0.00     0.010 A 
ATOM     12  C   UNL A   1      40.458  26.209  26.664  1.00  0.00     0.010 A 
ATOM     13  C   UNL A   1      40.151  26.567  27.987  1.00  0.00    -0.014 A 
BRANCH  13  14
ATOM     14  C   UNL A   1      40.640  27.845  28.562  1.00  0.00     0.031 A 
ATOM     15  C   UNL A   1      42.053  27.975  29.059  1.00  0.00     0.074 A 
ATOM     16  C   UNL A   1      39.792  28.888  28.653  1.00  0.00     0.049 A 
ATOM     17  N   UNL A   1      42.622  28.984  29.667  1.00  0.00    -0.248 NA
ATOM     18  C   UNL A   1      42.939  26.819  28.855  1.00  0.00     0.031 C 
ATOM     19  C   UNL A   1      38.402  28.886  28.192  1.00  0.00     0.029 A 
ATOM     20  N   UNL A   1      39.969  30.146  29.170  1.00  0.00    -0.354 N 
ATOM     21  C   UNL A   1      43.921  28.575  29.950  1.00  0.00     0.074 A 
ATOM     22  C   UNL A   1      44.048  27.218  29.462  1.00  0.00     0.031 C 
ATOM     23  C   UNL A   1      37.858  30.087  28.431  1.00  0.00     0.029 A 
ATOM     24  C   UNL A   1      38.832  30.917  29.130  1.00  0.00     0.049 A 
ATOM     25  H   UNL A   1      40.827  30.465  29.534  1.00  0.00     0.167 HD
ATOM     26  C   UNL A   1      44.913  29.267  30.563  1.00  0.00     0.031 A 
ATOM     27  C   UNL A   1      38.579  32.138  29.637  1.00  0.00     0.031 A 
ATOM     28  C   UNL A   1      44.765  30.612  31.056  1.00  0.00     0.049 A 
ATOM     29  C   UNL A   1      39.672  32.870  30.357  1.00  0.00     0.074 A 
ATOM     30  C   UNL A   1      45.714  31.412  31.668  1.00  0.00     0.029 A 
ATOM     31  N   UNL A   1      43.592  31.352  31.005  1.00  0.00    -0.354 N 
ATOM     32  N   UNL A   1      40.901  32.477  30.595  1.00  0.00    -0.248 NA
ATOM     33  C   UNL A   1      39.352  34.206  30.873  1.00  0.00     0.031 C 
ATOM     34  C   UNL A   1      45.098  32.610  32.044  1.00  0.00     0.029 A 
ATOM     35  C   UNL A   1      43.784  32.588  31.599  1.00  0.00     0.049 A 
ATOM     36  H   UNL A   1      42.746  31.044  30.606  1.00  0.00     0.167 HD
ATOM     37  C   UNL A   1      41.512  33.531  31.262  1.00  0.00     0.074 A 
ATOM     38  C   UNL A   1      40.517  34.578  31.389  1.00  0.00     0.031 C 
ATOM     39  C   UNL A   1      42.786  33.623  31.716  1.00  0.00     0.031 A 
BRANCH  26  40
ATOM     40  C   UNL A   1      46.223  28.554  30.785  1.00  0.00    -0.014 A 
ATOM     41  C   UNL A   1      47.263  28.608  29.837  1.00  0.00     0.010 A 
ATOM     42  C   UNL A   1      46.420  27.818  31.968  1.00  0.00     0.010 A 
ATOM     43  C   UNL A   1      48.442  27.883  30.038  1.00  0.00     0.020 A 
ATOM     44  C   UNL A   1      47.610  27.118  32.187  1.00  0.00     0.020 A 
ATOM     45  C   UNL A   1      48.602  27.132  31.206  1.00  0.00     0.054 A 
BRANCH  45  46
ATOM     46  S   UNL A   1      50.126  26.173  31.423  1.00  0.00     0.124 S 
ATOM     47  O   UNL A   1      50.108  25.312  30.243  1.00  0.00    -0.237 OA
ATOM     48  O   UNL A   1      51.158  27.206  31.429  1.00  0.00    -0.237 OA
ATOM     49  O   UNL A   1      49.927  25.488  32.697  1.00  0.00    -0.744 OA
ENDBRANCH  45  46
ENDBRANCH  26  40
BRANCH  27  50
ATOM     50  C   UNL A   1      37.215  32.712  29.484  1.00  0.00    -0.014 A 
ATOM     51  C   UNL A   1      36.304  32.691  30.553  1.00  0.00     0.010 A 
ATOM     52  C   UNL A   1      36.859  33.371  28.291  1.00  0.00     0.010 A 
ATOM     53  C   UNL A   1      35.065  33.327  30.434  1.00  0.00     0.020 A 
ATOM     54  C   UNL A   1      35.633  34.032  28.180  1.00  0.00     0.020 A 
ATOM     55  C   UNL A   1      34.742  34.003  29.254  1.00  0.00     0.054 A 
BRANCH  55  56
ATOM     56  S   UNL A   1      33.171  34.904  29.165  1.00  0.00     0.124 S 
ATOM     57  O   UNL A   1      32.706  34.842  30.548  1.00  0.00    -0.237 OA
ATOM     58  O   UNL A   1      33.591  36.223  28.696  1.00  0.00    -0.237 OA
ATOM     59  O   UNL A   1      32.385  34.132  28.205  1.00  0.00    -0.744 OA
ENDBRANCH  55  56
ENDBRANCH  27  50
BRANCH  39  60
ATOM     60  C   UNL A   1      43.210  34.921  32.350  1.00  0.00    -0.014 A 
ATOM     61  C   UNL A   1      43.722  35.981  31.582  1.00  0.00     0.010 A 
ATOM     62  C   UNL A   1      42.995  35.111  33.727  1.00  0.00     0.010 A 
ATOM     63  C   UNL A   1      44.013  37.209  32.184  1.00  0.00     0.020 A 
ATOM     64  C   UNL A   1      43.260  36.344  34.327  1.00  0.00     0.020 A 
ATOM     65  C   UNL A   1      43.771  37.384  33.552  1.00  0.00     0.054 A 
BRANCH  65  66
ATOM     66  S   UNL A   1      44.070  39.015  34.289  1.00  0.00     0.124 S 
ATOM     67  O   UNL A   1      44.209  38.688  35.705  1.00  0.00    -0.237 OA
ATOM     68  O   UNL A   1      45.294  39.450  33.619  1.00  0.00    -0.237 OA
ATOM     69  O   UNL A   1      42.872  39.777  33.940  1.00  0.00    -0.744 OA
ENDBRANCH  65  66
ENDBRANCH  39  60
ENDBRANCH  13  14
ENDBRANCH   6   8
ENDBRANCH   3   4
ENDBRANCH   2   3
ENDBRANCH   1   2
BRANCH   1  70
ATOM     70  N   UNL A   1      34.167  24.538  23.971  1.00  0.00    -0.352 N 
ATOM     71  C   UNL A   1      33.542  25.438  23.144  1.00  0.00     0.253 C 
ATOM     72  H   UNL A   1      34.933  24.056  23.584  1.00  0.00     0.163 HD
ATOM     73  O   UNL A   1      34.002  25.647  22.024  1.00  0.00    -0.269 OA
BRANCH  71  74
ATOM     74  C   UNL A   1      32.272  26.088  23.551  1.00  0.00     0.062 A 
ATOM     75  C   UNL A   1      31.119  25.362  23.194  1.00  0.00     0.016 A 
ATOM     76  C   UNL A   1      32.187  27.330  24.229  1.00  0.00     0.047 A 
ATOM     77  C   UNL A   1      29.858  25.827  23.540  1.00  0.00     0.001 A 
ATOM     78  C   UNL A   1      30.896  27.745  24.595  1.00  0.00     0.026 A 
ATOM     79  C   UNL A   1      29.748  27.014  24.250  1.00  0.00     0.002 A 
BRANCH  76  80
ATOM     80  N   UNL A   1      33.318  28.069  24.555  1.00  0.00    -0.384 N 
ATOM     81  H   UNL A   1      34.184  27.690  24.279  1.00  0.00     0.160 HD
BRANCH  80  82
ATOM     82  C   UNL A   1      33.363  29.343  25.260  1.00  0.00     0.115 C 
BRANCH  82  83
ATOM     83  C   UNL A   1      33.930  29.212  26.678  1.00  0.00     0.049 C 
BRANCH  83  84
ATOM     84  C   UNL A   1      34.300  30.522  27.372  1.00  0.00     0.158 C 
BRANCH  84  85
ATOM     85  O   UNL A   1      33.182  31.394  27.455  1.00  0.00    -0.396 OA
ATOM     86  H   UNL A   1      33.478  32.311  27.349  1.00  0.00     0.210 HD
ENDBRANCH  84  85
ENDBRANCH  83  84
ENDBRANCH  82  83
ENDBRANCH  80  82
ENDBRANCH  76  80
ENDBRANCH  71  74
ENDBRANCH   1  70
TORSDOF 18
ENDMDL
MODEL 3
REMARK VINA RESULT:      -9.1      1.813      2.363
REMARK SMILES O=C(NCCCNC(=O)c1ccccc1NCCCO)c1ccc(-c2c3nc(c(-c4ccc(S(=O)(=O)[O-])cc4)c4ccc([nH]4)c(-c4ccc(S(=O)(=O)[O-])cc4)c4nc(c(-c5ccc(S(=O)(=O)[O-])cc5)c5ccc2[nH]5)C=C4)C=C3)cc1
REMARK SMILES IDX 6 1 5 2 4 3 3 4 1 5 2 6 21 8 22 9 80 10 23 11 79 12 24 13
REMARK SMILES IDX 25 14 26 15 73 16 27 17 78 18 72 19 74 20 28 21 77 22 71 23
REMARK SMILES IDX 70 24 29 26 59 27 40 28 58 29 41 30 44 31 57 32 75 33 42 34
REMARK SMILES IDX 43 35 56 37 76 38 45 39 30 40 31 41 39 42 32 43 38 44 33 45
REMARK SMILES IDX 34 46 35 47 36 48 37 49 60 50 61 51 69 52 62 53 68 54 63 55
REMARK SMILES IDX 64 56 65 57 66 58 67 59 46 60 47 61 55 62 48 63 54 64 49 65
REMARK SMILES IDX 50 66 51 67 52 68 53 69 7 70 8 71 9 73 10 74 11 75 15 76
REMARK SMILES IDX 12 77 14 78 13 79 16 80 17 82 18 83 19 84 20 85
REMARK H PARENT 3 7 74 25 44 36 7 72 16 81 20 86
REMARK Flexibility Score: inf
ROOT
ATOM      1  C   UNL A   1      35.608  32.535  30.384  1.00  0.00     0.118 C 
ENDROOT
BRANCH   1   2
ATOM      2  C   UNL A   1      34.422  32.896  29.513  1.00  0.00     0.042 C 
BRANCH   2   3
ATOM      3  C   UNL A   1      34.676  32.762  28.020  1.00  0.00     0.118 C 
BRANCH   3   4
ATOM      4  N   UNL A   1      34.066  31.575  27.434  1.00  0.00    -0.352 N 
ATOM      5  O   UNL A   1      33.921  29.494  26.602  1.00  0.00    -0.269 OA
ATOM      6  C   UNL A   1      34.552  30.297  27.280  1.00  0.00     0.251 C 
ATOM      7  H   UNL A   1      33.153  31.710  27.090  1.00  0.00     0.163 HD
BRANCH   6   8
ATOM      8  C   UNL A   1      35.838  29.902  27.899  1.00  0.00     0.039 A 
ATOM      9  C   UNL A   1      35.882  29.343  29.177  1.00  0.00     0.014 A 
ATOM     10  C   UNL A   1      37.023  30.079  27.178  1.00  0.00     0.014 A 
ATOM     11  C   UNL A   1      37.104  29.137  29.806  1.00  0.00     0.010 A 
ATOM     12  C   UNL A   1      38.250  29.768  27.772  1.00  0.00     0.010 A 
ATOM     13  C   UNL A   1      38.302  29.333  29.106  1.00  0.00    -0.014 A 
BRANCH  13  14
ATOM     14  C   UNL A   1      39.601  29.030  29.758  1.00  0.00     0.031 A 
ATOM     15  C   UNL A   1      40.097  29.859  30.910  1.00  0.00     0.074 A 
ATOM     16  C   UNL A   1      40.345  28.008  29.290  1.00  0.00     0.049 A 
ATOM     17  N   UNL A   1      41.241  29.792  31.541  1.00  0.00    -0.248 NA
ATOM     18  C   UNL A   1      39.194  30.906  31.413  1.00  0.00     0.031 C 
ATOM     19  C   UNL A   1      39.963  27.123  28.187  1.00  0.00     0.029 A 
ATOM     20  N   UNL A   1      41.578  27.546  29.674  1.00  0.00    -0.354 N 
ATOM     21  C   UNL A   1      41.213  30.807  32.491  1.00  0.00     0.074 A 
ATOM     22  C   UNL A   1      39.943  31.487  32.340  1.00  0.00     0.031 C 
ATOM     23  C   UNL A   1      40.931  26.218  27.994  1.00  0.00     0.029 A 
ATOM     24  C   UNL A   1      42.034  26.504  28.904  1.00  0.00     0.049 A 
ATOM     25  H   UNL A   1      42.086  27.925  30.428  1.00  0.00     0.167 HD
ATOM     26  C   UNL A   1      42.160  31.142  33.401  1.00  0.00     0.031 A 
ATOM     27  C   UNL A   1      43.222  25.871  28.894  1.00  0.00     0.031 A 
ATOM     28  C   UNL A   1      43.424  30.464  33.529  1.00  0.00     0.049 A 
ATOM     29  C   UNL A   1      44.278  26.288  29.875  1.00  0.00     0.074 A 
ATOM     30  C   UNL A   1      44.442  30.707  34.435  1.00  0.00     0.029 A 
ATOM     31  N   UNL A   1      43.850  29.420  32.720  1.00  0.00    -0.354 N 
ATOM     32  N   UNL A   1      44.225  27.235  30.781  1.00  0.00    -0.248 NA
ATOM     33  C   UNL A   1      45.549  25.554  29.837  1.00  0.00     0.031 C 
ATOM     34  C   UNL A   1      45.508  29.854  34.133  1.00  0.00     0.029 A 
ATOM     35  C   UNL A   1      45.126  29.026  33.087  1.00  0.00     0.049 A 
ATOM     36  H   UNL A   1      43.323  29.018  31.992  1.00  0.00     0.167 HD
ATOM     37  C   UNL A   1      45.445  27.190  31.445  1.00  0.00     0.074 A 
ATOM     38  C   UNL A   1      46.214  26.123  30.834  1.00  0.00     0.031 C 
ATOM     39  C   UNL A   1      45.880  27.959  32.474  1.00  0.00     0.031 A 
BRANCH  26  40
ATOM     40  C   UNL A   1      41.882  32.330  34.288  1.00  0.00    -0.014 A 
ATOM     41  C   UNL A   1      41.234  32.190  35.529  1.00  0.00     0.010 A 
ATOM     42  C   UNL A   1      42.283  33.614  33.871  1.00  0.00     0.010 A 
ATOM     43  C   UNL A   1      40.929  33.317  36.300  1.00  0.00     0.020 A 
ATOM     44  C   UNL A   1      42.009  34.739  34.654  1.00  0.00     0.020 A 
ATOM     45  C   UNL A   1      41.307  34.585  35.851  1.00  0.00     0.054 A 
BRANCH  45  46
ATOM     46  S   UNL A   1      40.868  36.032  36.853  1.00  0.00     0.124 S 
ATOM     47  O   UNL A   1      40.382  35.408  38.081  1.00  0.00    -0.237 OA
ATOM     48  O   UNL A   1      42.140  36.739  36.971  1.00  0.00    -0.237 OA
ATOM     49  O   UNL A   1      39.851  36.711  36.055  1.00  0.00    -0.744 OA
ENDBRANCH  45  46
ENDBRANCH  26  40
BRANCH  27  50
ATOM     50  C   UNL A   1      43.456  24.794  27.896  1.00  0.00    -0.014 A 
ATOM     51  C   UNL A   1      44.063  25.079  26.662  1.00  0.00     0.010 A 
ATOM     52  C   UNL A   1      43.156  23.456  28.221  1.00  0.00     0.010 A 
ATOM     53  C   UNL A   1      44.375  24.044  25.775  1.00  0.00     0.020 A 
ATOM     54  C   UNL A   1      43.493  22.418  27.349  1.00  0.00     0.020 A 
ATOM     55  C   UNL A   1      44.099  22.721  26.129  1.00  0.00     0.054 A 
BRANCH  55  56
ATOM     56  S   UNL A   1      44.607  21.392  25.004  1.00  0.00     0.124 S 
ATOM     57  O   UNL A   1      44.518  22.045  23.702  1.00  0.00    -0.237 OA
ATOM     58  O   UNL A   1      45.958  21.085  25.469  1.00  0.00    -0.237 OA
ATOM     59  O   UNL A   1      43.621  20.341  25.246  1.00  0.00    -0.744 OA
ENDBRANCH  55  56
ENDBRANCH  27  50
BRANCH  39  60
ATOM     60  C   UNL A   1      47.233  27.649  33.055  1.00  0.00    -0.014 A 
ATOM     61  C   UNL A   1      47.396  26.682  34.062  1.00  0.00     0.010 A 
ATOM     62  C   UNL A   1      48.371  28.269  32.507  1.00  0.00     0.010 A 
ATOM     63  C   UNL A   1      48.675  26.344  34.512  1.00  0.00     0.020 A 
ATOM     64  C   UNL A   1      49.651  27.914  32.934  1.00  0.00     0.020 A 
ATOM     65  C   UNL A   1      49.796  26.957  33.938  1.00  0.00     0.054 A 
BRANCH  65  66
ATOM     66  S   UNL A   1      51.448  26.432  34.474  1.00  0.00     0.124 S 
ATOM     67  O   UNL A   1      52.247  26.671  33.274  1.00  0.00    -0.237 OA
ATOM     68  O   UNL A   1      51.718  27.325  35.598  1.00  0.00    -0.237 OA
ATOM     69  O   UNL A   1      51.266  25.027  34.831  1.00  0.00    -0.744 OA
ENDBRANCH  65  66
ENDBRANCH  39  60
ENDBRANCH  13  14
ENDBRANCH   6   8
ENDBRANCH   3   4
ENDBRANCH   2   3
ENDBRANCH   1   2
BRANCH   1  70
ATOM     70  N   UNL A   1      36.725  33.452  30.306  1.00  0.00    -0.352 N 
ATOM     71  C   UNL A   1      37.313  34.155  31.327  1.00  0.00     0.253 C 
ATOM     72  H   UNL A   1      37.110  33.589  29.410  1.00  0.00     0.163 HD
ATOM     73  O   UNL A   1      38.308  34.838  31.094  1.00  0.00    -0.269 OA
BRANCH  71  74
ATOM     74  C   UNL A   1      36.711  34.172  32.682  1.00  0.00     0.062 A 
ATOM     75  C   UNL A   1      37.372  33.346  33.612  1.00  0.00     0.016 A 
ATOM     76  C   UNL A   1      35.568  34.930  33.044  1.00  0.00     0.047 A 
ATOM     77  C   UNL A   1      36.944  33.286  34.931  1.00  0.00     0.001 A 
ATOM     78  C   UNL A   1      35.192  34.872  34.396  1.00  0.00     0.026 A 
ATOM     79  C   UNL A   1      35.860  34.058  35.324  1.00  0.00     0.002 A 
BRANCH  76  80
ATOM     80  N   UNL A   1      34.889  35.721  32.124  1.00  0.00    -0.384 N 
ATOM     81  H   UNL A   1      35.345  36.544  31.833  1.00  0.00     0.160 HD
BRANCH  80  82
ATOM     82  C   UNL A   1      33.578  35.467  31.544  1.00  0.00     0.115 C 
BRANCH  82  83
ATOM     83  C   UNL A   1      32.521  36.474  32.013  1.00  0.00     0.049 C 
BRANCH  83  84
ATOM     84  C   UNL A   1      31.314  35.882  32.739  1.00  0.00     0.158 C 
BRANCH  84  85
ATOM     85  O   UNL A   1      30.828  36.767  33.738  1.00  0.00    -0.396 OA
ATOM     86  H   UNL A   1      30.728  36.287  34.574  1.00  0.00     0.210 HD
ENDBRANCH  84  85
ENDBRANCH  83  84
ENDBRANCH  82  83
ENDBRANCH  80  82
ENDBRANCH  76  80
ENDBRANCH  71  74
ENDBRANCH   1  70
TORSDOF 18
ENDMDL
