MODEL 1
REMARK VINA RESULT:     -12.9      0.000      0.000
REMARK SMILES O=C(NCCCNC(=O)c1cccc2c1ccn2Cc1ccncc1)c1ccc(-c2c3nc(c(-c4ccc(S(=O)(=O)[O-])cc4)c4ccc([nH]4)c(-c4ccc(S(=O)(=O)[O-])cc4)c4nc(c(-c5ccc(S(=O)(=O)[O-])cc5)c5ccc2[nH]5)C=C4)C=C3)cc1
REMARK SMILES IDX 4 1 3 2 1 3 2 4 26 6 27 7 85 8 28 9 84 10 29 11 30 12 31 13
REMARK SMILES IDX 78 14 32 15 83 16 77 17 79 18 33 19 82 20 76 21 75 22 34 24
REMARK SMILES IDX 64 25 45 26 63 27 46 28 49 29 62 30 80 31 47 32 48 33 61 35
REMARK SMILES IDX 81 36 50 37 35 38 36 39 44 40 37 41 43 42 38 43 39 44 40 45
REMARK SMILES IDX 41 46 42 47 65 48 66 49 74 50 67 51 73 52 68 53 69 54 70 55
REMARK SMILES IDX 71 56 72 57 51 58 52 59 60 60 53 61 59 62 54 63 55 64 56 65
REMARK SMILES IDX 57 66 58 67 5 68 6 69 7 70 8 71 9 73 10 74 11 75 15 76 12 77
REMARK SMILES IDX 14 78 16 79 13 80 18 81 17 82 19 83 20 84 21 85 25 86 22 87
REMARK SMILES IDX 24 88 23 89
REMARK H PARENT 3 5 79 23 49 34 7 72
REMARK Flexibility Score: inf
ROOT
ATOM      1  C   UNL A   1      38.325  22.177  25.416  1.00  0.00     0.118 C 
ENDROOT
BRANCH   1   2
ATOM      2  N   UNL A   1      39.032  21.530  26.535  1.00  0.00    -0.352 N 
ATOM      3  O   UNL A   1      40.771  21.369  28.009  1.00  0.00    -0.269 OA
ATOM      4  C   UNL A   1      40.025  22.081  27.337  1.00  0.00     0.251 C 
ATOM      5  H   UNL A   1      38.772  20.603  26.739  1.00  0.00     0.163 HD
BRANCH   4   6
ATOM      6  C   UNL A   1      40.144  23.548  27.363  1.00  0.00     0.039 A 
ATOM      7  C   UNL A   1      39.069  24.424  27.208  1.00  0.00     0.014 A 
ATOM      8  C   UNL A   1      41.398  24.025  27.707  1.00  0.00     0.014 A 
ATOM      9  C   UNL A   1      39.276  25.771  27.510  1.00  0.00     0.010 A 
ATOM     10  C   UNL A   1      41.485  25.234  28.324  1.00  0.00     0.010 A 
ATOM     11  C   UNL A   1      40.490  26.163  28.108  1.00  0.00    -0.014 A 
BRANCH  11  12
ATOM     12  C   UNL A   1      40.747  27.511  28.603  1.00  0.00     0.031 A 
ATOM     13  C   UNL A   1      41.961  28.129  28.039  1.00  0.00     0.074 A 
ATOM     14  C   UNL A   1      39.897  28.206  29.396  1.00  0.00     0.049 A 
ATOM     15  N   UNL A   1      43.115  28.176  28.612  1.00  0.00    -0.248 NA
ATOM     16  C   UNL A   1      41.973  28.544  26.628  1.00  0.00     0.031 C 
ATOM     17  C   UNL A   1      38.545  27.838  29.855  1.00  0.00     0.029 A 
ATOM     18  N   UNL A   1      40.037  29.458  29.909  1.00  0.00    -0.354 N 
ATOM     19  C   UNL A   1      43.930  28.883  27.746  1.00  0.00     0.074 A 
ATOM     20  C   UNL A   1      43.259  28.871  26.471  1.00  0.00     0.031 C 
ATOM     21  C   UNL A   1      37.917  28.919  30.370  1.00  0.00     0.029 A 
ATOM     22  C   UNL A   1      38.881  29.995  30.469  1.00  0.00     0.049 A 
ATOM     23  H   UNL A   1      40.891  29.947  29.884  1.00  0.00     0.167 HD
ATOM     24  C   UNL A   1      44.937  29.659  28.234  1.00  0.00     0.031 A 
ATOM     25  C   UNL A   1      38.732  31.212  31.050  1.00  0.00     0.031 A 
ATOM     26  C   UNL A   1      45.177  29.384  29.633  1.00  0.00     0.049 A 
ATOM     27  C   UNL A   1      40.085  31.623  31.489  1.00  0.00     0.074 A 
ATOM     28  C   UNL A   1      45.535  28.262  30.354  1.00  0.00     0.029 A 
ATOM     29  N   UNL A   1      44.605  30.255  30.534  1.00  0.00    -0.354 N 
ATOM     30  N   UNL A   1      40.744  31.013  32.433  1.00  0.00    -0.248 NA
ATOM     31  C   UNL A   1      40.887  32.421  30.578  1.00  0.00     0.031 C 
ATOM     32  C   UNL A   1      44.763  28.329  31.550  1.00  0.00     0.029 A 
ATOM     33  C   UNL A   1      44.047  29.528  31.554  1.00  0.00     0.049 A 
ATOM     34  H   UNL A   1      44.597  31.237  30.457  1.00  0.00     0.167 HD
ATOM     35  C   UNL A   1      42.050  30.967  31.971  1.00  0.00     0.074 A 
ATOM     36  C   UNL A   1      42.096  31.945  30.882  1.00  0.00     0.031 C 
ATOM     37  C   UNL A   1      42.887  29.948  32.324  1.00  0.00     0.031 A 
BRANCH  24  38
ATOM     38  C   UNL A   1      45.404  30.929  27.578  1.00  0.00    -0.014 A 
ATOM     39  C   UNL A   1      44.594  32.075  27.438  1.00  0.00     0.010 A 
ATOM     40  C   UNL A   1      46.776  31.079  27.292  1.00  0.00     0.010 A 
ATOM     41  C   UNL A   1      45.109  33.298  27.011  1.00  0.00     0.020 A 
ATOM     42  C   UNL A   1      47.312  32.313  26.904  1.00  0.00     0.020 A 
ATOM     43  C   UNL A   1      46.468  33.412  26.752  1.00  0.00     0.054 A 
BRANCH  43  44
ATOM     44  S   UNL A   1      47.105  35.027  26.253  1.00  0.00     0.124 S 
ATOM     45  O   UNL A   1      47.788  34.703  25.003  1.00  0.00    -0.237 OA
ATOM     46  O   UNL A   1      45.885  35.815  26.120  1.00  0.00    -0.237 OA
ATOM     47  O   UNL A   1      47.977  35.408  27.361  1.00  0.00    -0.744 OA
ENDBRANCH  43  44
ENDBRANCH  24  38
BRANCH  25  48
ATOM     48  C   UNL A   1      37.647  32.203  30.820  1.00  0.00    -0.014 A 
ATOM     49  C   UNL A   1      36.344  31.953  31.291  1.00  0.00     0.010 A 
ATOM     50  C   UNL A   1      37.812  33.213  29.847  1.00  0.00     0.010 A 
ATOM     51  C   UNL A   1      35.234  32.598  30.728  1.00  0.00     0.020 A 
ATOM     52  C   UNL A   1      36.703  33.861  29.278  1.00  0.00     0.020 A 
ATOM     53  C   UNL A   1      35.417  33.513  29.691  1.00  0.00     0.054 A 
BRANCH  53  54
ATOM     54  S   UNL A   1      33.949  34.148  28.829  1.00  0.00     0.124 S 
ATOM     55  O   UNL A   1      34.511  35.235  28.033  1.00  0.00    -0.237 OA
ATOM     56  O   UNL A   1      33.497  32.985  28.069  1.00  0.00    -0.237 OA
ATOM     57  O   UNL A   1      33.060  34.562  29.913  1.00  0.00    -0.744 OA
ENDBRANCH  53  54
ENDBRANCH  25  48
BRANCH  37  58
ATOM     58  C   UNL A   1      42.495  29.044  33.479  1.00  0.00    -0.014 A 
ATOM     59  C   UNL A   1      43.048  29.348  34.737  1.00  0.00     0.010 A 
ATOM     60  C   UNL A   1      41.766  27.845  33.346  1.00  0.00     0.010 A 
ATOM     61  C   UNL A   1      42.920  28.473  35.817  1.00  0.00     0.020 A 
ATOM     62  C   UNL A   1      41.608  26.971  34.438  1.00  0.00     0.020 A 
ATOM     63  C   UNL A   1      42.209  27.283  35.660  1.00  0.00     0.054 A 
BRANCH  63  64
ATOM     64  S   UNL A   1      42.112  26.161  37.083  1.00  0.00     0.124 S 
ATOM     65  O   UNL A   1      40.729  26.332  37.521  1.00  0.00    -0.237 OA
ATOM     66  O   UNL A   1      42.418  24.860  36.488  1.00  0.00    -0.237 OA
ATOM     67  O   UNL A   1      43.123  26.668  38.008  1.00  0.00    -0.744 OA
ENDBRANCH  63  64
ENDBRANCH  37  58
ENDBRANCH  11  12
ENDBRANCH   4   6
ENDBRANCH   1   2
BRANCH   1  68
ATOM     68  C   UNL A   1      37.240  21.325  24.788  1.00  0.00     0.042 C 
BRANCH  68  69
ATOM     69  C   UNL A   1      36.060  21.084  25.727  1.00  0.00     0.118 C 
BRANCH  69  70
ATOM     70  N   UNL A   1      34.935  20.384  25.115  1.00  0.00    -0.352 N 
ATOM     71  C   UNL A   1      33.834  20.876  24.451  1.00  0.00     0.251 C 
ATOM     72  H   UNL A   1      34.969  19.403  25.189  1.00  0.00     0.163 HD
ATOM     73  O   UNL A   1      32.974  20.103  24.041  1.00  0.00    -0.269 OA
BRANCH  71  74
ATOM     74  C   UNL A   1      33.686  22.330  24.246  1.00  0.00     0.049 A 
ATOM     75  C   UNL A   1      34.265  22.952  23.131  1.00  0.00     0.014 A 
ATOM     76  C   UNL A   1      32.959  23.101  25.179  1.00  0.00     0.012 A 
ATOM     77  C   UNL A   1      34.255  24.336  23.015  1.00  0.00     0.003 A 
ATOM     78  C   UNL A   1      32.912  24.493  25.010  1.00  0.00     0.049 A 
ATOM     79  C   UNL A   1      32.228  22.798  26.362  1.00  0.00     0.029 A 
ATOM     80  C   UNL A   1      33.591  25.129  23.955  1.00  0.00     0.027 A 
ATOM     81  N   UNL A   1      32.123  24.995  26.032  1.00  0.00    -0.343 N 
ATOM     82  C   UNL A   1      31.783  23.982  26.895  1.00  0.00     0.087 A 
BRANCH  81  83
ATOM     83  C   UNL A   1      31.745  26.393  26.227  1.00  0.00     0.157 C 
BRANCH  83  84
ATOM     84  C   UNL A   1      30.797  26.895  25.161  1.00  0.00    -0.025 A 
ATOM     85  C   UNL A   1      29.655  26.167  24.804  1.00  0.00     0.025 A 
ATOM     86  C   UNL A   1      31.018  28.116  24.518  1.00  0.00     0.025 A 
ATOM     87  C   UNL A   1      28.810  26.669  23.826  1.00  0.00     0.111 A 
ATOM     88  C   UNL A   1      30.104  28.545  23.562  1.00  0.00     0.111 A 
ATOM     89  N   UNL A   1      29.004  27.850  23.204  1.00  0.00    -0.265 NA
ENDBRANCH  83  84
ENDBRANCH  81  83
ENDBRANCH  71  74
ENDBRANCH  69  70
ENDBRANCH  68  69
ENDBRANCH   1  68
TORSDOF 15
ENDMDL
MODEL 2
REMARK VINA RESULT:     -12.9      1.613      2.092
REMARK SMILES O=C(NCCCNC(=O)c1cccc2c1ccn2Cc1ccncc1)c1ccc(-c2c3nc(c(-c4ccc(S(=O)(=O)[O-])cc4)c4ccc([nH]4)c(-c4ccc(S(=O)(=O)[O-])cc4)c4nc(c(-c5ccc(S(=O)(=O)[O-])cc5)c5ccc2[nH]5)C=C4)C=C3)cc1
REMARK SMILES IDX 4 1 3 2 1 3 2 4 26 6 27 7 85 8 28 9 84 10 29 11 30 12 31 13
REMARK SMILES IDX 78 14 32 15 83 16 77 17 79 18 33 19 82 20 76 21 75 22 34 24
REMARK SMILES IDX 64 25 45 26 63 27 46 28 49 29 62 30 80 31 47 32 48 33 61 35
REMARK SMILES IDX 81 36 50 37 35 38 36 39 44 40 37 41 43 42 38 43 39 44 40 45
REMARK SMILES IDX 41 46 42 47 65 48 66 49 74 50 67 51 73 52 68 53 69 54 70 55
REMARK SMILES IDX 71 56 72 57 51 58 52 59 60 60 53 61 59 62 54 63 55 64 56 65
REMARK SMILES IDX 57 66 58 67 5 68 6 69 7 70 8 71 9 73 10 74 11 75 15 76 12 77
REMARK SMILES IDX 14 78 16 79 13 80 18 81 17 82 19 83 20 84 21 85 25 86 22 87
REMARK SMILES IDX 24 88 23 89
REMARK H PARENT 3 5 79 23 49 34 7 72
REMARK Flexibility Score: inf
ROOT
ATOM      1  C   UNL A   1      39.434  22.777  26.728  1.00  0.00     0.118 C 
ENDROOT
BRANCH   1   2
ATOM      2  N   UNL A   1      40.766  22.144  26.714  1.00  0.00    -0.352 N 
ATOM      3  O   UNL A   1      42.999  22.136  26.230  1.00  0.00    -0.269 OA
ATOM      4  C   UNL A   1      41.996  22.771  26.557  1.00  0.00     0.251 C 
ATOM      5  H   UNL A   1      40.786  21.167  26.830  1.00  0.00     0.163 HD
BRANCH   4   6
ATOM      6  C   UNL A   1      42.060  24.221  26.806  1.00  0.00     0.039 A 
ATOM      7  C   UNL A   1      41.696  25.193  25.873  1.00  0.00     0.014 A 
ATOM      8  C   UNL A   1      42.370  24.575  28.108  1.00  0.00     0.014 A 
ATOM      9  C   UNL A   1      41.558  26.507  26.321  1.00  0.00     0.010 A 
ATOM     10  C   UNL A   1      41.896  25.755  28.590  1.00  0.00     0.010 A 
ATOM     11  C   UNL A   1      41.625  26.775  27.702  1.00  0.00    -0.014 A 
BRANCH  11  12
ATOM     12  C   UNL A   1      41.341  28.081  28.285  1.00  0.00     0.031 A 
ATOM     13  C   UNL A   1      42.351  29.106  27.962  1.00  0.00     0.074 A 
ATOM     14  C   UNL A   1      40.200  28.389  28.946  1.00  0.00     0.049 A 
ATOM     15  N   UNL A   1      43.323  29.469  28.726  1.00  0.00    -0.248 NA
ATOM     16  C   UNL A   1      42.435  29.633  26.591  1.00  0.00     0.031 C 
ATOM     17  C   UNL A   1      38.996  27.564  29.152  1.00  0.00     0.029 A 
ATOM     18  N   UNL A   1      39.838  29.565  29.523  1.00  0.00    -0.354 N 
ATOM     19  C   UNL A   1      43.977  30.478  28.041  1.00  0.00     0.074 A 
ATOM     20  C   UNL A   1      43.547  30.369  26.670  1.00  0.00     0.031 C 
ATOM     21  C   UNL A   1      37.974  28.332  29.592  1.00  0.00     0.029 A 
ATOM     22  C   UNL A   1      38.499  29.648  29.896  1.00  0.00     0.049 A 
ATOM     23  H   UNL A   1      40.473  30.304  29.664  1.00  0.00     0.167 HD
ATOM     24  C   UNL A   1      44.583  31.488  28.724  1.00  0.00     0.031 A 
ATOM     25  C   UNL A   1      37.868  30.692  30.490  1.00  0.00     0.031 A 
ATOM     26  C   UNL A   1      44.689  31.176  30.132  1.00  0.00     0.049 A 
ATOM     27  C   UNL A   1      38.925  31.475  31.170  1.00  0.00     0.074 A 
ATOM     28  C   UNL A   1      45.288  30.168  30.860  1.00  0.00     0.029 A 
ATOM     29  N   UNL A   1      43.732  31.729  30.953  1.00  0.00    -0.354 N 
ATOM     30  N   UNL A   1      39.601  31.024  32.190  1.00  0.00    -0.248 NA
ATOM     31  C   UNL A   1      39.543  32.569  30.442  1.00  0.00     0.031 C 
ATOM     32  C   UNL A   1      44.368  29.871  31.907  1.00  0.00     0.029 A 
ATOM     33  C   UNL A   1      43.302  30.770  31.834  1.00  0.00     0.049 A 
ATOM     34  H   UNL A   1      43.409  32.659  30.914  1.00  0.00     0.167 HD
ATOM     35  C   UNL A   1      40.901  31.444  31.957  1.00  0.00     0.074 A 
ATOM     36  C   UNL A   1      40.782  32.482  30.931  1.00  0.00     0.031 C 
ATOM     37  C   UNL A   1      41.967  30.721  32.409  1.00  0.00     0.031 A 
BRANCH  24  38
ATOM     38  C   UNL A   1      44.693  32.897  28.207  1.00  0.00    -0.014 A 
ATOM     39  C   UNL A   1      43.601  33.786  28.135  1.00  0.00     0.010 A 
ATOM     40  C   UNL A   1      45.975  33.442  27.997  1.00  0.00     0.010 A 
ATOM     41  C   UNL A   1      43.766  35.139  27.844  1.00  0.00     0.020 A 
ATOM     42  C   UNL A   1      46.157  34.808  27.747  1.00  0.00     0.020 A 
ATOM     43  C   UNL A   1      45.046  35.645  27.658  1.00  0.00     0.054 A 
BRANCH  43  44
ATOM     44  S   UNL A   1      45.221  37.413  27.335  1.00  0.00     0.124 S 
ATOM     45  O   UNL A   1      46.264  37.426  26.313  1.00  0.00    -0.237 OA
ATOM     46  O   UNL A   1      43.885  37.780  26.879  1.00  0.00    -0.237 OA
ATOM     47  O   UNL A   1      45.611  37.960  28.632  1.00  0.00    -0.744 OA
ENDBRANCH  43  44
ENDBRANCH  24  38
BRANCH  25  48
ATOM     48  C   UNL A   1      36.563  31.298  30.115  1.00  0.00    -0.014 A 
ATOM     49  C   UNL A   1      36.284  31.613  28.771  1.00  0.00     0.010 A 
ATOM     50  C   UNL A   1      35.747  31.880  31.109  1.00  0.00     0.010 A 
ATOM     51  C   UNL A   1      35.311  32.564  28.437  1.00  0.00     0.020 A 
ATOM     52  C   UNL A   1      34.771  32.836  30.780  1.00  0.00     0.020 A 
ATOM     53  C   UNL A   1      34.593  33.205  29.447  1.00  0.00     0.054 A 
BRANCH  53  54
ATOM     54  S   UNL A   1      33.515  34.595  28.992  1.00  0.00     0.124 S 
ATOM     55  O   UNL A   1      34.466  35.544  28.422  1.00  0.00    -0.237 OA
ATOM     56  O   UNL A   1      32.593  33.984  28.038  1.00  0.00    -0.237 OA
ATOM     57  O   UNL A   1      32.913  35.001  30.261  1.00  0.00    -0.744 OA
ENDBRANCH  53  54
ENDBRANCH  25  48
BRANCH  37  58
ATOM     58  C   UNL A   1      41.730  29.636  33.444  1.00  0.00    -0.014 A 
ATOM     59  C   UNL A   1      41.953  29.984  34.790  1.00  0.00     0.010 A 
ATOM     60  C   UNL A   1      41.473  28.283  33.142  1.00  0.00     0.010 A 
ATOM     61  C   UNL A   1      41.964  29.018  35.797  1.00  0.00     0.020 A 
ATOM     62  C   UNL A   1      41.453  27.308  34.157  1.00  0.00     0.020 A 
ATOM     63  C   UNL A   1      41.724  27.682  35.475  1.00  0.00     0.054 A 
BRANCH  63  64
ATOM     64  S   UNL A   1      41.795  26.462  36.816  1.00  0.00     0.124 S 
ATOM     65  O   UNL A   1      40.473  26.593  37.426  1.00  0.00    -0.237 OA
ATOM     66  O   UNL A   1      42.026  25.209  36.099  1.00  0.00    -0.237 OA
ATOM     67  O   UNL A   1      42.909  26.910  37.648  1.00  0.00    -0.744 OA
ENDBRANCH  63  64
ENDBRANCH  37  58
ENDBRANCH  11  12
ENDBRANCH   4   6
ENDBRANCH   1   2
BRANCH   1  68
ATOM     68  C   UNL A   1      38.404  22.081  25.861  1.00  0.00     0.042 C 
BRANCH  68  69
ATOM     69  C   UNL A   1      37.170  22.943  25.601  1.00  0.00     0.118 C 
BRANCH  69  70
ATOM     70  N   UNL A   1      36.112  22.798  26.595  1.00  0.00    -0.352 N 
ATOM     71  C   UNL A   1      34.750  22.952  26.476  1.00  0.00     0.251 C 
ATOM     72  H   UNL A   1      36.422  22.551  27.496  1.00  0.00     0.163 HD
ATOM     73  O   UNL A   1      34.032  22.818  27.462  1.00  0.00    -0.269 OA
BRANCH  71  74
ATOM     74  C   UNL A   1      34.158  23.290  25.166  1.00  0.00     0.049 A 
ATOM     75  C   UNL A   1      33.820  22.277  24.258  1.00  0.00     0.014 A 
ATOM     76  C   UNL A   1      33.935  24.641  24.823  1.00  0.00     0.012 A 
ATOM     77  C   UNL A   1      33.405  22.596  22.971  1.00  0.00     0.003 A 
ATOM     78  C   UNL A   1      33.458  24.939  23.537  1.00  0.00     0.049 A 
ATOM     79  C   UNL A   1      34.114  25.880  25.501  1.00  0.00     0.029 A 
ATOM     80  C   UNL A   1      33.228  23.928  22.586  1.00  0.00     0.027 A 
ATOM     81  N   UNL A   1      33.302  26.313  23.475  1.00  0.00    -0.343 N 
ATOM     82  C   UNL A   1      33.779  26.886  24.629  1.00  0.00     0.087 A 
BRANCH  81  83
ATOM     83  C   UNL A   1      32.774  27.075  22.346  1.00  0.00     0.157 C 
BRANCH  83  84
ATOM     84  C   UNL A   1      31.432  27.705  22.643  1.00  0.00    -0.025 A 
ATOM     85  C   UNL A   1      31.214  29.075  22.450  1.00  0.00     0.025 A 
ATOM     86  C   UNL A   1      30.358  26.933  23.096  1.00  0.00     0.025 A 
ATOM     87  C   UNL A   1      29.965  29.608  22.730  1.00  0.00     0.111 A 
ATOM     88  C   UNL A   1      29.138  27.555  23.332  1.00  0.00     0.111 A 
ATOM     89  N   UNL A   1      28.917  28.874  23.156  1.00  0.00    -0.265 NA
ENDBRANCH  83  84
ENDBRANCH  81  83
ENDBRANCH  71  74
ENDBRANCH  69  70
ENDBRANCH  68  69
ENDBRANCH   1  68
TORSDOF 15
ENDMDL
MODEL 3
REMARK VINA RESULT:     -12.9      3.059      9.256
REMARK SMILES O=C(NCCCNC(=O)c1cccc2c1ccn2Cc1ccncc1)c1ccc(-c2c3nc(c(-c4ccc(S(=O)(=O)[O-])cc4)c4ccc([nH]4)c(-c4ccc(S(=O)(=O)[O-])cc4)c4nc(c(-c5ccc(S(=O)(=O)[O-])cc5)c5ccc2[nH]5)C=C4)C=C3)cc1
REMARK SMILES IDX 4 1 3 2 1 3 2 4 26 6 27 7 85 8 28 9 84 10 29 11 30 12 31 13
REMARK SMILES IDX 78 14 32 15 83 16 77 17 79 18 33 19 82 20 76 21 75 22 34 24
REMARK SMILES IDX 64 25 45 26 63 27 46 28 49 29 62 30 80 31 47 32 48 33 61 35
REMARK SMILES IDX 81 36 50 37 35 38 36 39 44 40 37 41 43 42 38 43 39 44 40 45
REMARK SMILES IDX 41 46 42 47 65 48 66 49 74 50 67 51 73 52 68 53 69 54 70 55
REMARK SMILES IDX 71 56 72 57 51 58 52 59 60 60 53 61 59 62 54 63 55 64 56 65
REMARK SMILES IDX 57 66 58 67 5 68 6 69 7 70 8 71 9 73 10 74 11 75 15 76 12 77
REMARK SMILES IDX 14 78 16 79 13 80 18 81 17 82 19 83 20 84 21 85 25 86 22 87
REMARK SMILES IDX 24 88 23 89
REMARK H PARENT 3 5 79 23 49 34 7 72
REMARK Flexibility Score: inf
ROOT
ATOM      1  C   UNL A   1      34.223  30.800  27.132  1.00  0.00     0.118 C 
ENDROOT
BRANCH   1   2
ATOM      2  N   UNL A   1      34.125  31.614  28.358  1.00  0.00    -0.352 N 
ATOM      3  O   UNL A   1      34.719  32.117  30.506  1.00  0.00    -0.269 OA
ATOM      4  C   UNL A   1      35.041  31.680  29.401  1.00  0.00     0.251 C 
ATOM      5  H   UNL A   1      33.321  32.173  28.448  1.00  0.00     0.163 HD
BRANCH   4   6
ATOM      6  C   UNL A   1      36.414  31.219  29.134  1.00  0.00     0.039 A 
ATOM      7  C   UNL A   1      37.552  32.004  29.317  1.00  0.00     0.014 A 
ATOM      8  C   UNL A   1      36.527  29.875  28.821  1.00  0.00     0.014 A 
ATOM      9  C   UNL A   1      38.795  31.371  29.277  1.00  0.00     0.010 A 
ATOM     10  C   UNL A   1      37.684  29.232  29.134  1.00  0.00     0.010 A 
ATOM     11  C   UNL A   1      38.849  29.964  29.220  1.00  0.00    -0.014 A 
BRANCH  11  12
ATOM     12  C   UNL A   1      40.086  29.199  29.330  1.00  0.00     0.031 A 
ATOM     13  C   UNL A   1      40.519  28.969  30.721  1.00  0.00     0.074 A 
ATOM     14  C   UNL A   1      40.721  28.623  28.282  1.00  0.00     0.049 A 
ATOM     15  N   UNL A   1      41.408  29.656  31.353  1.00  0.00    -0.248 NA
ATOM     16  C   UNL A   1      39.760  28.041  31.572  1.00  0.00     0.031 C 
ATOM     17  C   UNL A   1      40.304  28.550  26.870  1.00  0.00     0.029 A 
ATOM     18  N   UNL A   1      41.869  27.895  28.274  1.00  0.00    -0.354 N 
ATOM     19  C   UNL A   1      41.522  29.061  32.597  1.00  0.00     0.074 A 
ATOM     20  C   UNL A   1      40.342  28.248  32.756  1.00  0.00     0.031 C 
ATOM     21  C   UNL A   1      41.053  27.639  26.208  1.00  0.00     0.029 A 
ATOM     22  C   UNL A   1      42.127  27.219  27.084  1.00  0.00     0.049 A 
ATOM     23  H   UNL A   1      42.471  27.847  29.052  1.00  0.00     0.167 HD
ATOM     24  C   UNL A   1      42.716  29.065  33.251  1.00  0.00     0.031 A 
ATOM     25  C   UNL A   1      43.190  26.427  26.797  1.00  0.00     0.031 A 
ATOM     26  C   UNL A   1      43.647  29.981  32.631  1.00  0.00     0.049 A 
ATOM     27  C   UNL A   1      44.273  26.847  27.715  1.00  0.00     0.074 A 
ATOM     28  C   UNL A   1      43.650  31.337  32.377  1.00  0.00     0.029 A 
ATOM     29  N   UNL A   1      44.571  29.426  31.774  1.00  0.00    -0.354 N 
ATOM     30  N   UNL A   1      44.851  28.014  27.648  1.00  0.00    -0.248 NA
ATOM     31  C   UNL A   1      44.403  26.154  28.984  1.00  0.00     0.031 C 
ATOM     32  C   UNL A   1      44.238  31.471  31.086  1.00  0.00     0.029 A 
ATOM     33  C   UNL A   1      44.657  30.210  30.653  1.00  0.00     0.049 A 
ATOM     34  H   UNL A   1      45.084  28.601  31.938  1.00  0.00     0.167 HD
ATOM     35  C   UNL A   1      45.006  28.399  28.971  1.00  0.00     0.074 A 
ATOM     36  C   UNL A   1      44.818  27.170  29.744  1.00  0.00     0.031 C 
ATOM     37  C   UNL A   1      44.995  29.717  29.327  1.00  0.00     0.031 A 
BRANCH  24  38
ATOM     38  C   UNL A   1      43.170  27.960  34.166  1.00  0.00    -0.014 A 
ATOM     39  C   UNL A   1      43.428  26.645  33.727  1.00  0.00     0.010 A 
ATOM     40  C   UNL A   1      43.582  28.289  35.472  1.00  0.00     0.010 A 
ATOM     41  C   UNL A   1      44.036  25.697  34.548  1.00  0.00     0.020 A 
ATOM     42  C   UNL A   1      44.233  27.358  36.290  1.00  0.00     0.020 A 
ATOM     43  C   UNL A   1      44.442  26.061  35.825  1.00  0.00     0.054 A 
BRANCH  43  44
ATOM     44  S   UNL A   1      45.275  24.819  36.838  1.00  0.00     0.124 S 
ATOM     45  O   UNL A   1      46.565  25.456  37.087  1.00  0.00    -0.237 OA
ATOM     46  O   UNL A   1      44.389  24.713  37.992  1.00  0.00    -0.237 OA
ATOM     47  O   UNL A   1      45.316  23.643  35.972  1.00  0.00    -0.744 OA
ENDBRANCH  43  44
ENDBRANCH  24  38
BRANCH  25  48
ATOM     48  C   UNL A   1      43.177  25.081  26.165  1.00  0.00    -0.014 A 
ATOM     49  C   UNL A   1      42.770  23.952  26.903  1.00  0.00     0.010 A 
ATOM     50  C   UNL A   1      43.887  24.860  24.965  1.00  0.00     0.010 A 
ATOM     51  C   UNL A   1      43.161  22.661  26.526  1.00  0.00     0.020 A 
ATOM     52  C   UNL A   1      44.283  23.567  24.583  1.00  0.00     0.020 A 
ATOM     53  C   UNL A   1      43.956  22.481  25.394  1.00  0.00     0.054 A 
BRANCH  53  54
ATOM     54  S   UNL A   1      44.638  20.827  25.070  1.00  0.00     0.124 S 
ATOM     55  O   UNL A   1      44.540  20.738  23.616  1.00  0.00    -0.237 OA
ATOM     56  O   UNL A   1      45.995  20.933  25.600  1.00  0.00    -0.237 OA
ATOM     57  O   UNL A   1      43.752  19.933  25.812  1.00  0.00    -0.744 OA
ENDBRANCH  53  54
ENDBRANCH  25  48
BRANCH  37  58
ATOM     58  C   UNL A   1      45.139  30.771  28.244  1.00  0.00    -0.014 A 
ATOM     59  C   UNL A   1      46.365  31.459  28.188  1.00  0.00     0.010 A 
ATOM     60  C   UNL A   1      44.089  31.217  27.416  1.00  0.00     0.010 A 
ATOM     61  C   UNL A   1      46.532  32.579  27.372  1.00  0.00     0.020 A 
ATOM     62  C   UNL A   1      44.259  32.327  26.568  1.00  0.00     0.020 A 
ATOM     63  C   UNL A   1      45.476  33.014  26.573  1.00  0.00     0.054 A 
BRANCH  63  64
ATOM     64  S   UNL A   1      45.733  34.502  25.566  1.00  0.00     0.124 S 
ATOM     65  O   UNL A   1      47.170  34.454  25.302  1.00  0.00    -0.237 OA
ATOM     66  O   UNL A   1      44.881  34.254  24.403  1.00  0.00    -0.237 OA
ATOM     67  O   UNL A   1      45.297  35.597  26.428  1.00  0.00    -0.744 OA
ENDBRANCH  63  64
ENDBRANCH  37  58
ENDBRANCH  11  12
ENDBRANCH   4   6
ENDBRANCH   1   2
BRANCH   1  68
ATOM     68  C   UNL A   1      33.024  29.909  26.878  1.00  0.00     0.042 C 
BRANCH  68  69
ATOM     69  C   UNL A   1      33.218  28.490  27.411  1.00  0.00     0.118 C 
BRANCH  69  70
ATOM     70  N   UNL A   1      33.909  27.591  26.493  1.00  0.00    -0.352 N 
ATOM     71  C   UNL A   1      33.413  26.783  25.494  1.00  0.00     0.251 C 
ATOM     72  H   UNL A   1      34.886  27.555  26.606  1.00  0.00     0.163 HD
ATOM     73  O   UNL A   1      34.176  26.066  24.854  1.00  0.00    -0.269 OA
BRANCH  71  74
ATOM     74  C   UNL A   1      31.966  26.774  25.205  1.00  0.00     0.049 A 
ATOM     75  C   UNL A   1      31.113  25.883  25.873  1.00  0.00     0.014 A 
ATOM     76  C   UNL A   1      31.435  27.666  24.247  1.00  0.00     0.012 A 
ATOM     77  C   UNL A   1      29.781  25.769  25.496  1.00  0.00     0.003 A 
ATOM     78  C   UNL A   1      30.072  27.574  23.925  1.00  0.00     0.049 A 
ATOM     79  C   UNL A   1      31.987  28.699  23.440  1.00  0.00     0.029 A 
ATOM     80  C   UNL A   1      29.242  26.601  24.511  1.00  0.00     0.027 A 
ATOM     81  N   UNL A   1      29.812  28.566  22.994  1.00  0.00    -0.343 N 
ATOM     82  C   UNL A   1      30.985  29.188  22.640  1.00  0.00     0.087 A 
BRANCH  81  83
ATOM     83  C   UNL A   1      28.511  28.887  22.412  1.00  0.00     0.157 C 
BRANCH  83  84
ATOM     84  C   UNL A   1      28.326  30.369  22.178  1.00  0.00    -0.025 A 
ATOM     85  C   UNL A   1      28.414  31.288  23.231  1.00  0.00     0.025 A 
ATOM     86  C   UNL A   1      28.085  30.871  20.896  1.00  0.00     0.025 A 
ATOM     87  C   UNL A   1      28.243  32.638  22.969  1.00  0.00     0.111 A 
ATOM     88  C   UNL A   1      27.945  32.244  20.729  1.00  0.00     0.111 A 
ATOM     89  N   UNL A   1      28.022  33.139  21.736  1.00  0.00    -0.265 NA
ENDBRANCH  83  84
ENDBRANCH  81  83
ENDBRANCH  71  74
ENDBRANCH  69  70
ENDBRANCH  68  69
ENDBRANCH   1  68
TORSDOF 15
ENDMDL
