MODEL 1
REMARK VINA RESULT:     -12.0      0.000      0.000
REMARK SMILES O=C(NCCCNC(=O)c1ccccc1NC(=O)c1ccc(N2C(=O)[C@H]3CC=CC[C@H]3C2=O)cc1)c1ccc(-c2c3nc(c(-c4ccc(S(=O)(=O)[O-])cc4)c4ccc([nH]4)c(-c4ccc(S(=O)(=O)[O-])cc4)c4nc(c(-c5ccc(S(=O)(=O)[O-])cc5)c5ccc2[nH]5)C=C4)C=C3)cc1
REMARK SMILES IDX 5 1 4 2 3 3 1 4 2 5 36 7 37 8 95 9 38 10 94 11 39 12 40 13
REMARK SMILES IDX 41 14 88 15 42 16 93 17 87 18 89 19 43 20 92 21 86 22 85 23
REMARK SMILES IDX 44 25 74 26 55 27 73 28 56 29 59 30 72 31 90 32 57 33 58 34
REMARK SMILES IDX 71 36 91 37 60 38 45 39 46 40 54 41 47 42 53 43 48 44 49 45
REMARK SMILES IDX 50 46 51 47 52 48 75 49 76 50 84 51 77 52 83 53 78 54 79 55
REMARK SMILES IDX 80 56 81 57 82 58 61 59 62 60 70 61 63 62 69 63 64 64 65 65
REMARK SMILES IDX 66 66 67 67 68 68 6 69 7 70 8 71 9 73 10 74 11 75 15 76
REMARK SMILES IDX 12 77 14 78 13 79 16 80 17 81 18 83 19 84 20 85 35 86 21 87
REMARK SMILES IDX 34 88 22 89 23 90 24 91 32 92 25 93 26 94 31 95 33 96 27 97
REMARK SMILES IDX 30 98 28 99 29 100
REMARK H PARENT 3 6 89 24 59 35 7 72 16 82
REMARK Flexibility Score: inf
ROOT
ATOM      1  C   UNL A   1      33.106  26.960  26.515  1.00  0.00     0.042 C 
ENDROOT
BRANCH   1   2
ATOM      2  C   UNL A   1      34.293  27.908  26.522  1.00  0.00     0.118 C 
BRANCH   2   3
ATOM      3  N   UNL A   1      33.957  29.235  27.022  1.00  0.00    -0.352 N 
ATOM      4  O   UNL A   1      34.160  31.086  28.291  1.00  0.00    -0.269 OA
ATOM      5  C   UNL A   1      34.681  30.071  27.836  1.00  0.00     0.251 C 
ATOM      6  H   UNL A   1      33.082  29.582  26.733  1.00  0.00     0.163 HD
BRANCH   5   7
ATOM      7  C   UNL A   1      36.079  29.735  28.175  1.00  0.00     0.039 A 
ATOM      8  C   UNL A   1      37.086  29.849  27.216  1.00  0.00     0.014 A 
ATOM      9  C   UNL A   1      36.389  29.315  29.472  1.00  0.00     0.014 A 
ATOM     10  C   UNL A   1      38.366  29.398  27.500  1.00  0.00     0.010 A 
ATOM     11  C   UNL A   1      37.704  28.966  29.790  1.00  0.00     0.010 A 
ATOM     12  C   UNL A   1      38.698  28.990  28.802  1.00  0.00    -0.014 A 
BRANCH  12  13
ATOM     13  C   UNL A   1      40.122  28.733  29.124  1.00  0.00     0.031 A 
ATOM     14  C   UNL A   1      40.975  29.763  29.805  1.00  0.00     0.074 A 
ATOM     15  C   UNL A   1      40.629  27.527  28.794  1.00  0.00     0.049 A 
ATOM     16  N   UNL A   1      42.234  29.677  30.152  1.00  0.00    -0.248 NA
ATOM     17  C   UNL A   1      40.351  31.054  30.135  1.00  0.00     0.031 C 
ATOM     18  C   UNL A   1      39.888  26.458  28.112  1.00  0.00     0.029 A 
ATOM     19  N   UNL A   1      41.871  26.985  28.996  1.00  0.00    -0.354 N 
ATOM     20  C   UNL A   1      42.561  30.905  30.714  1.00  0.00     0.074 A 
ATOM     21  C   UNL A   1      41.370  31.725  30.658  1.00  0.00     0.031 C 
ATOM     22  C   UNL A   1      40.674  25.381  27.990  1.00  0.00     0.029 A 
ATOM     23  C   UNL A   1      41.995  25.704  28.513  1.00  0.00     0.049 A 
ATOM     24  H   UNL A   1      42.605  27.467  29.442  1.00  0.00     0.167 HD
ATOM     25  C   UNL A   1      43.751  31.305  31.225  1.00  0.00     0.031 A 
ATOM     26  C   UNL A   1      43.061  24.886  28.461  1.00  0.00     0.031 A 
ATOM     27  C   UNL A   1      44.923  30.470  31.285  1.00  0.00     0.049 A 
ATOM     28  C   UNL A   1      44.368  25.372  29.011  1.00  0.00     0.074 A 
ATOM     29  C   UNL A   1      46.156  30.762  31.847  1.00  0.00     0.029 A 
ATOM     30  N   UNL A   1      45.018  29.192  30.757  1.00  0.00    -0.354 N 
ATOM     31  N   UNL A   1      44.636  26.513  29.599  1.00  0.00    -0.248 NA
ATOM     32  C   UNL A   1      45.517  24.469  28.879  1.00  0.00     0.031 C 
ATOM     33  C   UNL A   1      47.012  29.684  31.605  1.00  0.00     0.029 A 
ATOM     34  C   UNL A   1      46.300  28.699  30.939  1.00  0.00     0.049 A 
ATOM     35  H   UNL A   1      44.283  28.706  30.317  1.00  0.00     0.167 HD
ATOM     36  C   UNL A   1      45.988  26.465  29.908  1.00  0.00     0.074 A 
ATOM     37  C   UNL A   1      46.472  25.169  29.474  1.00  0.00     0.031 C 
ATOM     38  C   UNL A   1      46.764  27.413  30.489  1.00  0.00     0.031 A 
BRANCH  25  39
ATOM     39  C   UNL A   1      43.872  32.712  31.743  1.00  0.00    -0.014 A 
ATOM     40  C   UNL A   1      44.216  33.777  30.892  1.00  0.00     0.010 A 
ATOM     41  C   UNL A   1      43.520  32.989  33.078  1.00  0.00     0.010 A 
ATOM     42  C   UNL A   1      44.212  35.092  31.369  1.00  0.00     0.020 A 
ATOM     43  C   UNL A   1      43.497  34.304  33.553  1.00  0.00     0.020 A 
ATOM     44  C   UNL A   1      43.849  35.347  32.696  1.00  0.00     0.054 A 
BRANCH  44  45
ATOM     45  S   UNL A   1      43.782  37.070  33.264  1.00  0.00     0.124 S 
ATOM     46  O   UNL A   1      42.545  37.083  34.040  1.00  0.00    -0.237 OA
ATOM     47  O   UNL A   1      45.011  37.197  34.043  1.00  0.00    -0.237 OA
ATOM     48  O   UNL A   1      43.749  37.845  32.026  1.00  0.00    -0.744 OA
ENDBRANCH  44  45
ENDBRANCH  25  39
BRANCH  26  49
ATOM     49  C   UNL A   1      42.944  23.556  27.805  1.00  0.00    -0.014 A 
ATOM     50  C   UNL A   1      42.388  22.461  28.487  1.00  0.00     0.010 A 
ATOM     51  C   UNL A   1      43.392  23.385  26.482  1.00  0.00     0.010 A 
ATOM     52  C   UNL A   1      42.311  21.211  27.865  1.00  0.00     0.020 A 
ATOM     53  C   UNL A   1      43.287  22.147  25.847  1.00  0.00     0.020 A 
ATOM     54  C   UNL A   1      42.765  21.061  26.551  1.00  0.00     0.054 A 
BRANCH  54  55
ATOM     55  S   UNL A   1      42.637  19.438  25.754  1.00  0.00     0.124 S 
ATOM     56  O   UNL A   1      41.221  19.385  25.405  1.00  0.00    -0.237 OA
ATOM     57  O   UNL A   1      43.561  19.561  24.629  1.00  0.00    -0.237 OA
ATOM     58  O   UNL A   1      43.062  18.512  26.800  1.00  0.00    -0.744 OA
ENDBRANCH  54  55
ENDBRANCH  26  49
BRANCH  38  59
ATOM     59  C   UNL A   1      48.215  27.078  30.684  1.00  0.00    -0.014 A 
ATOM     60  C   UNL A   1      49.161  27.377  29.687  1.00  0.00     0.010 A 
ATOM     61  C   UNL A   1      48.643  26.495  31.889  1.00  0.00     0.010 A 
ATOM     62  C   UNL A   1      50.510  27.072  29.883  1.00  0.00     0.020 A 
ATOM     63  C   UNL A   1      49.994  26.214  32.099  1.00  0.00     0.020 A 
ATOM     64  C   UNL A   1      50.918  26.493  31.088  1.00  0.00     0.054 A 
BRANCH  64  65
ATOM     65  S   UNL A   1      52.680  26.148  31.337  1.00  0.00     0.124 S 
ATOM     66  O   UNL A   1      53.196  26.202  29.972  1.00  0.00    -0.237 OA
ATOM     67  O   UNL A   1      53.101  27.240  32.212  1.00  0.00    -0.237 OA
ATOM     68  O   UNL A   1      52.690  24.824  31.955  1.00  0.00    -0.744 OA
ENDBRANCH  64  65
ENDBRANCH  38  59
ENDBRANCH  12  13
ENDBRANCH   5   7
ENDBRANCH   2   3
ENDBRANCH   1   2
BRANCH   1  69
ATOM     69  C   UNL A   1      33.426  25.590  25.951  1.00  0.00     0.118 C 
BRANCH  69  70
ATOM     70  N   UNL A   1      33.288  24.534  26.944  1.00  0.00    -0.352 N 
ATOM     71  C   UNL A   1      33.901  23.310  27.003  1.00  0.00     0.253 C 
ATOM     72  H   UNL A   1      32.663  24.727  27.680  1.00  0.00     0.163 HD
ATOM     73  O   UNL A   1      33.527  22.472  27.817  1.00  0.00    -0.269 OA
BRANCH  71  74
ATOM     74  C   UNL A   1      35.030  22.998  26.103  1.00  0.00     0.063 A 
ATOM     75  C   UNL A   1      36.096  23.910  26.112  1.00  0.00     0.016 A 
ATOM     76  C   UNL A   1      35.039  21.868  25.258  1.00  0.00     0.054 A 
ATOM     77  C   UNL A   1      37.194  23.703  25.285  1.00  0.00     0.001 A 
ATOM     78  C   UNL A   1      36.126  21.719  24.392  1.00  0.00     0.027 A 
ATOM     79  C   UNL A   1      37.203  22.615  24.418  1.00  0.00     0.002 A 
BRANCH  76  80
ATOM     80  N   UNL A   1      33.956  20.955  25.312  1.00  0.00    -0.321 N 
ATOM     81  C   UNL A   1      32.653  21.015  24.875  1.00  0.00     0.255 C 
ATOM     82  H   UNL A   1      34.182  20.105  25.753  1.00  0.00     0.170 HD
ATOM     83  O   UNL A   1      31.889  20.075  25.076  1.00  0.00    -0.269 OA
BRANCH  81  84
ATOM     84  C   UNL A   1      32.149  22.181  24.137  1.00  0.00     0.040 A 
ATOM     85  C   UNL A   1      31.127  22.916  24.727  1.00  0.00     0.016 A 
ATOM     86  C   UNL A   1      32.719  22.597  22.933  1.00  0.00     0.016 A 
ATOM     87  C   UNL A   1      30.782  24.156  24.194  1.00  0.00     0.027 A 
ATOM     88  C   UNL A   1      32.355  23.837  22.396  1.00  0.00     0.027 A 
ATOM     89  C   UNL A   1      31.432  24.667  23.058  1.00  0.00     0.052 A 
BRANCH  89  90
ATOM     90  N   UNL A   1      31.240  26.020  22.654  1.00  0.00    -0.250 N 
ATOM     91  C   UNL A   1      30.107  26.747  22.940  1.00  0.00     0.238 C 
ATOM     92  C   UNL A   1      32.184  26.780  22.010  1.00  0.00     0.238 C 
ATOM     93  O   UNL A   1      29.081  26.377  23.501  1.00  0.00    -0.274 OA
ATOM     94  C   UNL A   1      30.292  28.174  22.483  1.00  0.00     0.096 C 
ATOM     95  C   UNL A   1      31.717  28.214  21.937  1.00  0.00     0.096 C 
ATOM     96  O   UNL A   1      33.242  26.413  21.515  1.00  0.00    -0.274 OA
ATOM     97  C   UNL A   1      29.989  29.133  23.639  1.00  0.00     0.041 C 
ATOM     98  C   UNL A   1      32.713  29.108  22.684  1.00  0.00     0.041 C 
ATOM     99  C   UNL A   1      31.142  29.282  24.584  1.00  0.00    -0.030 C 
ATOM    100  C   UNL A   1      32.404  29.264  24.141  1.00  0.00    -0.030 C 
ENDBRANCH  89  90
ENDBRANCH  81  84
ENDBRANCH  76  80
ENDBRANCH  71  74
ENDBRANCH  69  70
ENDBRANCH   1  69
TORSDOF 16
ENDMDL
MODEL 2
REMARK VINA RESULT:     -11.9      5.759     10.619
REMARK SMILES O=C(NCCCNC(=O)c1ccccc1NC(=O)c1ccc(N2C(=O)[C@H]3CC=CC[C@H]3C2=O)cc1)c1ccc(-c2c3nc(c(-c4ccc(S(=O)(=O)[O-])cc4)c4ccc([nH]4)c(-c4ccc(S(=O)(=O)[O-])cc4)c4nc(c(-c5ccc(S(=O)(=O)[O-])cc5)c5ccc2[nH]5)C=C4)C=C3)cc1
REMARK SMILES IDX 5 1 4 2 3 3 1 4 2 5 36 7 37 8 95 9 38 10 94 11 39 12 40 13
REMARK SMILES IDX 41 14 88 15 42 16 93 17 87 18 89 19 43 20 92 21 86 22 85 23
REMARK SMILES IDX 44 25 74 26 55 27 73 28 56 29 59 30 72 31 90 32 57 33 58 34
REMARK SMILES IDX 71 36 91 37 60 38 45 39 46 40 54 41 47 42 53 43 48 44 49 45
REMARK SMILES IDX 50 46 51 47 52 48 75 49 76 50 84 51 77 52 83 53 78 54 79 55
REMARK SMILES IDX 80 56 81 57 82 58 61 59 62 60 70 61 63 62 69 63 64 64 65 65
REMARK SMILES IDX 66 66 67 67 68 68 6 69 7 70 8 71 9 73 10 74 11 75 15 76
REMARK SMILES IDX 12 77 14 78 13 79 16 80 17 81 18 83 19 84 20 85 35 86 21 87
REMARK SMILES IDX 34 88 22 89 23 90 24 91 32 92 25 93 26 94 31 95 33 96 27 97
REMARK SMILES IDX 30 98 28 99 29 100
REMARK H PARENT 3 6 89 24 59 35 7 72 16 82
REMARK Flexibility Score: inf
ROOT
ATOM      1  C   UNL A   1      35.960  33.900  35.172  1.00  0.00     0.042 C 
ENDROOT
BRANCH   1   2
ATOM      2  C   UNL A   1      37.157  34.074  36.091  1.00  0.00     0.118 C 
BRANCH   2   3
ATOM      3  N   UNL A   1      37.142  33.155  37.222  1.00  0.00    -0.352 N 
ATOM      4  O   UNL A   1      37.543  31.244  38.347  1.00  0.00    -0.269 OA
ATOM      5  C   UNL A   1      37.813  31.968  37.391  1.00  0.00     0.251 C 
ATOM      6  H   UNL A   1      36.567  33.425  37.974  1.00  0.00     0.163 HD
BRANCH   5   7
ATOM      7  C   UNL A   1      38.841  31.560  36.413  1.00  0.00     0.039 A 
ATOM      8  C   UNL A   1      38.485  30.832  35.277  1.00  0.00     0.014 A 
ATOM      9  C   UNL A   1      40.175  31.921  36.626  1.00  0.00     0.014 A 
ATOM     10  C   UNL A   1      39.471  30.332  34.440  1.00  0.00     0.010 A 
ATOM     11  C   UNL A   1      41.155  31.512  35.720  1.00  0.00     0.010 A 
ATOM     12  C   UNL A   1      40.812  30.700  34.629  1.00  0.00    -0.014 A 
BRANCH  12  13
ATOM     13  C   UNL A   1      41.803  30.335  33.589  1.00  0.00     0.031 A 
ATOM     14  C   UNL A   1      42.466  28.989  33.569  1.00  0.00     0.074 A 
ATOM     15  C   UNL A   1      42.084  31.255  32.643  1.00  0.00     0.049 A 
ATOM     16  N   UNL A   1      43.349  28.528  32.720  1.00  0.00    -0.248 NA
ATOM     17  C   UNL A   1      42.107  28.038  34.634  1.00  0.00     0.031 C 
ATOM     18  C   UNL A   1      41.507  32.604  32.581  1.00  0.00     0.029 A 
ATOM     19  N   UNL A   1      42.906  31.201  31.548  1.00  0.00    -0.354 N 
ATOM     20  C   UNL A   1      43.671  27.250  33.158  1.00  0.00     0.074 A 
ATOM     21  C   UNL A   1      42.894  27.006  34.354  1.00  0.00     0.031 C 
ATOM     22  C   UNL A   1      41.959  33.230  31.487  1.00  0.00     0.029 A 
ATOM     23  C   UNL A   1      42.914  32.362  30.812  1.00  0.00     0.049 A 
ATOM     24  H   UNL A   1      43.439  30.408  31.312  1.00  0.00     0.167 HD
ATOM     25  C   UNL A   1      44.540  26.367  32.608  1.00  0.00     0.031 A 
ATOM     26  C   UNL A   1      43.636  32.710  29.732  1.00  0.00     0.031 A 
ATOM     27  C   UNL A   1      45.296  26.622  31.408  1.00  0.00     0.049 A 
ATOM     28  C   UNL A   1      44.608  31.719  29.167  1.00  0.00     0.074 A 
ATOM     29  C   UNL A   1      46.150  25.764  30.735  1.00  0.00     0.029 A 
ATOM     30  N   UNL A   1      45.302  27.820  30.711  1.00  0.00    -0.354 N 
ATOM     31  N   UNL A   1      44.847  30.490  29.559  1.00  0.00    -0.248 NA
ATOM     32  C   UNL A   1      45.417  32.162  28.025  1.00  0.00     0.031 C 
ATOM     33  C   UNL A   1      46.718  26.464  29.667  1.00  0.00     0.029 A 
ATOM     34  C   UNL A   1      46.179  27.740  29.641  1.00  0.00     0.049 A 
ATOM     35  H   UNL A   1      44.763  28.611  30.942  1.00  0.00     0.167 HD
ATOM     36  C   UNL A   1      45.836  30.013  28.710  1.00  0.00     0.074 A 
ATOM     37  C   UNL A   1      46.124  31.072  27.763  1.00  0.00     0.031 C 
ATOM     38  C   UNL A   1      46.459  28.809  28.720  1.00  0.00     0.031 A 
BRANCH  25  39
ATOM     39  C   UNL A   1      44.754  25.047  33.298  1.00  0.00    -0.014 A 
ATOM     40  C   UNL A   1      44.108  23.880  32.858  1.00  0.00     0.010 A 
ATOM     41  C   UNL A   1      45.708  24.955  34.330  1.00  0.00     0.010 A 
ATOM     42  C   UNL A   1      44.407  22.644  33.441  1.00  0.00     0.020 A 
ATOM     43  C   UNL A   1      46.024  23.719  34.902  1.00  0.00     0.020 A 
ATOM     44  C   UNL A   1      45.366  22.570  34.456  1.00  0.00     0.054 A 
BRANCH  44  45
ATOM     45  S   UNL A   1      45.787  20.943  35.142  1.00  0.00     0.124 S 
ATOM     46  O   UNL A   1      44.548  20.198  34.931  1.00  0.00    -0.237 OA
ATOM     47  O   UNL A   1      46.916  20.529  34.314  1.00  0.00    -0.237 OA
ATOM     48  O   UNL A   1      46.111  21.227  36.539  1.00  0.00    -0.744 OA
ENDBRANCH  44  45
ENDBRANCH  25  39
BRANCH  26  49
ATOM     49  C   UNL A   1      43.511  34.079  29.165  1.00  0.00    -0.014 A 
ATOM     50  C   UNL A   1      42.698  34.325  28.045  1.00  0.00     0.010 A 
ATOM     51  C   UNL A   1      44.209  35.150  29.754  1.00  0.00     0.010 A 
ATOM     52  C   UNL A   1      42.613  35.613  27.508  1.00  0.00     0.020 A 
ATOM     53  C   UNL A   1      44.100  36.442  29.241  1.00  0.00     0.020 A 
ATOM     54  C   UNL A   1      43.317  36.662  28.106  1.00  0.00     0.054 A 
BRANCH  54  55
ATOM     55  S   UNL A   1      43.177  38.329  27.408  1.00  0.00     0.124 S 
ATOM     56  O   UNL A   1      43.169  39.158  28.609  1.00  0.00    -0.237 OA
ATOM     57  O   UNL A   1      44.375  38.429  26.578  1.00  0.00    -0.237 OA
ATOM     58  O   UNL A   1      41.918  38.283  26.668  1.00  0.00    -0.744 OA
ENDBRANCH  54  55
ENDBRANCH  26  49
BRANCH  38  59
ATOM     59  C   UNL A   1      47.514  28.581  27.674  1.00  0.00    -0.014 A 
ATOM     60  C   UNL A   1      47.194  27.949  26.459  1.00  0.00     0.010 A 
ATOM     61  C   UNL A   1      48.825  29.037  27.891  1.00  0.00     0.010 A 
ATOM     62  C   UNL A   1      48.180  27.753  25.488  1.00  0.00     0.020 A 
ATOM     63  C   UNL A   1      49.805  28.867  26.912  1.00  0.00     0.020 A 
ATOM     64  C   UNL A   1      49.479  28.213  25.721  1.00  0.00     0.054 A 
BRANCH  64  65
ATOM     65  S   UNL A   1      50.728  27.987  24.427  1.00  0.00     0.124 S 
ATOM     66  O   UNL A   1      51.167  26.615  24.664  1.00  0.00    -0.237 OA
ATOM     67  O   UNL A   1      49.964  28.201  23.201  1.00  0.00    -0.237 OA
ATOM     68  O   UNL A   1      51.721  29.019  24.722  1.00  0.00    -0.744 OA
ENDBRANCH  64  65
ENDBRANCH  38  59
ENDBRANCH  12  13
ENDBRANCH   5   7
ENDBRANCH   2   3
ENDBRANCH   1   2
BRANCH   1  69
ATOM     69  C   UNL A   1      36.304  34.007  33.700  1.00  0.00     0.118 C 
BRANCH  69  70
ATOM     70  N   UNL A   1      35.307  33.374  32.848  1.00  0.00    -0.352 N 
ATOM     71  C   UNL A   1      35.408  32.968  31.544  1.00  0.00     0.253 C 
ATOM     72  H   UNL A   1      34.432  33.214  33.272  1.00  0.00     0.163 HD
ATOM     73  O   UNL A   1      34.407  32.617  30.928  1.00  0.00    -0.269 OA
BRANCH  71  74
ATOM     74  C   UNL A   1      36.726  32.928  30.876  1.00  0.00     0.063 A 
ATOM     75  C   UNL A   1      37.073  34.065  30.130  1.00  0.00     0.016 A 
ATOM     76  C   UNL A   1      37.584  31.811  30.951  1.00  0.00     0.054 A 
ATOM     77  C   UNL A   1      38.287  34.109  29.455  1.00  0.00     0.001 A 
ATOM     78  C   UNL A   1      38.770  31.858  30.212  1.00  0.00     0.027 A 
ATOM     79  C   UNL A   1      39.129  33.001  29.487  1.00  0.00     0.002 A 
BRANCH  76  80
ATOM     80  N   UNL A   1      37.206  30.702  31.748  1.00  0.00    -0.321 N 
ATOM     81  C   UNL A   1      37.510  29.361  31.698  1.00  0.00     0.255 C 
ATOM     82  H   UNL A   1      36.603  30.939  32.487  1.00  0.00     0.170 HD
ATOM     83  O   UNL A   1      37.016  28.584  32.511  1.00  0.00    -0.269 OA
BRANCH  81  84
ATOM     84  C   UNL A   1      38.448  28.828  30.701  1.00  0.00     0.040 A 
ATOM     85  C   UNL A   1      39.708  28.448  31.149  1.00  0.00     0.016 A 
ATOM     86  C   UNL A   1      38.075  28.624  29.371  1.00  0.00     0.016 A 
ATOM     87  C   UNL A   1      40.542  27.718  30.305  1.00  0.00     0.027 A 
ATOM     88  C   UNL A   1      38.927  27.902  28.526  1.00  0.00     0.027 A 
ATOM     89  C   UNL A   1      40.142  27.378  29.002  1.00  0.00     0.052 A 
BRANCH  89  90
ATOM     90  N   UNL A   1      40.891  26.445  28.229  1.00  0.00    -0.250 N 
ATOM     91  C   UNL A   1      42.231  26.591  27.948  1.00  0.00     0.238 C 
ATOM     92  C   UNL A   1      40.395  25.261  27.743  1.00  0.00     0.238 C 
ATOM     93  O   UNL A   1      42.975  27.523  28.232  1.00  0.00    -0.274 OA
ATOM     94  C   UNL A   1      42.733  25.364  27.226  1.00  0.00     0.096 C 
ATOM     95  C   UNL A   1      41.520  24.438  27.165  1.00  0.00     0.096 C 
ATOM     96  O   UNL A   1      39.231  24.882  27.717  1.00  0.00    -0.274 OA
ATOM     97  C   UNL A   1      43.967  24.807  27.943  1.00  0.00     0.041 C 
ATOM     98  C   UNL A   1      41.627  23.117  27.934  1.00  0.00     0.041 C 
ATOM     99  C   UNL A   1      43.615  23.968  29.133  1.00  0.00    -0.030 C 
ATOM    100  C   UNL A   1      42.527  23.189  29.130  1.00  0.00    -0.030 C 
ENDBRANCH  89  90
ENDBRANCH  81  84
ENDBRANCH  76  80
ENDBRANCH  71  74
ENDBRANCH  69  70
ENDBRANCH   1  69
TORSDOF 16
ENDMDL
MODEL 3
REMARK VINA RESULT:     -11.8      0.388      7.799
REMARK SMILES O=C(NCCCNC(=O)c1ccccc1NC(=O)c1ccc(N2C(=O)[C@H]3CC=CC[C@H]3C2=O)cc1)c1ccc(-c2c3nc(c(-c4ccc(S(=O)(=O)[O-])cc4)c4ccc([nH]4)c(-c4ccc(S(=O)(=O)[O-])cc4)c4nc(c(-c5ccc(S(=O)(=O)[O-])cc5)c5ccc2[nH]5)C=C4)C=C3)cc1
REMARK SMILES IDX 5 1 4 2 3 3 1 4 2 5 36 7 37 8 95 9 38 10 94 11 39 12 40 13
REMARK SMILES IDX 41 14 88 15 42 16 93 17 87 18 89 19 43 20 92 21 86 22 85 23
REMARK SMILES IDX 44 25 74 26 55 27 73 28 56 29 59 30 72 31 90 32 57 33 58 34
REMARK SMILES IDX 71 36 91 37 60 38 45 39 46 40 54 41 47 42 53 43 48 44 49 45
REMARK SMILES IDX 50 46 51 47 52 48 75 49 76 50 84 51 77 52 83 53 78 54 79 55
REMARK SMILES IDX 80 56 81 57 82 58 61 59 62 60 70 61 63 62 69 63 64 64 65 65
REMARK SMILES IDX 66 66 67 67 68 68 6 69 7 70 8 71 9 73 10 74 11 75 15 76
REMARK SMILES IDX 12 77 14 78 13 79 16 80 17 81 18 83 19 84 20 85 35 86 21 87
REMARK SMILES IDX 34 88 22 89 23 90 24 91 32 92 25 93 26 94 31 95 33 96 27 97
REMARK SMILES IDX 30 98 28 99 29 100
REMARK H PARENT 3 6 89 24 59 35 7 72 16 82
REMARK Flexibility Score: inf
ROOT
ATOM      1  C   UNL A   1      33.067  26.960  26.508  1.00  0.00     0.042 C 
ENDROOT
BRANCH   1   2
ATOM      2  C   UNL A   1      34.285  27.862  26.615  1.00  0.00     0.118 C 
BRANCH   2   3
ATOM      3  N   UNL A   1      33.963  29.193  27.112  1.00  0.00    -0.352 N 
ATOM      4  O   UNL A   1      34.209  31.059  28.352  1.00  0.00    -0.269 OA
ATOM      5  C   UNL A   1      34.717  30.040  27.888  1.00  0.00     0.251 C 
ATOM      6  H   UNL A   1      33.076  29.534  26.855  1.00  0.00     0.163 HD
BRANCH   5   7
ATOM      7  C   UNL A   1      36.127  29.713  28.176  1.00  0.00     0.039 A 
ATOM      8  C   UNL A   1      37.106  29.882  27.196  1.00  0.00     0.014 A 
ATOM      9  C   UNL A   1      36.479  29.244  29.446  1.00  0.00     0.014 A 
ATOM     10  C   UNL A   1      38.400  29.440  27.427  1.00  0.00     0.010 A 
ATOM     11  C   UNL A   1      37.807  28.904  29.714  1.00  0.00     0.010 A 
ATOM     12  C   UNL A   1      38.773  28.984  28.701  1.00  0.00    -0.014 A 
BRANCH  12  13
ATOM     13  C   UNL A   1      40.209  28.736  28.974  1.00  0.00     0.031 A 
ATOM     14  C   UNL A   1      40.867  27.436  28.613  1.00  0.00     0.074 A 
ATOM     15  C   UNL A   1      40.917  29.729  29.552  1.00  0.00     0.049 A 
ATOM     16  N   UNL A   1      42.114  27.078  28.788  1.00  0.00    -0.248 NA
ATOM     17  C   UNL A   1      40.030  26.401  27.984  1.00  0.00     0.031 C 
ATOM     18  C   UNL A   1      40.367  31.028  29.961  1.00  0.00     0.029 A 
ATOM     19  N   UNL A   1      42.243  29.816  29.883  1.00  0.00    -0.354 N 
ATOM     20  C   UNL A   1      42.207  25.773  28.319  1.00  0.00     0.074 A 
ATOM     21  C   UNL A   1      40.889  25.397  27.855  1.00  0.00     0.031 C 
ATOM     22  C   UNL A   1      41.353  31.793  30.447  1.00  0.00     0.029 A 
ATOM     23  C   UNL A   1      42.586  31.017  30.457  1.00  0.00     0.049 A 
ATOM     24  H   UNL A   1      42.888  29.089  29.726  1.00  0.00     0.167 HD
ATOM     25  C   UNL A   1      43.297  24.969  28.284  1.00  0.00     0.031 A 
ATOM     26  C   UNL A   1      43.754  31.441  30.972  1.00  0.00     0.031 A 
ATOM     27  C   UNL A   1      44.606  25.366  28.738  1.00  0.00     0.049 A 
ATOM     28  C   UNL A   1      44.931  30.514  30.942  1.00  0.00     0.074 A 
ATOM     29  C   UNL A   1      45.788  24.645  28.681  1.00  0.00     0.029 A 
ATOM     30  N   UNL A   1      44.905  26.576  29.343  1.00  0.00    -0.354 N 
ATOM     31  N   UNL A   1      45.013  29.309  30.432  1.00  0.00    -0.248 NA
ATOM     32  C   UNL A   1      46.169  30.997  31.567  1.00  0.00     0.031 C 
ATOM     33  C   UNL A   1      46.787  25.397  29.305  1.00  0.00     0.029 A 
ATOM     34  C   UNL A   1      46.242  26.607  29.704  1.00  0.00     0.049 A 
ATOM     35  H   UNL A   1      44.263  27.308  29.493  1.00  0.00     0.167 HD
ATOM     36  C   UNL A   1      46.313  28.888  30.675  1.00  0.00     0.074 A 
ATOM     37  C   UNL A   1      46.990  29.980  31.346  1.00  0.00     0.031 C 
ATOM     38  C   UNL A   1      46.892  27.698  30.381  1.00  0.00     0.031 A 
BRANCH  25  39
ATOM     39  C   UNL A   1      43.137  23.566  27.765  1.00  0.00    -0.014 A 
ATOM     40  C   UNL A   1      42.550  22.559  28.550  1.00  0.00     0.010 A 
ATOM     41  C   UNL A   1      43.472  23.284  26.427  1.00  0.00     0.010 A 
ATOM     42  C   UNL A   1      42.308  21.292  28.008  1.00  0.00     0.020 A 
ATOM     43  C   UNL A   1      43.214  22.025  25.876  1.00  0.00     0.020 A 
ATOM     44  C   UNL A   1      42.638  21.034  26.673  1.00  0.00     0.054 A 
BRANCH  44  45
ATOM     45  S   UNL A   1      42.244  19.404  25.977  1.00  0.00     0.124 S 
ATOM     46  O   UNL A   1      40.799  19.500  25.786  1.00  0.00    -0.237 OA
ATOM     47  O   UNL A   1      43.038  19.380  24.752  1.00  0.00    -0.237 OA
ATOM     48  O   UNL A   1      42.674  18.469  27.014  1.00  0.00    -0.744 OA
ENDBRANCH  44  45
ENDBRANCH  25  39
BRANCH  26  49
ATOM     49  C   UNL A   1      43.839  32.779  31.615  1.00  0.00    -0.014 A 
ATOM     50  C   UNL A   1      43.666  32.926  33.002  1.00  0.00     0.010 A 
ATOM     51  C   UNL A   1      44.099  33.920  30.832  1.00  0.00     0.010 A 
ATOM     52  C   UNL A   1      43.722  34.194  33.588  1.00  0.00     0.020 A 
ATOM     53  C   UNL A   1      44.188  35.183  31.418  1.00  0.00     0.020 A 
ATOM     54  C   UNL A   1      43.979  35.315  32.791  1.00  0.00     0.054 A 
BRANCH  54  55
ATOM     55  S   UNL A   1      44.069  36.948  33.571  1.00  0.00     0.124 S 
ATOM     56  O   UNL A   1      42.691  37.149  34.009  1.00  0.00    -0.237 OA
ATOM     57  O   UNL A   1      45.047  36.740  34.636  1.00  0.00    -0.237 OA
ATOM     58  O   UNL A   1      44.517  37.819  32.487  1.00  0.00    -0.744 OA
ENDBRANCH  54  55
ENDBRANCH  26  49
BRANCH  38  59
ATOM     59  C   UNL A   1      48.328  27.522  30.787  1.00  0.00    -0.014 A 
ATOM     60  C   UNL A   1      48.658  26.958  32.031  1.00  0.00     0.010 A 
ATOM     61  C   UNL A   1      49.355  27.889  29.900  1.00  0.00     0.010 A 
ATOM     62  C   UNL A   1      49.997  26.789  32.394  1.00  0.00     0.020 A 
ATOM     63  C   UNL A   1      50.693  27.695  30.248  1.00  0.00     0.020 A 
ATOM     64  C   UNL A   1      51.005  27.158  31.500  1.00  0.00     0.054 A 
BRANCH  64  65
ATOM     65  S   UNL A   1      52.734  26.886  31.975  1.00  0.00     0.124 S 
ATOM     66  O   UNL A   1      53.448  27.717  31.011  1.00  0.00    -0.237 OA
ATOM     67  O   UNL A   1      52.765  27.358  33.357  1.00  0.00    -0.237 OA
ATOM     68  O   UNL A   1      52.914  25.445  31.811  1.00  0.00    -0.744 OA
ENDBRANCH  64  65
ENDBRANCH  38  59
ENDBRANCH  12  13
ENDBRANCH   5   7
ENDBRANCH   2   3
ENDBRANCH   1   2
BRANCH   1  69
ATOM     69  C   UNL A   1      33.377  25.584  25.953  1.00  0.00     0.118 C 
BRANCH  69  70
ATOM     70  N   UNL A   1      33.277  24.541  26.965  1.00  0.00    -0.352 N 
ATOM     71  C   UNL A   1      33.906  23.325  27.026  1.00  0.00     0.253 C 
ATOM     72  H   UNL A   1      32.669  24.738  27.715  1.00  0.00     0.163 HD
ATOM     73  O   UNL A   1      33.563  22.495  27.862  1.00  0.00    -0.269 OA
BRANCH  71  74
ATOM     74  C   UNL A   1      35.014  23.012  26.101  1.00  0.00     0.063 A 
ATOM     75  C   UNL A   1      36.084  23.920  26.091  1.00  0.00     0.016 A 
ATOM     76  C   UNL A   1      35.000  21.886  25.250  1.00  0.00     0.054 A 
ATOM     77  C   UNL A   1      37.163  23.712  25.239  1.00  0.00     0.001 A 
ATOM     78  C   UNL A   1      36.068  21.736  24.361  1.00  0.00     0.027 A 
ATOM     79  C   UNL A   1      37.149  22.628  24.368  1.00  0.00     0.002 A 
BRANCH  76  80
ATOM     80  N   UNL A   1      33.915  20.978  25.324  1.00  0.00    -0.321 N 
ATOM     81  C   UNL A   1      32.606  21.042  24.907  1.00  0.00     0.255 C 
ATOM     82  H   UNL A   1      34.145  20.128  25.763  1.00  0.00     0.170 HD
ATOM     83  O   UNL A   1      31.841  20.104  25.122  1.00  0.00    -0.269 OA
BRANCH  81  84
ATOM     84  C   UNL A   1      32.095  22.207  24.173  1.00  0.00     0.040 A 
ATOM     85  C   UNL A   1      31.094  22.955  24.783  1.00  0.00     0.016 A 
ATOM     86  C   UNL A   1      32.640  22.610  22.953  1.00  0.00     0.016 A 
ATOM     87  C   UNL A   1      30.747  24.196  24.250  1.00  0.00     0.027 A 
ATOM     88  C   UNL A   1      32.274  23.851  22.417  1.00  0.00     0.027 A 
ATOM     89  C   UNL A   1      31.374  24.693  23.095  1.00  0.00     0.052 A 
BRANCH  89  90
ATOM     90  N   UNL A   1      31.186  26.045  22.688  1.00  0.00    -0.250 N 
ATOM     91  C   UNL A   1      30.063  26.782  22.989  1.00  0.00     0.238 C 
ATOM     92  C   UNL A   1      32.124  26.795  22.023  1.00  0.00     0.238 C 
ATOM     93  O   UNL A   1      29.045  26.422  23.570  1.00  0.00    -0.274 OA
ATOM     94  C   UNL A   1      30.250  28.205  22.521  1.00  0.00     0.096 C 
ATOM     95  C   UNL A   1      31.666  28.231  21.950  1.00  0.00     0.096 C 
ATOM     96  O   UNL A   1      33.170  26.417  21.511  1.00  0.00    -0.274 OA
ATOM     97  C   UNL A   1      29.975  29.173  23.676  1.00  0.00     0.041 C 
ATOM     98  C   UNL A   1      32.681  29.122  22.674  1.00  0.00     0.041 C 
ATOM     99  C   UNL A   1      31.145  29.318  24.601  1.00  0.00    -0.030 C 
ATOM    100  C   UNL A   1      32.399  29.289  24.136  1.00  0.00    -0.030 C 
ENDBRANCH  89  90
ENDBRANCH  81  84
ENDBRANCH  76  80
ENDBRANCH  71  74
ENDBRANCH  69  70
ENDBRANCH   1  69
TORSDOF 16
ENDMDL
