MODEL 1
REMARK VINA RESULT:     -13.4      0.000      0.000
REMARK SMILES COC(=O)c1ccc([C@H]2Nc3c(C(=O)NCCCNC(=O)c4ccc(-c5c6nc(c(-c7ccc(S(=O)(=O)[O-])cc7)c7ccc([nH]7)c(-c7ccc(S(=O)(=O)[O-])cc7)c7nc(c(-c8ccc(S(=O)(=O)[O-])cc8)c8ccc5[nH]8)C=C7)C=C6)cc4)cccc3[C@H]3[C@H]4CC[C@H](C4)[C@H]32)cc1
REMARK SMILES IDX 17 1 16 2 15 3 13 4 14 5 12 7 9 8 10 9 92 10 11 11 86 13
REMARK SMILES IDX 90 14 85 15 87 16 89 17 91 18 82 19 84 20 88 21 83 22 8 23
REMARK SMILES IDX 5 24 6 25 94 26 7 27 93 28 3 29 4 30 2 31 1 32 18 33 19 34
REMARK SMILES IDX 20 35 21 37 22 38 23 39 81 40 24 41 80 42 25 43 26 44 27 45
REMARK SMILES IDX 74 46 28 47 79 48 73 49 75 50 29 51 78 52 72 53 71 54 30 56
REMARK SMILES IDX 60 57 41 58 59 59 42 60 45 61 58 62 76 63 43 64 44 65 57 67
REMARK SMILES IDX 77 68 46 69 31 70 32 71 40 72 33 73 39 74 34 75 35 76 36 77
REMARK SMILES IDX 37 78 38 79 61 80 62 81 70 82 63 83 69 84 64 85 65 86 66 87
REMARK SMILES IDX 67 88 68 89 47 90 48 91 56 92 49 93 55 94 50 95 51 96 52 97
REMARK SMILES IDX 53 98 54 99
REMARK H PARENT 15 6 10 12 19 36 75 55 45 66
REMARK Flexibility Score: inf
ROOT
ATOM      1  C   UNL A   1      39.851  23.112  27.437  1.00  0.00     0.042 C 
ENDROOT
BRANCH   1   2
ATOM      2  C   UNL A   1      38.993  22.890  26.206  1.00  0.00     0.118 C 
BRANCH   2   3
ATOM      3  N   UNL A   1      38.531  21.517  26.022  1.00  0.00    -0.352 N 
ATOM      4  C   UNL A   1      37.411  21.048  25.359  1.00  0.00     0.253 C 
ATOM      5  O   UNL A   1      37.165  19.843  25.353  1.00  0.00    -0.269 OA
ATOM      6  H   UNL A   1      39.098  20.825  26.431  1.00  0.00     0.163 HD
BRANCH   4   7
ATOM      7  C   UNL A   1      36.480  22.020  24.734  1.00  0.00     0.063 A 
ATOM      8  C   UNL A   1      33.454  22.040  26.632  1.00  0.00     0.113 C 
ATOM      9  N   UNL A   1      34.933  22.047  26.654  1.00  0.00    -0.377 N 
ATOM     10  C   UNL A   1      33.025  23.532  26.713  1.00  0.00     0.027 C 
ATOM     11  C   UNL A   1      35.488  22.644  25.499  1.00  0.00     0.051 A 
ATOM     12  H   UNL A   1      35.471  21.677  27.390  1.00  0.00     0.161 HD
ATOM     13  C   UNL A   1      33.947  24.527  25.953  1.00  0.00     0.030 C 
ATOM     14  C   UNL A   1      31.608  24.117  26.497  1.00  0.00    -0.005 C 
ATOM     15  C   UNL A   1      34.895  23.832  25.018  1.00  0.00    -0.020 A 
ATOM     16  C   UNL A   1      32.946  25.596  25.456  1.00  0.00    -0.003 C 
ATOM     17  C   UNL A   1      31.092  24.119  25.054  1.00  0.00     0.004 C 
ATOM     18  C   UNL A   1      31.943  25.623  26.623  1.00  0.00     0.008 C 
ATOM     19  C   UNL A   1      36.631  22.382  23.391  1.00  0.00     0.016 A 
ATOM     20  C   UNL A   1      35.234  24.313  23.751  1.00  0.00     0.006 A 
ATOM     21  C   UNL A   1      32.049  25.070  24.326  1.00  0.00     0.004 C 
ATOM     22  C   UNL A   1      36.033  23.543  22.910  1.00  0.00     0.001 A 
BRANCH   8  23
ATOM     23  C   UNL A   1      33.034  21.007  25.580  1.00  0.00    -0.025 A 
ATOM     24  C   UNL A   1      32.674  18.945  23.646  1.00  0.00     0.060 A 
ATOM     25  C   UNL A   1      33.002  18.625  24.965  1.00  0.00     0.016 A 
ATOM     26  C   UNL A   1      32.523  20.288  23.293  1.00  0.00     0.016 A 
ATOM     27  C   UNL A   1      33.177  19.641  25.914  1.00  0.00     0.007 A 
ATOM     28  C   UNL A   1      32.726  21.299  24.245  1.00  0.00     0.007 A 
BRANCH  24  29
ATOM     29  C   UNL A   1      32.533  17.834  22.666  1.00  0.00     0.337 C 
ATOM     30  O   UNL A   1      31.997  17.955  21.581  1.00  0.00    -0.246 OA
BRANCH  29  31
ATOM     31  O   UNL A   1      33.041  16.681  23.178  1.00  0.00    -0.465 OA
ATOM     32  C   UNL A   1      34.469  16.616  23.149  1.00  0.00     0.282 C 
ENDBRANCH  29  31
ENDBRANCH  24  29
ENDBRANCH   8  23
ENDBRANCH   4   7
ENDBRANCH   2   3
ENDBRANCH   1   2
BRANCH   1  33
ATOM     33  C   UNL A   1      41.329  23.295  27.155  1.00  0.00     0.118 C 
BRANCH  33  34
ATOM     34  N   UNL A   1      41.587  24.220  26.058  1.00  0.00    -0.352 N 
ATOM     35  C   UNL A   1      41.513  25.589  25.993  1.00  0.00     0.251 C 
ATOM     36  H   UNL A   1      41.862  23.786  25.218  1.00  0.00     0.163 HD
ATOM     37  O   UNL A   1      41.609  26.132  24.894  1.00  0.00    -0.269 OA
BRANCH  35  38
ATOM     38  C   UNL A   1      41.302  26.412  27.206  1.00  0.00     0.039 A 
ATOM     39  C   UNL A   1      42.265  27.368  27.543  1.00  0.00     0.014 A 
ATOM     40  C   UNL A   1      40.197  26.229  28.040  1.00  0.00     0.014 A 
ATOM     41  C   UNL A   1      42.091  28.167  28.677  1.00  0.00     0.010 A 
ATOM     42  C   UNL A   1      39.969  27.097  29.106  1.00  0.00     0.010 A 
ATOM     43  C   UNL A   1      40.924  28.062  29.452  1.00  0.00    -0.014 A 
BRANCH  43  44
ATOM     44  C   UNL A   1      40.707  28.936  30.634  1.00  0.00     0.031 A 
ATOM     45  C   UNL A   1      41.559  28.777  31.868  1.00  0.00     0.074 A 
ATOM     46  C   UNL A   1      39.723  29.858  30.610  1.00  0.00     0.049 A 
ATOM     47  N   UNL A   1      41.522  29.457  32.987  1.00  0.00    -0.248 NA
ATOM     48  C   UNL A   1      42.564  27.703  31.856  1.00  0.00     0.031 C 
ATOM     49  C   UNL A   1      38.795  30.079  29.497  1.00  0.00     0.029 A 
ATOM     50  N   UNL A   1      39.341  30.786  31.546  1.00  0.00    -0.354 N 
ATOM     51  C   UNL A   1      42.486  28.885  33.810  1.00  0.00     0.074 A 
ATOM     52  C   UNL A   1      43.047  27.765  33.088  1.00  0.00     0.031 C 
ATOM     53  C   UNL A   1      37.983  31.104  29.798  1.00  0.00     0.029 A 
ATOM     54  C   UNL A   1      38.302  31.589  31.137  1.00  0.00     0.049 A 
ATOM     55  H   UNL A   1      39.771  30.869  32.428  1.00  0.00     0.167 HD
ATOM     56  C   UNL A   1      42.889  29.269  35.046  1.00  0.00     0.031 A 
ATOM     57  C   UNL A   1      37.678  32.604  31.766  1.00  0.00     0.031 A 
ATOM     58  C   UNL A   1      42.335  30.389  35.762  1.00  0.00     0.049 A 
ATOM     59  C   UNL A   1      38.142  33.012  33.137  1.00  0.00     0.074 A 
ATOM     60  C   UNL A   1      42.710  30.892  36.995  1.00  0.00     0.029 A 
ATOM     61  N   UNL A   1      41.286  31.177  35.312  1.00  0.00    -0.354 N 
ATOM     62  N   UNL A   1      39.105  32.504  33.868  1.00  0.00    -0.248 NA
ATOM     63  C   UNL A   1      37.448  34.147  33.757  1.00  0.00     0.031 C 
ATOM     64  C   UNL A   1      41.850  31.947  37.317  1.00  0.00     0.029 A 
ATOM     65  C   UNL A   1      40.985  32.146  36.253  1.00  0.00     0.049 A 
ATOM     66  H   UNL A   1      40.825  31.063  34.450  1.00  0.00     0.167 HD
ATOM     67  C   UNL A   1      39.152  33.276  35.024  1.00  0.00     0.074 A 
ATOM     68  C   UNL A   1      38.135  34.299  34.881  1.00  0.00     0.031 C 
ATOM     69  C   UNL A   1      39.963  33.153  36.104  1.00  0.00     0.031 A 
BRANCH  56  70
ATOM     70  C   UNL A   1      43.984  28.466  35.703  1.00  0.00    -0.014 A 
ATOM     71  C   UNL A   1      43.687  27.357  36.517  1.00  0.00     0.010 A 
ATOM     72  C   UNL A   1      45.331  28.800  35.473  1.00  0.00     0.010 A 
ATOM     73  C   UNL A   1      44.712  26.628  37.125  1.00  0.00     0.020 A 
ATOM     74  C   UNL A   1      46.361  28.052  36.051  1.00  0.00     0.020 A 
ATOM     75  C   UNL A   1      46.044  26.981  36.888  1.00  0.00     0.054 A 
BRANCH  75  76
ATOM     76  S   UNL A   1      47.354  25.999  37.669  1.00  0.00     0.124 S 
ATOM     77  O   UNL A   1      48.354  25.934  36.606  1.00  0.00    -0.237 OA
ATOM     78  O   UNL A   1      47.720  26.815  38.824  1.00  0.00    -0.237 OA
ATOM     79  O   UNL A   1      46.698  24.733  37.985  1.00  0.00    -0.744 OA
ENDBRANCH  75  76
ENDBRANCH  56  70
BRANCH  57  80
ATOM     80  C   UNL A   1      36.560  33.321  31.092  1.00  0.00    -0.014 A 
ATOM     81  C   UNL A   1      36.728  33.863  29.805  1.00  0.00     0.010 A 
ATOM     82  C   UNL A   1      35.316  33.462  31.734  1.00  0.00     0.010 A 
ATOM     83  C   UNL A   1      35.682  34.552  29.183  1.00  0.00     0.020 A 
ATOM     84  C   UNL A   1      34.258  34.123  31.103  1.00  0.00     0.020 A 
ATOM     85  C   UNL A   1      34.453  34.675  29.836  1.00  0.00     0.054 A 
BRANCH  85  86
ATOM     86  S   UNL A   1      33.095  35.533  28.991  1.00  0.00     0.124 S 
ATOM     87  O   UNL A   1      32.289  36.005  30.111  1.00  0.00    -0.237 OA
ATOM     88  O   UNL A   1      33.799  36.566  28.234  1.00  0.00    -0.237 OA
ATOM     89  O   UNL A   1      32.484  34.485  28.175  1.00  0.00    -0.744 OA
ENDBRANCH  85  86
ENDBRANCH  57  80
BRANCH  69  90
ATOM     90  C   UNL A   1      39.807  34.175  37.202  1.00  0.00    -0.014 A 
ATOM     91  C   UNL A   1      39.042  33.908  38.351  1.00  0.00     0.010 A 
ATOM     92  C   UNL A   1      40.450  35.420  37.083  1.00  0.00     0.010 A 
ATOM     93  C   UNL A   1      38.874  34.890  39.332  1.00  0.00     0.020 A 
ATOM     94  C   UNL A   1      40.314  36.391  38.077  1.00  0.00     0.020 A 
ATOM     95  C   UNL A   1      39.506  36.129  39.184  1.00  0.00     0.054 A 
BRANCH  95  96
ATOM     96  S   UNL A   1      39.272  37.387  40.469  1.00  0.00     0.124 S 
ATOM     97  O   UNL A   1      38.351  38.316  39.820  1.00  0.00    -0.237 OA
ATOM     98  O   UNL A   1      38.712  36.616  41.575  1.00  0.00    -0.237 OA
ATOM     99  O   UNL A   1      40.619  37.904  40.698  1.00  0.00    -0.744 OA
ENDBRANCH  95  96
ENDBRANCH  69  90
ENDBRANCH  43  44
ENDBRANCH  35  38
ENDBRANCH  33  34
ENDBRANCH   1  33
TORSDOF 16
ENDMDL
MODEL 2
REMARK VINA RESULT:     -12.4      5.858      8.039
REMARK SMILES COC(=O)c1ccc([C@H]2Nc3c(C(=O)NCCCNC(=O)c4ccc(-c5c6nc(c(-c7ccc(S(=O)(=O)[O-])cc7)c7ccc([nH]7)c(-c7ccc(S(=O)(=O)[O-])cc7)c7nc(c(-c8ccc(S(=O)(=O)[O-])cc8)c8ccc5[nH]8)C=C7)C=C6)cc4)cccc3[C@H]3[C@H]4CC[C@H](C4)[C@H]32)cc1
REMARK SMILES IDX 17 1 16 2 15 3 13 4 14 5 12 7 9 8 10 9 92 10 11 11 86 13
REMARK SMILES IDX 90 14 85 15 87 16 89 17 91 18 82 19 84 20 88 21 83 22 8 23
REMARK SMILES IDX 5 24 6 25 94 26 7 27 93 28 3 29 4 30 2 31 1 32 18 33 19 34
REMARK SMILES IDX 20 35 21 37 22 38 23 39 81 40 24 41 80 42 25 43 26 44 27 45
REMARK SMILES IDX 74 46 28 47 79 48 73 49 75 50 29 51 78 52 72 53 71 54 30 56
REMARK SMILES IDX 60 57 41 58 59 59 42 60 45 61 58 62 76 63 43 64 44 65 57 67
REMARK SMILES IDX 77 68 46 69 31 70 32 71 40 72 33 73 39 74 34 75 35 76 36 77
REMARK SMILES IDX 37 78 38 79 61 80 62 81 70 82 63 83 69 84 64 85 65 86 66 87
REMARK SMILES IDX 67 88 68 89 47 90 48 91 56 92 49 93 55 94 50 95 51 96 52 97
REMARK SMILES IDX 53 98 54 99
REMARK H PARENT 15 6 10 12 19 36 75 55 45 66
REMARK Flexibility Score: inf
ROOT
ATOM      1  C   UNL A   1      38.379  19.785  25.095  1.00  0.00     0.042 C 
ENDROOT
BRANCH   1   2
ATOM      2  C   UNL A   1      37.322  20.868  24.993  1.00  0.00     0.118 C 
BRANCH   2   3
ATOM      3  N   UNL A   1      37.580  22.052  25.807  1.00  0.00    -0.352 N 
ATOM      4  C   UNL A   1      36.993  23.304  25.750  1.00  0.00     0.253 C 
ATOM      5  O   UNL A   1      37.382  24.197  26.500  1.00  0.00    -0.269 OA
ATOM      6  H   UNL A   1      38.274  21.945  26.496  1.00  0.00     0.163 HD
BRANCH   4   7
ATOM      7  C   UNL A   1      35.954  23.569  24.722  1.00  0.00     0.063 A 
ATOM      8  C   UNL A   1      32.842  24.090  26.396  1.00  0.00     0.113 C 
ATOM      9  N   UNL A   1      34.292  24.379  26.354  1.00  0.00    -0.377 N 
ATOM     10  C   UNL A   1      32.156  25.262  25.641  1.00  0.00     0.027 C 
ATOM     11  C   UNL A   1      34.817  24.318  25.042  1.00  0.00     0.051 A 
ATOM     12  H   UNL A   1      34.832  24.591  27.149  1.00  0.00     0.161 HD
ATOM     13  C   UNL A   1      32.944  25.812  24.418  1.00  0.00     0.030 C 
ATOM     14  C   UNL A   1      30.678  25.354  25.188  1.00  0.00    -0.005 C 
ATOM     15  C   UNL A   1      34.062  24.901  23.999  1.00  0.00    -0.020 A 
ATOM     16  C   UNL A   1      31.811  26.214  23.445  1.00  0.00    -0.003 C 
ATOM     17  C   UNL A   1      30.275  24.454  24.016  1.00  0.00     0.004 C 
ATOM     18  C   UNL A   1      30.737  26.704  24.432  1.00  0.00     0.008 C 
ATOM     19  C   UNL A   1      36.137  23.139  23.404  1.00  0.00     0.016 A 
ATOM     20  C   UNL A   1      34.404  24.645  22.670  1.00  0.00     0.006 A 
ATOM     21  C   UNL A   1      31.102  24.992  22.842  1.00  0.00     0.004 C 
ATOM     22  C   UNL A   1      35.382  23.698  22.377  1.00  0.00     0.001 A 
BRANCH   8  23
ATOM     23  C   UNL A   1      32.685  22.589  26.124  1.00  0.00    -0.025 A 
ATOM     24  C   UNL A   1      32.823  19.810  25.510  1.00  0.00     0.060 A 
ATOM     25  C   UNL A   1      33.569  20.336  26.567  1.00  0.00     0.016 A 
ATOM     26  C   UNL A   1      32.008  20.665  24.765  1.00  0.00     0.016 A 
ATOM     27  C   UNL A   1      33.498  21.703  26.867  1.00  0.00     0.007 A 
ATOM     28  C   UNL A   1      31.965  22.037  25.058  1.00  0.00     0.007 A 
BRANCH  24  29
ATOM     29  C   UNL A   1      32.958  18.358  25.208  1.00  0.00     0.337 C 
ATOM     30  O   UNL A   1      32.606  17.476  25.967  1.00  0.00    -0.246 OA
BRANCH  29  31
ATOM     31  O   UNL A   1      33.563  18.178  24.003  1.00  0.00    -0.465 OA
ATOM     32  C   UNL A   1      34.406  17.025  23.948  1.00  0.00     0.282 C 
ENDBRANCH  29  31
ENDBRANCH  24  29
ENDBRANCH   8  23
ENDBRANCH   4   7
ENDBRANCH   2   3
ENDBRANCH   1   2
BRANCH   1  33
ATOM     33  C   UNL A   1      39.407  20.003  26.188  1.00  0.00     0.118 C 
BRANCH  33  34
ATOM     34  N   UNL A   1      40.560  19.120  26.065  1.00  0.00    -0.352 N 
ATOM     35  C   UNL A   1      41.906  19.388  26.043  1.00  0.00     0.251 C 
ATOM     36  H   UNL A   1      40.334  18.165  25.986  1.00  0.00     0.163 HD
ATOM     37  O   UNL A   1      42.683  18.479  25.750  1.00  0.00    -0.269 OA
BRANCH  35  38
ATOM     38  C   UNL A   1      42.433  20.740  26.340  1.00  0.00     0.039 A 
ATOM     39  C   UNL A   1      42.807  21.563  25.274  1.00  0.00     0.014 A 
ATOM     40  C   UNL A   1      42.609  21.192  27.650  1.00  0.00     0.014 A 
ATOM     41  C   UNL A   1      43.300  22.847  25.521  1.00  0.00     0.010 A 
ATOM     42  C   UNL A   1      42.996  22.508  27.892  1.00  0.00     0.010 A 
ATOM     43  C   UNL A   1      43.368  23.345  26.833  1.00  0.00    -0.014 A 
BRANCH  43  44
ATOM     44  C   UNL A   1      43.850  24.725  27.106  1.00  0.00     0.031 A 
ATOM     45  C   UNL A   1      45.304  25.077  26.920  1.00  0.00     0.074 A 
ATOM     46  C   UNL A   1      42.983  25.658  27.549  1.00  0.00     0.049 A 
ATOM     47  N   UNL A   1      45.901  26.229  27.096  1.00  0.00    -0.248 NA
ATOM     48  C   UNL A   1      46.210  23.994  26.507  1.00  0.00     0.031 C 
ATOM     49  C   UNL A   1      41.560  25.433  27.819  1.00  0.00     0.029 A 
ATOM     50  N   UNL A   1      43.169  26.985  27.846  1.00  0.00    -0.354 N 
ATOM     51  C   UNL A   1      47.247  26.005  26.829  1.00  0.00     0.074 A 
ATOM     52  C   UNL A   1      47.390  24.595  26.539  1.00  0.00     0.031 C 
ATOM     53  C   UNL A   1      40.995  26.590  28.198  1.00  0.00     0.029 A 
ATOM     54  C   UNL A   1      42.019  27.630  28.239  1.00  0.00     0.049 A 
ATOM     55  H   UNL A   1      44.043  27.433  27.784  1.00  0.00     0.167 HD
ATOM     56  C   UNL A   1      48.271  26.892  26.800  1.00  0.00     0.031 A 
ATOM     57  C   UNL A   1      41.810  28.914  28.588  1.00  0.00     0.031 A 
ATOM     58  C   UNL A   1      48.127  28.297  27.081  1.00  0.00     0.049 A 
ATOM     59  C   UNL A   1      42.961  29.881  28.549  1.00  0.00     0.074 A 
ATOM     60  C   UNL A   1      49.091  29.288  27.028  1.00  0.00     0.029 A 
ATOM     61  N   UNL A   1      46.946  28.910  27.473  1.00  0.00    -0.354 N 
ATOM     62  N   UNL A   1      44.212  29.662  28.222  1.00  0.00    -0.248 NA
ATOM     63  C   UNL A   1      42.665  31.274  28.906  1.00  0.00     0.031 C 
ATOM     64  C   UNL A   1      48.507  30.489  27.443  1.00  0.00     0.029 A 
ATOM     65  C   UNL A   1      47.163  30.260  27.688  1.00  0.00     0.049 A 
ATOM     66  H   UNL A   1      46.082  28.452  27.582  1.00  0.00     0.167 HD
ATOM     67  C   UNL A   1      44.847  30.897  28.306  1.00  0.00     0.074 A 
ATOM     68  C   UNL A   1      43.834  31.859  28.691  1.00  0.00     0.031 C 
ATOM     69  C   UNL A   1      46.149  31.207  28.082  1.00  0.00     0.031 A 
BRANCH  56  70
ATOM     70  C   UNL A   1      49.641  26.365  26.454  1.00  0.00    -0.014 A 
ATOM     71  C   UNL A   1      50.448  25.738  27.422  1.00  0.00     0.010 A 
ATOM     72  C   UNL A   1      50.115  26.462  25.133  1.00  0.00     0.010 A 
ATOM     73  C   UNL A   1      51.717  25.261  27.087  1.00  0.00     0.020 A 
ATOM     74  C   UNL A   1      51.371  25.956  24.785  1.00  0.00     0.020 A 
ATOM     75  C   UNL A   1      52.172  25.374  25.770  1.00  0.00     0.054 A 
BRANCH  75  76
ATOM     76  S   UNL A   1      53.814  24.722  25.359  1.00  0.00     0.124 S 
ATOM     77  O   UNL A   1      54.210  25.586  24.249  1.00  0.00    -0.237 OA
ATOM     78  O   UNL A   1      54.556  24.917  26.601  1.00  0.00    -0.237 OA
ATOM     79  O   UNL A   1      53.555  23.329  25.001  1.00  0.00    -0.744 OA
ENDBRANCH  75  76
ENDBRANCH  56  70
BRANCH  57  80
ATOM     80  C   UNL A   1      40.445  29.364  28.982  1.00  0.00    -0.014 A 
ATOM     81  C   UNL A   1      39.488  29.693  28.005  1.00  0.00     0.010 A 
ATOM     82  C   UNL A   1      40.094  29.463  30.341  1.00  0.00     0.010 A 
ATOM     83  C   UNL A   1      38.215  30.134  28.379  1.00  0.00     0.020 A 
ATOM     84  C   UNL A   1      38.812  29.873  30.718  1.00  0.00     0.020 A 
ATOM     85  C   UNL A   1      37.885  30.218  29.734  1.00  0.00     0.054 A 
BRANCH  85  86
ATOM     86  S   UNL A   1      36.212  30.748  30.195  1.00  0.00     0.124 S 
ATOM     87  O   UNL A   1      35.948  29.931  31.375  1.00  0.00    -0.237 OA
ATOM     88  O   UNL A   1      36.390  32.177  30.439  1.00  0.00    -0.237 OA
ATOM     89  O   UNL A   1      35.412  30.422  29.015  1.00  0.00    -0.744 OA
ENDBRANCH  85  86
ENDBRANCH  57  80
BRANCH  69  90
ATOM     90  C   UNL A   1      46.542  32.657  28.213  1.00  0.00    -0.014 A 
ATOM     91  C   UNL A   1      46.512  33.529  27.111  1.00  0.00     0.010 A 
ATOM     92  C   UNL A   1      46.938  33.154  29.468  1.00  0.00     0.010 A 
ATOM     93  C   UNL A   1      46.928  34.857  27.249  1.00  0.00     0.020 A 
ATOM     94  C   UNL A   1      47.320  34.488  29.619  1.00  0.00     0.020 A 
ATOM     95  C   UNL A   1      47.336  35.326  28.502  1.00  0.00     0.054 A 
BRANCH  95  96
ATOM     96  S   UNL A   1      47.873  37.052  28.656  1.00  0.00     0.124 S 
ATOM     97  O   UNL A   1      46.599  37.765  28.675  1.00  0.00    -0.237 OA
ATOM     98  O   UNL A   1      48.609  37.047  29.917  1.00  0.00    -0.237 OA
ATOM     99  O   UNL A   1      48.691  37.268  27.465  1.00  0.00    -0.744 OA
ENDBRANCH  95  96
ENDBRANCH  69  90
ENDBRANCH  43  44
ENDBRANCH  35  38
ENDBRANCH  33  34
ENDBRANCH   1  33
TORSDOF 16
ENDMDL
MODEL 3
REMARK VINA RESULT:     -12.3      6.178     11.860
REMARK SMILES COC(=O)c1ccc([C@H]2Nc3c(C(=O)NCCCNC(=O)c4ccc(-c5c6nc(c(-c7ccc(S(=O)(=O)[O-])cc7)c7ccc([nH]7)c(-c7ccc(S(=O)(=O)[O-])cc7)c7nc(c(-c8ccc(S(=O)(=O)[O-])cc8)c8ccc5[nH]8)C=C7)C=C6)cc4)cccc3[C@H]3[C@H]4CC[C@H](C4)[C@H]32)cc1
REMARK SMILES IDX 17 1 16 2 15 3 13 4 14 5 12 7 9 8 10 9 92 10 11 11 86 13
REMARK SMILES IDX 90 14 85 15 87 16 89 17 91 18 82 19 84 20 88 21 83 22 8 23
REMARK SMILES IDX 5 24 6 25 94 26 7 27 93 28 3 29 4 30 2 31 1 32 18 33 19 34
REMARK SMILES IDX 20 35 21 37 22 38 23 39 81 40 24 41 80 42 25 43 26 44 27 45
REMARK SMILES IDX 74 46 28 47 79 48 73 49 75 50 29 51 78 52 72 53 71 54 30 56
REMARK SMILES IDX 60 57 41 58 59 59 42 60 45 61 58 62 76 63 43 64 44 65 57 67
REMARK SMILES IDX 77 68 46 69 31 70 32 71 40 72 33 73 39 74 34 75 35 76 36 77
REMARK SMILES IDX 37 78 38 79 61 80 62 81 70 82 63 83 69 84 64 85 65 86 66 87
REMARK SMILES IDX 67 88 68 89 47 90 48 91 56 92 49 93 55 94 50 95 51 96 52 97
REMARK SMILES IDX 53 98 54 99
REMARK H PARENT 15 6 10 12 19 36 75 55 45 66
REMARK Flexibility Score: inf
ROOT
ATOM      1  C   UNL A   1      36.144  30.134  28.492  1.00  0.00     0.042 C 
ENDROOT
BRANCH   1   2
ATOM      2  C   UNL A   1      35.239  29.411  27.514  1.00  0.00     0.118 C 
BRANCH   2   3
ATOM      3  N   UNL A   1      34.264  30.262  26.839  1.00  0.00    -0.352 N 
ATOM      4  C   UNL A   1      33.072  29.918  26.225  1.00  0.00     0.253 C 
ATOM      5  O   UNL A   1      32.402  30.783  25.664  1.00  0.00    -0.269 OA
ATOM      6  H   UNL A   1      34.487  31.220  26.815  1.00  0.00     0.163 HD
BRANCH   4   7
ATOM      7  C   UNL A   1      32.664  28.491  26.186  1.00  0.00     0.063 A 
ATOM      8  C   UNL A   1      33.048  27.317  22.834  1.00  0.00     0.113 C 
ATOM      9  N   UNL A   1      33.630  28.091  23.953  1.00  0.00    -0.377 N 
ATOM     10  C   UNL A   1      33.636  25.885  22.961  1.00  0.00     0.027 C 
ATOM     11  C   UNL A   1      33.188  27.631  25.215  1.00  0.00     0.051 A 
ATOM     12  H   UNL A   1      34.255  28.841  23.832  1.00  0.00     0.161 HD
ATOM     13  C   UNL A   1      33.834  25.378  24.418  1.00  0.00     0.030 C 
ATOM     14  C   UNL A   1      33.193  24.614  22.195  1.00  0.00    -0.005 C 
ATOM     15  C   UNL A   1      33.124  26.235  25.426  1.00  0.00    -0.020 A 
ATOM     16  C   UNL A   1      33.547  23.864  24.287  1.00  0.00    -0.003 C 
ATOM     17  C   UNL A   1      31.841  24.019  22.600  1.00  0.00     0.004 C 
ATOM     18  C   UNL A   1      34.115  23.578  22.885  1.00  0.00     0.008 C 
ATOM     19  C   UNL A   1      31.810  27.972  27.165  1.00  0.00     0.016 A 
ATOM     20  C   UNL A   1      32.457  25.734  26.546  1.00  0.00     0.006 A 
ATOM     21  C   UNL A   1      32.057  23.574  24.050  1.00  0.00     0.004 C 
ATOM     22  C   UNL A   1      31.731  26.597  27.363  1.00  0.00     0.001 A 
BRANCH   8  23
ATOM     23  C   UNL A   1      31.568  27.712  22.750  1.00  0.00    -0.025 A 
ATOM     24  C   UNL A   1      28.926  28.773  22.873  1.00  0.00     0.060 A 
ATOM     25  C   UNL A   1      29.967  29.534  22.338  1.00  0.00     0.016 A 
ATOM     26  C   UNL A   1      29.200  27.486  23.341  1.00  0.00     0.016 A 
ATOM     27  C   UNL A   1      31.265  29.009  22.278  1.00  0.00     0.007 A 
ATOM     28  C   UNL A   1      30.509  26.979  23.300  1.00  0.00     0.007 A 
BRANCH  24  29
ATOM     29  C   UNL A   1      27.572  29.386  22.947  1.00  0.00     0.337 C 
ATOM     30  O   UNL A   1      26.573  28.776  23.278  1.00  0.00    -0.246 OA
BRANCH  29  31
ATOM     31  O   UNL A   1      27.617  30.687  22.554  1.00  0.00    -0.465 OA
ATOM     32  C   UNL A   1      27.534  31.620  23.634  1.00  0.00     0.282 C 
ENDBRANCH  29  31
ENDBRANCH  24  29
ENDBRANCH   8  23
ENDBRANCH   4   7
ENDBRANCH   2   3
ENDBRANCH   1   2
BRANCH   1  33
ATOM     33  C   UNL A   1      35.918  29.777  29.948  1.00  0.00     0.118 C 
BRANCH  33  34
ATOM     34  N   UNL A   1      36.134  30.902  30.848  1.00  0.00    -0.352 N 
ATOM     35  C   UNL A   1      37.283  31.413  31.399  1.00  0.00     0.251 C 
ATOM     36  H   UNL A   1      35.312  31.381  31.105  1.00  0.00     0.163 HD
ATOM     37  O   UNL A   1      37.186  32.269  32.277  1.00  0.00    -0.269 OA
BRANCH  35  38
ATOM     38  C   UNL A   1      38.622  30.942  30.975  1.00  0.00     0.039 A 
ATOM     39  C   UNL A   1      39.332  30.089  31.825  1.00  0.00     0.014 A 
ATOM     40  C   UNL A   1      39.208  31.361  29.779  1.00  0.00     0.014 A 
ATOM     41  C   UNL A   1      40.595  29.620  31.451  1.00  0.00     0.010 A 
ATOM     42  C   UNL A   1      40.415  30.808  29.357  1.00  0.00     0.010 A 
ATOM     43  C   UNL A   1      41.135  29.949  30.197  1.00  0.00    -0.014 A 
BRANCH  43  44
ATOM     44  C   UNL A   1      42.457  29.422  29.768  1.00  0.00     0.031 A 
ATOM     45  C   UNL A   1      42.575  28.034  29.190  1.00  0.00     0.074 A 
ATOM     46  C   UNL A   1      43.560  30.181  29.925  1.00  0.00     0.049 A 
ATOM     47  N   UNL A   1      43.641  27.413  28.751  1.00  0.00    -0.248 NA
ATOM     48  C   UNL A   1      41.344  27.231  29.116  1.00  0.00     0.031 C 
ATOM     49  C   UNL A   1      43.590  31.521  30.519  1.00  0.00     0.029 A 
ATOM     50  N   UNL A   1      44.870  29.938  29.594  1.00  0.00    -0.354 N 
ATOM     51  C   UNL A   1      43.211  26.149  28.364  1.00  0.00     0.074 A 
ATOM     52  C   UNL A   1      41.802  26.068  28.676  1.00  0.00     0.031 C 
ATOM     53  C   UNL A   1      44.844  31.997  30.470  1.00  0.00     0.029 A 
ATOM     54  C   UNL A   1      45.716  30.985  29.880  1.00  0.00     0.049 A 
ATOM     55  H   UNL A   1      45.175  29.094  29.191  1.00  0.00     0.167 HD
ATOM     56  C   UNL A   1      43.916  25.151  27.777  1.00  0.00     0.031 A 
ATOM     57  C   UNL A   1      47.042  31.119  29.686  1.00  0.00     0.031 A 
ATOM     58  C   UNL A   1      45.318  25.234  27.460  1.00  0.00     0.049 A 
ATOM     59  C   UNL A   1      47.803  29.998  29.033  1.00  0.00     0.074 A 
ATOM     60  C   UNL A   1      46.111  24.299  26.818  1.00  0.00     0.029 A 
ATOM     61  N   UNL A   1      46.137  26.311  27.763  1.00  0.00    -0.354 N 
ATOM     62  N   UNL A   1      47.362  28.838  28.608  1.00  0.00    -0.248 NA
ATOM     63  C   UNL A   1      49.239  30.215  28.816  1.00  0.00     0.031 C 
ATOM     64  C   UNL A   1      47.422  24.787  26.786  1.00  0.00     0.029 A 
ATOM     65  C   UNL A   1      47.431  26.055  27.344  1.00  0.00     0.049 A 
ATOM     66  H   UNL A   1      45.841  27.136  28.211  1.00  0.00     0.167 HD
ATOM     67  C   UNL A   1      48.462  28.198  28.045  1.00  0.00     0.074 A 
ATOM     68  C   UNL A   1      49.580  29.112  28.165  1.00  0.00     0.031 C 
ATOM     69  C   UNL A   1      48.539  26.968  27.479  1.00  0.00     0.031 A 
BRANCH  56  70
ATOM     70  C   UNL A   1      43.178  23.878  27.444  1.00  0.00    -0.014 A 
ATOM     71  C   UNL A   1      42.683  23.640  26.148  1.00  0.00     0.010 A 
ATOM     72  C   UNL A   1      43.009  22.888  28.429  1.00  0.00     0.010 A 
ATOM     73  C   UNL A   1      41.995  22.460  25.856  1.00  0.00     0.020 A 
ATOM     74  C   UNL A   1      42.352  21.690  28.133  1.00  0.00     0.020 A 
ATOM     75  C   UNL A   1      41.833  21.492  26.852  1.00  0.00     0.054 A 
BRANCH  75  76
ATOM     76  S   UNL A   1      40.958  19.957  26.437  1.00  0.00     0.124 S 
ATOM     77  O   UNL A   1      41.863  19.351  25.463  1.00  0.00    -0.237 OA
ATOM     78  O   UNL A   1      40.877  19.277  27.726  1.00  0.00    -0.237 OA
ATOM     79  O   UNL A   1      39.682  20.420  25.897  1.00  0.00    -0.744 OA
ENDBRANCH  75  76
ENDBRANCH  56  70
BRANCH  57  80
ATOM     80  C   UNL A   1      47.730  32.375  30.094  1.00  0.00    -0.014 A 
ATOM     81  C   UNL A   1      47.840  33.455  29.199  1.00  0.00     0.010 A 
ATOM     82  C   UNL A   1      48.276  32.500  31.385  1.00  0.00     0.010 A 
ATOM     83  C   UNL A   1      48.504  34.626  29.579  1.00  0.00     0.020 A 
ATOM     84  C   UNL A   1      48.912  33.681  31.778  1.00  0.00     0.020 A 
ATOM     85  C   UNL A   1      49.033  34.732  30.868  1.00  0.00     0.054 A 
BRANCH  85  86
ATOM     86  S   UNL A   1      49.849  36.278  31.354  1.00  0.00     0.124 S 
ATOM     87  O   UNL A   1      50.033  36.943  30.069  1.00  0.00    -0.237 OA
ATOM     88  O   UNL A   1      48.865  36.885  32.248  1.00  0.00    -0.237 OA
ATOM     89  O   UNL A   1      51.076  35.826  32.008  1.00  0.00    -0.744 OA
ENDBRANCH  85  86
ENDBRANCH  57  80
BRANCH  69  90
ATOM     90  C   UNL A   1      49.873  26.554  26.911  1.00  0.00    -0.014 A 
ATOM     91  C   UNL A   1      50.855  25.942  27.711  1.00  0.00     0.010 A 
ATOM     92  C   UNL A   1      50.142  26.773  25.547  1.00  0.00     0.010 A 
ATOM     93  C   UNL A   1      52.102  25.612  27.171  1.00  0.00     0.020 A 
ATOM     94  C   UNL A   1      51.372  26.413  24.995  1.00  0.00     0.020 A 
ATOM     95  C   UNL A   1      52.354  25.856  25.817  1.00  0.00     0.054 A 
BRANCH  95  96
ATOM     96  S   UNL A   1      53.980  25.421  25.140  1.00  0.00     0.124 S 
ATOM     97  O   UNL A   1      53.757  24.055  24.672  1.00  0.00    -0.237 OA
ATOM     98  O   UNL A   1      54.168  26.421  24.093  1.00  0.00    -0.237 OA
ATOM     99  O   UNL A   1      54.877  25.549  26.285  1.00  0.00    -0.744 OA
ENDBRANCH  95  96
ENDBRANCH  69  90
ENDBRANCH  43  44
ENDBRANCH  35  38
ENDBRANCH  33  34
ENDBRANCH   1  33
TORSDOF 16
ENDMDL
