MODEL 1
REMARK VINA RESULT:     -11.0      0.000      0.000
REMARK SMILES O=C(C[C@H](CNC(=O)c1ccccn1)c1ccc(Cl)cc1)NCCCNC(=O)c1ccc(-c2c3nc(c(-c4ccc(S(=O)(=O)[O-])cc4)c4ccc([nH]4)c(-c4ccc(S(=O)(=O)[O-])cc4)c4nc(c(-c5ccc(S(=O)(=O)[O-])cc5)c5ccc2[nH]5)C=C4)C=C3)cc1
REMARK SMILES IDX 23 1 22 2 1 3 2 4 3 6 4 7 15 8 16 9 21 10 17 11 20 12 18 13
REMARK SMILES IDX 19 14 5 15 6 16 7 17 8 19 9 20 10 21 14 22 11 23 13 24 12 25
REMARK SMILES IDX 24 26 25 27 26 28 27 29 28 31 29 32 30 33 88 34 31 35 87 36
REMARK SMILES IDX 32 37 33 38 34 39 81 40 35 41 86 42 80 43 82 44 36 45 85 46
REMARK SMILES IDX 79 47 78 48 37 50 67 51 48 52 66 53 49 54 52 55 65 56 83 57
REMARK SMILES IDX 50 58 51 59 64 61 84 62 53 63 38 64 39 65 47 66 40 67 46 68
REMARK SMILES IDX 41 69 42 70 43 71 44 72 45 73 68 74 69 75 77 76 70 77 76 78
REMARK SMILES IDX 71 79 72 80 73 81 74 82 75 83 54 84 55 85 63 86 56 87 62 88
REMARK SMILES IDX 57 89 58 90 59 91 60 92 61 93
REMARK H PARENT 22 5 6 18 26 30 82 49 52 60
REMARK Flexibility Score: inf
ROOT
ATOM      1  C   UNL A   1      31.317  26.832  26.705  1.00  0.00     0.117 C 
ENDROOT
BRANCH   1   2
ATOM      2  N   UNL A   1      31.087  25.724  25.794  1.00  0.00    -0.356 N 
ATOM      3  O   UNL A   1      31.427  24.085  27.356  1.00  0.00    -0.275 OA
ATOM      4  C   UNL A   1      31.103  24.415  26.220  1.00  0.00     0.220 C 
ATOM      5  H   UNL A   1      30.916  25.915  24.843  1.00  0.00     0.163 HD
BRANCH   4   6
ATOM      6  C   UNL A   1      30.689  23.385  25.184  1.00  0.00     0.110 C 
BRANCH   6   7
ATOM      7  C   UNL A   1      31.801  23.031  24.178  1.00  0.00     0.048 C 
BRANCH   7   8
ATOM      8  C   UNL A   1      32.272  21.588  24.336  1.00  0.00    -0.043 A 
ATOM      9  C   UNL A   1      32.206  20.670  23.273  1.00  0.00     0.005 A 
ATOM     10  C   UNL A   1      32.797  21.152  25.563  1.00  0.00     0.005 A 
ATOM     11  C   UNL A   1      32.697  19.370  23.417  1.00  0.00     0.021 A 
ATOM     12  C   UNL A   1      33.271  19.845  25.714  1.00  0.00     0.021 A 
ATOM     13  C   UNL A   1      33.230  18.964  24.636  1.00  0.00     0.041 A 
ATOM     14  Cl  UNL A   1      33.848  17.368  24.811  1.00  0.00    -0.084 Cl
ENDBRANCH   7   8
BRANCH   7  15
ATOM     15  C   UNL A   1      31.484  23.421  22.708  1.00  0.00     0.125 C 
BRANCH  15  16
ATOM     16  N   UNL A   1      32.250  24.528  22.158  1.00  0.00    -0.350 N 
ATOM     17  C   UNL A   1      33.482  25.048  22.476  1.00  0.00     0.269 C 
ATOM     18  H   UNL A   1      31.800  24.993  21.417  1.00  0.00     0.163 HD
ATOM     19  O   UNL A   1      33.854  26.059  21.878  1.00  0.00    -0.268 OA
BRANCH  17  20
ATOM     20  C   UNL A   1      34.356  24.414  23.503  1.00  0.00     0.128 A 
ATOM     21  C   UNL A   1      35.213  23.372  23.165  1.00  0.00     0.034 A 
ATOM     22  N   UNL A   1      34.297  24.963  24.742  1.00  0.00    -0.251 NA
ATOM     23  C   UNL A   1      35.996  22.810  24.168  1.00  0.00     0.004 A 
ATOM     24  C   UNL A   1      35.077  24.401  25.690  1.00  0.00     0.112 A 
ATOM     25  C   UNL A   1      35.924  23.328  25.456  1.00  0.00     0.020 A 
ENDBRANCH  17  20
ENDBRANCH  15  16
ENDBRANCH   7  15
ENDBRANCH   6   7
ENDBRANCH   4   6
ENDBRANCH   1   2
BRANCH   1  26
ATOM     26  C   UNL A   1      32.316  27.848  26.167  1.00  0.00     0.042 C 
BRANCH  26  27
ATOM     27  C   UNL A   1      33.328  28.351  27.192  1.00  0.00     0.118 C 
BRANCH  27  28
ATOM     28  N   UNL A   1      33.307  29.797  27.365  1.00  0.00    -0.352 N 
ATOM     29  C   UNL A   1      34.274  30.640  27.864  1.00  0.00     0.251 C 
ATOM     30  H   UNL A   1      32.475  30.240  27.082  1.00  0.00     0.163 HD
ATOM     31  O   UNL A   1      34.001  31.825  28.044  1.00  0.00    -0.269 OA
BRANCH  29  32
ATOM     32  C   UNL A   1      35.619  30.128  28.211  1.00  0.00     0.039 A 
ATOM     33  C   UNL A   1      36.621  30.151  27.236  1.00  0.00     0.014 A 
ATOM     34  C   UNL A   1      35.899  29.624  29.483  1.00  0.00     0.014 A 
ATOM     35  C   UNL A   1      37.919  29.744  27.561  1.00  0.00     0.010 A 
ATOM     36  C   UNL A   1      37.209  29.292  29.827  1.00  0.00     0.010 A 
ATOM     37  C   UNL A   1      38.235  29.353  28.872  1.00  0.00    -0.014 A 
BRANCH  37  38
ATOM     38  C   UNL A   1      39.631  29.025  29.268  1.00  0.00     0.031 A 
ATOM     39  C   UNL A   1      40.480  30.043  29.983  1.00  0.00     0.074 A 
ATOM     40  C   UNL A   1      40.161  27.834  28.921  1.00  0.00     0.049 A 
ATOM     41  N   UNL A   1      41.735  29.960  30.345  1.00  0.00    -0.248 NA
ATOM     42  C   UNL A   1      39.845  31.328  30.315  1.00  0.00     0.031 C 
ATOM     43  C   UNL A   1      39.459  26.773  28.195  1.00  0.00     0.029 A 
ATOM     44  N   UNL A   1      41.416  27.317  29.127  1.00  0.00    -0.354 N 
ATOM     45  C   UNL A   1      42.044  31.183  30.930  1.00  0.00     0.074 A 
ATOM     46  C   UNL A   1      40.859  32.008  30.830  1.00  0.00     0.031 C 
ATOM     47  C   UNL A   1      40.283  25.725  28.039  1.00  0.00     0.029 A 
ATOM     48  C   UNL A   1      41.585  26.053  28.610  1.00  0.00     0.049 A 
ATOM     49  H   UNL A   1      42.129  27.804  29.599  1.00  0.00     0.167 HD
ATOM     50  C   UNL A   1      43.200  31.580  31.513  1.00  0.00     0.031 A 
ATOM     51  C   UNL A   1      42.668  25.250  28.584  1.00  0.00     0.031 A 
ATOM     52  C   UNL A   1      44.376  30.756  31.617  1.00  0.00     0.049 A 
ATOM     53  C   UNL A   1      43.948  25.721  29.218  1.00  0.00     0.074 A 
ATOM     54  C   UNL A   1      45.578  31.050  32.237  1.00  0.00     0.029 A 
ATOM     55  N   UNL A   1      44.503  29.481  31.085  1.00  0.00    -0.354 N 
ATOM     56  N   UNL A   1      44.198  26.857  29.824  1.00  0.00    -0.248 NA
ATOM     57  C   UNL A   1      45.091  24.796  29.176  1.00  0.00     0.031 C 
ATOM     58  C   UNL A   1      46.452  29.978  32.029  1.00  0.00     0.029 A 
ATOM     59  C   UNL A   1      45.771  28.987  31.340  1.00  0.00     0.049 A 
ATOM     60  H   UNL A   1      43.795  29.000  30.600  1.00  0.00     0.167 HD
ATOM     61  C   UNL A   1      45.514  26.769  30.264  1.00  0.00     0.074 A 
ATOM     62  C   UNL A   1      46.004  25.467  29.865  1.00  0.00     0.031 C 
ATOM     63  C   UNL A   1      46.247  27.686  30.944  1.00  0.00     0.031 A 
BRANCH  50  64
ATOM     64  C   UNL A   1      43.255  32.975  32.081  1.00  0.00    -0.014 A 
ATOM     65  C   UNL A   1      43.162  33.202  33.467  1.00  0.00     0.010 A 
ATOM     66  C   UNL A   1      43.451  34.072  31.222  1.00  0.00     0.010 A 
ATOM     67  C   UNL A   1      43.217  34.503  33.977  1.00  0.00     0.020 A 
ATOM     68  C   UNL A   1      43.540  35.371  31.732  1.00  0.00     0.020 A 
ATOM     69  C   UNL A   1      43.404  35.580  33.105  1.00  0.00     0.054 A 
BRANCH  69  70
ATOM     70  S   UNL A   1      43.492  37.253  33.799  1.00  0.00     0.124 S 
ATOM     71  O   UNL A   1      43.713  38.062  32.603  1.00  0.00    -0.237 OA
ATOM     72  O   UNL A   1      42.181  37.406  34.426  1.00  0.00    -0.237 OA
ATOM     73  O   UNL A   1      44.619  37.187  34.725  1.00  0.00    -0.744 OA
ENDBRANCH  69  70
ENDBRANCH  50  64
BRANCH  51  74
ATOM     74  C   UNL A   1      42.582  23.908  27.942  1.00  0.00    -0.014 A 
ATOM     75  C   UNL A   1      43.045  23.711  26.628  1.00  0.00     0.010 A 
ATOM     76  C   UNL A   1      42.044  22.814  28.646  1.00  0.00     0.010 A 
ATOM     77  C   UNL A   1      42.954  22.454  26.025  1.00  0.00     0.020 A 
ATOM     78  C   UNL A   1      41.981  21.548  28.057  1.00  0.00     0.020 A 
ATOM     79  C   UNL A   1      42.426  21.380  26.745  1.00  0.00     0.054 A 
BRANCH  79  80
ATOM     80  S   UNL A   1      42.366  19.745  25.958  1.00  0.00     0.124 S 
ATOM     81  O   UNL A   1      43.361  19.882  24.898  1.00  0.00    -0.237 OA
ATOM     82  O   UNL A   1      42.729  18.854  27.057  1.00  0.00    -0.237 OA
ATOM     83  O   UNL A   1      40.981  19.635  25.506  1.00  0.00    -0.744 OA
ENDBRANCH  79  80
ENDBRANCH  51  74
BRANCH  63  84
ATOM     84  C   UNL A   1      47.648  27.302  31.346  1.00  0.00    -0.014 A 
ATOM     85  C   UNL A   1      47.894  26.463  32.447  1.00  0.00     0.010 A 
ATOM     86  C   UNL A   1      48.733  27.738  30.562  1.00  0.00     0.010 A 
ATOM     87  C   UNL A   1      49.200  26.087  32.770  1.00  0.00     0.020 A 
ATOM     88  C   UNL A   1      50.037  27.339  30.864  1.00  0.00     0.020 A 
ATOM     89  C   UNL A   1      50.264  26.525  31.975  1.00  0.00     0.054 A 
BRANCH  89  90
ATOM     90  S   UNL A   1      51.944  25.975  32.382  1.00  0.00     0.124 S 
ATOM     91  O   UNL A   1      51.697  25.015  33.455  1.00  0.00    -0.237 OA
ATOM     92  O   UNL A   1      52.407  25.402  31.121  1.00  0.00    -0.237 OA
ATOM     93  O   UNL A   1      52.622  27.203  32.790  1.00  0.00    -0.744 OA
ENDBRANCH  89  90
ENDBRANCH  63  84
ENDBRANCH  37  38
ENDBRANCH  29  32
ENDBRANCH  27  28
ENDBRANCH  26  27
ENDBRANCH   1  26
TORSDOF 18
ENDMDL
MODEL 2
REMARK VINA RESULT:     -10.9      1.669      2.514
REMARK SMILES O=C(C[C@H](CNC(=O)c1ccccn1)c1ccc(Cl)cc1)NCCCNC(=O)c1ccc(-c2c3nc(c(-c4ccc(S(=O)(=O)[O-])cc4)c4ccc([nH]4)c(-c4ccc(S(=O)(=O)[O-])cc4)c4nc(c(-c5ccc(S(=O)(=O)[O-])cc5)c5ccc2[nH]5)C=C4)C=C3)cc1
REMARK SMILES IDX 23 1 22 2 1 3 2 4 3 6 4 7 15 8 16 9 21 10 17 11 20 12 18 13
REMARK SMILES IDX 19 14 5 15 6 16 7 17 8 19 9 20 10 21 14 22 11 23 13 24 12 25
REMARK SMILES IDX 24 26 25 27 26 28 27 29 28 31 29 32 30 33 88 34 31 35 87 36
REMARK SMILES IDX 32 37 33 38 34 39 81 40 35 41 86 42 80 43 82 44 36 45 85 46
REMARK SMILES IDX 79 47 78 48 37 50 67 51 48 52 66 53 49 54 52 55 65 56 83 57
REMARK SMILES IDX 50 58 51 59 64 61 84 62 53 63 38 64 39 65 47 66 40 67 46 68
REMARK SMILES IDX 41 69 42 70 43 71 44 72 45 73 68 74 69 75 77 76 70 77 76 78
REMARK SMILES IDX 71 79 72 80 73 81 74 82 75 83 54 84 55 85 63 86 56 87 62 88
REMARK SMILES IDX 57 89 58 90 59 91 60 92 61 93
REMARK H PARENT 22 5 6 18 26 30 82 49 52 60
REMARK Flexibility Score: inf
ROOT
ATOM      1  C   UNL A   1      31.111  27.100  26.981  1.00  0.00     0.117 C 
ENDROOT
BRANCH   1   2
ATOM      2  N   UNL A   1      30.679  25.996  26.141  1.00  0.00    -0.356 N 
ATOM      3  O   UNL A   1      31.894  24.398  27.243  1.00  0.00    -0.275 OA
ATOM      4  C   UNL A   1      31.069  24.698  26.386  1.00  0.00     0.220 C 
ATOM      5  H   UNL A   1      30.090  26.181  25.373  1.00  0.00     0.163 HD
BRANCH   4   6
ATOM      6  C   UNL A   1      30.408  23.642  25.518  1.00  0.00     0.110 C 
BRANCH   6   7
ATOM      7  C   UNL A   1      31.173  23.337  24.216  1.00  0.00     0.048 C 
BRANCH   7   8
ATOM      8  C   UNL A   1      31.884  24.572  23.671  1.00  0.00    -0.043 A 
ATOM      9  C   UNL A   1      33.259  24.783  23.876  1.00  0.00     0.005 A 
ATOM     10  C   UNL A   1      31.164  25.528  22.935  1.00  0.00     0.005 A 
ATOM     11  C   UNL A   1      33.905  25.889  23.320  1.00  0.00     0.021 A 
ATOM     12  C   UNL A   1      31.808  26.645  22.395  1.00  0.00     0.021 A 
ATOM     13  C   UNL A   1      33.178  26.814  22.579  1.00  0.00     0.041 A 
ATOM     14  Cl  UNL A   1      33.976  28.170  21.882  1.00  0.00    -0.084 Cl
ENDBRANCH   7   8
BRANCH   7  15
ATOM     15  C   UNL A   1      32.083  22.079  24.287  1.00  0.00     0.125 C 
BRANCH  15  16
ATOM     16  N   UNL A   1      32.462  21.635  25.619  1.00  0.00    -0.350 N 
ATOM     17  C   UNL A   1      33.666  21.621  26.282  1.00  0.00     0.269 C 
ATOM     18  H   UNL A   1      31.712  21.278  26.146  1.00  0.00     0.163 HD
ATOM     19  O   UNL A   1      33.704  21.105  27.400  1.00  0.00    -0.268 OA
BRANCH  17  20
ATOM     20  C   UNL A   1      34.894  22.215  25.682  1.00  0.00     0.128 A 
ATOM     21  C   UNL A   1      35.473  21.660  24.546  1.00  0.00     0.034 A 
ATOM     22  N   UNL A   1      35.349  23.347  26.277  1.00  0.00    -0.251 NA
ATOM     23  C   UNL A   1      36.625  22.250  24.037  1.00  0.00     0.004 A 
ATOM     24  C   UNL A   1      36.462  23.900  25.752  1.00  0.00     0.112 A 
ATOM     25  C   UNL A   1      37.134  23.387  24.653  1.00  0.00     0.020 A 
ENDBRANCH  17  20
ENDBRANCH  15  16
ENDBRANCH   7  15
ENDBRANCH   6   7
ENDBRANCH   4   6
ENDBRANCH   1   2
BRANCH   1  26
ATOM     26  C   UNL A   1      32.160  27.980  26.314  1.00  0.00     0.042 C 
BRANCH  26  27
ATOM     27  C   UNL A   1      33.280  28.447  27.239  1.00  0.00     0.118 C 
BRANCH  27  28
ATOM     28  N   UNL A   1      33.270  29.883  27.481  1.00  0.00    -0.352 N 
ATOM     29  C   UNL A   1      34.251  30.698  27.996  1.00  0.00     0.251 C 
ATOM     30  H   UNL A   1      32.433  30.342  27.240  1.00  0.00     0.163 HD
ATOM     31  O   UNL A   1      33.988  31.874  28.240  1.00  0.00    -0.269 OA
BRANCH  29  32
ATOM     32  C   UNL A   1      35.602  30.166  28.286  1.00  0.00     0.039 A 
ATOM     33  C   UNL A   1      36.549  30.135  27.257  1.00  0.00     0.014 A 
ATOM     34  C   UNL A   1      35.942  29.697  29.557  1.00  0.00     0.014 A 
ATOM     35  C   UNL A   1      37.853  29.708  27.525  1.00  0.00     0.010 A 
ATOM     36  C   UNL A   1      37.261  29.346  29.839  1.00  0.00     0.010 A 
ATOM     37  C   UNL A   1      38.233  29.352  28.828  1.00  0.00    -0.014 A 
BRANCH  37  38
ATOM     38  C   UNL A   1      39.642  29.004  29.158  1.00  0.00     0.031 A 
ATOM     39  C   UNL A   1      40.553  30.026  29.786  1.00  0.00     0.074 A 
ATOM     40  C   UNL A   1      40.124  27.788  28.828  1.00  0.00     0.049 A 
ATOM     41  N   UNL A   1      41.825  29.925  30.080  1.00  0.00    -0.248 NA
ATOM     42  C   UNL A   1      39.967  31.338  30.103  1.00  0.00     0.031 C 
ATOM     43  C   UNL A   1      39.358  26.719  28.182  1.00  0.00     0.029 A 
ATOM     44  N   UNL A   1      41.377  27.248  28.982  1.00  0.00    -0.354 N 
ATOM     45  C   UNL A   1      42.193  31.161  30.600  1.00  0.00     0.074 A 
ATOM     46  C   UNL A   1      41.024  32.010  30.535  1.00  0.00     0.031 C 
ATOM     47  C   UNL A   1      40.148  25.647  28.020  1.00  0.00     0.029 A 
ATOM     48  C   UNL A   1      41.488  25.962  28.505  1.00  0.00     0.049 A 
ATOM     49  H   UNL A   1      42.126  27.734  29.395  1.00  0.00     0.167 HD
ATOM     50  C   UNL A   1      43.389  31.550  31.103  1.00  0.00     0.031 A 
ATOM     51  C   UNL A   1      42.549  25.132  28.449  1.00  0.00     0.031 A 
ATOM     52  C   UNL A   1      44.550  30.701  31.171  1.00  0.00     0.049 A 
ATOM     53  C   UNL A   1      43.873  25.594  28.992  1.00  0.00     0.074 A 
ATOM     54  C   UNL A   1      45.792  30.988  31.712  1.00  0.00     0.029 A 
ATOM     55  N   UNL A   1      44.618  29.405  30.682  1.00  0.00    -0.354 N 
ATOM     56  N   UNL A   1      44.182  26.745  29.540  1.00  0.00    -0.248 NA
ATOM     57  C   UNL A   1      44.990  24.640  28.922  1.00  0.00     0.031 C 
ATOM     58  C   UNL A   1      46.628  29.888  31.496  1.00  0.00     0.029 A 
ATOM     59  C   UNL A   1      45.887  28.890  30.885  1.00  0.00     0.049 A 
ATOM     60  H   UNL A   1      43.873  28.924  30.255  1.00  0.00     0.167 HD
ATOM     61  C   UNL A   1      45.519  26.641  29.909  1.00  0.00     0.074 A 
ATOM     62  C   UNL A   1      45.956  25.313  29.533  1.00  0.00     0.031 C 
ATOM     63  C   UNL A   1      46.311  27.563  30.512  1.00  0.00     0.031 A 
BRANCH  50  64
ATOM     64  C   UNL A   1      43.508  32.963  31.613  1.00  0.00    -0.014 A 
ATOM     65  C   UNL A   1      43.278  33.271  32.967  1.00  0.00     0.010 A 
ATOM     66  C   UNL A   1      43.902  33.992  30.738  1.00  0.00     0.010 A 
ATOM     67  C   UNL A   1      43.395  34.586  33.425  1.00  0.00     0.020 A 
ATOM     68  C   UNL A   1      44.052  35.303  31.199  1.00  0.00     0.020 A 
ATOM     69  C   UNL A   1      43.780  35.595  32.536  1.00  0.00     0.054 A 
BRANCH  69  70
ATOM     70  S   UNL A   1      43.942  37.289  33.164  1.00  0.00     0.124 S 
ATOM     71  O   UNL A   1      45.217  37.225  33.874  1.00  0.00    -0.237 OA
ATOM     72  O   UNL A   1      43.945  38.084  31.938  1.00  0.00    -0.237 OA
ATOM     73  O   UNL A   1      42.765  37.460  34.011  1.00  0.00    -0.744 OA
ENDBRANCH  69  70
ENDBRANCH  50  64
BRANCH  51  74
ATOM     74  C   UNL A   1      42.397  23.770  27.864  1.00  0.00    -0.014 A 
ATOM     75  C   UNL A   1      42.647  23.545  26.498  1.00  0.00     0.010 A 
ATOM     76  C   UNL A   1      42.008  22.686  28.673  1.00  0.00     0.010 A 
ATOM     77  C   UNL A   1      42.493  22.269  25.950  1.00  0.00     0.020 A 
ATOM     78  C   UNL A   1      41.884  21.402  28.135  1.00  0.00     0.020 A 
ATOM     79  C   UNL A   1      42.116  21.205  26.773  1.00  0.00     0.054 A 
BRANCH  79  80
ATOM     80  S   UNL A   1      41.974  19.547  26.049  1.00  0.00     0.124 S 
ATOM     81  O   UNL A   1      42.389  18.694  27.158  1.00  0.00    -0.237 OA
ATOM     82  O   UNL A   1      40.559  19.480  25.692  1.00  0.00    -0.237 OA
ATOM     83  O   UNL A   1      42.893  19.591  24.914  1.00  0.00    -0.744 OA
ENDBRANCH  79  80
ENDBRANCH  51  74
BRANCH  63  84
ATOM     84  C   UNL A   1      47.722  27.160  30.850  1.00  0.00    -0.014 A 
ATOM     85  C   UNL A   1      48.028  26.475  32.038  1.00  0.00     0.010 A 
ATOM     86  C   UNL A   1      48.751  27.414  29.923  1.00  0.00     0.010 A 
ATOM     87  C   UNL A   1      49.339  26.073  32.305  1.00  0.00     0.020 A 
ATOM     88  C   UNL A   1      50.058  26.987  30.171  1.00  0.00     0.020 A 
ATOM     89  C   UNL A   1      50.346  26.329  31.368  1.00  0.00     0.054 A 
BRANCH  89  90
ATOM     90  S   UNL A   1      52.029  25.746  31.713  1.00  0.00     0.124 S 
ATOM     91  O   UNL A   1      52.704  26.002  30.444  1.00  0.00    -0.237 OA
ATOM     92  O   UNL A   1      52.440  26.595  32.827  1.00  0.00    -0.237 OA
ATOM     93  O   UNL A   1      51.846  24.335  32.047  1.00  0.00    -0.744 OA
ENDBRANCH  89  90
ENDBRANCH  63  84
ENDBRANCH  37  38
ENDBRANCH  29  32
ENDBRANCH  27  28
ENDBRANCH  26  27
ENDBRANCH   1  26
TORSDOF 18
ENDMDL
MODEL 3
REMARK VINA RESULT:     -10.8      3.766      4.863
REMARK SMILES O=C(C[C@H](CNC(=O)c1ccccn1)c1ccc(Cl)cc1)NCCCNC(=O)c1ccc(-c2c3nc(c(-c4ccc(S(=O)(=O)[O-])cc4)c4ccc([nH]4)c(-c4ccc(S(=O)(=O)[O-])cc4)c4nc(c(-c5ccc(S(=O)(=O)[O-])cc5)c5ccc2[nH]5)C=C4)C=C3)cc1
REMARK SMILES IDX 23 1 22 2 1 3 2 4 3 6 4 7 15 8 16 9 21 10 17 11 20 12 18 13
REMARK SMILES IDX 19 14 5 15 6 16 7 17 8 19 9 20 10 21 14 22 11 23 13 24 12 25
REMARK SMILES IDX 24 26 25 27 26 28 27 29 28 31 29 32 30 33 88 34 31 35 87 36
REMARK SMILES IDX 32 37 33 38 34 39 81 40 35 41 86 42 80 43 82 44 36 45 85 46
REMARK SMILES IDX 79 47 78 48 37 50 67 51 48 52 66 53 49 54 52 55 65 56 83 57
REMARK SMILES IDX 50 58 51 59 64 61 84 62 53 63 38 64 39 65 47 66 40 67 46 68
REMARK SMILES IDX 41 69 42 70 43 71 44 72 45 73 68 74 69 75 77 76 70 77 76 78
REMARK SMILES IDX 71 79 72 80 73 81 74 82 75 83 54 84 55 85 63 86 56 87 62 88
REMARK SMILES IDX 57 89 58 90 59 91 60 92 61 93
REMARK H PARENT 22 5 6 18 26 30 82 49 52 60
REMARK Flexibility Score: inf
ROOT
ATOM      1  C   UNL A   1      33.066  27.983  27.134  1.00  0.00     0.117 C 
ENDROOT
BRANCH   1   2
ATOM      2  N   UNL A   1      31.967  27.736  26.217  1.00  0.00    -0.356 N 
ATOM      3  O   UNL A   1      31.754  25.514  26.726  1.00  0.00    -0.275 OA
ATOM      4  C   UNL A   1      31.350  26.508  26.132  1.00  0.00     0.220 C 
ATOM      5  H   UNL A   1      31.653  28.469  25.638  1.00  0.00     0.163 HD
BRANCH   4   6
ATOM      6  C   UNL A   1      30.118  26.454  25.245  1.00  0.00     0.110 C 
BRANCH   6   7
ATOM      7  C   UNL A   1      30.428  26.584  23.740  1.00  0.00     0.048 C 
BRANCH   7   8
ATOM      8  C   UNL A   1      29.844  27.862  23.147  1.00  0.00    -0.043 A 
ATOM      9  C   UNL A   1      30.657  28.826  22.526  1.00  0.00     0.005 A 
ATOM     10  C   UNL A   1      28.460  28.094  23.205  1.00  0.00     0.005 A 
ATOM     11  C   UNL A   1      30.100  29.962  21.936  1.00  0.00     0.021 A 
ATOM     12  C   UNL A   1      27.903  29.241  22.632  1.00  0.00     0.021 A 
ATOM     13  C   UNL A   1      28.724  30.164  21.988  1.00  0.00     0.041 A 
ATOM     14  Cl  UNL A   1      28.034  31.556  21.249  1.00  0.00    -0.084 Cl
ENDBRANCH   7   8
BRANCH   7  15
ATOM     15  C   UNL A   1      31.920  26.355  23.372  1.00  0.00     0.125 C 
BRANCH  15  16
ATOM     16  N   UNL A   1      32.178  25.826  22.042  1.00  0.00    -0.350 N 
ATOM     17  C   UNL A   1      32.878  24.727  21.603  1.00  0.00     0.269 C 
ATOM     18  H   UNL A   1      31.775  26.357  21.318  1.00  0.00     0.163 HD
ATOM     19  O   UNL A   1      32.997  24.564  20.388  1.00  0.00    -0.268 OA
BRANCH  17  20
ATOM     20  C   UNL A   1      33.472  23.748  22.558  1.00  0.00     0.128 A 
ATOM     21  C   UNL A   1      32.806  22.569  22.875  1.00  0.00     0.034 A 
ATOM     22  N   UNL A   1      34.707  24.061  23.026  1.00  0.00    -0.251 NA
ATOM     23  C   UNL A   1      33.403  21.698  23.782  1.00  0.00     0.004 A 
ATOM     24  C   UNL A   1      35.262  23.190  23.895  1.00  0.00     0.112 A 
ATOM     25  C   UNL A   1      34.651  22.015  24.307  1.00  0.00     0.020 A 
ENDBRANCH  17  20
ENDBRANCH  15  16
ENDBRANCH   7  15
ENDBRANCH   6   7
ENDBRANCH   4   6
ENDBRANCH   1   2
BRANCH   1  26
ATOM     26  C   UNL A   1      33.702  29.354  26.946  1.00  0.00     0.042 C 
BRANCH  26  27
ATOM     27  C   UNL A   1      35.117  29.480  27.500  1.00  0.00     0.118 C 
BRANCH  27  28
ATOM     28  N   UNL A   1      35.194  30.280  28.716  1.00  0.00    -0.352 N 
ATOM     29  C   UNL A   1      36.244  30.464  29.587  1.00  0.00     0.251 C 
ATOM     30  H   UNL A   1      34.369  30.762  28.951  1.00  0.00     0.163 HD
ATOM     31  O   UNL A   1      36.054  31.083  30.631  1.00  0.00    -0.269 OA
BRANCH  29  32
ATOM     32  C   UNL A   1      37.580  29.899  29.291  1.00  0.00     0.039 A 
ATOM     33  C   UNL A   1      38.006  29.839  27.960  1.00  0.00     0.014 A 
ATOM     34  C   UNL A   1      38.412  29.429  30.309  1.00  0.00     0.014 A 
ATOM     35  C   UNL A   1      39.293  29.382  27.662  1.00  0.00     0.010 A 
ATOM     36  C   UNL A   1      39.721  29.047  30.017  1.00  0.00     0.010 A 
ATOM     37  C   UNL A   1      40.178  29.023  28.691  1.00  0.00    -0.014 A 
BRANCH  37  38
ATOM     38  C   UNL A   1      41.588  28.643  28.403  1.00  0.00     0.031 A 
ATOM     39  C   UNL A   1      42.673  29.688  28.389  1.00  0.00     0.074 A 
ATOM     40  C   UNL A   1      41.883  27.365  28.087  1.00  0.00     0.049 A 
ATOM     41  N   UNL A   1      43.941  29.555  28.094  1.00  0.00    -0.248 NA
ATOM     42  C   UNL A   1      42.278  31.065  28.726  1.00  0.00     0.031 C 
ATOM     43  C   UNL A   1      40.921  26.262  28.029  1.00  0.00     0.029 A 
ATOM     44  N   UNL A   1      43.077  26.778  27.746  1.00  0.00    -0.354 N 
ATOM     45  C   UNL A   1      44.490  30.828  28.193  1.00  0.00     0.074 A 
ATOM     46  C   UNL A   1      43.408  31.728  28.528  1.00  0.00     0.031 C 
ATOM     47  C   UNL A   1      41.565  25.132  27.700  1.00  0.00     0.029 A 
ATOM     48  C   UNL A   1      42.975  25.433  27.476  1.00  0.00     0.049 A 
ATOM     49  H   UNL A   1      43.926  27.273  27.698  1.00  0.00     0.167 HD
ATOM     50  C   UNL A   1      45.779  31.213  28.039  1.00  0.00     0.031 A 
ATOM     51  C   UNL A   1      43.906  24.541  27.081  1.00  0.00     0.031 A 
ATOM     52  C   UNL A   1      46.856  30.315  27.711  1.00  0.00     0.049 A 
ATOM     53  C   UNL A   1      45.328  24.996  26.894  1.00  0.00     0.074 A 
ATOM     54  C   UNL A   1      48.205  30.601  27.586  1.00  0.00     0.029 A 
ATOM     55  N   UNL A   1      46.711  28.960  27.453  1.00  0.00    -0.354 N 
ATOM     56  N   UNL A   1      45.837  26.193  27.058  1.00  0.00    -0.248 NA
ATOM     57  C   UNL A   1      46.303  23.977  26.480  1.00  0.00     0.031 C 
ATOM     58  C   UNL A   1      48.865  29.433  27.193  1.00  0.00     0.029 A 
ATOM     59  C   UNL A   1      47.940  28.403  27.143  1.00  0.00     0.049 A 
ATOM     60  H   UNL A   1      45.859  28.468  27.486  1.00  0.00     0.167 HD
ATOM     61  C   UNL A   1      47.197  26.064  26.800  1.00  0.00     0.074 A 
ATOM     62  C   UNL A   1      47.433  24.671  26.480  1.00  0.00     0.031 C 
ATOM     63  C   UNL A   1      48.165  27.014  26.832  1.00  0.00     0.031 A 
BRANCH  50  64
ATOM     64  C   UNL A   1      46.100  32.675  28.214  1.00  0.00    -0.014 A 
ATOM     65  C   UNL A   1      46.486  33.192  29.465  1.00  0.00     0.010 A 
ATOM     66  C   UNL A   1      46.060  33.538  27.103  1.00  0.00     0.010 A 
ATOM     67  C   UNL A   1      46.782  34.550  29.610  1.00  0.00     0.020 A 
ATOM     68  C   UNL A   1      46.387  34.890  27.238  1.00  0.00     0.020 A 
ATOM     69  C   UNL A   1      46.729  35.392  28.495  1.00  0.00     0.054 A 
BRANCH  69  70
ATOM     70  S   UNL A   1      47.137  37.145  28.710  1.00  0.00     0.124 S 
ATOM     71  O   UNL A   1      46.150  37.563  29.703  1.00  0.00    -0.237 OA
ATOM     72  O   UNL A   1      48.519  37.095  29.183  1.00  0.00    -0.237 OA
ATOM     73  O   UNL A   1      46.957  37.711  27.376  1.00  0.00    -0.744 OA
ENDBRANCH  69  70
ENDBRANCH  50  64
BRANCH  51  74
ATOM     74  C   UNL A   1      43.522  23.121  26.847  1.00  0.00    -0.014 A 
ATOM     75  C   UNL A   1      43.638  22.549  25.567  1.00  0.00     0.010 A 
ATOM     76  C   UNL A   1      43.045  22.328  27.908  1.00  0.00     0.010 A 
ATOM     77  C   UNL A   1      43.267  21.219  25.349  1.00  0.00     0.020 A 
ATOM     78  C   UNL A   1      42.703  20.989  27.699  1.00  0.00     0.020 A 
ATOM     79  C   UNL A   1      42.805  20.447  26.417  1.00  0.00     0.054 A 
BRANCH  79  80
ATOM     80  S   UNL A   1      42.379  18.708  26.118  1.00  0.00     0.124 S 
ATOM     81  O   UNL A   1      40.996  18.808  25.662  1.00  0.00    -0.237 OA
ATOM     82  O   UNL A   1      43.354  18.315  25.104  1.00  0.00    -0.237 OA
ATOM     83  O   UNL A   1      42.564  18.082  27.426  1.00  0.00    -0.744 OA
ENDBRANCH  79  80
ENDBRANCH  51  74
BRANCH  63  84
ATOM     84  C   UNL A   1      49.582  26.580  26.559  1.00  0.00    -0.014 A 
ATOM     85  C   UNL A   1      50.398  26.053  27.575  1.00  0.00     0.010 A 
ATOM     86  C   UNL A   1      50.078  26.638  25.243  1.00  0.00     0.010 A 
ATOM     87  C   UNL A   1      51.694  25.616  27.285  1.00  0.00     0.020 A 
ATOM     88  C   UNL A   1      51.361  26.173  24.943  1.00  0.00     0.020 A 
ATOM     89  C   UNL A   1      52.166  25.676  25.970  1.00  0.00     0.054 A 
BRANCH  89  90
ATOM     90  S   UNL A   1      53.829  25.049  25.609  1.00  0.00     0.124 S 
ATOM     91  O   UNL A   1      54.555  25.397  26.828  1.00  0.00    -0.237 OA
ATOM     92  O   UNL A   1      53.595  23.622  25.404  1.00  0.00    -0.237 OA
ATOM     93  O   UNL A   1      54.228  25.788  24.414  1.00  0.00    -0.744 OA
ENDBRANCH  89  90
ENDBRANCH  63  84
ENDBRANCH  37  38
ENDBRANCH  29  32
ENDBRANCH  27  28
ENDBRANCH  26  27
ENDBRANCH   1  26
TORSDOF 18
ENDMDL
