MODEL 1
REMARK VINA RESULT:     -12.3      0.000      0.000
REMARK SMILES CCOC(=O)c1c(NC(=O)[C@@H]2[C@@H](C(=O)NCCCNC(=O)c3ccc(-c4c5nc(c(-c6ccc(S(=O)(=O)[O-])cc6)c6ccc([nH]6)c(-c6ccc(S(=O)(=O)[O-])cc6)c6nc(c(-c7ccc(S(=O)(=O)[O-])cc7)c7ccc4[nH]7)C=C6)C=C5)cc3)[C@@H]3C=C[C@H]2CC3)sc2c1CCC2
REMARK SMILES IDX 16 1 15 2 13 3 14 4 12 6 11 7 85 8 82 9 84 10 86 11 83 12
REMARK SMILES IDX 87 13 9 14 8 15 10 17 7 18 6 19 90 20 88 21 89 22 91 23
REMARK SMILES IDX 93 24 92 25 4 26 5 27 3 28 2 29 1 30 17 31 18 32 19 33 20 34
REMARK SMILES IDX 21 36 22 37 23 38 81 39 24 40 80 41 25 42 26 43 27 44 74 45
REMARK SMILES IDX 28 46 79 47 73 48 75 49 29 50 78 51 72 52 71 53 30 55 60 56
REMARK SMILES IDX 41 57 59 58 42 59 45 60 58 61 76 62 43 63 44 64 57 66 77 67
REMARK SMILES IDX 46 68 31 69 32 70 40 71 33 72 39 73 34 74 35 75 36 76 37 77
REMARK SMILES IDX 38 78 61 79 62 80 70 81 63 82 69 83 64 84 65 85 66 86 67 87
REMARK SMILES IDX 68 88 47 89 48 90 56 91 49 92 55 93 50 94 51 95 52 96 53 97
REMARK SMILES IDX 54 98
REMARK H PARENT 15 5 8 16 19 35 75 54 45 65
REMARK Flexibility Score: inf
ROOT
ATOM      1  C   UNL A   1      38.302  20.433  25.063  1.00  0.00     0.117 C 
ENDROOT
BRANCH   1   2
ATOM      2  N   UNL A   1      38.138  21.862  25.236  1.00  0.00    -0.356 N 
ATOM      3  C   UNL A   1      37.015  22.638  25.361  1.00  0.00     0.224 C 
ATOM      4  O   UNL A   1      37.207  23.762  25.844  1.00  0.00    -0.275 OA
ATOM      5  H   UNL A   1      38.983  22.366  25.269  1.00  0.00     0.163 HD
BRANCH   3   6
ATOM      6  C   UNL A   1      35.595  22.306  24.823  1.00  0.00     0.098 C 
ATOM      7  C   UNL A   1      34.569  23.459  24.633  1.00  0.00     0.099 C 
ATOM      8  C   UNL A   1      33.296  23.153  25.492  1.00  0.00     0.025 C 
ATOM      9  C   UNL A   1      34.988  21.212  25.762  1.00  0.00     0.025 C 
ATOM     10  C   UNL A   1      32.771  21.802  25.040  1.00  0.00    -0.027 C 
ATOM     11  C   UNL A   1      33.654  22.974  26.986  1.00  0.00     0.009 C 
ATOM     12  C   UNL A   1      33.650  20.796  25.176  1.00  0.00    -0.027 C 
ATOM     13  C   UNL A   1      34.664  21.819  27.150  1.00  0.00     0.009 C 
BRANCH   7  14
ATOM     14  C   UNL A   1      34.133  23.901  23.233  1.00  0.00     0.229 C 
ATOM     15  N   UNL A   1      33.440  25.098  23.067  1.00  0.00    -0.317 N 
ATOM     16  H   UNL A   1      33.152  25.275  22.142  1.00  0.00     0.170 HD
ATOM     17  O   UNL A   1      34.350  23.209  22.236  1.00  0.00    -0.274 OA
BRANCH  15  18
ATOM     18  C   UNL A   1      33.082  26.089  23.982  1.00  0.00     0.110 A 
ATOM     19  C   UNL A   1      31.877  26.273  24.667  1.00  0.00     0.098 A 
ATOM     20  C   UNL A   1      32.096  27.163  25.769  1.00  0.00    -0.017 A 
ATOM     21  S   UNL A   1      34.073  27.459  24.273  1.00  0.00    -0.122 S 
ATOM     22  C   UNL A   1      33.333  27.733  25.721  1.00  0.00     0.011 A 
ATOM     23  C   UNL A   1      31.380  27.612  26.992  1.00  0.00     0.038 C 
ATOM     24  C   UNL A   1      33.709  28.553  26.885  1.00  0.00     0.047 C 
ATOM     25  C   UNL A   1      32.318  28.745  27.547  1.00  0.00     0.010 C 
BRANCH  19  26
ATOM     26  C   UNL A   1      30.652  25.588  24.325  1.00  0.00     0.341 C 
ATOM     27  O   UNL A   1      29.766  26.085  23.631  1.00  0.00    -0.246 OA
BRANCH  26  28
ATOM     28  O   UNL A   1      30.556  24.405  24.989  1.00  0.00    -0.462 OA
BRANCH  28  29
ATOM     29  C   UNL A   1      29.981  24.451  26.301  1.00  0.00     0.230 C 
ATOM     30  C   UNL A   1      29.934  23.077  26.952  1.00  0.00     0.049 C 
ENDBRANCH  28  29
ENDBRANCH  26  28
ENDBRANCH  19  26
ENDBRANCH  15  18
ENDBRANCH   7  14
ENDBRANCH   3   6
ENDBRANCH   1   2
BRANCH   1  31
ATOM     31  C   UNL A   1      39.450  19.721  25.758  1.00  0.00     0.042 C 
BRANCH  31  32
ATOM     32  C   UNL A   1      40.383  20.669  26.454  1.00  0.00     0.118 C 
BRANCH  32  33
ATOM     33  N   UNL A   1      41.615  20.976  25.715  1.00  0.00    -0.352 N 
ATOM     34  C   UNL A   1      42.279  22.200  25.703  1.00  0.00     0.251 C 
ATOM     35  H   UNL A   1      42.007  20.249  25.177  1.00  0.00     0.163 HD
ATOM     36  O   UNL A   1      43.161  22.451  24.904  1.00  0.00    -0.269 OA
BRANCH  34  37
ATOM     37  C   UNL A   1      41.828  23.191  26.703  1.00  0.00     0.039 A 
ATOM     38  C   UNL A   1      42.429  23.276  27.960  1.00  0.00     0.014 A 
ATOM     39  C   UNL A   1      41.025  24.211  26.218  1.00  0.00     0.014 A 
ATOM     40  C   UNL A   1      42.332  24.476  28.666  1.00  0.00     0.010 A 
ATOM     41  C   UNL A   1      41.138  25.446  26.804  1.00  0.00     0.010 A 
ATOM     42  C   UNL A   1      41.733  25.590  28.058  1.00  0.00    -0.014 A 
BRANCH  42  43
ATOM     43  C   UNL A   1      41.786  26.924  28.667  1.00  0.00     0.031 A 
ATOM     44  C   UNL A   1      42.940  27.805  28.314  1.00  0.00     0.074 A 
ATOM     45  C   UNL A   1      40.748  27.452  29.355  1.00  0.00     0.049 A 
ATOM     46  N   UNL A   1      43.878  28.219  29.104  1.00  0.00    -0.248 NA
ATOM     47  C   UNL A   1      43.117  28.233  26.918  1.00  0.00     0.031 C 
ATOM     48  C   UNL A   1      39.415  26.879  29.588  1.00  0.00     0.029 A 
ATOM     49  N   UNL A   1      40.623  28.703  29.872  1.00  0.00    -0.354 N 
ATOM     50  C   UNL A   1      44.659  29.109  28.368  1.00  0.00     0.074 A 
ATOM     51  C   UNL A   1      44.232  28.966  26.997  1.00  0.00     0.031 C 
ATOM     52  C   UNL A   1      38.552  27.861  29.915  1.00  0.00     0.029 A 
ATOM     53  C   UNL A   1      39.310  29.074  30.135  1.00  0.00     0.049 A 
ATOM     54  H   UNL A   1      41.392  29.293  30.046  1.00  0.00     0.167 HD
ATOM     55  C   UNL A   1      45.463  30.036  28.967  1.00  0.00     0.031 A 
ATOM     56  C   UNL A   1      38.860  30.295  30.501  1.00  0.00     0.031 A 
ATOM     57  C   UNL A   1      45.569  29.813  30.388  1.00  0.00     0.049 A 
ATOM     58  C   UNL A   1      40.006  31.009  31.111  1.00  0.00     0.074 A 
ATOM     59  C   UNL A   1      46.004  28.773  31.183  1.00  0.00     0.029 A 
ATOM     60  N   UNL A   1      44.818  30.626  31.207  1.00  0.00    -0.354 N 
ATOM     61  N   UNL A   1      40.569  30.625  32.224  1.00  0.00    -0.248 NA
ATOM     62  C   UNL A   1      40.818  31.881  30.277  1.00  0.00     0.031 C 
ATOM     63  C   UNL A   1      45.090  28.746  32.277  1.00  0.00     0.029 A 
ATOM     64  C   UNL A   1      44.198  29.811  32.119  1.00  0.00     0.049 A 
ATOM     65  H   UNL A   1      44.740  31.606  31.149  1.00  0.00     0.167 HD
ATOM     66  C   UNL A   1      41.928  30.824  32.024  1.00  0.00     0.074 A 
ATOM     67  C   UNL A   1      42.006  31.716  30.867  1.00  0.00     0.031 C 
ATOM     68  C   UNL A   1      42.860  30.029  32.630  1.00  0.00     0.031 A 
BRANCH  55  69
ATOM     69  C   UNL A   1      45.878  31.356  28.362  1.00  0.00    -0.014 A 
ATOM     70  C   UNL A   1      44.889  32.334  28.108  1.00  0.00     0.010 A 
ATOM     71  C   UNL A   1      47.143  31.566  27.779  1.00  0.00     0.010 A 
ATOM     72  C   UNL A   1      45.131  33.415  27.249  1.00  0.00     0.020 A 
ATOM     73  C   UNL A   1      47.408  32.664  26.956  1.00  0.00     0.020 A 
ATOM     74  C   UNL A   1      46.386  33.559  26.662  1.00  0.00     0.054 A 
BRANCH  74  75
ATOM     75  S   UNL A   1      46.651  34.874  25.444  1.00  0.00     0.124 S 
ATOM     76  O   UNL A   1      45.627  34.570  24.449  1.00  0.00    -0.237 OA
ATOM     77  O   UNL A   1      46.429  36.081  26.234  1.00  0.00    -0.237 OA
ATOM     78  O   UNL A   1      48.030  34.662  25.009  1.00  0.00    -0.744 OA
ENDBRANCH  74  75
ENDBRANCH  55  69
BRANCH  56  79
ATOM     79  C   UNL A   1      37.573  30.926  30.131  1.00  0.00    -0.014 A 
ATOM     80  C   UNL A   1      36.963  31.873  30.971  1.00  0.00     0.010 A 
ATOM     81  C   UNL A   1      37.066  30.788  28.819  1.00  0.00     0.010 A 
ATOM     82  C   UNL A   1      35.936  32.702  30.492  1.00  0.00     0.020 A 
ATOM     83  C   UNL A   1      36.033  31.601  28.341  1.00  0.00     0.020 A 
ATOM     84  C   UNL A   1      35.495  32.578  29.172  1.00  0.00     0.054 A 
BRANCH  84  85
ATOM     85  S   UNL A   1      34.322  33.793  28.503  1.00  0.00     0.124 S 
ATOM     86  O   UNL A   1      33.997  34.592  29.681  1.00  0.00    -0.237 OA
ATOM     87  O   UNL A   1      35.115  34.468  27.479  1.00  0.00    -0.237 OA
ATOM     88  O   UNL A   1      33.229  32.970  27.989  1.00  0.00    -0.744 OA
ENDBRANCH  84  85
ENDBRANCH  56  79
BRANCH  68  89
ATOM     89  C   UNL A   1      42.412  29.096  33.737  1.00  0.00    -0.014 A 
ATOM     90  C   UNL A   1      41.817  27.841  33.499  1.00  0.00     0.010 A 
ATOM     91  C   UNL A   1      42.767  29.424  35.057  1.00  0.00     0.010 A 
ATOM     92  C   UNL A   1      41.559  26.954  34.555  1.00  0.00     0.020 A 
ATOM     93  C   UNL A   1      42.531  28.537  36.112  1.00  0.00     0.020 A 
ATOM     94  C   UNL A   1      41.919  27.308  35.857  1.00  0.00     0.054 A 
BRANCH  94  95
ATOM     95  S   UNL A   1      41.639  26.132  37.210  1.00  0.00     0.124 S 
ATOM     96  O   UNL A   1      41.630  24.848  36.516  1.00  0.00    -0.237 OA
ATOM     97  O   UNL A   1      42.783  26.366  38.088  1.00  0.00    -0.237 OA
ATOM     98  O   UNL A   1      40.350  26.543  37.767  1.00  0.00    -0.744 OA
ENDBRANCH  94  95
ENDBRANCH  68  89
ENDBRANCH  42  43
ENDBRANCH  34  37
ENDBRANCH  32  33
ENDBRANCH  31  32
ENDBRANCH   1  31
TORSDOF 18
ENDMDL
MODEL 2
REMARK VINA RESULT:     -12.3      1.969      2.763
REMARK SMILES CCOC(=O)c1c(NC(=O)[C@@H]2[C@@H](C(=O)NCCCNC(=O)c3ccc(-c4c5nc(c(-c6ccc(S(=O)(=O)[O-])cc6)c6ccc([nH]6)c(-c6ccc(S(=O)(=O)[O-])cc6)c6nc(c(-c7ccc(S(=O)(=O)[O-])cc7)c7ccc4[nH]7)C=C6)C=C5)cc3)[C@@H]3C=C[C@H]2CC3)sc2c1CCC2
REMARK SMILES IDX 16 1 15 2 13 3 14 4 12 6 11 7 85 8 82 9 84 10 86 11 83 12
REMARK SMILES IDX 87 13 9 14 8 15 10 17 7 18 6 19 90 20 88 21 89 22 91 23
REMARK SMILES IDX 93 24 92 25 4 26 5 27 3 28 2 29 1 30 17 31 18 32 19 33 20 34
REMARK SMILES IDX 21 36 22 37 23 38 81 39 24 40 80 41 25 42 26 43 27 44 74 45
REMARK SMILES IDX 28 46 79 47 73 48 75 49 29 50 78 51 72 52 71 53 30 55 60 56
REMARK SMILES IDX 41 57 59 58 42 59 45 60 58 61 76 62 43 63 44 64 57 66 77 67
REMARK SMILES IDX 46 68 31 69 32 70 40 71 33 72 39 73 34 74 35 75 36 76 37 77
REMARK SMILES IDX 38 78 61 79 62 80 70 81 63 82 69 83 64 84 65 85 66 86 67 87
REMARK SMILES IDX 68 88 47 89 48 90 56 91 49 92 55 93 50 94 51 95 52 96 53 97
REMARK SMILES IDX 54 98
REMARK H PARENT 15 5 8 16 19 35 75 54 45 65
REMARK Flexibility Score: inf
ROOT
ATOM      1  C   UNL A   1      36.065  21.894  24.412  1.00  0.00     0.117 C 
ENDROOT
BRANCH   1   2
ATOM      2  N   UNL A   1      35.807  23.233  24.902  1.00  0.00    -0.356 N 
ATOM      3  C   UNL A   1      34.677  24.008  24.875  1.00  0.00     0.224 C 
ATOM      4  O   UNL A   1      34.670  24.952  25.676  1.00  0.00    -0.275 OA
ATOM      5  H   UNL A   1      36.582  23.664  25.331  1.00  0.00     0.163 HD
BRANCH   3   6
ATOM      6  C   UNL A   1      33.509  23.907  23.853  1.00  0.00     0.098 C 
ATOM      7  C   UNL A   1      32.703  25.188  23.497  1.00  0.00     0.099 C 
ATOM      8  C   UNL A   1      31.192  24.945  23.830  1.00  0.00     0.025 C 
ATOM      9  C   UNL A   1      32.535  22.799  24.371  1.00  0.00     0.025 C 
ATOM     10  C   UNL A   1      30.756  23.723  23.042  1.00  0.00    -0.027 C 
ATOM     11  C   UNL A   1      30.997  24.565  25.317  1.00  0.00     0.009 C 
ATOM     12  C   UNL A   1      31.455  22.611  23.319  1.00  0.00    -0.027 C 
ATOM     13  C   UNL A   1      31.798  23.287  25.642  1.00  0.00     0.009 C 
BRANCH   7  14
ATOM     14  C   UNL A   1      32.813  25.827  22.110  1.00  0.00     0.229 C 
ATOM     15  N   UNL A   1      32.742  27.212  21.975  1.00  0.00    -0.317 N 
ATOM     16  H   UNL A   1      32.766  27.530  21.044  1.00  0.00     0.170 HD
ATOM     17  O   UNL A   1      32.934  25.147  21.089  1.00  0.00    -0.274 OA
BRANCH  15  18
ATOM     18  C   UNL A   1      32.640  28.225  22.929  1.00  0.00     0.110 A 
ATOM     19  C   UNL A   1      31.541  29.020  23.268  1.00  0.00     0.098 A 
ATOM     20  C   UNL A   1      31.781  29.635  24.540  1.00  0.00    -0.017 A 
ATOM     21  S   UNL A   1      34.014  28.840  23.752  1.00  0.00    -0.122 S 
ATOM     22  C   UNL A   1      33.065  29.447  24.957  1.00  0.00     0.011 A 
ATOM     23  C   UNL A   1      31.018  30.381  25.575  1.00  0.00     0.038 C 
ATOM     24  C   UNL A   1      33.375  29.918  26.318  1.00  0.00     0.047 C 
ATOM     25  C   UNL A   1      32.139  30.820  26.585  1.00  0.00     0.010 C 
BRANCH  19  26
ATOM     26  C   UNL A   1      30.343  29.109  22.466  1.00  0.00     0.341 C 
ATOM     27  O   UNL A   1      29.801  28.136  21.944  1.00  0.00    -0.246 OA
BRANCH  26  28
ATOM     28  O   UNL A   1      29.997  30.407  22.251  1.00  0.00    -0.462 OA
BRANCH  28  29
ATOM     29  C   UNL A   1      28.601  30.720  22.329  1.00  0.00     0.230 C 
ATOM     30  C   UNL A   1      28.256  31.986  21.560  1.00  0.00     0.049 C 
ENDBRANCH  28  29
ENDBRANCH  26  28
ENDBRANCH  19  26
ENDBRANCH  15  18
ENDBRANCH   7  14
ENDBRANCH   3   6
ENDBRANCH   1   2
BRANCH   1  31
ATOM     31  C   UNL A   1      37.438  21.275  24.611  1.00  0.00     0.042 C 
BRANCH  31  32
ATOM     32  C   UNL A   1      38.352  22.143  25.428  1.00  0.00     0.118 C 
BRANCH  32  33
ATOM     33  N   UNL A   1      39.090  21.436  26.483  1.00  0.00    -0.352 N 
ATOM     34  C   UNL A   1      40.055  21.993  27.319  1.00  0.00     0.251 C 
ATOM     35  H   UNL A   1      38.885  20.481  26.612  1.00  0.00     0.163 HD
ATOM     36  O   UNL A   1      40.781  21.310  28.017  1.00  0.00    -0.269 OA
BRANCH  34  37
ATOM     37  C   UNL A   1      40.167  23.467  27.287  1.00  0.00     0.039 A 
ATOM     38  C   UNL A   1      39.066  24.282  27.551  1.00  0.00     0.014 A 
ATOM     39  C   UNL A   1      41.459  23.971  27.305  1.00  0.00     0.014 A 
ATOM     40  C   UNL A   1      39.292  25.590  27.983  1.00  0.00     0.010 A 
ATOM     41  C   UNL A   1      41.669  25.164  27.950  1.00  0.00     0.010 A 
ATOM     42  C   UNL A   1      40.604  26.016  28.243  1.00  0.00    -0.014 A 
BRANCH  42  43
ATOM     43  C   UNL A   1      40.884  27.303  28.890  1.00  0.00     0.031 A 
ATOM     44  C   UNL A   1      41.919  28.183  28.269  1.00  0.00     0.074 A 
ATOM     45  C   UNL A   1      40.112  27.803  29.881  1.00  0.00     0.049 A 
ATOM     46  N   UNL A   1      43.062  28.523  28.773  1.00  0.00    -0.248 NA
ATOM     47  C   UNL A   1      41.700  28.703  26.910  1.00  0.00     0.031 C 
ATOM     48  C   UNL A   1      38.883  27.242  30.458  1.00  0.00     0.029 A 
ATOM     49  N   UNL A   1      40.191  29.017  30.487  1.00  0.00    -0.354 N 
ATOM     50  C   UNL A   1      43.630  29.445  27.897  1.00  0.00     0.074 A 
ATOM     51  C   UNL A   1      42.818  29.407  26.704  1.00  0.00     0.031 C 
ATOM     52  C   UNL A   1      38.191  28.215  31.083  1.00  0.00     0.029 A 
ATOM     53  C   UNL A   1      39.027  29.395  31.144  1.00  0.00     0.049 A 
ATOM     54  H   UNL A   1      41.000  29.578  30.464  1.00  0.00     0.167 HD
ATOM     55  C   UNL A   1      44.609  30.313  28.290  1.00  0.00     0.031 A 
ATOM     56  C   UNL A   1      38.751  30.597  31.699  1.00  0.00     0.031 A 
ATOM     57  C   UNL A   1      45.114  29.990  29.601  1.00  0.00     0.049 A 
ATOM     58  C   UNL A   1      40.052  31.243  31.990  1.00  0.00     0.074 A 
ATOM     59  C   UNL A   1      45.720  28.888  30.169  1.00  0.00     0.029 A 
ATOM     60  N   UNL A   1      44.665  30.759  30.651  1.00  0.00    -0.354 N 
ATOM     61  N   UNL A   1      40.899  30.771  32.864  1.00  0.00    -0.248 NA
ATOM     62  C   UNL A   1      40.621  32.154  31.009  1.00  0.00     0.031 C 
ATOM     63  C   UNL A   1      45.162  28.804  31.479  1.00  0.00     0.029 A 
ATOM     64  C   UNL A   1      44.306  29.895  31.654  1.00  0.00     0.049 A 
ATOM     65  H   UNL A   1      44.613  31.741  30.678  1.00  0.00     0.167 HD
ATOM     66  C   UNL A   1      42.147  30.957  32.288  1.00  0.00     0.074 A 
ATOM     67  C   UNL A   1      41.921  31.925  31.215  1.00  0.00     0.031 C 
ATOM     68  C   UNL A   1      43.184  30.103  32.546  1.00  0.00     0.031 A 
BRANCH  55  69
ATOM     69  C   UNL A   1      44.882  31.663  27.670  1.00  0.00    -0.014 A 
ATOM     70  C   UNL A   1      46.212  32.007  27.339  1.00  0.00     0.010 A 
ATOM     71  C   UNL A   1      43.935  32.705  27.660  1.00  0.00     0.010 A 
ATOM     72  C   UNL A   1      46.587  33.336  27.096  1.00  0.00     0.020 A 
ATOM     73  C   UNL A   1      44.289  34.027  27.376  1.00  0.00     0.020 A 
ATOM     74  C   UNL A   1      45.622  34.341  27.137  1.00  0.00     0.054 A 
BRANCH  74  75
ATOM     75  S   UNL A   1      46.133  36.070  26.963  1.00  0.00     0.124 S 
ATOM     76  O   UNL A   1      46.683  36.084  25.612  1.00  0.00    -0.237 OA
ATOM     77  O   UNL A   1      44.875  36.787  27.143  1.00  0.00    -0.237 OA
ATOM     78  O   UNL A   1      47.106  36.247  28.039  1.00  0.00    -0.744 OA
ENDBRANCH  74  75
ENDBRANCH  55  69
BRANCH  56  79
ATOM     79  C   UNL A   1      37.437  31.278  31.760  1.00  0.00    -0.014 A 
ATOM     80  C   UNL A   1      36.833  31.574  32.993  1.00  0.00     0.010 A 
ATOM     81  C   UNL A   1      36.891  31.871  30.601  1.00  0.00     0.010 A 
ATOM     82  C   UNL A   1      35.771  32.490  33.071  1.00  0.00     0.020 A 
ATOM     83  C   UNL A   1      35.825  32.774  30.669  1.00  0.00     0.020 A 
ATOM     84  C   UNL A   1      35.290  33.103  31.910  1.00  0.00     0.054 A 
BRANCH  84  85
ATOM     85  S   UNL A   1      34.068  34.439  32.047  1.00  0.00     0.124 S 
ATOM     86  O   UNL A   1      34.869  35.541  32.571  1.00  0.00    -0.237 OA
ATOM     87  O   UNL A   1      33.609  34.590  30.668  1.00  0.00    -0.237 OA
ATOM     88  O   UNL A   1      33.071  33.900  32.969  1.00  0.00    -0.744 OA
ENDBRANCH  84  85
ENDBRANCH  56  79
BRANCH  68  89
ATOM     89  C   UNL A   1      43.040  29.105  33.676  1.00  0.00    -0.014 A 
ATOM     90  C   UNL A   1      43.508  29.342  34.984  1.00  0.00     0.010 A 
ATOM     91  C   UNL A   1      42.249  27.965  33.450  1.00  0.00     0.010 A 
ATOM     92  C   UNL A   1      43.217  28.450  36.027  1.00  0.00     0.020 A 
ATOM     93  C   UNL A   1      41.937  27.082  34.489  1.00  0.00     0.020 A 
ATOM     94  C   UNL A   1      42.430  27.324  35.772  1.00  0.00     0.054 A 
BRANCH  94  95
ATOM     95  S   UNL A   1      42.006  26.206  37.137  1.00  0.00     0.124 S 
ATOM     96  O   UNL A   1      40.660  26.644  37.497  1.00  0.00    -0.237 OA
ATOM     97  O   UNL A   1      42.094  24.886  36.517  1.00  0.00    -0.237 OA
ATOM     98  O   UNL A   1      43.034  26.478  38.141  1.00  0.00    -0.744 OA
ENDBRANCH  94  95
ENDBRANCH  68  89
ENDBRANCH  42  43
ENDBRANCH  34  37
ENDBRANCH  32  33
ENDBRANCH  31  32
ENDBRANCH   1  31
TORSDOF 18
ENDMDL
MODEL 3
REMARK VINA RESULT:     -12.2      2.539      7.407
REMARK SMILES CCOC(=O)c1c(NC(=O)[C@@H]2[C@@H](C(=O)NCCCNC(=O)c3ccc(-c4c5nc(c(-c6ccc(S(=O)(=O)[O-])cc6)c6ccc([nH]6)c(-c6ccc(S(=O)(=O)[O-])cc6)c6nc(c(-c7ccc(S(=O)(=O)[O-])cc7)c7ccc4[nH]7)C=C6)C=C5)cc3)[C@@H]3C=C[C@H]2CC3)sc2c1CCC2
REMARK SMILES IDX 16 1 15 2 13 3 14 4 12 6 11 7 85 8 82 9 84 10 86 11 83 12
REMARK SMILES IDX 87 13 9 14 8 15 10 17 7 18 6 19 90 20 88 21 89 22 91 23
REMARK SMILES IDX 93 24 92 25 4 26 5 27 3 28 2 29 1 30 17 31 18 32 19 33 20 34
REMARK SMILES IDX 21 36 22 37 23 38 81 39 24 40 80 41 25 42 26 43 27 44 74 45
REMARK SMILES IDX 28 46 79 47 73 48 75 49 29 50 78 51 72 52 71 53 30 55 60 56
REMARK SMILES IDX 41 57 59 58 42 59 45 60 58 61 76 62 43 63 44 64 57 66 77 67
REMARK SMILES IDX 46 68 31 69 32 70 40 71 33 72 39 73 34 74 35 75 36 76 37 77
REMARK SMILES IDX 38 78 61 79 62 80 70 81 63 82 69 83 64 84 65 85 66 86 67 87
REMARK SMILES IDX 68 88 47 89 48 90 56 91 49 92 55 93 50 94 51 95 52 96 53 97
REMARK SMILES IDX 54 98
REMARK H PARENT 15 5 8 16 19 35 75 54 45 65
REMARK Flexibility Score: inf
ROOT
ATOM      1  C   UNL A   1      36.541  21.736  25.396  1.00  0.00     0.117 C 
ENDROOT
BRANCH   1   2
ATOM      2  N   UNL A   1      36.094  23.106  25.550  1.00  0.00    -0.356 N 
ATOM      3  C   UNL A   1      34.935  23.731  25.168  1.00  0.00     0.224 C 
ATOM      4  O   UNL A   1      34.703  24.801  25.747  1.00  0.00    -0.275 OA
ATOM      5  H   UNL A   1      36.737  23.693  26.011  1.00  0.00     0.163 HD
BRANCH   3   6
ATOM      6  C   UNL A   1      33.998  23.312  24.001  1.00  0.00     0.098 C 
ATOM      7  C   UNL A   1      32.944  24.327  23.475  1.00  0.00     0.099 C 
ATOM      8  C   UNL A   1      31.518  23.692  23.608  1.00  0.00     0.025 C 
ATOM      9  C   UNL A   1      33.285  21.988  24.432  1.00  0.00     0.025 C 
ATOM     10  C   UNL A   1      31.539  22.390  22.827  1.00  0.00    -0.027 C 
ATOM     11  C   UNL A   1      31.215  23.288  25.070  1.00  0.00     0.009 C 
ATOM     12  C   UNL A   1      32.458  21.508  23.251  1.00  0.00    -0.027 C 
ATOM     13  C   UNL A   1      32.267  22.274  25.564  1.00  0.00     0.009 C 
BRANCH   7  14
ATOM     14  C   UNL A   1      33.084  24.959  22.088  1.00  0.00     0.229 C 
ATOM     15  N   UNL A   1      32.989  26.341  21.941  1.00  0.00    -0.317 N 
ATOM     16  H   UNL A   1      33.036  26.654  21.009  1.00  0.00     0.170 HD
ATOM     17  O   UNL A   1      33.248  24.275  21.076  1.00  0.00    -0.274 OA
BRANCH  15  18
ATOM     18  C   UNL A   1      32.839  27.359  22.884  1.00  0.00     0.110 A 
ATOM     19  C   UNL A   1      31.674  27.872  23.461  1.00  0.00     0.098 A 
ATOM     20  C   UNL A   1      32.020  28.613  24.639  1.00  0.00    -0.017 A 
ATOM     21  S   UNL A   1      34.151  28.354  23.364  1.00  0.00    -0.122 S 
ATOM     22  C   UNL A   1      33.367  28.783  24.750  1.00  0.00     0.011 A 
ATOM     23  C   UNL A   1      31.335  29.210  25.815  1.00  0.00     0.038 C 
ATOM     24  C   UNL A   1      33.835  29.408  26.000  1.00  0.00     0.047 C 
ATOM     25  C   UNL A   1      32.497  29.985  26.536  1.00  0.00     0.010 C 
BRANCH  19  26
ATOM     26  C   UNL A   1      30.348  27.602  22.956  1.00  0.00     0.341 C 
ATOM     27  O   UNL A   1      29.631  26.696  23.380  1.00  0.00    -0.246 OA
BRANCH  26  28
ATOM     28  O   UNL A   1      30.074  28.374  21.870  1.00  0.00    -0.462 OA
BRANCH  28  29
ATOM     29  C   UNL A   1      29.528  29.673  22.129  1.00  0.00     0.230 C 
ATOM     30  C   UNL A   1      28.240  29.601  22.934  1.00  0.00     0.049 C 
ENDBRANCH  28  29
ENDBRANCH  26  28
ENDBRANCH  19  26
ENDBRANCH  15  18
ENDBRANCH   7  14
ENDBRANCH   3   6
ENDBRANCH   1   2
BRANCH   1  31
ATOM     31  C   UNL A   1      37.915  21.458  24.811  1.00  0.00     0.042 C 
BRANCH  31  32
ATOM     32  C   UNL A   1      38.955  21.210  25.866  1.00  0.00     0.118 C 
BRANCH  32  33
ATOM     33  N   UNL A   1      39.603  19.894  25.794  1.00  0.00    -0.352 N 
ATOM     34  C   UNL A   1      40.958  19.637  25.991  1.00  0.00     0.251 C 
ATOM     35  H   UNL A   1      39.027  19.121  25.587  1.00  0.00     0.163 HD
ATOM     36  O   UNL A   1      41.464  18.570  25.702  1.00  0.00    -0.269 OA
BRANCH  34  37
ATOM     37  C   UNL A   1      41.754  20.752  26.545  1.00  0.00     0.039 A 
ATOM     38  C   UNL A   1      42.209  21.792  25.732  1.00  0.00     0.014 A 
ATOM     39  C   UNL A   1      41.741  20.870  27.927  1.00  0.00     0.014 A 
ATOM     40  C   UNL A   1      42.513  23.018  26.325  1.00  0.00     0.010 A 
ATOM     41  C   UNL A   1      41.813  22.132  28.460  1.00  0.00     0.010 A 
ATOM     42  C   UNL A   1      42.256  23.209  27.692  1.00  0.00    -0.014 A 
BRANCH  42  43
ATOM     43  C   UNL A   1      42.362  24.531  28.320  1.00  0.00     0.031 A 
ATOM     44  C   UNL A   1      41.257  25.507  28.081  1.00  0.00     0.074 A 
ATOM     45  C   UNL A   1      43.297  24.820  29.255  1.00  0.00     0.049 A 
ATOM     46  N   UNL A   1      41.328  26.627  27.436  1.00  0.00    -0.248 NA
ATOM     47  C   UNL A   1      39.901  25.186  28.553  1.00  0.00     0.031 C 
ATOM     48  C   UNL A   1      44.307  23.932  29.847  1.00  0.00     0.029 A 
ATOM     49  N   UNL A   1      43.438  25.955  29.989  1.00  0.00    -0.354 N 
ATOM     50  C   UNL A   1      40.089  27.250  27.576  1.00  0.00     0.074 A 
ATOM     51  C   UNL A   1      39.210  26.256  28.146  1.00  0.00     0.031 C 
ATOM     52  C   UNL A   1      44.732  24.449  31.017  1.00  0.00     0.029 A 
ATOM     53  C   UNL A   1      44.201  25.790  31.138  1.00  0.00     0.049 A 
ATOM     54  H   UNL A   1      43.038  26.816  29.731  1.00  0.00     0.167 HD
ATOM     55  C   UNL A   1      39.928  28.594  27.394  1.00  0.00     0.031 A 
ATOM     56  C   UNL A   1      44.388  26.684  32.135  1.00  0.00     0.031 A 
ATOM     57  C   UNL A   1      41.107  29.202  26.829  1.00  0.00     0.049 A 
ATOM     58  C   UNL A   1      44.126  28.025  31.562  1.00  0.00     0.074 A 
ATOM     59  C   UNL A   1      41.834  29.029  25.669  1.00  0.00     0.029 A 
ATOM     60  N   UNL A   1      41.928  29.894  27.690  1.00  0.00    -0.354 N 
ATOM     61  N   UNL A   1      44.870  28.556  30.630  1.00  0.00    -0.248 NA
ATOM     62  C   UNL A   1      42.795  28.599  31.691  1.00  0.00     0.031 C 
ATOM     63  C   UNL A   1      43.195  29.169  26.071  1.00  0.00     0.029 A 
ATOM     64  C   UNL A   1      43.212  29.487  27.432  1.00  0.00     0.049 A 
ATOM     65  H   UNL A   1      41.647  30.555  28.363  1.00  0.00     0.167 HD
ATOM     66  C   UNL A   1      43.977  29.195  29.782  1.00  0.00     0.074 A 
ATOM     67  C   UNL A   1      42.739  29.298  30.553  1.00  0.00     0.031 C 
ATOM     68  C   UNL A   1      44.235  29.324  28.445  1.00  0.00     0.031 A 
BRANCH  55  69
ATOM     69  C   UNL A   1      38.858  29.443  28.040  1.00  0.00    -0.014 A 
ATOM     70  C   UNL A   1      37.587  29.526  27.427  1.00  0.00     0.010 A 
ATOM     71  C   UNL A   1      39.134  30.374  29.060  1.00  0.00     0.010 A 
ATOM     72  C   UNL A   1      36.679  30.540  27.758  1.00  0.00     0.020 A 
ATOM     73  C   UNL A   1      38.217  31.362  29.429  1.00  0.00     0.020 A 
ATOM     74  C   UNL A   1      37.011  31.465  28.746  1.00  0.00     0.054 A 
BRANCH  74  75
ATOM     75  S   UNL A   1      35.897  32.856  29.071  1.00  0.00     0.124 S 
ATOM     76  O   UNL A   1      34.850  32.220  29.864  1.00  0.00    -0.237 OA
ATOM     77  O   UNL A   1      36.760  33.787  29.791  1.00  0.00    -0.237 OA
ATOM     78  O   UNL A   1      35.495  33.290  27.735  1.00  0.00    -0.744 OA
ENDBRANCH  74  75
ENDBRANCH  55  69
BRANCH  56  79
ATOM     79  C   UNL A   1      44.546  26.399  33.579  1.00  0.00    -0.014 A 
ATOM     80  C   UNL A   1      45.293  27.253  34.407  1.00  0.00     0.010 A 
ATOM     81  C   UNL A   1      43.742  25.418  34.201  1.00  0.00     0.010 A 
ATOM     82  C   UNL A   1      45.181  27.177  35.805  1.00  0.00     0.020 A 
ATOM     83  C   UNL A   1      43.637  25.328  35.593  1.00  0.00     0.020 A 
ATOM     84  C   UNL A   1      44.334  26.231  36.388  1.00  0.00     0.054 A 
BRANCH  84  85
ATOM     85  S   UNL A   1      44.034  26.283  38.179  1.00  0.00     0.124 S 
ATOM     86  O   UNL A   1      42.575  26.301  38.249  1.00  0.00    -0.237 OA
ATOM     87  O   UNL A   1      44.675  25.056  38.643  1.00  0.00    -0.237 OA
ATOM     88  O   UNL A   1      44.692  27.518  38.602  1.00  0.00    -0.744 OA
ENDBRANCH  84  85
ENDBRANCH  56  79
BRANCH  68  89
ATOM     89  C   UNL A   1      45.626  29.004  27.938  1.00  0.00    -0.014 A 
ATOM     90  C   UNL A   1      46.069  27.695  27.662  1.00  0.00     0.010 A 
ATOM     91  C   UNL A   1      46.452  30.078  27.561  1.00  0.00     0.010 A 
ATOM     92  C   UNL A   1      47.312  27.468  27.054  1.00  0.00     0.020 A 
ATOM     93  C   UNL A   1      47.684  29.860  26.936  1.00  0.00     0.020 A 
ATOM     94  C   UNL A   1      48.113  28.554  26.693  1.00  0.00     0.054 A 
BRANCH  94  95
ATOM     95  S   UNL A   1      49.692  28.255  25.851  1.00  0.00     0.124 S 
ATOM     96  O   UNL A   1      50.406  29.510  26.065  1.00  0.00    -0.237 OA
ATOM     97  O   UNL A   1      50.227  27.097  26.563  1.00  0.00    -0.237 OA
ATOM     98  O   UNL A   1      49.304  27.993  24.465  1.00  0.00    -0.744 OA
ENDBRANCH  94  95
ENDBRANCH  68  89
ENDBRANCH  42  43
ENDBRANCH  34  37
ENDBRANCH  32  33
ENDBRANCH  31  32
ENDBRANCH   1  31
TORSDOF 18
ENDMDL
