MODEL 1
REMARK VINA RESULT:     -10.9      0.000      0.000
REMARK SMILES O=C(CCn1c(SCc2ccccn2)nc2ccccc2c1=O)NCCCNC(=O)c1ccc(-c2c3nc(c(-c4ccc(S(=O)(=O)[O-])cc4)c4ccc([nH]4)c(-c4ccc(S(=O)(=O)[O-])cc4)c4nc(c(-c5ccc(S(=O)(=O)[O-])cc5)c5ccc2[nH]5)C=C4)C=C3)cc1
REMARK SMILES IDX 25 1 24 2 1 3 2 4 3 6 4 7 5 8 6 9 22 10 15 11 21 12 23 13
REMARK SMILES IDX 16 14 20 15 17 16 19 17 18 18 7 19 8 20 9 21 10 22 14 23
REMARK SMILES IDX 11 24 13 25 12 26 26 27 27 28 28 29 29 30 30 32 31 33 32 34
REMARK SMILES IDX 90 35 33 36 89 37 34 38 35 39 36 40 83 41 37 42 88 43 82 44
REMARK SMILES IDX 84 45 38 46 87 47 81 48 80 49 39 51 69 52 50 53 68 54 51 55
REMARK SMILES IDX 54 56 67 57 85 58 52 59 53 60 66 62 86 63 55 64 40 65 41 66
REMARK SMILES IDX 49 67 42 68 48 69 43 70 44 71 45 72 46 73 47 74 70 75 71 76
REMARK SMILES IDX 79 77 72 78 78 79 73 80 74 81 75 82 76 83 77 84 56 85 57 86
REMARK SMILES IDX 65 87 58 88 64 89 59 90 60 91 61 92 62 93 63 94
REMARK H PARENT 24 5 28 31 84 50 54 61
REMARK Flexibility Score: inf
ROOT
ATOM      1  C   UNL A   1      31.525  27.428  26.559  1.00  0.00     0.117 C 
ENDROOT
BRANCH   1   2
ATOM      2  N   UNL A   1      31.398  26.000  26.844  1.00  0.00    -0.356 N 
ATOM      3  O   UNL A   1      30.186  25.708  24.963  1.00  0.00    -0.275 OA
ATOM      4  C   UNL A   1      30.741  25.209  25.950  1.00  0.00     0.221 C 
ATOM      5  H   UNL A   1      31.782  25.616  27.666  1.00  0.00     0.163 HD
BRANCH   4   6
ATOM      6  C   UNL A   1      30.709  23.702  26.067  1.00  0.00     0.122 C 
BRANCH   6   7
ATOM      7  C   UNL A   1      31.343  22.609  25.244  1.00  0.00     0.138 C 
BRANCH   7   8
ATOM      8  N   UNL A   1      32.686  22.631  24.700  1.00  0.00    -0.287 N 
ATOM      9  C   UNL A   1      33.797  23.043  25.379  1.00  0.00     0.171 A 
ATOM     10  C   UNL A   1      32.642  22.987  23.356  1.00  0.00     0.262 A 
ATOM     11  N   UNL A   1      34.307  24.228  25.189  1.00  0.00    -0.224 NA
ATOM     12  C   UNL A   1      32.981  24.401  23.136  1.00  0.00     0.066 A 
ATOM     13  O   UNL A   1      32.167  22.297  22.462  1.00  0.00    -0.269 OA
ATOM     14  C   UNL A   1      33.729  25.009  24.147  1.00  0.00     0.079 A 
ATOM     15  C   UNL A   1      32.408  25.116  22.078  1.00  0.00     0.016 A 
ATOM     16  C   UNL A   1      33.919  26.386  24.050  1.00  0.00     0.029 A 
ATOM     17  C   UNL A   1      32.563  26.497  22.037  1.00  0.00     0.001 A 
ATOM     18  C   UNL A   1      33.314  27.132  23.025  1.00  0.00     0.002 A 
BRANCH   9  19
ATOM     19  S   UNL A   1      34.793  21.758  26.032  1.00  0.00    -0.081 SA
BRANCH  19  20
ATOM     20  C   UNL A   1      36.296  21.551  25.056  1.00  0.00     0.134 C 
BRANCH  20  21
ATOM     21  C   UNL A   1      37.574  22.218  25.534  1.00  0.00     0.051 A 
ATOM     22  C   UNL A   1      37.549  23.588  25.821  1.00  0.00     0.025 A 
ATOM     23  N   UNL A   1      38.683  21.468  25.773  1.00  0.00    -0.260 NA
ATOM     24  C   UNL A   1      38.616  24.161  26.515  1.00  0.00     0.003 A 
ATOM     25  C   UNL A   1      39.727  22.064  26.402  1.00  0.00     0.111 A 
ATOM     26  C   UNL A   1      39.721  23.382  26.832  1.00  0.00     0.020 A 
ENDBRANCH  20  21
ENDBRANCH  19  20
ENDBRANCH   9  19
ENDBRANCH   7   8
ENDBRANCH   6   7
ENDBRANCH   4   6
ENDBRANCH   1   2
BRANCH   1  27
ATOM     27  C   UNL A   1      32.449  28.186  27.497  1.00  0.00     0.042 C 
BRANCH  27  28
ATOM     28  C   UNL A   1      33.537  28.997  26.816  1.00  0.00     0.118 C 
BRANCH  28  29
ATOM     29  N   UNL A   1      33.490  30.424  27.127  1.00  0.00    -0.352 N 
ATOM     30  C   UNL A   1      34.378  31.204  27.828  1.00  0.00     0.251 C 
ATOM     31  H   UNL A   1      32.701  30.900  26.780  1.00  0.00     0.163 HD
ATOM     32  O   UNL A   1      34.127  32.371  28.070  1.00  0.00    -0.269 OA
BRANCH  30  33
ATOM     33  C   UNL A   1      35.629  30.585  28.295  1.00  0.00     0.039 A 
ATOM     34  C   UNL A   1      35.603  29.707  29.380  1.00  0.00     0.014 A 
ATOM     35  C   UNL A   1      36.833  30.959  27.698  1.00  0.00     0.014 A 
ATOM     36  C   UNL A   1      36.795  29.340  29.982  1.00  0.00     0.010 A 
ATOM     37  C   UNL A   1      38.030  30.519  28.256  1.00  0.00     0.010 A 
ATOM     38  C   UNL A   1      38.017  29.752  29.433  1.00  0.00    -0.014 A 
BRANCH  38  39
ATOM     39  C   UNL A   1      39.281  29.396  30.117  1.00  0.00     0.031 A 
ATOM     40  C   UNL A   1      40.154  28.305  29.566  1.00  0.00     0.074 A 
ATOM     41  C   UNL A   1      39.651  30.091  31.208  1.00  0.00     0.049 A 
ATOM     42  N   UNL A   1      41.263  27.818  30.057  1.00  0.00    -0.248 NA
ATOM     43  C   UNL A   1      39.734  27.677  28.300  1.00  0.00     0.031 C 
ATOM     44  C   UNL A   1      38.900  31.209  31.786  1.00  0.00     0.029 A 
ATOM     45  N   UNL A   1      40.754  29.980  32.011  1.00  0.00    -0.354 N 
ATOM     46  C   UNL A   1      41.662  26.819  29.177  1.00  0.00     0.074 A 
ATOM     47  C   UNL A   1      40.664  26.745  28.135  1.00  0.00     0.031 C 
ATOM     48  C   UNL A   1      39.586  31.707  32.823  1.00  0.00     0.029 A 
ATOM     49  C   UNL A   1      40.779  30.894  33.037  1.00  0.00     0.049 A 
ATOM     50  H   UNL A   1      41.461  29.311  31.868  1.00  0.00     0.167 HD
ATOM     51  C   UNL A   1      42.769  26.044  29.236  1.00  0.00     0.031 A 
ATOM     52  C   UNL A   1      41.646  31.047  34.057  1.00  0.00     0.031 A 
ATOM     53  C   UNL A   1      43.760  26.150  30.275  1.00  0.00     0.049 A 
ATOM     54  C   UNL A   1      42.822  30.117  34.148  1.00  0.00     0.074 A 
ATOM     55  C   UNL A   1      44.928  25.422  30.415  1.00  0.00     0.029 A 
ATOM     56  N   UNL A   1      43.708  27.037  31.341  1.00  0.00    -0.354 N 
ATOM     57  N   UNL A   1      43.181  29.170  33.314  1.00  0.00    -0.248 NA
ATOM     58  C   UNL A   1      43.701  30.262  35.314  1.00  0.00     0.031 C 
ATOM     59  C   UNL A   1      45.544  25.817  31.604  1.00  0.00     0.029 A 
ATOM     60  C   UNL A   1      44.803  26.847  32.165  1.00  0.00     0.049 A 
ATOM     61  H   UNL A   1      42.997  27.702  31.487  1.00  0.00     0.167 HD
ATOM     62  C   UNL A   1      44.333  28.609  33.850  1.00  0.00     0.074 A 
ATOM     63  C   UNL A   1      44.623  29.339  35.069  1.00  0.00     0.031 C 
ATOM     64  C   UNL A   1      45.076  27.581  33.377  1.00  0.00     0.031 A 
BRANCH  51  65
ATOM     65  C   UNL A   1      42.985  25.007  28.164  1.00  0.00    -0.014 A 
ATOM     66  C   UNL A   1      42.843  23.642  28.479  1.00  0.00     0.010 A 
ATOM     67  C   UNL A   1      43.452  25.368  26.889  1.00  0.00     0.010 A 
ATOM     68  C   UNL A   1      43.202  22.657  27.555  1.00  0.00     0.020 A 
ATOM     69  C   UNL A   1      43.784  24.386  25.949  1.00  0.00     0.020 A 
ATOM     70  C   UNL A   1      43.682  23.037  26.299  1.00  0.00     0.054 A 
BRANCH  70  71
ATOM     71  S   UNL A   1      44.180  21.746  25.125  1.00  0.00     0.124 S 
ATOM     72  O   UNL A   1      43.217  20.685  25.407  1.00  0.00    -0.237 OA
ATOM     73  O   UNL A   1      44.029  22.411  23.835  1.00  0.00    -0.237 OA
ATOM     74  O   UNL A   1      45.561  21.453  25.505  1.00  0.00    -0.744 OA
ENDBRANCH  70  71
ENDBRANCH  51  65
BRANCH  52  75
ATOM     75  C   UNL A   1      41.406  32.126  35.053  1.00  0.00    -0.014 A 
ATOM     76  C   UNL A   1      40.647  31.868  36.211  1.00  0.00     0.010 A 
ATOM     77  C   UNL A   1      41.835  33.439  34.796  1.00  0.00     0.010 A 
ATOM     78  C   UNL A   1      40.257  32.912  37.052  1.00  0.00     0.020 A 
ATOM     79  C   UNL A   1      41.475  34.483  35.656  1.00  0.00     0.020 A 
ATOM     80  C   UNL A   1      40.659  34.217  36.759  1.00  0.00     0.054 A 
BRANCH  80  81
ATOM     81  S   UNL A   1      40.080  35.565  37.824  1.00  0.00     0.124 S 
ATOM     82  O   UNL A   1      41.218  35.745  38.722  1.00  0.00    -0.237 OA
ATOM     83  O   UNL A   1      39.851  36.648  36.872  1.00  0.00    -0.237 OA
ATOM     84  O   UNL A   1      38.875  35.017  38.444  1.00  0.00    -0.744 OA
ENDBRANCH  80  81
ENDBRANCH  52  75
BRANCH  64  85
ATOM     85  C   UNL A   1      46.279  27.147  34.170  1.00  0.00    -0.014 A 
ATOM     86  C   UNL A   1      46.137  26.178  35.182  1.00  0.00     0.010 A 
ATOM     87  C   UNL A   1      47.503  27.825  34.035  1.00  0.00     0.010 A 
ATOM     88  C   UNL A   1      47.175  25.940  36.083  1.00  0.00     0.020 A 
ATOM     89  C   UNL A   1      48.556  27.566  34.916  1.00  0.00     0.020 A 
ATOM     90  C   UNL A   1      48.372  26.650  35.956  1.00  0.00     0.054 A 
BRANCH  90  91
ATOM     91  S   UNL A   1      49.675  26.388  37.188  1.00  0.00     0.124 S 
ATOM     92  O   UNL A   1      49.514  27.551  38.057  1.00  0.00    -0.237 OA
ATOM     93  O   UNL A   1      49.303  25.105  37.779  1.00  0.00    -0.237 OA
ATOM     94  O   UNL A   1      50.901  26.369  36.393  1.00  0.00    -0.744 OA
ENDBRANCH  90  91
ENDBRANCH  64  85
ENDBRANCH  38  39
ENDBRANCH  30  33
ENDBRANCH  28  29
ENDBRANCH  27  28
ENDBRANCH   1  27
TORSDOF 18
ENDMDL
MODEL 2
REMARK VINA RESULT:     -10.8      2.970      8.989
REMARK SMILES O=C(CCn1c(SCc2ccccn2)nc2ccccc2c1=O)NCCCNC(=O)c1ccc(-c2c3nc(c(-c4ccc(S(=O)(=O)[O-])cc4)c4ccc([nH]4)c(-c4ccc(S(=O)(=O)[O-])cc4)c4nc(c(-c5ccc(S(=O)(=O)[O-])cc5)c5ccc2[nH]5)C=C4)C=C3)cc1
REMARK SMILES IDX 25 1 24 2 1 3 2 4 3 6 4 7 5 8 6 9 22 10 15 11 21 12 23 13
REMARK SMILES IDX 16 14 20 15 17 16 19 17 18 18 7 19 8 20 9 21 10 22 14 23
REMARK SMILES IDX 11 24 13 25 12 26 26 27 27 28 28 29 29 30 30 32 31 33 32 34
REMARK SMILES IDX 90 35 33 36 89 37 34 38 35 39 36 40 83 41 37 42 88 43 82 44
REMARK SMILES IDX 84 45 38 46 87 47 81 48 80 49 39 51 69 52 50 53 68 54 51 55
REMARK SMILES IDX 54 56 67 57 85 58 52 59 53 60 66 62 86 63 55 64 40 65 41 66
REMARK SMILES IDX 49 67 42 68 48 69 43 70 44 71 45 72 46 73 47 74 70 75 71 76
REMARK SMILES IDX 79 77 72 78 78 79 73 80 74 81 75 82 76 83 77 84 56 85 57 86
REMARK SMILES IDX 65 87 58 88 64 89 59 90 60 91 61 92 62 93 63 94
REMARK H PARENT 24 5 28 31 84 50 54 61
REMARK Flexibility Score: inf
ROOT
ATOM      1  C   UNL A   1      38.824  21.926  25.803  1.00  0.00     0.117 C 
ENDROOT
BRANCH   1   2
ATOM      2  N   UNL A   1      37.592  22.446  26.393  1.00  0.00    -0.356 N 
ATOM      3  O   UNL A   1      36.359  21.285  24.902  1.00  0.00    -0.275 OA
ATOM      4  C   UNL A   1      36.396  22.024  25.893  1.00  0.00     0.221 C 
ATOM      5  H   UNL A   1      37.624  23.090  27.138  1.00  0.00     0.163 HD
BRANCH   4   6
ATOM      6  C   UNL A   1      35.076  22.366  26.545  1.00  0.00     0.122 C 
BRANCH   6   7
ATOM      7  C   UNL A   1      34.075  23.465  26.289  1.00  0.00     0.138 C 
BRANCH   7   8
ATOM      8  N   UNL A   1      32.809  23.312  25.600  1.00  0.00    -0.287 N 
ATOM      9  C   UNL A   1      32.667  23.182  24.248  1.00  0.00     0.171 A 
ATOM     10  C   UNL A   1      31.836  24.079  26.233  1.00  0.00     0.262 A 
ATOM     11  N   UNL A   1      32.305  24.191  23.505  1.00  0.00    -0.224 NA
ATOM     12  C   UNL A   1      31.580  25.349  25.538  1.00  0.00     0.066 A 
ATOM     13  O   UNL A   1      31.386  23.858  27.350  1.00  0.00    -0.269 OA
ATOM     14  C   UNL A   1      31.940  25.386  24.189  1.00  0.00     0.079 A 
ATOM     15  C   UNL A   1      31.194  26.488  26.254  1.00  0.00     0.016 A 
ATOM     16  C   UNL A   1      31.869  26.622  23.551  1.00  0.00     0.029 A 
ATOM     17  C   UNL A   1      31.188  27.719  25.609  1.00  0.00     0.001 A 
ATOM     18  C   UNL A   1      31.531  27.787  24.260  1.00  0.00     0.002 A 
BRANCH   9  19
ATOM     19  S   UNL A   1      32.423  21.544  23.676  1.00  0.00    -0.081 SA
BRANCH  19  20
ATOM     20  C   UNL A   1      32.443  20.375  25.050  1.00  0.00     0.134 C 
BRANCH  20  21
ATOM     21  C   UNL A   1      32.596  18.894  24.746  1.00  0.00     0.051 A 
ATOM     22  C   UNL A   1      33.030  18.513  23.471  1.00  0.00     0.025 A 
ATOM     23  N   UNL A   1      32.411  17.976  25.732  1.00  0.00    -0.260 NA
ATOM     24  C   UNL A   1      33.440  17.195  23.254  1.00  0.00     0.003 A 
ATOM     25  C   UNL A   1      32.768  16.692  25.476  1.00  0.00     0.111 A 
ATOM     26  C   UNL A   1      33.327  16.268  24.281  1.00  0.00     0.020 A 
ENDBRANCH  20  21
ENDBRANCH  19  20
ENDBRANCH   9  19
ENDBRANCH   7   8
ENDBRANCH   6   7
ENDBRANCH   4   6
ENDBRANCH   1   2
BRANCH   1  27
ATOM     27  C   UNL A   1      40.020  21.908  26.738  1.00  0.00     0.042 C 
BRANCH  27  28
ATOM     28  C   UNL A   1      40.487  23.271  27.220  1.00  0.00     0.118 C 
BRANCH  28  29
ATOM     29  N   UNL A   1      40.819  24.196  26.140  1.00  0.00    -0.352 N 
ATOM     30  C   UNL A   1      41.037  25.553  26.175  1.00  0.00     0.251 C 
ATOM     31  H   UNL A   1      40.900  23.785  25.249  1.00  0.00     0.163 HD
ATOM     32  O   UNL A   1      41.215  26.183  25.148  1.00  0.00    -0.269 OA
BRANCH  30  33
ATOM     33  C   UNL A   1      41.029  26.223  27.486  1.00  0.00     0.039 A 
ATOM     34  C   UNL A   1      39.931  26.068  28.335  1.00  0.00     0.014 A 
ATOM     35  C   UNL A   1      42.082  27.077  27.815  1.00  0.00     0.014 A 
ATOM     36  C   UNL A   1      39.803  26.900  29.434  1.00  0.00     0.010 A 
ATOM     37  C   UNL A   1      41.987  27.852  28.968  1.00  0.00     0.010 A 
ATOM     38  C   UNL A   1      40.823  27.807  29.753  1.00  0.00    -0.014 A 
BRANCH  38  39
ATOM     39  C   UNL A   1      40.649  28.727  30.899  1.00  0.00     0.031 A 
ATOM     40  C   UNL A   1      39.574  29.778  30.865  1.00  0.00     0.074 A 
ATOM     41  C   UNL A   1      41.435  28.579  31.981  1.00  0.00     0.049 A 
ATOM     42  N   UNL A   1      39.309  30.704  31.747  1.00  0.00    -0.248 NA
ATOM     43  C   UNL A   1      38.680  29.792  29.694  1.00  0.00     0.031 C 
ATOM     44  C   UNL A   1      42.467  27.551  32.134  1.00  0.00     0.029 A 
ATOM     45  N   UNL A   1      41.478  29.273  33.161  1.00  0.00    -0.354 N 
ATOM     46  C   UNL A   1      38.236  31.423  31.232  1.00  0.00     0.074 A 
ATOM     47  C   UNL A   1      37.915  30.845  29.947  1.00  0.00     0.031 C 
ATOM     48  C   UNL A   1      43.010  27.654  33.355  1.00  0.00     0.029 A 
ATOM     49  C   UNL A   1      42.428  28.806  34.037  1.00  0.00     0.049 A 
ATOM     50  H   UNL A   1      40.886  30.033  33.362  1.00  0.00     0.167 HD
ATOM     51  C   UNL A   1      37.577  32.463  31.793  1.00  0.00     0.031 A 
ATOM     52  C   UNL A   1      42.812  29.266  35.243  1.00  0.00     0.031 A 
ATOM     53  C   UNL A   1      37.904  33.008  33.085  1.00  0.00     0.049 A 
ATOM     54  C   UNL A   1      42.123  30.476  35.805  1.00  0.00     0.074 A 
ATOM     55  C   UNL A   1      37.285  34.050  33.751  1.00  0.00     0.029 A 
ATOM     56  N   UNL A   1      38.926  32.555  33.907  1.00  0.00    -0.354 N 
ATOM     57  N   UNL A   1      41.117  31.150  35.303  1.00  0.00    -0.248 NA
ATOM     58  C   UNL A   1      42.622  30.995  37.085  1.00  0.00     0.031 C 
ATOM     59  C   UNL A   1      37.979  34.276  34.941  1.00  0.00     0.029 A 
ATOM     60  C   UNL A   1      38.981  33.323  35.056  1.00  0.00     0.049 A 
ATOM     61  H   UNL A   1      39.522  31.799  33.702  1.00  0.00     0.167 HD
ATOM     62  C   UNL A   1      40.855  32.171  36.208  1.00  0.00     0.074 A 
ATOM     63  C   UNL A   1      41.796  32.012  37.299  1.00  0.00     0.031 C 
ATOM     64  C   UNL A   1      39.925  33.152  36.134  1.00  0.00     0.031 A 
BRANCH  51  65
ATOM     65  C   UNL A   1      36.442  33.096  31.031  1.00  0.00    -0.014 A 
ATOM     66  C   UNL A   1      36.701  33.748  29.811  1.00  0.00     0.010 A 
ATOM     67  C   UNL A   1      35.149  33.162  31.579  1.00  0.00     0.010 A 
ATOM     68  C   UNL A   1      35.702  34.487  29.172  1.00  0.00     0.020 A 
ATOM     69  C   UNL A   1      34.137  33.877  30.928  1.00  0.00     0.020 A 
ATOM     70  C   UNL A   1      34.428  34.556  29.743  1.00  0.00     0.054 A 
BRANCH  70  71
ATOM     71  S   UNL A   1      33.155  35.552  28.920  1.00  0.00     0.124 S 
ATOM     72  O   UNL A   1      33.953  36.539  28.199  1.00  0.00    -0.237 OA
ATOM     73  O   UNL A   1      32.465  34.567  28.091  1.00  0.00    -0.237 OA
ATOM     74  O   UNL A   1      32.363  36.079  30.030  1.00  0.00    -0.744 OA
ENDBRANCH  70  71
ENDBRANCH  51  65
BRANCH  52  75
ATOM     75  C   UNL A   1      43.904  28.562  35.969  1.00  0.00    -0.014 A 
ATOM     76  C   UNL A   1      43.604  27.517  36.864  1.00  0.00     0.010 A 
ATOM     77  C   UNL A   1      45.233  29.006  35.859  1.00  0.00     0.010 A 
ATOM     78  C   UNL A   1      44.595  26.980  37.688  1.00  0.00     0.020 A 
ATOM     79  C   UNL A   1      46.235  28.446  36.659  1.00  0.00     0.020 A 
ATOM     80  C   UNL A   1      45.902  27.461  37.593  1.00  0.00     0.054 A 
BRANCH  80  81
ATOM     81  S   UNL A   1      47.156  26.801  38.723  1.00  0.00     0.124 S 
ATOM     82  O   UNL A   1      47.630  28.014  39.385  1.00  0.00    -0.237 OA
ATOM     83  O   UNL A   1      46.382  25.888  39.560  1.00  0.00    -0.237 OA
ATOM     84  O   UNL A   1      48.118  26.159  37.830  1.00  0.00    -0.744 OA
ENDBRANCH  80  81
ENDBRANCH  52  75
BRANCH  64  85
ATOM     85  C   UNL A   1      39.863  34.161  37.249  1.00  0.00    -0.014 A 
ATOM     86  C   UNL A   1      40.736  35.266  37.240  1.00  0.00     0.010 A 
ATOM     87  C   UNL A   1      39.074  33.918  38.386  1.00  0.00     0.010 A 
ATOM     88  C   UNL A   1      40.865  36.074  38.371  1.00  0.00     0.020 A 
ATOM     89  C   UNL A   1      39.177  34.743  39.508  1.00  0.00     0.020 A 
ATOM     90  C   UNL A   1      40.098  35.795  39.505  1.00  0.00     0.054 A 
BRANCH  90  91
ATOM     91  S   UNL A   1      40.345  36.802  40.992  1.00  0.00     0.124 S 
ATOM     92  O   UNL A   1      41.506  37.609  40.628  1.00  0.00    -0.237 OA
ATOM     93  O   UNL A   1      39.082  37.528  41.100  1.00  0.00    -0.237 OA
ATOM     94  O   UNL A   1      40.577  35.812  42.042  1.00  0.00    -0.744 OA
ENDBRANCH  90  91
ENDBRANCH  64  85
ENDBRANCH  38  39
ENDBRANCH  30  33
ENDBRANCH  28  29
ENDBRANCH  27  28
ENDBRANCH   1  27
TORSDOF 18
ENDMDL
MODEL 3
REMARK VINA RESULT:     -10.7      2.675      9.187
REMARK SMILES O=C(CCn1c(SCc2ccccn2)nc2ccccc2c1=O)NCCCNC(=O)c1ccc(-c2c3nc(c(-c4ccc(S(=O)(=O)[O-])cc4)c4ccc([nH]4)c(-c4ccc(S(=O)(=O)[O-])cc4)c4nc(c(-c5ccc(S(=O)(=O)[O-])cc5)c5ccc2[nH]5)C=C4)C=C3)cc1
REMARK SMILES IDX 25 1 24 2 1 3 2 4 3 6 4 7 5 8 6 9 22 10 15 11 21 12 23 13
REMARK SMILES IDX 16 14 20 15 17 16 19 17 18 18 7 19 8 20 9 21 10 22 14 23
REMARK SMILES IDX 11 24 13 25 12 26 26 27 27 28 28 29 29 30 30 32 31 33 32 34
REMARK SMILES IDX 90 35 33 36 89 37 34 38 35 39 36 40 83 41 37 42 88 43 82 44
REMARK SMILES IDX 84 45 38 46 87 47 81 48 80 49 39 51 69 52 50 53 68 54 51 55
REMARK SMILES IDX 54 56 67 57 85 58 52 59 53 60 66 62 86 63 55 64 40 65 41 66
REMARK SMILES IDX 49 67 42 68 48 69 43 70 44 71 45 72 46 73 47 74 70 75 71 76
REMARK SMILES IDX 79 77 72 78 78 79 73 80 74 81 75 82 76 83 77 84 56 85 57 86
REMARK SMILES IDX 65 87 58 88 64 89 59 90 60 91 61 92 62 93 63 94
REMARK H PARENT 24 5 28 31 84 50 54 61
REMARK Flexibility Score: inf
ROOT
ATOM      1  C   UNL A   1      39.252  21.897  26.458  1.00  0.00     0.117 C 
ENDROOT
BRANCH   1   2
ATOM      2  N   UNL A   1      38.522  22.687  25.469  1.00  0.00    -0.356 N 
ATOM      3  O   UNL A   1      37.094  20.975  25.117  1.00  0.00    -0.275 OA
ATOM      4  C   UNL A   1      37.417  22.146  24.882  1.00  0.00     0.221 C 
ATOM      5  H   UNL A   1      38.822  23.595  25.231  1.00  0.00     0.163 HD
BRANCH   4   6
ATOM      6  C   UNL A   1      36.501  22.944  23.983  1.00  0.00     0.122 C 
BRANCH   6   7
ATOM      7  C   UNL A   1      35.101  22.689  23.481  1.00  0.00     0.138 C 
BRANCH   7   8
ATOM      8  N   UNL A   1      33.927  22.503  24.309  1.00  0.00    -0.287 N 
ATOM      9  C   UNL A   1      33.948  22.099  25.613  1.00  0.00     0.171 A 
ATOM     10  C   UNL A   1      32.889  21.987  23.541  1.00  0.00     0.262 A 
ATOM     11  N   UNL A   1      33.683  20.866  25.945  1.00  0.00    -0.224 NA
ATOM     12  C   UNL A   1      32.725  20.536  23.715  1.00  0.00     0.066 A 
ATOM     13  O   UNL A   1      32.306  22.594  22.650  1.00  0.00    -0.269 OA
ATOM     14  C   UNL A   1      33.245  20.006  24.899  1.00  0.00     0.079 A 
ATOM     15  C   UNL A   1      32.261  19.739  22.663  1.00  0.00     0.016 A 
ATOM     16  C   UNL A   1      33.259  18.618  25.015  1.00  0.00     0.029 A 
ATOM     17  C   UNL A   1      32.341  18.356  22.780  1.00  0.00     0.001 A 
ATOM     18  C   UNL A   1      32.844  17.796  23.953  1.00  0.00     0.002 A 
BRANCH   9  19
ATOM     19  S   UNL A   1      33.766  23.381  26.795  1.00  0.00    -0.081 SA
BRANCH  19  20
ATOM     20  C   UNL A   1      33.666  24.990  25.987  1.00  0.00     0.134 C 
BRANCH  20  21
ATOM     21  C   UNL A   1      32.307  25.496  25.534  1.00  0.00     0.051 A 
ATOM     22  C   UNL A   1      32.121  25.795  24.179  1.00  0.00     0.025 A 
ATOM     23  N   UNL A   1      31.274  25.553  26.417  1.00  0.00    -0.260 NA
ATOM     24  C   UNL A   1      30.827  25.993  23.694  1.00  0.00     0.003 A 
ATOM     25  C   UNL A   1      30.034  25.799  25.925  1.00  0.00     0.111 A 
ATOM     26  C   UNL A   1      29.756  25.975  24.578  1.00  0.00     0.020 A 
ENDBRANCH  20  21
ENDBRANCH  19  20
ENDBRANCH   9  19
ENDBRANCH   7   8
ENDBRANCH   6   7
ENDBRANCH   4   6
ENDBRANCH   1   2
BRANCH   1  27
ATOM     27  C   UNL A   1      40.765  21.965  26.339  1.00  0.00     0.042 C 
BRANCH  27  28
ATOM     28  C   UNL A   1      41.395  23.253  26.839  1.00  0.00     0.118 C 
BRANCH  28  29
ATOM     29  N   UNL A   1      41.626  24.242  25.790  1.00  0.00    -0.352 N 
ATOM     30  C   UNL A   1      41.717  25.612  25.872  1.00  0.00     0.251 C 
ATOM     31  H   UNL A   1      41.734  23.872  24.884  1.00  0.00     0.163 HD
ATOM     32  O   UNL A   1      41.823  26.291  24.867  1.00  0.00    -0.269 OA
BRANCH  30  33
ATOM     33  C   UNL A   1      41.664  26.232  27.206  1.00  0.00     0.039 A 
ATOM     34  C   UNL A   1      40.525  26.071  27.998  1.00  0.00     0.014 A 
ATOM     35  C   UNL A   1      42.720  27.046  27.616  1.00  0.00     0.014 A 
ATOM     36  C   UNL A   1      40.365  26.865  29.121  1.00  0.00     0.010 A 
ATOM     37  C   UNL A   1      42.590  27.780  28.793  1.00  0.00     0.010 A 
ATOM     38  C   UNL A   1      41.390  27.734  29.522  1.00  0.00    -0.014 A 
BRANCH  38  39
ATOM     39  C   UNL A   1      41.183  28.614  30.693  1.00  0.00     0.031 A 
ATOM     40  C   UNL A   1      40.056  29.608  30.700  1.00  0.00     0.074 A 
ATOM     41  C   UNL A   1      41.990  28.479  31.762  1.00  0.00     0.049 A 
ATOM     42  N   UNL A   1      39.755  30.497  31.609  1.00  0.00    -0.248 NA
ATOM     43  C   UNL A   1      39.147  29.607  29.540  1.00  0.00     0.031 C 
ATOM     44  C   UNL A   1      43.075  27.502  31.876  1.00  0.00     0.029 A 
ATOM     45  N   UNL A   1      42.013  29.143  32.959  1.00  0.00    -0.354 N 
ATOM     46  C   UNL A   1      38.640  31.172  31.125  1.00  0.00     0.074 A 
ATOM     47  C   UNL A   1      38.332  30.612  29.830  1.00  0.00     0.031 C 
ATOM     48  C   UNL A   1      43.628  27.601  33.092  1.00  0.00     0.029 A 
ATOM     49  C   UNL A   1      42.997  28.703  33.812  1.00  0.00     0.049 A 
ATOM     50  H   UNL A   1      41.385  29.866  33.188  1.00  0.00     0.167 HD
ATOM     51  C   UNL A   1      37.937  32.162  31.721  1.00  0.00     0.031 A 
ATOM     52  C   UNL A   1      43.373  29.151  35.025  1.00  0.00     0.031 A 
ATOM     53  C   UNL A   1      38.252  32.689  33.023  1.00  0.00     0.049 A 
ATOM     54  C   UNL A   1      42.630  30.309  35.627  1.00  0.00     0.074 A 
ATOM     55  C   UNL A   1      37.589  33.681  33.723  1.00  0.00     0.029 A 
ATOM     56  N   UNL A   1      39.306  32.269  33.821  1.00  0.00    -0.354 N 
ATOM     57  N   UNL A   1      41.584  30.943  35.154  1.00  0.00    -0.248 NA
ATOM     58  C   UNL A   1      43.118  30.820  36.914  1.00  0.00     0.031 C 
ATOM     59  C   UNL A   1      38.286  33.912  34.911  1.00  0.00     0.029 A 
ATOM     60  C   UNL A   1      39.337  33.009  34.989  1.00  0.00     0.049 A 
ATOM     61  H   UNL A   1      39.938  31.550  33.590  1.00  0.00     0.167 HD
ATOM     62  C   UNL A   1      41.282  31.926  36.089  1.00  0.00     0.074 A 
ATOM     63  C   UNL A   1      42.243  31.787  37.165  1.00  0.00     0.031 C 
ATOM     64  C   UNL A   1      40.302  32.860  36.051  1.00  0.00     0.031 A 
BRANCH  51  65
ATOM     65  C   UNL A   1      36.760  32.755  30.990  1.00  0.00    -0.014 A 
ATOM     66  C   UNL A   1      36.982  33.611  29.895  1.00  0.00     0.010 A 
ATOM     67  C   UNL A   1      35.448  32.574  31.460  1.00  0.00     0.010 A 
ATOM     68  C   UNL A   1      35.922  34.307  29.309  1.00  0.00     0.020 A 
ATOM     69  C   UNL A   1      34.379  33.246  30.857  1.00  0.00     0.020 A 
ATOM     70  C   UNL A   1      34.627  34.128  29.803  1.00  0.00     0.054 A 
BRANCH  70  71
ATOM     71  S   UNL A   1      33.268  35.069  29.055  1.00  0.00     0.124 S 
ATOM     72  O   UNL A   1      32.395  35.314  30.199  1.00  0.00    -0.237 OA
ATOM     73  O   UNL A   1      33.950  36.243  28.518  1.00  0.00    -0.237 OA
ATOM     74  O   UNL A   1      32.734  34.155  28.046  1.00  0.00    -0.744 OA
ENDBRANCH  70  71
ENDBRANCH  51  65
BRANCH  52  75
ATOM     75  C   UNL A   1      44.509  28.486  35.719  1.00  0.00    -0.014 A 
ATOM     76  C   UNL A   1      44.269  27.441  36.632  1.00  0.00     0.010 A 
ATOM     77  C   UNL A   1      45.819  28.967  35.561  1.00  0.00     0.010 A 
ATOM     78  C   UNL A   1      45.302  26.940  37.427  1.00  0.00     0.020 A 
ATOM     79  C   UNL A   1      46.864  28.445  36.331  1.00  0.00     0.020 A 
ATOM     80  C   UNL A   1      46.591  27.459  37.283  1.00  0.00     0.054 A 
BRANCH  80  81
ATOM     81  S   UNL A   1      47.901  26.845  38.377  1.00  0.00     0.124 S 
ATOM     82  O   UNL A   1      47.690  25.401  38.314  1.00  0.00    -0.237 OA
ATOM     83  O   UNL A   1      49.114  27.333  37.726  1.00  0.00    -0.237 OA
ATOM     84  O   UNL A   1      47.593  27.467  39.663  1.00  0.00    -0.744 OA
ENDBRANCH  80  81
ENDBRANCH  52  75
BRANCH  64  85
ATOM     85  C   UNL A   1      40.203  33.835  37.193  1.00  0.00    -0.014 A 
ATOM     86  C   UNL A   1      39.303  33.587  38.247  1.00  0.00     0.010 A 
ATOM     87  C   UNL A   1      40.864  35.074  37.131  1.00  0.00     0.010 A 
ATOM     88  C   UNL A   1      39.019  34.583  39.183  1.00  0.00     0.020 A 
ATOM     89  C   UNL A   1      40.606  36.062  38.084  1.00  0.00     0.020 A 
ATOM     90  C   UNL A   1      39.659  35.821  39.084  1.00  0.00     0.054 A 
BRANCH  90  91
ATOM     91  S   UNL A   1      39.211  37.129  40.256  1.00  0.00     0.124 S 
ATOM     92  O   UNL A   1      40.518  37.589  40.717  1.00  0.00    -0.237 OA
ATOM     93  O   UNL A   1      38.472  38.070  39.418  1.00  0.00    -0.237 OA
ATOM     94  O   UNL A   1      38.406  36.432  41.257  1.00  0.00    -0.744 OA
ENDBRANCH  90  91
ENDBRANCH  64  85
ENDBRANCH  38  39
ENDBRANCH  30  33
ENDBRANCH  28  29
ENDBRANCH  27  28
ENDBRANCH   1  27
TORSDOF 18
ENDMDL
