MODEL 1
REMARK VINA RESULT:     -12.1      0.000      0.000
REMARK SMILES O=C(NCCCNC(=O)[C@@H]1CCCC[C@@H]1NS(=O)(=O)c1ccc2ccccc2c1)c1ccc(-c2c3nc(c(-c4ccc(S(=O)(=O)[O-])cc4)c4ccc([nH]4)c(-c4ccc(S(=O)(=O)[O-])cc4)c4nc(c(-c5ccc(S(=O)(=O)[O-])cc5)c5ccc2[nH]5)C=C4)C=C3)cc1
REMARK SMILES IDX 5 1 4 2 3 3 1 4 2 5 30 7 31 8 89 9 32 10 88 11 33 12 34 13
REMARK SMILES IDX 35 14 82 15 36 16 87 17 81 18 83 19 37 20 86 21 80 22 79 23
REMARK SMILES IDX 38 25 68 26 49 27 67 28 50 29 53 30 66 31 84 32 51 33 52 34
REMARK SMILES IDX 65 36 85 37 54 38 39 39 40 40 48 41 41 42 47 43 42 44 43 45
REMARK SMILES IDX 44 46 45 47 46 48 69 49 70 50 78 51 71 52 77 53 72 54 73 55
REMARK SMILES IDX 74 56 75 57 76 58 55 59 56 60 64 61 57 62 63 63 58 64 59 65
REMARK SMILES IDX 60 66 61 67 62 68 6 69 7 70 8 71 9 73 10 74 11 75 15 76
REMARK SMILES IDX 12 77 14 78 13 79 16 80 17 82 18 83 19 84 20 85 21 86 29 87
REMARK SMILES IDX 22 88 28 89 23 90 27 91 24 92 26 93 25 94
REMARK H PARENT 3 6 83 24 53 35 7 72 16 81
REMARK Flexibility Score: inf
ROOT
ATOM      1  C   UNL A   1      32.607  27.503  26.261  1.00  0.00     0.042 C 
ENDROOT
BRANCH   1   2
ATOM      2  C   UNL A   1      33.558  28.186  27.248  1.00  0.00     0.118 C 
BRANCH   2   3
ATOM      3  N   UNL A   1      33.376  29.605  27.497  1.00  0.00    -0.352 N 
ATOM      4  O   UNL A   1      34.004  31.682  28.128  1.00  0.00    -0.269 OA
ATOM      5  C   UNL A   1      34.313  30.511  27.943  1.00  0.00     0.251 C 
ATOM      6  H   UNL A   1      32.474  29.964  27.326  1.00  0.00     0.163 HD
BRANCH   5   7
ATOM      7  C   UNL A   1      35.691  30.047  28.210  1.00  0.00     0.039 A 
ATOM      8  C   UNL A   1      36.050  29.604  29.485  1.00  0.00     0.014 A 
ATOM      9  C   UNL A   1      36.639  30.083  27.183  1.00  0.00     0.014 A 
ATOM     10  C   UNL A   1      37.383  29.326  29.768  1.00  0.00     0.010 A 
ATOM     11  C   UNL A   1      37.967  29.740  27.455  1.00  0.00     0.010 A 
ATOM     12  C   UNL A   1      38.357  29.393  28.758  1.00  0.00    -0.014 A 
BRANCH  12  13
ATOM     13  C   UNL A   1      39.769  29.060  29.084  1.00  0.00     0.031 A 
ATOM     14  C   UNL A   1      40.659  30.053  29.783  1.00  0.00     0.074 A 
ATOM     15  C   UNL A   1      40.233  27.832  28.777  1.00  0.00     0.049 A 
ATOM     16  N   UNL A   1      41.907  29.917  30.159  1.00  0.00    -0.248 NA
ATOM     17  C   UNL A   1      40.080  31.369  30.098  1.00  0.00     0.031 C 
ATOM     18  C   UNL A   1      39.465  26.789  28.092  1.00  0.00     0.029 A 
ATOM     19  N   UNL A   1      41.450  27.247  29.013  1.00  0.00    -0.354 N 
ATOM     20  C   UNL A   1      42.264  31.125  30.747  1.00  0.00     0.074 A 
ATOM     21  C   UNL A   1      41.112  31.996  30.649  1.00  0.00     0.031 C 
ATOM     22  C   UNL A   1      40.215  25.682  27.997  1.00  0.00     0.029 A 
ATOM     23  C   UNL A   1      41.533  25.953  28.560  1.00  0.00     0.049 A 
ATOM     24  H   UNL A   1      42.193  27.710  29.464  1.00  0.00     0.167 HD
ATOM     25  C   UNL A   1      43.442  31.472  31.324  1.00  0.00     0.031 A 
ATOM     26  C   UNL A   1      42.559  25.082  28.575  1.00  0.00     0.031 A 
ATOM     27  C   UNL A   1      44.588  30.604  31.406  1.00  0.00     0.049 A 
ATOM     28  C   UNL A   1      43.860  25.502  29.197  1.00  0.00     0.074 A 
ATOM     29  C   UNL A   1      45.827  30.864  31.968  1.00  0.00     0.029 A 
ATOM     30  N   UNL A   1      44.638  29.307  30.917  1.00  0.00    -0.354 N 
ATOM     31  N   UNL A   1      44.172  26.646  29.758  1.00  0.00    -0.248 NA
ATOM     32  C   UNL A   1      44.944  24.511  29.195  1.00  0.00     0.031 C 
ATOM     33  C   UNL A   1      46.639  29.739  31.780  1.00  0.00     0.029 A 
ATOM     34  C   UNL A   1      45.889  28.759  31.152  1.00  0.00     0.049 A 
ATOM     35  H   UNL A   1      43.895  28.844  30.469  1.00  0.00     0.167 HD
ATOM     36  C   UNL A   1      45.487  26.510  30.186  1.00  0.00     0.074 A 
ATOM     37  C   UNL A   1      45.898  25.161  29.847  1.00  0.00     0.031 C 
ATOM     38  C   UNL A   1      46.285  27.419  30.797  1.00  0.00     0.031 A 
BRANCH  25  39
ATOM     39  C   UNL A   1      43.557  32.860  31.904  1.00  0.00    -0.014 A 
ATOM     40  C   UNL A   1      43.951  33.948  31.106  1.00  0.00     0.010 A 
ATOM     41  C   UNL A   1      43.207  33.092  33.248  1.00  0.00     0.010 A 
ATOM     42  C   UNL A   1      44.025  35.235  31.647  1.00  0.00     0.020 A 
ATOM     43  C   UNL A   1      43.255  34.383  33.786  1.00  0.00     0.020 A 
ATOM     44  C   UNL A   1      43.678  35.444  32.984  1.00  0.00     0.054 A 
BRANCH  44  45
ATOM     45  S   UNL A   1      43.757  37.131  33.650  1.00  0.00     0.124 S 
ATOM     46  O   UNL A   1      43.840  37.931  32.431  1.00  0.00    -0.237 OA
ATOM     47  O   UNL A   1      42.503  37.242  34.390  1.00  0.00    -0.237 OA
ATOM     48  O   UNL A   1      44.964  37.124  34.473  1.00  0.00    -0.744 OA
ENDBRANCH  44  45
ENDBRANCH  25  39
BRANCH  26  49
ATOM     49  C   UNL A   1      42.398  23.738  27.953  1.00  0.00    -0.014 A 
ATOM     50  C   UNL A   1      42.701  23.526  26.598  1.00  0.00     0.010 A 
ATOM     51  C   UNL A   1      41.950  22.655  28.732  1.00  0.00     0.010 A 
ATOM     52  C   UNL A   1      42.536  22.261  26.027  1.00  0.00     0.020 A 
ATOM     53  C   UNL A   1      41.816  21.382  28.174  1.00  0.00     0.020 A 
ATOM     54  C   UNL A   1      42.094  21.197  26.819  1.00  0.00     0.054 A 
BRANCH  54  55
ATOM     55  S   UNL A   1      41.925  19.553  26.071  1.00  0.00     0.124 S 
ATOM     56  O   UNL A   1      42.436  18.687  27.128  1.00  0.00    -0.237 OA
ATOM     57  O   UNL A   1      40.488  19.466  25.819  1.00  0.00    -0.237 OA
ATOM     58  O   UNL A   1      42.755  19.637  24.872  1.00  0.00    -0.744 OA
ENDBRANCH  54  55
ENDBRANCH  26  49
BRANCH  38  59
ATOM     59  C   UNL A   1      47.676  26.971  31.157  1.00  0.00    -0.014 A 
ATOM     60  C   UNL A   1      48.729  27.049  30.228  1.00  0.00     0.010 A 
ATOM     61  C   UNL A   1      47.935  26.476  32.448  1.00  0.00     0.010 A 
ATOM     62  C   UNL A   1      50.005  26.596  30.568  1.00  0.00     0.020 A 
ATOM     63  C   UNL A   1      49.217  26.047  32.800  1.00  0.00     0.020 A 
ATOM     64  C   UNL A   1      50.240  26.092  31.850  1.00  0.00     0.054 A 
BRANCH  64  65
ATOM     65  S   UNL A   1      51.909  25.521  32.274  1.00  0.00     0.124 S 
ATOM     66  O   UNL A   1      52.053  25.999  33.647  1.00  0.00    -0.237 OA
ATOM     67  O   UNL A   1      51.802  24.073  32.120  1.00  0.00    -0.237 OA
ATOM     68  O   UNL A   1      52.761  26.185  31.290  1.00  0.00    -0.744 OA
ENDBRANCH  64  65
ENDBRANCH  38  59
ENDBRANCH  12  13
ENDBRANCH   5   7
ENDBRANCH   2   3
ENDBRANCH   1   2
BRANCH   1  69
ATOM     69  C   UNL A   1      31.208  27.101  26.718  1.00  0.00     0.117 C 
BRANCH  69  70
ATOM     70  N   UNL A   1      30.435  26.275  25.808  1.00  0.00    -0.356 N 
ATOM     71  C   UNL A   1      30.136  26.405  24.489  1.00  0.00     0.224 C 
ATOM     72  H   UNL A   1      30.056  25.469  26.225  1.00  0.00     0.163 HD
ATOM     73  O   UNL A   1      29.881  25.371  23.856  1.00  0.00    -0.275 OA
BRANCH  71  74
ATOM     74  C   UNL A   1      30.020  27.724  23.751  1.00  0.00     0.096 C 
ATOM     75  C   UNL A   1      28.671  28.085  23.152  1.00  0.00     0.015 C 
ATOM     76  C   UNL A   1      31.238  27.990  22.837  1.00  0.00     0.082 C 
ATOM     77  C   UNL A   1      28.662  29.536  22.703  1.00  0.00     0.001 C 
ATOM     78  C   UNL A   1      31.139  29.382  22.172  1.00  0.00     0.021 C 
ATOM     79  C   UNL A   1      29.745  29.758  21.656  1.00  0.00     0.002 C 
BRANCH  76  80
ATOM     80  N   UNL A   1      31.425  26.957  21.786  1.00  0.00    -0.207 NA
ATOM     81  H   UNL A   1      31.116  27.371  20.906  1.00  0.00     0.141 HD
BRANCH  80  82
ATOM     82  S   UNL A   1      32.977  26.303  21.509  1.00  0.00     0.240 S 
ATOM     83  O   UNL A   1      32.884  25.625  20.236  1.00  0.00    -0.207 OA
ATOM     84  O   UNL A   1      33.971  27.325  21.751  1.00  0.00    -0.207 OA
BRANCH  82  85
ATOM     85  C   UNL A   1      33.107  25.054  22.767  1.00  0.00     0.083 A 
ATOM     86  C   UNL A   1      33.958  25.263  23.852  1.00  0.00     0.022 A 
ATOM     87  C   UNL A   1      32.438  23.838  22.622  1.00  0.00     0.030 A 
ATOM     88  C   UNL A   1      34.292  24.192  24.683  1.00  0.00     0.010 A 
ATOM     89  C   UNL A   1      32.811  22.741  23.418  1.00  0.00    -0.017 A 
ATOM     90  C   UNL A   1      33.798  22.907  24.418  1.00  0.00    -0.018 A 
ATOM     91  C   UNL A   1      32.326  21.453  23.147  1.00  0.00     0.009 A 
ATOM     92  C   UNL A   1      34.330  21.776  25.058  1.00  0.00     0.009 A 
ATOM     93  C   UNL A   1      32.882  20.336  23.771  1.00  0.00     0.001 A 
ATOM     94  C   UNL A   1      33.899  20.495  24.709  1.00  0.00     0.001 A 
ENDBRANCH  82  85
ENDBRANCH  80  82
ENDBRANCH  76  80
ENDBRANCH  71  74
ENDBRANCH  69  70
ENDBRANCH   1  69
TORSDOF 16
ENDMDL
MODEL 2
REMARK VINA RESULT:     -11.8      1.384      3.638
REMARK SMILES O=C(NCCCNC(=O)[C@@H]1CCCC[C@@H]1NS(=O)(=O)c1ccc2ccccc2c1)c1ccc(-c2c3nc(c(-c4ccc(S(=O)(=O)[O-])cc4)c4ccc([nH]4)c(-c4ccc(S(=O)(=O)[O-])cc4)c4nc(c(-c5ccc(S(=O)(=O)[O-])cc5)c5ccc2[nH]5)C=C4)C=C3)cc1
REMARK SMILES IDX 5 1 4 2 3 3 1 4 2 5 30 7 31 8 89 9 32 10 88 11 33 12 34 13
REMARK SMILES IDX 35 14 82 15 36 16 87 17 81 18 83 19 37 20 86 21 80 22 79 23
REMARK SMILES IDX 38 25 68 26 49 27 67 28 50 29 53 30 66 31 84 32 51 33 52 34
REMARK SMILES IDX 65 36 85 37 54 38 39 39 40 40 48 41 41 42 47 43 42 44 43 45
REMARK SMILES IDX 44 46 45 47 46 48 69 49 70 50 78 51 71 52 77 53 72 54 73 55
REMARK SMILES IDX 74 56 75 57 76 58 55 59 56 60 64 61 57 62 63 63 58 64 59 65
REMARK SMILES IDX 60 66 61 67 62 68 6 69 7 70 8 71 9 73 10 74 11 75 15 76
REMARK SMILES IDX 12 77 14 78 13 79 16 80 17 82 18 83 19 84 20 85 21 86 29 87
REMARK SMILES IDX 22 88 28 89 23 90 27 91 24 92 26 93 25 94
REMARK H PARENT 3 6 83 24 53 35 7 72 16 81
REMARK Flexibility Score: inf
ROOT
ATOM      1  C   UNL A   1      33.901  27.816  25.982  1.00  0.00     0.042 C 
ENDROOT
BRANCH   1   2
ATOM      2  C   UNL A   1      33.558  28.307  27.390  1.00  0.00     0.118 C 
BRANCH   2   3
ATOM      3  N   UNL A   1      33.408  29.737  27.594  1.00  0.00    -0.352 N 
ATOM      4  O   UNL A   1      34.088  31.823  28.139  1.00  0.00    -0.269 OA
ATOM      5  C   UNL A   1      34.372  30.640  27.986  1.00  0.00     0.251 C 
ATOM      6  H   UNL A   1      32.509  30.106  27.433  1.00  0.00     0.163 HD
BRANCH   5   7
ATOM      7  C   UNL A   1      35.747  30.160  28.237  1.00  0.00     0.039 A 
ATOM      8  C   UNL A   1      36.124  29.743  29.515  1.00  0.00     0.014 A 
ATOM      9  C   UNL A   1      36.674  30.156  27.191  1.00  0.00     0.014 A 
ATOM     10  C   UNL A   1      37.459  29.450  29.778  1.00  0.00     0.010 A 
ATOM     11  C   UNL A   1      38.002  29.798  27.445  1.00  0.00     0.010 A 
ATOM     12  C   UNL A   1      38.413  29.476  28.747  1.00  0.00    -0.014 A 
BRANCH  12  13
ATOM     13  C   UNL A   1      39.826  29.129  29.053  1.00  0.00     0.031 A 
ATOM     14  C   UNL A   1      40.740  30.116  29.727  1.00  0.00     0.074 A 
ATOM     15  C   UNL A   1      40.269  27.892  28.750  1.00  0.00     0.049 A 
ATOM     16  N   UNL A   1      41.992  29.968  30.084  1.00  0.00    -0.248 NA
ATOM     17  C   UNL A   1      40.183  31.443  30.040  1.00  0.00     0.031 C 
ATOM     18  C   UNL A   1      39.476  26.852  28.088  1.00  0.00     0.029 A 
ATOM     19  N   UNL A   1      41.482  27.293  28.972  1.00  0.00    -0.354 N 
ATOM     20  C   UNL A   1      42.374  31.177  30.654  1.00  0.00     0.074 A 
ATOM     21  C   UNL A   1      41.232  32.061  30.568  1.00  0.00     0.031 C 
ATOM     22  C   UNL A   1      40.210  25.735  27.991  1.00  0.00     0.029 A 
ATOM     23  C   UNL A   1      41.541  25.994  28.529  1.00  0.00     0.049 A 
ATOM     24  H   UNL A   1      42.238  27.751  29.405  1.00  0.00     0.167 HD
ATOM     25  C   UNL A   1      43.566  31.514  31.209  1.00  0.00     0.031 A 
ATOM     26  C   UNL A   1      42.556  25.110  28.536  1.00  0.00     0.031 A 
ATOM     27  C   UNL A   1      44.702  30.632  31.280  1.00  0.00     0.049 A 
ATOM     28  C   UNL A   1      43.872  25.519  29.132  1.00  0.00     0.074 A 
ATOM     29  C   UNL A   1      45.954  30.881  31.818  1.00  0.00     0.029 A 
ATOM     30  N   UNL A   1      44.728  29.329  30.803  1.00  0.00    -0.354 N 
ATOM     31  N   UNL A   1      44.208  26.664  29.676  1.00  0.00    -0.248 NA
ATOM     32  C   UNL A   1      44.944  24.515  29.121  1.00  0.00     0.031 C 
ATOM     33  C   UNL A   1      46.748  29.744  31.627  1.00  0.00     0.029 A 
ATOM     34  C   UNL A   1      45.975  28.767  31.022  1.00  0.00     0.049 A 
ATOM     35  H   UNL A   1      43.971  28.872  30.371  1.00  0.00     0.167 HD
ATOM     36  C   UNL A   1      45.528  26.515  30.084  1.00  0.00     0.074 A 
ATOM     37  C   UNL A   1      45.917  25.158  29.751  1.00  0.00     0.031 C 
ATOM     38  C   UNL A   1      46.348  27.420  30.673  1.00  0.00     0.031 A 
BRANCH  25  39
ATOM     39  C   UNL A   1      43.708  32.905  31.774  1.00  0.00    -0.014 A 
ATOM     40  C   UNL A   1      44.129  33.976  30.965  1.00  0.00     0.010 A 
ATOM     41  C   UNL A   1      43.358  33.160  33.113  1.00  0.00     0.010 A 
ATOM     42  C   UNL A   1      44.228  35.267  31.492  1.00  0.00     0.020 A 
ATOM     43  C   UNL A   1      43.431  34.455  33.637  1.00  0.00     0.020 A 
ATOM     44  C   UNL A   1      43.881  35.498  32.825  1.00  0.00     0.054 A 
BRANCH  44  45
ATOM     45  S   UNL A   1      43.993  37.190  33.472  1.00  0.00     0.124 S 
ATOM     46  O   UNL A   1      44.032  37.979  32.243  1.00  0.00    -0.237 OA
ATOM     47  O   UNL A   1      42.769  37.314  34.259  1.00  0.00    -0.237 OA
ATOM     48  O   UNL A   1      45.230  37.185  34.248  1.00  0.00    -0.744 OA
ENDBRANCH  44  45
ENDBRANCH  25  39
BRANCH  26  49
ATOM     49  C   UNL A   1      42.368  23.763  27.929  1.00  0.00    -0.014 A 
ATOM     50  C   UNL A   1      42.705  23.519  26.588  1.00  0.00     0.010 A 
ATOM     51  C   UNL A   1      41.858  22.709  28.710  1.00  0.00     0.010 A 
ATOM     52  C   UNL A   1      42.514  22.251  26.031  1.00  0.00     0.020 A 
ATOM     53  C   UNL A   1      41.696  21.432  28.166  1.00  0.00     0.020 A 
ATOM     54  C   UNL A   1      42.010  21.216  26.824  1.00  0.00     0.054 A 
BRANCH  54  55
ATOM     55  S   UNL A   1      41.807  19.567  26.096  1.00  0.00     0.124 S 
ATOM     56  O   UNL A   1      42.655  19.653  24.912  1.00  0.00    -0.237 OA
ATOM     57  O   UNL A   1      42.290  18.689  27.160  1.00  0.00    -0.237 OA
ATOM     58  O   UNL A   1      40.371  19.483  25.836  1.00  0.00    -0.744 OA
ENDBRANCH  54  55
ENDBRANCH  26  49
BRANCH  38  59
ATOM     59  C   UNL A   1      47.739  26.957  31.014  1.00  0.00    -0.014 A 
ATOM     60  C   UNL A   1      48.020  26.341  32.246  1.00  0.00     0.010 A 
ATOM     61  C   UNL A   1      48.777  27.130  30.080  1.00  0.00     0.010 A 
ATOM     62  C   UNL A   1      49.324  25.950  32.558  1.00  0.00     0.020 A 
ATOM     63  C   UNL A   1      50.077  26.714  30.378  1.00  0.00     0.020 A 
ATOM     64  C   UNL A   1      50.346  26.145  31.624  1.00  0.00     0.054 A 
BRANCH  64  65
ATOM     65  S   UNL A   1      52.029  25.616  32.047  1.00  0.00     0.124 S 
ATOM     66  O   UNL A   1      51.848  24.185  32.275  1.00  0.00    -0.237 OA
ATOM     67  O   UNL A   1      52.787  25.971  30.850  1.00  0.00    -0.237 OA
ATOM     68  O   UNL A   1      52.350  26.402  33.236  1.00  0.00    -0.744 OA
ENDBRANCH  64  65
ENDBRANCH  38  59
ENDBRANCH  12  13
ENDBRANCH   5   7
ENDBRANCH   2   3
ENDBRANCH   1   2
BRANCH   1  69
ATOM     69  C   UNL A   1      33.991  26.317  25.708  1.00  0.00     0.117 C 
BRANCH  69  70
ATOM     70  N   UNL A   1      34.201  25.916  24.328  1.00  0.00    -0.356 N 
ATOM     71  C   UNL A   1      34.463  24.710  23.759  1.00  0.00     0.224 C 
ATOM     72  H   UNL A   1      34.144  26.657  23.684  1.00  0.00     0.163 HD
ATOM     73  O   UNL A   1      34.134  24.554  22.575  1.00  0.00    -0.275 OA
BRANCH  71  74
ATOM     74  C   UNL A   1      35.191  23.568  24.439  1.00  0.00     0.096 C 
ATOM     75  C   UNL A   1      35.919  22.566  23.559  1.00  0.00     0.015 C 
ATOM     76  C   UNL A   1      34.363  22.953  25.591  1.00  0.00     0.082 C 
ATOM     77  C   UNL A   1      36.810  21.670  24.402  1.00  0.00     0.001 C 
ATOM     78  C   UNL A   1      35.167  21.857  26.327  1.00  0.00     0.021 C 
ATOM     79  C   UNL A   1      35.965  20.914  25.418  1.00  0.00     0.002 C 
BRANCH  76  80
ATOM     80  N   UNL A   1      33.061  22.391  25.147  1.00  0.00    -0.207 NA
ATOM     81  H   UNL A   1      33.134  21.377  25.228  1.00  0.00     0.141 HD
BRANCH  80  82
ATOM     82  S   UNL A   1      31.625  22.850  25.948  1.00  0.00     0.240 S 
ATOM     83  O   UNL A   1      30.726  21.729  25.792  1.00  0.00    -0.207 OA
ATOM     84  O   UNL A   1      31.959  23.377  27.252  1.00  0.00    -0.207 OA
BRANCH  82  85
ATOM     85  C   UNL A   1      31.012  24.169  24.926  1.00  0.00     0.083 A 
ATOM     86  C   UNL A   1      30.878  23.964  23.553  1.00  0.00     0.022 A 
ATOM     87  C   UNL A   1      30.759  25.426  25.478  1.00  0.00     0.030 A 
ATOM     88  C   UNL A   1      30.682  25.059  22.708  1.00  0.00     0.010 A 
ATOM     89  C   UNL A   1      30.618  26.540  24.632  1.00  0.00    -0.017 A 
ATOM     90  C   UNL A   1      30.644  26.360  23.229  1.00  0.00    -0.018 A 
ATOM     91  C   UNL A   1      30.592  27.843  25.152  1.00  0.00     0.009 A 
ATOM     92  C   UNL A   1      30.729  27.483  22.390  1.00  0.00     0.009 A 
ATOM     93  C   UNL A   1      30.702  28.949  24.308  1.00  0.00     0.001 A 
ATOM     94  C   UNL A   1      30.793  28.768  22.931  1.00  0.00     0.001 A 
ENDBRANCH  82  85
ENDBRANCH  80  82
ENDBRANCH  76  80
ENDBRANCH  71  74
ENDBRANCH  69  70
ENDBRANCH   1  69
TORSDOF 16
ENDMDL
MODEL 3
REMARK VINA RESULT:     -11.8      0.638      8.088
REMARK SMILES O=C(NCCCNC(=O)[C@@H]1CCCC[C@@H]1NS(=O)(=O)c1ccc2ccccc2c1)c1ccc(-c2c3nc(c(-c4ccc(S(=O)(=O)[O-])cc4)c4ccc([nH]4)c(-c4ccc(S(=O)(=O)[O-])cc4)c4nc(c(-c5ccc(S(=O)(=O)[O-])cc5)c5ccc2[nH]5)C=C4)C=C3)cc1
REMARK SMILES IDX 5 1 4 2 3 3 1 4 2 5 30 7 31 8 89 9 32 10 88 11 33 12 34 13
REMARK SMILES IDX 35 14 82 15 36 16 87 17 81 18 83 19 37 20 86 21 80 22 79 23
REMARK SMILES IDX 38 25 68 26 49 27 67 28 50 29 53 30 66 31 84 32 51 33 52 34
REMARK SMILES IDX 65 36 85 37 54 38 39 39 40 40 48 41 41 42 47 43 42 44 43 45
REMARK SMILES IDX 44 46 45 47 46 48 69 49 70 50 78 51 71 52 77 53 72 54 73 55
REMARK SMILES IDX 74 56 75 57 76 58 55 59 56 60 64 61 57 62 63 63 58 64 59 65
REMARK SMILES IDX 60 66 61 67 62 68 6 69 7 70 8 71 9 73 10 74 11 75 15 76
REMARK SMILES IDX 12 77 14 78 13 79 16 80 17 82 18 83 19 84 20 85 21 86 29 87
REMARK SMILES IDX 22 88 28 89 23 90 27 91 24 92 26 93 25 94
REMARK H PARENT 3 6 83 24 53 35 7 72 16 81
REMARK Flexibility Score: inf
ROOT
ATOM      1  C   UNL A   1      32.952  27.017  26.703  1.00  0.00     0.042 C 
ENDROOT
BRANCH   1   2
ATOM      2  C   UNL A   1      33.849  28.214  26.381  1.00  0.00     0.118 C 
BRANCH   2   3
ATOM      3  N   UNL A   1      33.466  29.512  26.910  1.00  0.00    -0.352 N 
ATOM      4  O   UNL A   1      33.756  31.430  28.070  1.00  0.00    -0.269 OA
ATOM      5  C   UNL A   1      34.226  30.369  27.675  1.00  0.00     0.251 C 
ATOM      6  H   UNL A   1      32.554  29.816  26.695  1.00  0.00     0.163 HD
BRANCH   5   7
ATOM      7  C   UNL A   1      35.609  29.983  28.029  1.00  0.00     0.039 A 
ATOM      8  C   UNL A   1      35.910  29.549  29.321  1.00  0.00     0.014 A 
ATOM      9  C   UNL A   1      36.617  30.085  27.065  1.00  0.00     0.014 A 
ATOM     10  C   UNL A   1      37.236  29.347  29.689  1.00  0.00     0.010 A 
ATOM     11  C   UNL A   1      37.943  29.817  27.421  1.00  0.00     0.010 A 
ATOM     12  C   UNL A   1      38.268  29.480  28.744  1.00  0.00    -0.014 A 
BRANCH  12  13
ATOM     13  C   UNL A   1      39.673  29.227  29.159  1.00  0.00     0.031 A 
ATOM     14  C   UNL A   1      40.344  27.911  28.868  1.00  0.00     0.074 A 
ATOM     15  C   UNL A   1      40.356  30.216  29.768  1.00  0.00     0.049 A 
ATOM     16  N   UNL A   1      41.568  27.534  29.141  1.00  0.00    -0.248 NA
ATOM     17  C   UNL A   1      39.540  26.883  28.187  1.00  0.00     0.031 C 
ATOM     18  C   UNL A   1      39.809  31.532  30.109  1.00  0.00     0.029 A 
ATOM     19  N   UNL A   1      41.658  30.279  30.194  1.00  0.00    -0.354 N 
ATOM     20  C   UNL A   1      41.681  26.229  28.674  1.00  0.00     0.074 A 
ATOM     21  C   UNL A   1      40.391  25.866  28.129  1.00  0.00     0.031 C 
ATOM     22  C   UNL A   1      40.775  32.282  30.657  1.00  0.00     0.029 A 
ATOM     23  C   UNL A   1      41.993  31.485  30.759  1.00  0.00     0.049 A 
ATOM     24  H   UNL A   1      42.291  29.530  30.105  1.00  0.00     0.167 HD
ATOM     25  C   UNL A   1      42.765  25.413  28.690  1.00  0.00     0.031 A 
ATOM     26  C   UNL A   1      43.144  31.904  31.317  1.00  0.00     0.031 A 
ATOM     27  C   UNL A   1      44.043  25.778  29.246  1.00  0.00     0.049 A 
ATOM     28  C   UNL A   1      44.320  30.970  31.345  1.00  0.00     0.074 A 
ATOM     29  C   UNL A   1      45.201  25.021  29.313  1.00  0.00     0.029 A 
ATOM     30  N   UNL A   1      44.336  27.003  29.827  1.00  0.00    -0.354 N 
ATOM     31  N   UNL A   1      44.407  29.744  30.887  1.00  0.00    -0.248 NA
ATOM     32  C   UNL A   1      45.554  31.479  31.957  1.00  0.00     0.031 C 
ATOM     33  C   UNL A   1      46.180  25.773  29.973  1.00  0.00     0.029 A 
ATOM     34  C   UNL A   1      45.649  27.018  30.267  1.00  0.00     0.049 A 
ATOM     35  H   UNL A   1      43.702  27.751  29.915  1.00  0.00     0.167 HD
ATOM     36  C   UNL A   1      45.710  29.337  31.147  1.00  0.00     0.074 A 
ATOM     37  C   UNL A   1      46.381  30.460  31.772  1.00  0.00     0.031 C 
ATOM     38  C   UNL A   1      46.298  28.140  30.898  1.00  0.00     0.031 A 
BRANCH  25  39
ATOM     39  C   UNL A   1      42.614  24.034  28.098  1.00  0.00    -0.014 A 
ATOM     40  C   UNL A   1      42.205  22.947  28.890  1.00  0.00     0.010 A 
ATOM     41  C   UNL A   1      42.822  23.832  26.720  1.00  0.00     0.010 A 
ATOM     42  C   UNL A   1      42.039  21.679  28.324  1.00  0.00     0.020 A 
ATOM     43  C   UNL A   1      42.631  22.572  26.145  1.00  0.00     0.020 A 
ATOM     44  C   UNL A   1      42.255  21.499  26.956  1.00  0.00     0.054 A 
BRANCH  44  45
ATOM     45  S   UNL A   1      42.004  19.848  26.245  1.00  0.00     0.124 S 
ATOM     46  O   UNL A   1      42.883  19.886  25.080  1.00  0.00    -0.237 OA
ATOM     47  O   UNL A   1      42.434  18.966  27.327  1.00  0.00    -0.237 OA
ATOM     48  O   UNL A   1      40.575  19.811  25.946  1.00  0.00    -0.744 OA
ENDBRANCH  44  45
ENDBRANCH  25  39
BRANCH  26  49
ATOM     49  C   UNL A   1      43.222  33.263  31.920  1.00  0.00    -0.014 A 
ATOM     50  C   UNL A   1      42.958  33.468  33.285  1.00  0.00     0.010 A 
ATOM     51  C   UNL A   1      43.581  34.364  31.120  1.00  0.00     0.010 A 
ATOM     52  C   UNL A   1      43.027  34.752  33.833  1.00  0.00     0.020 A 
ATOM     53  C   UNL A   1      43.683  35.643  31.671  1.00  0.00     0.020 A 
ATOM     54  C   UNL A   1      43.389  35.831  33.022  1.00  0.00     0.054 A 
BRANCH  54  55
ATOM     55  S   UNL A   1      43.514  37.484  33.759  1.00  0.00     0.124 S 
ATOM     56  O   UNL A   1      44.703  37.352  34.595  1.00  0.00    -0.237 OA
ATOM     57  O   UNL A   1      43.654  38.344  32.587  1.00  0.00    -0.237 OA
ATOM     58  O   UNL A   1      42.252  37.631  34.482  1.00  0.00    -0.744 OA
ENDBRANCH  54  55
ENDBRANCH  26  49
BRANCH  38  59
ATOM     59  C   UNL A   1      47.745  27.999  31.284  1.00  0.00    -0.014 A 
ATOM     60  C   UNL A   1      48.774  28.296  30.373  1.00  0.00     0.010 A 
ATOM     61  C   UNL A   1      48.079  27.576  32.584  1.00  0.00     0.010 A 
ATOM     62  C   UNL A   1      50.111  28.126  30.739  1.00  0.00     0.020 A 
ATOM     63  C   UNL A   1      49.416  27.432  32.962  1.00  0.00     0.020 A 
ATOM     64  C   UNL A   1      50.424  27.688  32.029  1.00  0.00     0.054 A 
BRANCH  64  65
ATOM     65  S   UNL A   1      52.168  27.487  32.486  1.00  0.00     0.124 S 
ATOM     66  O   UNL A   1      52.652  28.865  32.445  1.00  0.00    -0.237 OA
ATOM     67  O   UNL A   1      52.085  26.889  33.815  1.00  0.00    -0.237 OA
ATOM     68  O   UNL A   1      52.698  26.609  31.446  1.00  0.00    -0.744 OA
ENDBRANCH  64  65
ENDBRANCH  38  59
ENDBRANCH  12  13
ENDBRANCH   5   7
ENDBRANCH   2   3
ENDBRANCH   1   2
BRANCH   1  69
ATOM     69  C   UNL A   1      31.442  27.212  26.810  1.00  0.00     0.117 C 
BRANCH  69  70
ATOM     70  N   UNL A   1      30.612  26.369  25.969  1.00  0.00    -0.356 N 
ATOM     71  C   UNL A   1      30.253  26.457  24.661  1.00  0.00     0.224 C 
ATOM     72  H   UNL A   1      30.239  25.586  26.433  1.00  0.00     0.163 HD
ATOM     73  O   UNL A   1      29.950  25.406  24.080  1.00  0.00    -0.275 OA
BRANCH  71  74
ATOM     74  C   UNL A   1      30.125  27.750  23.880  1.00  0.00     0.096 C 
ATOM     75  C   UNL A   1      28.766  28.094  23.295  1.00  0.00     0.015 C 
ATOM     76  C   UNL A   1      31.326  27.981  22.935  1.00  0.00     0.082 C 
ATOM     77  C   UNL A   1      28.751  29.529  22.798  1.00  0.00     0.001 C 
ATOM     78  C   UNL A   1      31.216  29.350  22.225  1.00  0.00     0.021 C 
ATOM     79  C   UNL A   1      29.813  29.712  21.723  1.00  0.00     0.002 C 
BRANCH  76  80
ATOM     80  N   UNL A   1      31.490  26.913  21.917  1.00  0.00    -0.207 NA
ATOM     81  H   UNL A   1      31.139  27.287  21.035  1.00  0.00     0.141 HD
BRANCH  80  82
ATOM     82  S   UNL A   1      33.042  26.277  21.601  1.00  0.00     0.240 S 
ATOM     83  O   UNL A   1      32.927  25.601  20.329  1.00  0.00    -0.207 OA
ATOM     84  O   UNL A   1      34.031  27.309  21.824  1.00  0.00    -0.207 OA
BRANCH  82  85
ATOM     85  C   UNL A   1      33.215  25.026  22.853  1.00  0.00     0.083 A 
ATOM     86  C   UNL A   1      34.154  25.201  23.869  1.00  0.00     0.022 A 
ATOM     87  C   UNL A   1      32.487  23.838  22.764  1.00  0.00     0.030 A 
ATOM     88  C   UNL A   1      34.505  24.118  24.678  1.00  0.00     0.010 A 
ATOM     89  C   UNL A   1      32.874  22.728  23.535  1.00  0.00    -0.017 A 
ATOM     90  C   UNL A   1      33.939  22.855  24.458  1.00  0.00    -0.018 A 
ATOM     91  C   UNL A   1      32.317  21.461  23.308  1.00  0.00     0.009 A 
ATOM     92  C   UNL A   1      34.471  21.704  25.061  1.00  0.00     0.009 A 
ATOM     93  C   UNL A   1      32.872  20.322  23.894  1.00  0.00     0.001 A 
ATOM     94  C   UNL A   1      33.962  20.441  24.752  1.00  0.00     0.001 A 
ENDBRANCH  82  85
ENDBRANCH  80  82
ENDBRANCH  76  80
ENDBRANCH  71  74
ENDBRANCH  69  70
ENDBRANCH   1  69
TORSDOF 16
ENDMDL
