MODEL 1
REMARK VINA RESULT:     -11.6      0.000      0.000
REMARK SMILES COCC1CCN(C(=O)NC[C@H]2CC[C@H](C(=O)NCCCNC(=O)c3ccc(-c4c5nc(c(-c6ccc(S(=O)(=O)[O-])cc6)c6ccc([nH]6)c(-c6ccc(S(=O)(=O)[O-])cc6)c6nc(c(-c7ccc(S(=O)(=O)[O-])cc7)c7ccc4[nH]7)C=C6)C=C5)cc3)O2)CC1
REMARK SMILES IDX 19 1 18 2 16 3 17 4 15 6 12 7 13 8 85 9 14 10 11 11 10 12
REMARK SMILES IDX 4 13 5 14 87 15 6 16 86 17 7 18 8 19 9 20 3 22 2 23 1 24
REMARK SMILES IDX 20 25 21 26 22 27 23 28 24 30 25 31 26 32 84 33 27 34 83 35
REMARK SMILES IDX 28 36 29 37 30 38 77 39 31 40 82 41 76 42 78 43 32 44 81 45
REMARK SMILES IDX 75 46 74 47 33 49 63 50 44 51 62 52 45 53 48 54 61 55 79 56
REMARK SMILES IDX 46 57 47 58 60 60 80 61 49 62 34 63 35 64 43 65 36 66 42 67
REMARK SMILES IDX 37 68 38 69 39 70 40 71 41 72 64 73 65 74 73 75 66 76 72 77
REMARK SMILES IDX 67 78 68 79 69 80 70 81 71 82 50 83 51 84 59 85 52 86 58 87
REMARK SMILES IDX 53 88 54 89 55 90 56 91 57 92
REMARK H PARENT 18 5 10 21 22 29 78 48 48 59
REMARK Flexibility Score: inf
ROOT
ATOM      1  C   UNL A   1      33.715  29.326  25.863  1.00  0.00     0.117 C 
ENDROOT
BRANCH   1   2
ATOM      2  N   UNL A   1      32.494  29.807  25.247  1.00  0.00    -0.354 N 
ATOM      3  C   UNL A   1      31.477  29.126  24.650  1.00  0.00     0.249 C 
ATOM      4  O   UNL A   1      30.524  29.793  24.232  1.00  0.00    -0.272 OA
ATOM      5  H   UNL A   1      32.382  30.785  25.263  1.00  0.00     0.163 HD
BRANCH   3   6
ATOM      6  C   UNL A   1      31.517  27.595  24.417  1.00  0.00     0.207 C 
ATOM      7  C   UNL A   1      29.925  25.974  23.838  1.00  0.00     0.138 C 
ATOM      8  C   UNL A   1      29.910  26.084  25.352  1.00  0.00     0.037 C 
ATOM      9  O   UNL A   1      30.733  27.059  23.351  1.00  0.00    -0.363 OA
ATOM     10  C   UNL A   1      31.187  26.813  25.680  1.00  0.00     0.045 C 
BRANCH   7  11
ATOM     11  C   UNL A   1      30.475  24.621  23.360  1.00  0.00     0.149 C 
BRANCH  11  12
ATOM     12  N   UNL A   1      30.545  23.658  24.447  1.00  0.00    -0.335 N 
ATOM     13  C   UNL A   1      35.312  24.264  25.523  1.00  0.00     0.018 C 
ATOM     14  C   UNL A   1      34.619  23.203  26.410  1.00  0.00     0.027 C 
ATOM     15  C   UNL A   1      34.285  24.908  24.574  1.00  0.00     0.027 C 
ATOM     16  C   UNL A   1      33.748  22.234  25.596  1.00  0.00     0.121 C 
ATOM     17  C   UNL A   1      33.513  23.845  23.798  1.00  0.00     0.121 C 
ATOM     18  N   UNL A   1      32.819  22.984  24.743  1.00  0.00    -0.325 N 
ATOM     19  C   UNL A   1      31.490  22.913  25.043  1.00  0.00     0.317 C 
ATOM     20  O   UNL A   1      31.061  22.150  25.913  1.00  0.00    -0.249 OA
ATOM     21  H   UNL A   1      29.662  23.514  24.856  1.00  0.00     0.165 HD
BRANCH  13  22
ATOM     22  C   UNL A   1      36.538  23.650  24.819  1.00  0.00     0.163 C 
BRANCH  22  23
ATOM     23  O   UNL A   1      37.191  22.647  25.594  1.00  0.00    -0.384 OA
ATOM     24  C   UNL A   1      37.490  21.461  24.864  1.00  0.00     0.194 C 
ENDBRANCH  22  23
ENDBRANCH  13  22
ENDBRANCH  11  12
ENDBRANCH   7  11
ENDBRANCH   3   6
ENDBRANCH   1   2
BRANCH   1  25
ATOM     25  C   UNL A   1      33.973  29.975  27.219  1.00  0.00     0.042 C 
BRANCH  25  26
ATOM     26  C   UNL A   1      35.374  29.742  27.772  1.00  0.00     0.118 C 
BRANCH  26  27
ATOM     27  N   UNL A   1      35.430  29.882  29.219  1.00  0.00    -0.352 N 
ATOM     28  C   UNL A   1      36.460  29.658  30.096  1.00  0.00     0.251 C 
ATOM     29  H   UNL A   1      34.592  30.187  29.637  1.00  0.00     0.163 HD
ATOM     30  O   UNL A   1      36.216  29.640  31.305  1.00  0.00    -0.269 OA
BRANCH  28  31
ATOM     31  C   UNL A   1      37.843  29.428  29.623  1.00  0.00     0.039 A 
ATOM     32  C   UNL A   1      38.812  29.019  30.546  1.00  0.00     0.014 A 
ATOM     33  C   UNL A   1      38.212  29.663  28.296  1.00  0.00     0.014 A 
ATOM     34  C   UNL A   1      40.127  28.795  30.130  1.00  0.00     0.010 A 
ATOM     35  C   UNL A   1      39.504  29.363  27.865  1.00  0.00     0.010 A 
ATOM     36  C   UNL A   1      40.480  28.935  28.778  1.00  0.00    -0.014 A 
BRANCH  36  37
ATOM     37  C   UNL A   1      41.860  28.654  28.303  1.00  0.00     0.031 A 
ATOM     38  C   UNL A   1      42.238  27.266  27.853  1.00  0.00     0.074 A 
ATOM     39  C   UNL A   1      42.791  29.627  28.344  1.00  0.00     0.049 A 
ATOM     40  N   UNL A   1      43.407  26.810  27.482  1.00  0.00    -0.248 NA
ATOM     41  C   UNL A   1      41.170  26.252  27.844  1.00  0.00     0.031 C 
ATOM     42  C   UNL A   1      42.564  30.999  28.805  1.00  0.00     0.029 A 
ATOM     43  N   UNL A   1      44.123  29.608  28.008  1.00  0.00    -0.354 N 
ATOM     44  C   UNL A   1      43.223  25.456  27.224  1.00  0.00     0.074 A 
ATOM     45  C   UNL A   1      41.839  25.155  27.516  1.00  0.00     0.031 C 
ATOM     46  C   UNL A   1      43.711  31.693  28.706  1.00  0.00     0.029 A 
ATOM     47  C   UNL A   1      44.762  30.809  28.213  1.00  0.00     0.049 A 
ATOM     48  H   UNL A   1      44.577  28.810  27.651  1.00  0.00     0.167 HD
ATOM     49  C   UNL A   1      44.121  24.548  26.771  1.00  0.00     0.031 A 
ATOM     50  C   UNL A   1      46.051  31.157  28.038  1.00  0.00     0.031 A 
ATOM     51  C   UNL A   1      45.489  24.858  26.452  1.00  0.00     0.049 A 
ATOM     52  C   UNL A   1      47.023  30.137  27.513  1.00  0.00     0.074 A 
ATOM     53  C   UNL A   1      46.455  24.025  25.914  1.00  0.00     0.029 A 
ATOM     54  N   UNL A   1      46.086  26.094  26.640  1.00  0.00    -0.354 N 
ATOM     55  N   UNL A   1      46.809  28.880  27.204  1.00  0.00    -0.248 NA
ATOM     56  C   UNL A   1      48.406  30.584  27.298  1.00  0.00     0.031 C 
ATOM     57  C   UNL A   1      47.650  24.745  25.822  1.00  0.00     0.029 A 
ATOM     58  C   UNL A   1      47.413  26.041  26.249  1.00  0.00     0.049 A 
ATOM     59  H   UNL A   1      45.634  26.893  26.997  1.00  0.00     0.167 HD
ATOM     60  C   UNL A   1      48.024  28.394  26.734  1.00  0.00     0.074 A 
ATOM     61  C   UNL A   1      48.963  29.496  26.784  1.00  0.00     0.031 C 
ATOM     62  C   UNL A   1      48.335  27.148  26.300  1.00  0.00     0.031 A 
BRANCH  49  63
ATOM     63  C   UNL A   1      43.655  23.127  26.593  1.00  0.00    -0.014 A 
ATOM     64  C   UNL A   1      43.870  22.436  25.386  1.00  0.00     0.010 A 
ATOM     65  C   UNL A   1      43.053  22.451  27.670  1.00  0.00     0.010 A 
ATOM     66  C   UNL A   1      43.460  21.107  25.250  1.00  0.00     0.020 A 
ATOM     67  C   UNL A   1      42.665  21.113  27.546  1.00  0.00     0.020 A 
ATOM     68  C   UNL A   1      42.860  20.454  26.330  1.00  0.00     0.054 A 
BRANCH  68  69
ATOM     69  S   UNL A   1      42.375  18.717  26.137  1.00  0.00     0.124 S 
ATOM     70  O   UNL A   1      43.290  18.264  25.092  1.00  0.00    -0.237 OA
ATOM     71  O   UNL A   1      42.619  18.164  27.467  1.00  0.00    -0.237 OA
ATOM     72  O   UNL A   1      40.970  18.790  25.745  1.00  0.00    -0.744 OA
ENDBRANCH  68  69
ENDBRANCH  49  63
BRANCH  50  73
ATOM     73  C   UNL A   1      46.499  32.541  28.361  1.00  0.00    -0.014 A 
ATOM     74  C   UNL A   1      46.986  32.856  29.641  1.00  0.00     0.010 A 
ATOM     75  C   UNL A   1      46.441  33.551  27.383  1.00  0.00     0.010 A 
ATOM     76  C   UNL A   1      47.383  34.161  29.946  1.00  0.00     0.020 A 
ATOM     77  C   UNL A   1      46.864  34.851  27.676  1.00  0.00     0.020 A 
ATOM     78  C   UNL A   1      47.319  35.151  28.962  1.00  0.00     0.054 A 
BRANCH  78  79
ATOM     79  S   UNL A   1      47.875  36.830  29.367  1.00  0.00     0.124 S 
ATOM     80  O   UNL A   1      47.396  36.984  30.737  1.00  0.00    -0.237 OA
ATOM     81  O   UNL A   1      49.324  36.730  29.210  1.00  0.00    -0.237 OA
ATOM     82  O   UNL A   1      47.204  37.661  28.370  1.00  0.00    -0.744 OA
ENDBRANCH  78  79
ENDBRANCH  50  73
BRANCH  62  83
ATOM     83  C   UNL A   1      49.738  26.913  25.809  1.00  0.00    -0.014 A 
ATOM     84  C   UNL A   1      50.673  26.208  26.585  1.00  0.00     0.010 A 
ATOM     85  C   UNL A   1      50.103  27.356  24.525  1.00  0.00     0.010 A 
ATOM     86  C   UNL A   1      51.961  25.975  26.097  1.00  0.00     0.020 A 
ATOM     87  C   UNL A   1      51.382  27.102  24.023  1.00  0.00     0.020 A 
ATOM     88  C   UNL A   1      52.308  26.424  24.818  1.00  0.00     0.054 A 
BRANCH  88  89
ATOM     89  S   UNL A   1      53.972  26.071  24.188  1.00  0.00     0.124 S 
ATOM     90  O   UNL A   1      53.760  26.090  22.744  1.00  0.00    -0.237 OA
ATOM     91  O   UNL A   1      54.759  27.180  24.722  1.00  0.00    -0.237 OA
ATOM     92  O   UNL A   1      54.286  24.762  24.756  1.00  0.00    -0.744 OA
ENDBRANCH  88  89
ENDBRANCH  62  83
ENDBRANCH  36  37
ENDBRANCH  28  31
ENDBRANCH  26  27
ENDBRANCH  25  26
ENDBRANCH   1  25
TORSDOF 17
ENDMDL
MODEL 2
REMARK VINA RESULT:     -11.4      6.637     12.233
REMARK SMILES COCC1CCN(C(=O)NC[C@H]2CC[C@H](C(=O)NCCCNC(=O)c3ccc(-c4c5nc(c(-c6ccc(S(=O)(=O)[O-])cc6)c6ccc([nH]6)c(-c6ccc(S(=O)(=O)[O-])cc6)c6nc(c(-c7ccc(S(=O)(=O)[O-])cc7)c7ccc4[nH]7)C=C6)C=C5)cc3)O2)CC1
REMARK SMILES IDX 19 1 18 2 16 3 17 4 15 6 12 7 13 8 85 9 14 10 11 11 10 12
REMARK SMILES IDX 4 13 5 14 87 15 6 16 86 17 7 18 8 19 9 20 3 22 2 23 1 24
REMARK SMILES IDX 20 25 21 26 22 27 23 28 24 30 25 31 26 32 84 33 27 34 83 35
REMARK SMILES IDX 28 36 29 37 30 38 77 39 31 40 82 41 76 42 78 43 32 44 81 45
REMARK SMILES IDX 75 46 74 47 33 49 63 50 44 51 62 52 45 53 48 54 61 55 79 56
REMARK SMILES IDX 46 57 47 58 60 60 80 61 49 62 34 63 35 64 43 65 36 66 42 67
REMARK SMILES IDX 37 68 38 69 39 70 40 71 41 72 64 73 65 74 73 75 66 76 72 77
REMARK SMILES IDX 67 78 68 79 69 80 70 81 71 82 50 83 51 84 59 85 52 86 58 87
REMARK SMILES IDX 53 88 54 89 55 90 56 91 57 92
REMARK H PARENT 18 5 10 21 22 29 78 48 48 59
REMARK Flexibility Score: inf
ROOT
ATOM      1  C   UNL A   1      36.619  22.662  25.463  1.00  0.00     0.117 C 
ENDROOT
BRANCH   1   2
ATOM      2  N   UNL A   1      35.774  22.182  26.538  1.00  0.00    -0.354 N 
ATOM      3  C   UNL A   1      34.438  21.918  26.563  1.00  0.00     0.249 C 
ATOM      4  O   UNL A   1      33.973  21.479  27.621  1.00  0.00    -0.272 OA
ATOM      5  H   UNL A   1      36.243  22.020  27.389  1.00  0.00     0.163 HD
BRANCH   3   6
ATOM      6  C   UNL A   1      33.502  22.218  25.366  1.00  0.00     0.207 C 
ATOM      7  C   UNL A   1      31.818  23.793  24.944  1.00  0.00     0.138 C 
ATOM      8  C   UNL A   1      31.149  22.600  25.604  1.00  0.00     0.037 C 
ATOM      9  O   UNL A   1      33.237  23.584  25.050  1.00  0.00    -0.363 OA
ATOM     10  C   UNL A   1      32.168  21.497  25.484  1.00  0.00     0.045 C 
BRANCH   7  11
ATOM     11  C   UNL A   1      31.393  23.959  23.477  1.00  0.00     0.149 C 
BRANCH  11  12
ATOM     12  N   UNL A   1      32.418  24.635  22.697  1.00  0.00    -0.335 N 
ATOM     13  C   UNL A   1      32.692  28.724  25.428  1.00  0.00     0.018 C 
ATOM     14  C   UNL A   1      33.644  28.743  24.209  1.00  0.00     0.027 C 
ATOM     15  C   UNL A   1      31.955  27.375  25.499  1.00  0.00     0.027 C 
ATOM     16  C   UNL A   1      32.955  28.278  22.917  1.00  0.00     0.121 C 
ATOM     17  C   UNL A   1      31.283  27.046  24.169  1.00  0.00     0.121 C 
ATOM     18  N   UNL A   1      32.300  26.983  23.131  1.00  0.00    -0.325 N 
ATOM     19  C   UNL A   1      32.817  25.899  22.483  1.00  0.00     0.317 C 
ATOM     20  O   UNL A   1      33.720  26.012  21.649  1.00  0.00    -0.249 OA
ATOM     21  H   UNL A   1      32.965  23.994  22.190  1.00  0.00     0.165 HD
BRANCH  13  22
ATOM     22  C   UNL A   1      31.769  29.958  25.400  1.00  0.00     0.163 C 
BRANCH  22  23
ATOM     23  O   UNL A   1      31.769  30.693  26.621  1.00  0.00    -0.384 OA
ATOM     24  C   UNL A   1      33.051  30.791  27.234  1.00  0.00     0.194 C 
ENDBRANCH  22  23
ENDBRANCH  13  22
ENDBRANCH  11  12
ENDBRANCH   7  11
ENDBRANCH   3   6
ENDBRANCH   1   2
BRANCH   1  25
ATOM     25  C   UNL A   1      37.179  24.053  25.743  1.00  0.00     0.042 C 
BRANCH  25  26
ATOM     26  C   UNL A   1      38.401  24.066  26.654  1.00  0.00     0.118 C 
BRANCH  26  27
ATOM     27  N   UNL A   1      39.617  24.437  25.945  1.00  0.00    -0.352 N 
ATOM     28  C   UNL A   1      40.460  25.503  26.123  1.00  0.00     0.251 C 
ATOM     29  H   UNL A   1      39.875  23.822  25.220  1.00  0.00     0.163 HD
ATOM     30  O   UNL A   1      41.317  25.730  25.265  1.00  0.00    -0.269 OA
BRANCH  28  31
ATOM     31  C   UNL A   1      40.356  26.385  27.307  1.00  0.00     0.039 A 
ATOM     32  C   UNL A   1      39.544  25.985  28.375  1.00  0.00     0.014 A 
ATOM     33  C   UNL A   1      41.000  27.623  27.357  1.00  0.00     0.014 A 
ATOM     34  C   UNL A   1      39.424  26.797  29.506  1.00  0.00     0.010 A 
ATOM     35  C   UNL A   1      40.944  28.395  28.517  1.00  0.00     0.010 A 
ATOM     36  C   UNL A   1      40.148  27.997  29.601  1.00  0.00    -0.014 A 
BRANCH  36  37
ATOM     37  C   UNL A   1      40.076  28.852  30.816  1.00  0.00     0.031 A 
ATOM     38  C   UNL A   1      39.062  29.963  30.901  1.00  0.00     0.074 A 
ATOM     39  C   UNL A   1      40.968  28.674  31.810  1.00  0.00     0.049 A 
ATOM     40  N   UNL A   1      38.900  30.860  31.840  1.00  0.00    -0.248 NA
ATOM     41  C   UNL A   1      38.126  30.103  29.772  1.00  0.00     0.031 C 
ATOM     42  C   UNL A   1      42.029  27.665  31.827  1.00  0.00     0.029 A 
ATOM     43  N   UNL A   1      41.135  29.348  32.995  1.00  0.00    -0.354 N 
ATOM     44  C   UNL A   1      37.867  31.684  31.405  1.00  0.00     0.074 A 
ATOM     45  C   UNL A   1      37.466  31.205  30.101  1.00  0.00     0.031 C 
ATOM     46  C   UNL A   1      42.725  27.775  32.972  1.00  0.00     0.029 A 
ATOM     47  C   UNL A   1      42.186  28.885  33.752  1.00  0.00     0.049 A 
ATOM     48  H   UNL A   1      40.555  30.092  33.278  1.00  0.00     0.167 HD
ATOM     49  C   UNL A   1      37.295  32.736  32.039  1.00  0.00     0.031 A 
ATOM     50  C   UNL A   1      42.672  29.311  34.933  1.00  0.00     0.031 A 
ATOM     51  C   UNL A   1      37.676  33.190  33.349  1.00  0.00     0.049 A 
ATOM     52  C   UNL A   1      42.005  30.467  35.627  1.00  0.00     0.074 A 
ATOM     53  C   UNL A   1      37.105  34.198  34.108  1.00  0.00     0.029 A 
ATOM     54  N   UNL A   1      38.721  32.670  34.096  1.00  0.00    -0.354 N 
ATOM     55  N   UNL A   1      40.981  31.185  35.231  1.00  0.00    -0.248 NA
ATOM     56  C   UNL A   1      42.548  30.861  36.934  1.00  0.00     0.031 C 
ATOM     57  C   UNL A   1      37.836  34.319  35.294  1.00  0.00     0.029 A 
ATOM     58  C   UNL A   1      38.826  33.350  35.298  1.00  0.00     0.049 A 
ATOM     59  H   UNL A   1      39.302  31.927  33.815  1.00  0.00     0.167 HD
ATOM     60  C   UNL A   1      40.741  32.098  36.251  1.00  0.00     0.074 A 
ATOM     61  C   UNL A   1      41.716  31.831  37.289  1.00  0.00     0.031 C 
ATOM     62  C   UNL A   1      39.799  33.070  36.323  1.00  0.00     0.031 A 
BRANCH  49  63
ATOM     63  C   UNL A   1      36.193  33.474  31.325  1.00  0.00    -0.014 A 
ATOM     64  C   UNL A   1      35.115  34.037  32.032  1.00  0.00     0.010 A 
ATOM     65  C   UNL A   1      36.270  33.662  29.932  1.00  0.00     0.010 A 
ATOM     66  C   UNL A   1      34.119  34.746  31.357  1.00  0.00     0.020 A 
ATOM     67  C   UNL A   1      35.288  34.393  29.256  1.00  0.00     0.020 A 
ATOM     68  C   UNL A   1      34.212  34.919  29.973  1.00  0.00     0.054 A 
BRANCH  68  69
ATOM     69  S   UNL A   1      32.924  35.879  29.128  1.00  0.00     0.124 S 
ATOM     70  O   UNL A   1      32.358  34.885  28.219  1.00  0.00    -0.237 OA
ATOM     71  O   UNL A   1      32.055  36.289  30.229  1.00  0.00    -0.237 OA
ATOM     72  O   UNL A   1      33.663  36.962  28.485  1.00  0.00    -0.744 OA
ENDBRANCH  68  69
ENDBRANCH  49  63
BRANCH  50  73
ATOM     73  C   UNL A   1      43.855  28.638  35.539  1.00  0.00    -0.014 A 
ATOM     74  C   UNL A   1      45.155  29.100  35.273  1.00  0.00     0.010 A 
ATOM     75  C   UNL A   1      43.682  27.530  36.389  1.00  0.00     0.010 A 
ATOM     76  C   UNL A   1      46.264  28.451  35.825  1.00  0.00     0.020 A 
ATOM     77  C   UNL A   1      44.787  26.896  36.965  1.00  0.00     0.020 A 
ATOM     78  C   UNL A   1      46.073  27.352  36.667  1.00  0.00     0.054 A 
BRANCH  78  79
ATOM     79  S   UNL A   1      47.523  26.547  37.403  1.00  0.00     0.124 S 
ATOM     80  O   UNL A   1      48.440  26.481  36.270  1.00  0.00    -0.237 OA
ATOM     81  O   UNL A   1      47.896  27.478  38.467  1.00  0.00    -0.237 OA
ATOM     82  O   UNL A   1      47.002  25.264  37.865  1.00  0.00    -0.744 OA
ENDBRANCH  78  79
ENDBRANCH  50  73
BRANCH  62  83
ATOM     83  C   UNL A   1      39.749  33.897  37.580  1.00  0.00    -0.014 A 
ATOM     84  C   UNL A   1      40.493  35.083  37.702  1.00  0.00     0.010 A 
ATOM     85  C   UNL A   1      38.897  33.508  38.629  1.00  0.00     0.010 A 
ATOM     86  C   UNL A   1      40.408  35.851  38.866  1.00  0.00     0.020 A 
ATOM     87  C   UNL A   1      38.790  34.287  39.783  1.00  0.00     0.020 A 
ATOM     88  C   UNL A   1      39.557  35.448  39.900  1.00  0.00     0.054 A 
BRANCH  88  89
ATOM     89  S   UNL A   1      39.429  36.485  41.382  1.00  0.00     0.124 S 
ATOM     90  O   UNL A   1      38.509  35.715  42.214  1.00  0.00    -0.237 OA
ATOM     91  O   UNL A   1      40.810  36.538  41.857  1.00  0.00    -0.237 OA
ATOM     92  O   UNL A   1      38.903  37.750  40.875  1.00  0.00    -0.744 OA
ENDBRANCH  88  89
ENDBRANCH  62  83
ENDBRANCH  36  37
ENDBRANCH  28  31
ENDBRANCH  26  27
ENDBRANCH  25  26
ENDBRANCH   1  25
TORSDOF 17
ENDMDL
MODEL 3
REMARK VINA RESULT:     -11.3      6.494     11.637
REMARK SMILES COCC1CCN(C(=O)NC[C@H]2CC[C@H](C(=O)NCCCNC(=O)c3ccc(-c4c5nc(c(-c6ccc(S(=O)(=O)[O-])cc6)c6ccc([nH]6)c(-c6ccc(S(=O)(=O)[O-])cc6)c6nc(c(-c7ccc(S(=O)(=O)[O-])cc7)c7ccc4[nH]7)C=C6)C=C5)cc3)O2)CC1
REMARK SMILES IDX 19 1 18 2 16 3 17 4 15 6 12 7 13 8 85 9 14 10 11 11 10 12
REMARK SMILES IDX 4 13 5 14 87 15 6 16 86 17 7 18 8 19 9 20 3 22 2 23 1 24
REMARK SMILES IDX 20 25 21 26 22 27 23 28 24 30 25 31 26 32 84 33 27 34 83 35
REMARK SMILES IDX 28 36 29 37 30 38 77 39 31 40 82 41 76 42 78 43 32 44 81 45
REMARK SMILES IDX 75 46 74 47 33 49 63 50 44 51 62 52 45 53 48 54 61 55 79 56
REMARK SMILES IDX 46 57 47 58 60 60 80 61 49 62 34 63 35 64 43 65 36 66 42 67
REMARK SMILES IDX 37 68 38 69 39 70 40 71 41 72 64 73 65 74 73 75 66 76 72 77
REMARK SMILES IDX 67 78 68 79 69 80 70 81 71 82 50 83 51 84 59 85 52 86 58 87
REMARK SMILES IDX 53 88 54 89 55 90 56 91 57 92
REMARK H PARENT 18 5 10 21 22 29 78 48 48 59
REMARK Flexibility Score: inf
ROOT
ATOM      1  C   UNL A   1      37.008  22.718  25.526  1.00  0.00     0.117 C 
ENDROOT
BRANCH   1   2
ATOM      2  N   UNL A   1      36.113  22.149  26.514  1.00  0.00    -0.354 N 
ATOM      3  C   UNL A   1      34.758  22.016  26.508  1.00  0.00     0.249 C 
ATOM      4  O   UNL A   1      34.245  21.453  27.482  1.00  0.00    -0.272 OA
ATOM      5  H   UNL A   1      36.559  21.800  27.321  1.00  0.00     0.163 HD
BRANCH   3   6
ATOM      6  C   UNL A   1      33.863  22.603  25.388  1.00  0.00     0.207 C 
ATOM      7  C   UNL A   1      31.581  22.481  24.867  1.00  0.00     0.138 C 
ATOM      8  C   UNL A   1      32.253  21.306  24.179  1.00  0.00     0.037 C 
ATOM      9  O   UNL A   1      32.560  23.063  25.745  1.00  0.00    -0.363 OA
ATOM     10  C   UNL A   1      33.719  21.653  24.210  1.00  0.00     0.045 C 
BRANCH   7  11
ATOM     11  C   UNL A   1      31.056  23.518  23.863  1.00  0.00     0.149 C 
BRANCH  11  12
ATOM     12  N   UNL A   1      32.101  23.957  22.952  1.00  0.00    -0.335 N 
ATOM     13  C   UNL A   1      33.167  28.201  25.212  1.00  0.00     0.018 C 
ATOM     14  C   UNL A   1      34.013  27.961  23.939  1.00  0.00     0.027 C 
ATOM     15  C   UNL A   1      32.254  26.989  25.472  1.00  0.00     0.027 C 
ATOM     16  C   UNL A   1      33.165  27.483  22.750  1.00  0.00     0.121 C 
ATOM     17  C   UNL A   1      31.439  26.639  24.230  1.00  0.00     0.121 C 
ATOM     18  N   UNL A   1      32.352  26.326  23.141  1.00  0.00    -0.325 N 
ATOM     19  C   UNL A   1      32.657  25.121  22.580  1.00  0.00     0.317 C 
ATOM     20  O   UNL A   1      33.498  25.018  21.682  1.00  0.00    -0.249 OA
ATOM     21  H   UNL A   1      32.510  23.196  22.481  1.00  0.00     0.165 HD
BRANCH  13  22
ATOM     22  C   UNL A   1      32.429  29.550  25.112  1.00  0.00     0.163 C 
BRANCH  22  23
ATOM     23  O   UNL A   1      31.701  29.885  26.291  1.00  0.00    -0.384 OA
ATOM     24  C   UNL A   1      31.682  31.280  26.579  1.00  0.00     0.194 C 
ENDBRANCH  22  23
ENDBRANCH  13  22
ENDBRANCH  11  12
ENDBRANCH   7  11
ENDBRANCH   3   6
ENDBRANCH   1   2
BRANCH   1  25
ATOM     25  C   UNL A   1      37.676  23.997  26.018  1.00  0.00     0.042 C 
BRANCH  25  26
ATOM     26  C   UNL A   1      38.938  23.770  26.842  1.00  0.00     0.118 C 
BRANCH  26  27
ATOM     27  N   UNL A   1      40.148  24.107  26.106  1.00  0.00    -0.352 N 
ATOM     28  C   UNL A   1      40.996  25.178  26.230  1.00  0.00     0.251 C 
ATOM     29  H   UNL A   1      40.399  23.461  25.406  1.00  0.00     0.163 HD
ATOM     30  O   UNL A   1      41.845  25.366  25.354  1.00  0.00    -0.269 OA
BRANCH  28  31
ATOM     31  C   UNL A   1      40.904  26.110  27.376  1.00  0.00     0.039 A 
ATOM     32  C   UNL A   1      41.781  27.200  27.430  1.00  0.00     0.014 A 
ATOM     33  C   UNL A   1      40.007  25.895  28.425  1.00  0.00     0.014 A 
ATOM     34  C   UNL A   1      41.719  28.097  28.500  1.00  0.00     0.010 A 
ATOM     35  C   UNL A   1      39.892  26.833  29.451  1.00  0.00     0.010 A 
ATOM     36  C   UNL A   1      40.752  27.939  29.507  1.00  0.00    -0.014 A 
BRANCH  36  37
ATOM     37  C   UNL A   1      40.635  28.908  30.627  1.00  0.00     0.031 A 
ATOM     38  C   UNL A   1      41.500  28.760  31.852  1.00  0.00     0.074 A 
ATOM     39  C   UNL A   1      39.702  29.879  30.574  1.00  0.00     0.049 A 
ATOM     40  N   UNL A   1      41.487  29.456  32.960  1.00  0.00    -0.248 NA
ATOM     41  C   UNL A   1      42.491  27.669  31.843  1.00  0.00     0.031 C 
ATOM     42  C   UNL A   1      38.770  30.100  29.466  1.00  0.00     0.029 A 
ATOM     43  N   UNL A   1      39.371  30.855  31.483  1.00  0.00    -0.354 N 
ATOM     44  C   UNL A   1      42.442  28.874  33.787  1.00  0.00     0.074 A 
ATOM     45  C   UNL A   1      42.990  27.744  33.069  1.00  0.00     0.031 C 
ATOM     46  C   UNL A   1      37.986  31.154  29.752  1.00  0.00     0.029 A 
ATOM     47  C   UNL A   1      38.331  31.659  31.077  1.00  0.00     0.049 A 
ATOM     48  H   UNL A   1      39.836  30.969  32.343  1.00  0.00     0.167 HD
ATOM     49  C   UNL A   1      42.837  29.253  35.026  1.00  0.00     0.031 A 
ATOM     50  C   UNL A   1      37.715  32.679  31.704  1.00  0.00     0.031 A 
ATOM     51  C   UNL A   1      42.312  30.395  35.724  1.00  0.00     0.049 A 
ATOM     52  C   UNL A   1      38.188  33.095  33.069  1.00  0.00     0.074 A 
ATOM     53  C   UNL A   1      42.703  30.907  36.950  1.00  0.00     0.029 A 
ATOM     54  N   UNL A   1      41.286  31.204  35.262  1.00  0.00    -0.354 N 
ATOM     55  N   UNL A   1      39.145  32.576  33.802  1.00  0.00    -0.248 NA
ATOM     56  C   UNL A   1      37.509  34.242  33.688  1.00  0.00     0.031 C 
ATOM     57  C   UNL A   1      41.880  31.996  37.252  1.00  0.00     0.029 A 
ATOM     58  C   UNL A   1      41.015  32.197  36.188  1.00  0.00     0.049 A 
ATOM     59  H   UNL A   1      40.820  31.091  34.403  1.00  0.00     0.167 HD
ATOM     60  C   UNL A   1      39.200  33.350  34.956  1.00  0.00     0.074 A 
ATOM     61  C   UNL A   1      38.192  34.382  34.817  1.00  0.00     0.031 C 
ATOM     62  C   UNL A   1      40.012  33.219  36.033  1.00  0.00     0.031 A 
BRANCH  49  63
ATOM     63  C   UNL A   1      43.892  28.425  35.712  1.00  0.00    -0.014 A 
ATOM     64  C   UNL A   1      43.544  27.336  36.533  1.00  0.00     0.010 A 
ATOM     65  C   UNL A   1      45.253  28.699  35.481  1.00  0.00     0.010 A 
ATOM     66  C   UNL A   1      44.536  26.559  37.136  1.00  0.00     0.020 A 
ATOM     67  C   UNL A   1      46.249  27.908  36.062  1.00  0.00     0.020 A 
ATOM     68  C   UNL A   1      45.882  26.850  36.897  1.00  0.00     0.054 A 
BRANCH  68  69
ATOM     69  S   UNL A   1      47.148  25.799  37.661  1.00  0.00     0.124 S 
ATOM     70  O   UNL A   1      47.370  24.794  36.624  1.00  0.00    -0.237 OA
ATOM     71  O   UNL A   1      48.252  26.731  37.877  1.00  0.00    -0.237 OA
ATOM     72  O   UNL A   1      46.505  25.308  38.877  1.00  0.00    -0.744 OA
ENDBRANCH  68  69
ENDBRANCH  49  63
BRANCH  50  73
ATOM     73  C   UNL A   1      36.580  33.383  31.043  1.00  0.00    -0.014 A 
ATOM     74  C   UNL A   1      36.771  34.067  29.831  1.00  0.00     0.010 A 
ATOM     75  C   UNL A   1      35.300  33.368  31.627  1.00  0.00     0.010 A 
ATOM     76  C   UNL A   1      35.709  34.746  29.226  1.00  0.00     0.020 A 
ATOM     77  C   UNL A   1      34.229  34.022  31.011  1.00  0.00     0.020 A 
ATOM     78  C   UNL A   1      34.444  34.720  29.821  1.00  0.00     0.054 A 
BRANCH  78  79
ATOM     79  S   UNL A   1      33.070  35.576  29.001  1.00  0.00     0.124 S 
ATOM     80  O   UNL A   1      33.770  36.582  28.209  1.00  0.00    -0.237 OA
ATOM     81  O   UNL A   1      32.436  34.501  28.241  1.00  0.00    -0.237 OA
ATOM     82  O   UNL A   1      32.278  36.092  30.113  1.00  0.00    -0.744 OA
ENDBRANCH  78  79
ENDBRANCH  50  73
BRANCH  62  83
ATOM     83  C   UNL A   1      39.873  34.236  37.135  1.00  0.00    -0.014 A 
ATOM     84  C   UNL A   1      40.556  35.463  37.084  1.00  0.00     0.010 A 
ATOM     85  C   UNL A   1      38.997  33.980  38.205  1.00  0.00     0.010 A 
ATOM     86  C   UNL A   1      40.390  36.405  38.102  1.00  0.00     0.020 A 
ATOM     87  C   UNL A   1      38.808  34.931  39.211  1.00  0.00     0.020 A 
ATOM     88  C   UNL A   1      39.516  36.133  39.160  1.00  0.00     0.054 A 
BRANCH  88  89
ATOM     89  S   UNL A   1      39.281  37.390  40.446  1.00  0.00     0.124 S 
ATOM     90  O   UNL A   1      38.942  36.575  41.609  1.00  0.00    -0.237 OA
ATOM     91  O   UNL A   1      40.587  38.044  40.497  1.00  0.00    -0.237 OA
ATOM     92  O   UNL A   1      38.197  38.218  39.927  1.00  0.00    -0.744 OA
ENDBRANCH  88  89
ENDBRANCH  62  83
ENDBRANCH  36  37
ENDBRANCH  28  31
ENDBRANCH  26  27
ENDBRANCH  25  26
ENDBRANCH   1  25
TORSDOF 17
ENDMDL
