MODEL 1
REMARK VINA RESULT:     -11.3      0.000      0.000
REMARK SMILES O=C(NCCCNC(=O)c1cccc(NC(=S)N/N=C\c2c[nH]c3ccccc23)c1)c1ccc(-c2c3nc(c(-c4ccc(S(=O)(=O)[O-])cc4)c4ccc([nH]4)c(-c4ccc(S(=O)(=O)[O-])cc4)c4nc(c(-c5ccc(S(=O)(=O)[O-])cc5)c5ccc2[nH]5)C=C4)C=C3)cc1
REMARK SMILES IDX 6 1 5 2 4 3 3 4 1 5 2 6 31 8 32 9 90 10 33 11 89 12 34 13
REMARK SMILES IDX 35 14 36 15 83 16 37 17 88 18 82 19 84 20 38 21 87 22 81 23
REMARK SMILES IDX 80 24 39 26 69 27 50 28 68 29 51 30 54 31 67 32 85 33 52 34
REMARK SMILES IDX 53 35 66 37 86 38 55 39 40 40 41 41 49 42 42 43 48 44 43 45
REMARK SMILES IDX 44 46 45 47 46 48 47 49 70 50 71 51 79 52 72 53 78 54 73 55
REMARK SMILES IDX 74 56 75 57 76 58 77 59 56 60 57 61 65 62 58 63 64 64 59 65
REMARK SMILES IDX 60 66 61 67 62 68 63 69 7 70 8 71 9 73 10 74 11 75 30 76
REMARK SMILES IDX 12 77 14 78 13 79 15 80 16 82 17 83 18 84 19 86 20 87 21 88
REMARK SMILES IDX 22 89 29 90 23 91 24 92 28 93 25 95 27 96 26 97
REMARK H PARENT 3 7 84 25 54 36 7 72 15 81 18 85 23 94
REMARK Flexibility Score: inf
ROOT
ATOM      1  C   UNL A   1      37.943  23.761  26.121  1.00  0.00     0.118 C 
ENDROOT
BRANCH   1   2
ATOM      2  C   UNL A   1      38.944  22.699  26.537  1.00  0.00     0.042 C 
BRANCH   2   3
ATOM      3  C   UNL A   1      40.217  23.271  27.132  1.00  0.00     0.118 C 
BRANCH   3   4
ATOM      4  N   UNL A   1      41.025  23.992  26.150  1.00  0.00    -0.352 N 
ATOM      5  O   UNL A   1      41.911  25.734  25.044  1.00  0.00    -0.269 OA
ATOM      6  C   UNL A   1      41.383  25.317  26.071  1.00  0.00     0.251 C 
ATOM      7  H   UNL A   1      41.373  23.431  25.420  1.00  0.00     0.163 HD
BRANCH   6   8
ATOM      8  C   UNL A   1      41.113  26.238  27.196  1.00  0.00     0.039 A 
ATOM      9  C   UNL A   1      41.811  27.437  27.316  1.00  0.00     0.014 A 
ATOM     10  C   UNL A   1      40.134  25.906  28.139  1.00  0.00     0.014 A 
ATOM     11  C   UNL A   1      41.688  28.195  28.471  1.00  0.00     0.010 A 
ATOM     12  C   UNL A   1      39.919  26.740  29.241  1.00  0.00     0.010 A 
ATOM     13  C   UNL A   1      40.728  27.869  29.442  1.00  0.00    -0.014 A 
BRANCH  13  14
ATOM     14  C   UNL A   1      40.572  28.762  30.619  1.00  0.00     0.031 A 
ATOM     15  C   UNL A   1      41.533  28.708  31.776  1.00  0.00     0.074 A 
ATOM     16  C   UNL A   1      39.581  29.677  30.605  1.00  0.00     0.049 A 
ATOM     17  N   UNL A   1      41.578  29.468  32.841  1.00  0.00    -0.248 NA
ATOM     18  C   UNL A   1      42.570  27.665  31.744  1.00  0.00     0.031 C 
ATOM     19  C   UNL A   1      38.585  29.823  29.538  1.00  0.00     0.029 A 
ATOM     20  N   UNL A   1      39.270  30.681  31.484  1.00  0.00    -0.354 N 
ATOM     21  C   UNL A   1      42.620  28.979  33.619  1.00  0.00     0.074 A 
ATOM     22  C   UNL A   1      43.173  27.842  32.912  1.00  0.00     0.031 C 
ATOM     23  C   UNL A   1      37.831  30.904  29.784  1.00  0.00     0.029 A 
ATOM     24  C   UNL A   1      38.235  31.481  31.059  1.00  0.00     0.049 A 
ATOM     25  H   UNL A   1      39.742  30.817  32.338  1.00  0.00     0.167 HD
ATOM     26  C   UNL A   1      43.076  29.434  34.813  1.00  0.00     0.031 A 
ATOM     27  C   UNL A   1      37.666  32.557  31.630  1.00  0.00     0.031 A 
ATOM     28  C   UNL A   1      42.529  30.573  35.504  1.00  0.00     0.049 A 
ATOM     29  C   UNL A   1      38.183  33.033  32.955  1.00  0.00     0.074 A 
ATOM     30  C   UNL A   1      42.945  31.135  36.698  1.00  0.00     0.029 A 
ATOM     31  N   UNL A   1      41.447  31.323  35.065  1.00  0.00    -0.354 N 
ATOM     32  N   UNL A   1      39.186  32.569  33.660  1.00  0.00    -0.248 NA
ATOM     33  C   UNL A   1      37.488  34.175  33.563  1.00  0.00     0.031 C 
ATOM     34  C   UNL A   1      42.084  32.194  37.008  1.00  0.00     0.029 A 
ATOM     35  C   UNL A   1      41.165  32.326  35.978  1.00  0.00     0.049 A 
ATOM     36  H   UNL A   1      40.953  31.166  34.229  1.00  0.00     0.167 HD
ATOM     37  C   UNL A   1      39.254  33.373  34.791  1.00  0.00     0.074 A 
ATOM     38  C   UNL A   1      38.204  34.364  34.662  1.00  0.00     0.031 C 
ATOM     39  C   UNL A   1      40.109  33.298  35.840  1.00  0.00     0.031 A 
BRANCH  26  40
ATOM     40  C   UNL A   1      44.198  28.671  35.468  1.00  0.00    -0.014 A 
ATOM     41  C   UNL A   1      45.544  29.030  35.273  1.00  0.00     0.010 A 
ATOM     42  C   UNL A   1      43.897  27.596  36.323  1.00  0.00     0.010 A 
ATOM     43  C   UNL A   1      46.568  28.298  35.883  1.00  0.00     0.020 A 
ATOM     44  C   UNL A   1      44.916  26.878  36.956  1.00  0.00     0.020 A 
ATOM     45  C   UNL A   1      46.247  27.221  36.716  1.00  0.00     0.054 A 
BRANCH  45  46
ATOM     46  S   UNL A   1      47.593  26.290  37.500  1.00  0.00     0.124 S 
ATOM     47  O   UNL A   1      48.766  26.824  36.811  1.00  0.00    -0.237 OA
ATOM     48  O   UNL A   1      47.467  26.665  38.906  1.00  0.00    -0.237 OA
ATOM     49  O   UNL A   1      47.273  24.897  37.197  1.00  0.00    -0.744 OA
ENDBRANCH  45  46
ENDBRANCH  26  40
BRANCH  27  50
ATOM     50  C   UNL A   1      36.541  33.249  30.945  1.00  0.00    -0.014 A 
ATOM     51  C   UNL A   1      35.244  33.206  31.483  1.00  0.00     0.010 A 
ATOM     52  C   UNL A   1      36.773  33.987  29.769  1.00  0.00     0.010 A 
ATOM     53  C   UNL A   1      34.195  33.882  30.852  1.00  0.00     0.020 A 
ATOM     54  C   UNL A   1      35.734  34.687  29.153  1.00  0.00     0.020 A 
ATOM     55  C   UNL A   1      34.447  34.621  29.692  1.00  0.00     0.054 A 
BRANCH  55  56
ATOM     56  S   UNL A   1      33.086  35.540  28.923  1.00  0.00     0.124 S 
ATOM     57  O   UNL A   1      33.802  36.520  28.112  1.00  0.00    -0.237 OA
ATOM     58  O   UNL A   1      32.379  34.498  28.182  1.00  0.00    -0.237 OA
ATOM     59  O   UNL A   1      32.355  36.084  30.065  1.00  0.00    -0.744 OA
ENDBRANCH  55  56
ENDBRANCH  27  50
BRANCH  39  60
ATOM     60  C   UNL A   1      39.957  34.335  36.919  1.00  0.00    -0.014 A 
ATOM     61  C   UNL A   1      40.637  35.563  36.850  1.00  0.00     0.010 A 
ATOM     62  C   UNL A   1      39.102  34.081  38.007  1.00  0.00     0.010 A 
ATOM     63  C   UNL A   1      40.497  36.504  37.873  1.00  0.00     0.020 A 
ATOM     64  C   UNL A   1      38.939  35.031  39.018  1.00  0.00     0.020 A 
ATOM     65  C   UNL A   1      39.652  36.230  38.953  1.00  0.00     0.054 A 
BRANCH  65  66
ATOM     66  S   UNL A   1      39.467  37.475  40.258  1.00  0.00     0.124 S 
ATOM     67  O   UNL A   1      38.138  38.012  39.979  1.00  0.00    -0.237 OA
ATOM     68  O   UNL A   1      39.580  36.681  41.479  1.00  0.00    -0.237 OA
ATOM     69  O   UNL A   1      40.575  38.395  40.016  1.00  0.00    -0.744 OA
ENDBRANCH  65  66
ENDBRANCH  39  60
ENDBRANCH  13  14
ENDBRANCH   6   8
ENDBRANCH   3   4
ENDBRANCH   2   3
ENDBRANCH   1   2
BRANCH   1  70
ATOM     70  N   UNL A   1      37.493  23.623  24.741  1.00  0.00    -0.352 N 
ATOM     71  C   UNL A   1      36.243  23.545  24.163  1.00  0.00     0.251 C 
ATOM     72  H   UNL A   1      38.230  23.576  24.090  1.00  0.00     0.163 HD
ATOM     73  O   UNL A   1      36.152  23.290  22.977  1.00  0.00    -0.269 OA
BRANCH  71  74
ATOM     74  C   UNL A   1      35.008  23.737  24.965  1.00  0.00     0.041 A 
ATOM     75  C   UNL A   1      34.424  22.630  25.593  1.00  0.00     0.014 A 
ATOM     76  C   UNL A   1      34.416  24.985  25.104  1.00  0.00     0.040 A 
ATOM     77  C   UNL A   1      33.287  22.797  26.391  1.00  0.00     0.003 A 
ATOM     78  C   UNL A   1      33.364  25.167  25.993  1.00  0.00     0.041 A 
ATOM     79  C   UNL A   1      32.762  24.071  26.604  1.00  0.00     0.026 A 
BRANCH  78  80
ATOM     80  N   UNL A   1      33.104  26.476  26.408  1.00  0.00    -0.331 N 
ATOM     81  H   UNL A   1      32.595  26.565  27.245  1.00  0.00     0.169 HD
BRANCH  80  82
ATOM     82  C   UNL A   1      33.458  27.639  25.810  1.00  0.00     0.191 C 
ATOM     83  S   UNL A   1      34.582  28.628  26.561  1.00  0.00    -0.039 S 
BRANCH  82  84
ATOM     84  N   UNL A   1      33.030  27.922  24.541  1.00  0.00    -0.254 N 
ATOM     85  H   UNL A   1      32.060  28.030  24.415  1.00  0.00     0.193 HD
BRANCH  84  86
ATOM     86  N   UNL A   1      33.826  28.071  23.418  1.00  0.00    -0.181 NA
ATOM     87  C   UNL A   1      33.549  27.380  22.340  1.00  0.00     0.143 C 
BRANCH  87  88
ATOM     88  C   UNL A   1      32.386  26.528  22.215  1.00  0.00     0.020 A 
ATOM     89  C   UNL A   1      31.081  26.981  22.232  1.00  0.00     0.093 A 
ATOM     90  C   UNL A   1      32.280  25.112  22.202  1.00  0.00     0.008 A 
ATOM     91  N   UNL A   1      30.384  26.017  22.915  1.00  0.00    -0.361 N 
ATOM     92  C   UNL A   1      31.121  24.860  22.937  1.00  0.00     0.046 A 
ATOM     93  C   UNL A   1      33.071  24.017  21.810  1.00  0.00     0.011 A 
ATOM     94  H   UNL A   1      29.496  26.138  23.323  1.00  0.00     0.166 HD
ATOM     95  C   UNL A   1      30.862  23.635  23.547  1.00  0.00     0.027 A 
ATOM     96  C   UNL A   1      32.700  22.735  22.239  1.00  0.00     0.001 A 
ATOM     97  C   UNL A   1      31.668  22.565  23.163  1.00  0.00     0.002 A 
ENDBRANCH  87  88
ENDBRANCH  84  86
ENDBRANCH  82  84
ENDBRANCH  80  82
ENDBRANCH  78  80
ENDBRANCH  71  74
ENDBRANCH   1  70
TORSDOF 18
ENDMDL
MODEL 2
REMARK VINA RESULT:     -11.2      1.331      2.209
REMARK SMILES O=C(NCCCNC(=O)c1cccc(NC(=S)N/N=C\c2c[nH]c3ccccc23)c1)c1ccc(-c2c3nc(c(-c4ccc(S(=O)(=O)[O-])cc4)c4ccc([nH]4)c(-c4ccc(S(=O)(=O)[O-])cc4)c4nc(c(-c5ccc(S(=O)(=O)[O-])cc5)c5ccc2[nH]5)C=C4)C=C3)cc1
REMARK SMILES IDX 6 1 5 2 4 3 3 4 1 5 2 6 31 8 32 9 90 10 33 11 89 12 34 13
REMARK SMILES IDX 35 14 36 15 83 16 37 17 88 18 82 19 84 20 38 21 87 22 81 23
REMARK SMILES IDX 80 24 39 26 69 27 50 28 68 29 51 30 54 31 67 32 85 33 52 34
REMARK SMILES IDX 53 35 66 37 86 38 55 39 40 40 41 41 49 42 42 43 48 44 43 45
REMARK SMILES IDX 44 46 45 47 46 48 47 49 70 50 71 51 79 52 72 53 78 54 73 55
REMARK SMILES IDX 74 56 75 57 76 58 77 59 56 60 57 61 65 62 58 63 64 64 59 65
REMARK SMILES IDX 60 66 61 67 62 68 63 69 7 70 8 71 9 73 10 74 11 75 30 76
REMARK SMILES IDX 12 77 14 78 13 79 15 80 16 82 17 83 18 84 19 86 20 87 21 88
REMARK SMILES IDX 22 89 29 90 23 91 24 92 28 93 25 95 27 96 26 97
REMARK H PARENT 3 7 84 25 54 36 7 72 15 81 18 85 23 94
REMARK Flexibility Score: inf
ROOT
ATOM      1  C   UNL A   1      37.788  22.919  26.117  1.00  0.00     0.118 C 
ENDROOT
BRANCH   1   2
ATOM      2  C   UNL A   1      39.183  22.406  26.425  1.00  0.00     0.042 C 
BRANCH   2   3
ATOM      3  C   UNL A   1      40.081  23.451  27.062  1.00  0.00     0.118 C 
BRANCH   3   4
ATOM      4  N   UNL A   1      40.834  24.225  26.078  1.00  0.00    -0.352 N 
ATOM      5  O   UNL A   1      41.625  26.025  24.993  1.00  0.00    -0.269 OA
ATOM      6  C   UNL A   1      41.140  25.563  26.022  1.00  0.00     0.251 C 
ATOM      7  H   UNL A   1      41.183  23.695  25.325  1.00  0.00     0.163 HD
BRANCH   6   8
ATOM      8  C   UNL A   1      40.868  26.446  27.177  1.00  0.00     0.039 A 
ATOM      9  C   UNL A   1      41.515  27.673  27.302  1.00  0.00     0.014 A 
ATOM     10  C   UNL A   1      39.938  26.050  28.144  1.00  0.00     0.014 A 
ATOM     11  C   UNL A   1      41.397  28.399  28.478  1.00  0.00     0.010 A 
ATOM     12  C   UNL A   1      39.723  26.849  29.272  1.00  0.00     0.010 A 
ATOM     13  C   UNL A   1      40.486  28.009  29.472  1.00  0.00    -0.014 A 
BRANCH  13  14
ATOM     14  C   UNL A   1      40.330  28.867  30.675  1.00  0.00     0.031 A 
ATOM     15  C   UNL A   1      41.278  28.764  31.839  1.00  0.00     0.074 A 
ATOM     16  C   UNL A   1      39.352  29.796  30.678  1.00  0.00     0.049 A 
ATOM     17  N   UNL A   1      41.321  29.491  32.927  1.00  0.00    -0.248 NA
ATOM     18  C   UNL A   1      42.301  27.708  31.786  1.00  0.00     0.031 C 
ATOM     19  C   UNL A   1      38.369  29.989  29.606  1.00  0.00     0.029 A 
ATOM     20  N   UNL A   1      39.046  30.778  31.585  1.00  0.00    -0.354 N 
ATOM     21  C   UNL A   1      42.348  28.963  33.701  1.00  0.00     0.074 A 
ATOM     22  C   UNL A   1      42.893  27.841  32.965  1.00  0.00     0.031 C 
ATOM     23  C   UNL A   1      37.628  31.072  29.877  1.00  0.00     0.029 A 
ATOM     24  C   UNL A   1      38.027  31.604  31.173  1.00  0.00     0.049 A 
ATOM     25  H   UNL A   1      39.510  30.881  32.446  1.00  0.00     0.167 HD
ATOM     26  C   UNL A   1      42.798  29.375  34.912  1.00  0.00     0.031 A 
ATOM     27  C   UNL A   1      37.467  32.671  31.771  1.00  0.00     0.031 A 
ATOM     28  C   UNL A   1      42.260  30.501  35.632  1.00  0.00     0.049 A 
ATOM     29  C   UNL A   1      37.976  33.099  33.116  1.00  0.00     0.074 A 
ATOM     30  C   UNL A   1      42.670  31.020  36.848  1.00  0.00     0.029 A 
ATOM     31  N   UNL A   1      41.193  31.279  35.206  1.00  0.00    -0.354 N 
ATOM     32  N   UNL A   1      38.965  32.600  33.816  1.00  0.00    -0.248 NA
ATOM     33  C   UNL A   1      37.290  34.232  33.750  1.00  0.00     0.031 C 
ATOM     34  C   UNL A   1      41.821  32.082  37.180  1.00  0.00     0.029 A 
ATOM     35  C   UNL A   1      40.916  32.258  36.146  1.00  0.00     0.049 A 
ATOM     36  H   UNL A   1      40.705  31.154  34.360  1.00  0.00     0.167 HD
ATOM     37  C   UNL A   1      39.032  33.368  34.972  1.00  0.00     0.074 A 
ATOM     38  C   UNL A   1      37.997  34.377  34.863  1.00  0.00     0.031 C 
ATOM     39  C   UNL A   1      39.875  33.248  36.027  1.00  0.00     0.031 A 
BRANCH  26  40
ATOM     40  C   UNL A   1      43.903  28.578  35.556  1.00  0.00    -0.014 A 
ATOM     41  C   UNL A   1      45.257  28.881  35.331  1.00  0.00     0.010 A 
ATOM     42  C   UNL A   1      43.576  27.524  36.429  1.00  0.00     0.010 A 
ATOM     43  C   UNL A   1      46.264  28.117  35.930  1.00  0.00     0.020 A 
ATOM     44  C   UNL A   1      44.579  26.774  37.052  1.00  0.00     0.020 A 
ATOM     45  C   UNL A   1      45.917  27.063  36.782  1.00  0.00     0.054 A 
BRANCH  45  46
ATOM     46  S   UNL A   1      47.241  26.089  37.552  1.00  0.00     0.124 S 
ATOM     47  O   UNL A   1      48.166  27.133  37.985  1.00  0.00    -0.237 OA
ATOM     48  O   UNL A   1      46.542  25.386  38.624  1.00  0.00    -0.237 OA
ATOM     49  O   UNL A   1      47.725  25.241  36.465  1.00  0.00    -0.744 OA
ENDBRANCH  45  46
ENDBRANCH  26  40
BRANCH  27  50
ATOM     50  C   UNL A   1      36.359  33.399  31.096  1.00  0.00    -0.014 A 
ATOM     51  C   UNL A   1      35.182  33.715  31.796  1.00  0.00     0.010 A 
ATOM     52  C   UNL A   1      36.495  33.814  29.758  1.00  0.00     0.010 A 
ATOM     53  C   UNL A   1      34.155  34.425  31.166  1.00  0.00     0.020 A 
ATOM     54  C   UNL A   1      35.483  34.549  29.136  1.00  0.00     0.020 A 
ATOM     55  C   UNL A   1      34.314  34.840  29.840  1.00  0.00     0.054 A 
BRANCH  55  56
ATOM     56  S   UNL A   1      32.997  35.813  29.062  1.00  0.00     0.124 S 
ATOM     57  O   UNL A   1      32.198  36.219  30.214  1.00  0.00    -0.237 OA
ATOM     58  O   UNL A   1      33.741  36.881  28.399  1.00  0.00    -0.237 OA
ATOM     59  O   UNL A   1      32.357  34.859  28.158  1.00  0.00    -0.744 OA
ENDBRANCH  55  56
ENDBRANCH  27  50
BRANCH  39  60
ATOM     60  C   UNL A   1      39.725  34.254  37.135  1.00  0.00    -0.014 A 
ATOM     61  C   UNL A   1      38.982  33.959  38.291  1.00  0.00     0.010 A 
ATOM     62  C   UNL A   1      40.356  35.507  37.023  1.00  0.00     0.010 A 
ATOM     63  C   UNL A   1      38.839  34.915  39.300  1.00  0.00     0.020 A 
ATOM     64  C   UNL A   1      40.237  36.455  38.040  1.00  0.00     0.020 A 
ATOM     65  C   UNL A   1      39.464  36.160  39.166  1.00  0.00     0.054 A 
BRANCH  65  66
ATOM     66  S   UNL A   1      39.285  37.378  40.497  1.00  0.00     0.124 S 
ATOM     67  O   UNL A   1      38.238  38.250  39.971  1.00  0.00    -0.237 OA
ATOM     68  O   UNL A   1      38.899  36.552  41.639  1.00  0.00    -0.237 OA
ATOM     69  O   UNL A   1      40.611  37.981  40.593  1.00  0.00    -0.744 OA
ENDBRANCH  65  66
ENDBRANCH  39  60
ENDBRANCH  13  14
ENDBRANCH   6   8
ENDBRANCH   3   4
ENDBRANCH   2   3
ENDBRANCH   1   2
BRANCH   1  70
ATOM     70  N   UNL A   1      37.572  23.192  24.701  1.00  0.00    -0.352 N 
ATOM     71  C   UNL A   1      36.612  22.780  23.800  1.00  0.00     0.251 C 
ATOM     72  H   UNL A   1      38.247  23.792  24.309  1.00  0.00     0.163 HD
ATOM     73  O   UNL A   1      36.748  23.054  22.622  1.00  0.00    -0.269 OA
BRANCH  71  74
ATOM     74  C   UNL A   1      35.436  21.985  24.234  1.00  0.00     0.041 A 
ATOM     75  C   UNL A   1      35.576  20.605  24.421  1.00  0.00     0.014 A 
ATOM     76  C   UNL A   1      34.199  22.576  24.455  1.00  0.00     0.040 A 
ATOM     77  C   UNL A   1      34.492  19.845  24.874  1.00  0.00     0.003 A 
ATOM     78  C   UNL A   1      33.163  21.843  25.021  1.00  0.00     0.041 A 
ATOM     79  C   UNL A   1      33.285  20.467  25.189  1.00  0.00     0.026 A 
BRANCH  78  80
ATOM     80  N   UNL A   1      32.122  22.567  25.608  1.00  0.00    -0.331 N 
ATOM     81  H   UNL A   1      31.309  22.665  25.062  1.00  0.00     0.169 HD
BRANCH  80  82
ATOM     82  C   UNL A   1      32.082  23.154  26.829  1.00  0.00     0.191 C 
ATOM     83  S   UNL A   1      32.981  22.493  28.078  1.00  0.00    -0.039 S 
BRANCH  82  84
ATOM     84  N   UNL A   1      31.451  24.357  26.996  1.00  0.00    -0.254 N 
ATOM     85  H   UNL A   1      31.898  25.015  27.576  1.00  0.00     0.193 HD
BRANCH  84  86
ATOM     86  N   UNL A   1      30.247  24.741  26.430  1.00  0.00    -0.181 NA
ATOM     87  C   UNL A   1      30.155  25.913  25.851  1.00  0.00     0.143 C 
BRANCH  87  88
ATOM     88  C   UNL A   1      31.281  26.808  25.679  1.00  0.00     0.020 A 
ATOM     89  C   UNL A   1      31.535  27.905  26.479  1.00  0.00     0.093 A 
ATOM     90  C   UNL A   1      32.247  26.881  24.641  1.00  0.00     0.008 A 
ATOM     91  N   UNL A   1      32.021  28.859  25.623  1.00  0.00    -0.361 N 
ATOM     92  C   UNL A   1      32.437  28.252  24.465  1.00  0.00     0.046 A 
ATOM     93  C   UNL A   1      32.863  26.001  23.734  1.00  0.00     0.011 A 
ATOM     94  H   UNL A   1      32.063  29.824  25.810  1.00  0.00     0.166 HD
ATOM     95  C   UNL A   1      32.951  28.801  23.292  1.00  0.00     0.027 A 
ATOM     96  C   UNL A   1      33.575  26.542  22.655  1.00  0.00     0.001 A 
ATOM     97  C   UNL A   1      33.540  27.912  22.394  1.00  0.00     0.002 A 
ENDBRANCH  87  88
ENDBRANCH  84  86
ENDBRANCH  82  84
ENDBRANCH  80  82
ENDBRANCH  78  80
ENDBRANCH  71  74
ENDBRANCH   1  70
TORSDOF 18
ENDMDL
MODEL 3
REMARK VINA RESULT:     -10.9      5.084      6.369
REMARK SMILES O=C(NCCCNC(=O)c1cccc(NC(=S)N/N=C\c2c[nH]c3ccccc23)c1)c1ccc(-c2c3nc(c(-c4ccc(S(=O)(=O)[O-])cc4)c4ccc([nH]4)c(-c4ccc(S(=O)(=O)[O-])cc4)c4nc(c(-c5ccc(S(=O)(=O)[O-])cc5)c5ccc2[nH]5)C=C4)C=C3)cc1
REMARK SMILES IDX 6 1 5 2 4 3 3 4 1 5 2 6 31 8 32 9 90 10 33 11 89 12 34 13
REMARK SMILES IDX 35 14 36 15 83 16 37 17 88 18 82 19 84 20 38 21 87 22 81 23
REMARK SMILES IDX 80 24 39 26 69 27 50 28 68 29 51 30 54 31 67 32 85 33 52 34
REMARK SMILES IDX 53 35 66 37 86 38 55 39 40 40 41 41 49 42 42 43 48 44 43 45
REMARK SMILES IDX 44 46 45 47 46 48 47 49 70 50 71 51 79 52 72 53 78 54 73 55
REMARK SMILES IDX 74 56 75 57 76 58 77 59 56 60 57 61 65 62 58 63 64 64 59 65
REMARK SMILES IDX 60 66 61 67 62 68 63 69 7 70 8 71 9 73 10 74 11 75 30 76
REMARK SMILES IDX 12 77 14 78 13 79 15 80 16 82 17 83 18 84 19 86 20 87 21 88
REMARK SMILES IDX 22 89 29 90 23 91 24 92 28 93 25 95 27 96 26 97
REMARK H PARENT 3 7 84 25 54 36 7 72 15 81 18 85 23 94
REMARK Flexibility Score: inf
ROOT
ATOM      1  C   UNL A   1      35.345  22.010  26.274  1.00  0.00     0.118 C 
ENDROOT
BRANCH   1   2
ATOM      2  C   UNL A   1      36.029  23.360  26.150  1.00  0.00     0.042 C 
BRANCH   2   3
ATOM      3  C   UNL A   1      37.347  23.300  25.401  1.00  0.00     0.118 C 
BRANCH   3   4
ATOM      4  N   UNL A   1      38.200  22.200  25.845  1.00  0.00    -0.352 N 
ATOM      5  O   UNL A   1      40.043  21.145  26.578  1.00  0.00    -0.269 OA
ATOM      6  C   UNL A   1      39.422  22.199  26.474  1.00  0.00     0.251 C 
ATOM      7  H   UNL A   1      37.835  21.303  25.662  1.00  0.00     0.163 HD
BRANCH   6   8
ATOM      8  C   UNL A   1      39.999  23.456  26.998  1.00  0.00     0.039 A 
ATOM      9  C   UNL A   1      39.731  24.675  26.378  1.00  0.00     0.014 A 
ATOM     10  C   UNL A   1      40.808  23.421  28.139  1.00  0.00     0.014 A 
ATOM     11  C   UNL A   1      40.427  25.812  26.759  1.00  0.00     0.010 A 
ATOM     12  C   UNL A   1      41.410  24.596  28.602  1.00  0.00     0.010 A 
ATOM     13  C   UNL A   1      41.262  25.795  27.888  1.00  0.00    -0.014 A 
BRANCH  13  14
ATOM     14  C   UNL A   1      41.916  27.060  28.310  1.00  0.00     0.031 A 
ATOM     15  C   UNL A   1      43.392  27.281  28.115  1.00  0.00     0.074 A 
ATOM     16  C   UNL A   1      41.145  28.043  28.818  1.00  0.00     0.049 A 
ATOM     17  N   UNL A   1      44.100  28.355  28.362  1.00  0.00    -0.248 NA
ATOM     18  C   UNL A   1      44.180  26.156  27.588  1.00  0.00     0.031 C 
ATOM     19  C   UNL A   1      39.701  27.944  29.056  1.00  0.00     0.029 A 
ATOM     20  N   UNL A   1      41.452  29.328  29.185  1.00  0.00    -0.354 N 
ATOM     21  C   UNL A   1      45.415  28.028  28.053  1.00  0.00     0.074 A 
ATOM     22  C   UNL A   1      45.411  26.648  27.617  1.00  0.00     0.031 C 
ATOM     23  C   UNL A   1      39.236  29.139  29.447  1.00  0.00     0.029 A 
ATOM     24  C   UNL A   1      40.354  30.066  29.563  1.00  0.00     0.049 A 
ATOM     25  H   UNL A   1      42.368  29.688  29.178  1.00  0.00     0.167 HD
ATOM     26  C   UNL A   1      46.523  28.806  28.126  1.00  0.00     0.031 A 
ATOM     27  C   UNL A   1      40.253  31.345  29.965  1.00  0.00     0.031 A 
ATOM     28  C   UNL A   1      46.516  30.183  28.548  1.00  0.00     0.049 A 
ATOM     29  C   UNL A   1      41.496  32.180  30.046  1.00  0.00     0.074 A 
ATOM     30  C   UNL A   1      47.580  31.066  28.620  1.00  0.00     0.029 A 
ATOM     31  N   UNL A   1      45.392  30.877  28.974  1.00  0.00    -0.354 N 
ATOM     32  N   UNL A   1      42.725  31.857  29.724  1.00  0.00    -0.248 NA
ATOM     33  C   UNL A   1      41.338  33.551  30.548  1.00  0.00     0.031 C 
ATOM     34  C   UNL A   1      47.109  32.279  29.136  1.00  0.00     0.029 A 
ATOM     35  C   UNL A   1      45.742  32.168  29.334  1.00  0.00     0.049 A 
ATOM     36  H   UNL A   1      44.481  30.506  29.014  1.00  0.00     0.167 HD
ATOM     37  C   UNL A   1      43.489  32.991  29.971  1.00  0.00     0.074 A 
ATOM     38  C   UNL A   1      42.577  34.012  30.447  1.00  0.00     0.031 C 
ATOM     39  C   UNL A   1      44.823  33.170  29.816  1.00  0.00     0.031 A 
BRANCH  26  40
ATOM     40  C   UNL A   1      47.845  28.172  27.777  1.00  0.00    -0.014 A 
ATOM     41  C   UNL A   1      48.636  27.537  28.751  1.00  0.00     0.010 A 
ATOM     42  C   UNL A   1      48.288  28.184  26.442  1.00  0.00     0.010 A 
ATOM     43  C   UNL A   1      49.865  26.967  28.405  1.00  0.00     0.020 A 
ATOM     44  C   UNL A   1      49.504  27.593  26.086  1.00  0.00     0.020 A 
ATOM     45  C   UNL A   1      50.295  27.006  27.074  1.00  0.00     0.054 A 
BRANCH  45  46
ATOM     46  S   UNL A   1      51.891  26.255  26.648  1.00  0.00     0.124 S 
ATOM     47  O   UNL A   1      52.223  26.945  25.404  1.00  0.00    -0.237 OA
ATOM     48  O   UNL A   1      52.725  26.598  27.797  1.00  0.00    -0.237 OA
ATOM     49  O   UNL A   1      51.580  24.834  26.508  1.00  0.00    -0.744 OA
ENDBRANCH  45  46
ENDBRANCH  26  40
BRANCH  27  50
ATOM     50  C   UNL A   1      38.921  31.904  30.323  1.00  0.00    -0.014 A 
ATOM     51  C   UNL A   1      38.082  32.438  29.331  1.00  0.00     0.010 A 
ATOM     52  C   UNL A   1      38.471  31.867  31.656  1.00  0.00     0.010 A 
ATOM     53  C   UNL A   1      36.819  32.935  29.668  1.00  0.00     0.020 A 
ATOM     54  C   UNL A   1      37.199  32.335  31.991  1.00  0.00     0.020 A 
ATOM     55  C   UNL A   1      36.384  32.878  30.995  1.00  0.00     0.054 A 
BRANCH  55  56
ATOM     56  S   UNL A   1      34.719  33.471  31.400  1.00  0.00     0.124 S 
ATOM     57  O   UNL A   1      35.003  34.732  32.077  1.00  0.00    -0.237 OA
ATOM     58  O   UNL A   1      34.094  33.584  30.085  1.00  0.00    -0.237 OA
ATOM     59  O   UNL A   1      34.177  32.411  32.248  1.00  0.00    -0.744 OA
ENDBRANCH  55  56
ENDBRANCH  27  50
BRANCH  39  60
ATOM     60  C   UNL A   1      45.370  34.532  30.142  1.00  0.00    -0.014 A 
ATOM     61  C   UNL A   1      45.432  35.544  29.168  1.00  0.00     0.010 A 
ATOM     62  C   UNL A   1      45.809  34.808  31.449  1.00  0.00     0.010 A 
ATOM     63  C   UNL A   1      45.962  36.797  29.486  1.00  0.00     0.020 A 
ATOM     64  C   UNL A   1      46.315  36.067  31.778  1.00  0.00     0.020 A 
ATOM     65  C   UNL A   1      46.404  37.049  30.789  1.00  0.00     0.054 A 
BRANCH  65  66
ATOM     66  S   UNL A   1      47.067  38.690  31.186  1.00  0.00     0.124 S 
ATOM     67  O   UNL A   1      46.656  39.472  30.024  1.00  0.00    -0.237 OA
ATOM     68  O   UNL A   1      46.387  39.017  32.437  1.00  0.00    -0.237 OA
ATOM     69  O   UNL A   1      48.505  38.460  31.308  1.00  0.00    -0.744 OA
ENDBRANCH  65  66
ENDBRANCH  39  60
ENDBRANCH  13  14
ENDBRANCH   6   8
ENDBRANCH   3   4
ENDBRANCH   2   3
ENDBRANCH   1   2
BRANCH   1  70
ATOM     70  N   UNL A   1      34.415  21.934  27.394  1.00  0.00    -0.352 N 
ATOM     71  C   UNL A   1      33.115  22.361  27.567  1.00  0.00     0.251 C 
ATOM     72  H   UNL A   1      34.790  21.487  28.186  1.00  0.00     0.163 HD
ATOM     73  O   UNL A   1      32.609  22.290  28.672  1.00  0.00    -0.269 OA
BRANCH  71  74
ATOM     74  C   UNL A   1      32.334  22.933  26.442  1.00  0.00     0.041 A 
ATOM     75  C   UNL A   1      31.902  22.088  25.412  1.00  0.00     0.014 A 
ATOM     76  C   UNL A   1      32.025  24.285  26.382  1.00  0.00     0.040 A 
ATOM     77  C   UNL A   1      31.125  22.598  24.367  1.00  0.00     0.003 A 
ATOM     78  C   UNL A   1      31.152  24.763  25.412  1.00  0.00     0.041 A 
ATOM     79  C   UNL A   1      30.736  23.937  24.372  1.00  0.00     0.026 A 
BRANCH  78  80
ATOM     80  N   UNL A   1      30.550  26.000  25.654  1.00  0.00    -0.331 N 
ATOM     81  H   UNL A   1      30.019  26.062  26.480  1.00  0.00     0.169 HD
BRANCH  80  82
ATOM     82  C   UNL A   1      30.600  27.128  24.904  1.00  0.00     0.191 C 
ATOM     83  S   UNL A   1      29.567  27.278  23.595  1.00  0.00    -0.039 S 
BRANCH  82  84
ATOM     84  N   UNL A   1      31.362  28.191  25.306  1.00  0.00    -0.254 N 
ATOM     85  H   UNL A   1      31.078  29.082  24.997  1.00  0.00     0.193 HD
BRANCH  84  86
ATOM     86  N   UNL A   1      32.492  28.139  26.104  1.00  0.00    -0.181 NA
ATOM     87  C   UNL A   1      33.640  27.804  25.569  1.00  0.00     0.143 C 
BRANCH  87  88
ATOM     88  C   UNL A   1      33.822  27.573  24.151  1.00  0.00     0.020 A 
ATOM     89  C   UNL A   1      33.823  28.568  23.192  1.00  0.00     0.093 A 
ATOM     90  C   UNL A   1      33.886  26.360  23.417  1.00  0.00     0.008 A 
ATOM     91  N   UNL A   1      33.191  28.013  22.110  1.00  0.00    -0.361 N 
ATOM     92  C   UNL A   1      33.189  26.647  22.243  1.00  0.00     0.046 A 
ATOM     93  C   UNL A   1      34.295  25.033  23.640  1.00  0.00     0.011 A 
ATOM     94  H   UNL A   1      32.801  28.515  21.358  1.00  0.00     0.166 HD
ATOM     95  C   UNL A   1      32.627  25.661  21.434  1.00  0.00     0.027 A 
ATOM     96  C   UNL A   1      33.918  24.051  22.714  1.00  0.00     0.001 A 
ATOM     97  C   UNL A   1      33.027  24.349  21.683  1.00  0.00     0.002 A 
ENDBRANCH  87  88
ENDBRANCH  84  86
ENDBRANCH  82  84
ENDBRANCH  80  82
ENDBRANCH  78  80
ENDBRANCH  71  74
ENDBRANCH   1  70
TORSDOF 18
ENDMDL
