MODEL 1
REMARK VINA RESULT:     -10.7      0.000      0.000
REMARK SMILES O=C(NCCCNC(=O)[C@@H]1CCCN(C(=O)Nc2ccccc2)C1)c1ccc(-c2c3nc(c(-c4ccc(S(=O)(=O)[O-])cc4)c4ccc([nH]4)c(-c4ccc(S(=O)(=O)[O-])cc4)c4nc(c(-c5ccc(S(=O)(=O)[O-])cc5)c5ccc2[nH]5)C=C4)C=C3)cc1
REMARK SMILES IDX 4 1 3 2 1 3 2 4 25 6 26 7 84 8 27 9 83 10 28 11 29 12 30 13
REMARK SMILES IDX 77 14 31 15 82 16 76 17 78 18 32 19 81 20 75 21 74 22 33 24
REMARK SMILES IDX 63 25 44 26 62 27 45 28 48 29 61 30 79 31 46 32 47 33 60 35
REMARK SMILES IDX 80 36 49 37 34 38 35 39 43 40 36 41 42 42 37 43 38 44 39 45
REMARK SMILES IDX 40 46 41 47 64 48 65 49 73 50 66 51 72 52 67 53 68 54 69 55
REMARK SMILES IDX 70 56 71 57 50 58 51 59 59 60 52 61 58 62 53 63 54 64 55 65
REMARK SMILES IDX 56 66 57 67 5 68 6 69 7 70 8 71 9 73 10 74 11 75 24 76 12 77
REMARK SMILES IDX 14 78 13 79 15 80 16 81 17 82 18 84 19 85 23 86 20 87 22 88
REMARK SMILES IDX 21 89
REMARK H PARENT 3 5 78 23 48 34 7 72 17 83
REMARK Flexibility Score: inf
ROOT
ATOM      1  C   UNL A   1      33.763  28.357  27.227  1.00  0.00     0.118 C 
ENDROOT
BRANCH   1   2
ATOM      2  N   UNL A   1      33.593  29.770  27.539  1.00  0.00    -0.352 N 
ATOM      3  O   UNL A   1      34.061  31.736  28.533  1.00  0.00    -0.269 OA
ATOM      4  C   UNL A   1      34.457  30.632  28.166  1.00  0.00     0.251 C 
ATOM      5  H   UNL A   1      32.736  30.163  27.259  1.00  0.00     0.163 HD
BRANCH   4   6
ATOM      6  C   UNL A   1      35.855  30.223  28.408  1.00  0.00     0.039 A 
ATOM      7  C   UNL A   1      36.819  30.385  27.411  1.00  0.00     0.014 A 
ATOM      8  C   UNL A   1      36.210  29.691  29.650  1.00  0.00     0.014 A 
ATOM      9  C   UNL A   1      38.103  29.897  27.607  1.00  0.00     0.010 A 
ATOM     10  C   UNL A   1      37.528  29.287  29.880  1.00  0.00     0.010 A 
ATOM     11  C   UNL A   1      38.481  29.371  28.854  1.00  0.00    -0.014 A 
BRANCH  11  12
ATOM     12  C   UNL A   1      39.904  29.023  29.085  1.00  0.00     0.031 A 
ATOM     13  C   UNL A   1      40.459  27.686  28.685  1.00  0.00     0.074 A 
ATOM     14  C   UNL A   1      40.699  29.954  29.650  1.00  0.00     0.049 A 
ATOM     15  N   UNL A   1      41.686  27.242  28.805  1.00  0.00    -0.248 NA
ATOM     16  C   UNL A   1      39.530  26.719  28.079  1.00  0.00     0.031 C 
ATOM     17  C   UNL A   1      40.259  31.283  30.092  1.00  0.00     0.029 A 
ATOM     18  N   UNL A   1      42.039  29.940  29.938  1.00  0.00    -0.354 N 
ATOM     19  C   UNL A   1      41.673  25.943  28.313  1.00  0.00     0.074 A 
ATOM     20  C   UNL A   1      40.313  25.662  27.904  1.00  0.00     0.031 C 
ATOM     21  C   UNL A   1      41.316  31.969  30.548  1.00  0.00     0.029 A 
ATOM     22  C   UNL A   1      42.491  31.110  30.500  1.00  0.00     0.049 A 
ATOM     23  H   UNL A   1      42.621  29.167  29.759  1.00  0.00     0.167 HD
ATOM     24  C   UNL A   1      42.703  25.070  28.212  1.00  0.00     0.031 A 
ATOM     25  C   UNL A   1      43.711  31.451  30.955  1.00  0.00     0.031 A 
ATOM     26  C   UNL A   1      44.055  25.366  28.618  1.00  0.00     0.049 A 
ATOM     27  C   UNL A   1      44.824  30.449  30.854  1.00  0.00     0.074 A 
ATOM     28  C   UNL A   1      45.177  24.562  28.512  1.00  0.00     0.029 A 
ATOM     29  N   UNL A   1      44.467  26.549  29.210  1.00  0.00    -0.354 N 
ATOM     30  N   UNL A   1      44.800  29.244  30.337  1.00  0.00    -0.248 NA
ATOM     31  C   UNL A   1      46.126  30.851  31.398  1.00  0.00     0.031 C 
ATOM     32  C   UNL A   1      46.254  25.236  29.094  1.00  0.00     0.029 A 
ATOM     33  C   UNL A   1      45.819  26.484  29.506  1.00  0.00     0.049 A 
ATOM     34  H   UNL A   1      43.885  27.322  29.393  1.00  0.00     0.167 HD
ATOM     35  C   UNL A   1      46.090  28.748  30.482  1.00  0.00     0.074 A 
ATOM     36  C   UNL A   1      46.873  29.795  31.107  1.00  0.00     0.031 C 
ATOM     37  C   UNL A   1      46.581  27.534  30.134  1.00  0.00     0.031 A 
BRANCH  24  38
ATOM     38  C   UNL A   1      42.423  23.696  27.662  1.00  0.00    -0.014 A 
ATOM     39  C   UNL A   1      42.562  23.415  26.292  1.00  0.00     0.010 A 
ATOM     40  C   UNL A   1      42.115  22.645  28.547  1.00  0.00     0.010 A 
ATOM     41  C   UNL A   1      42.387  22.112  25.816  1.00  0.00     0.020 A 
ATOM     42  C   UNL A   1      41.960  21.337  28.078  1.00  0.00     0.020 A 
ATOM     43  C   UNL A   1      42.091  21.081  26.712  1.00  0.00     0.054 A 
BRANCH  43  44
ATOM     44  S   UNL A   1      41.931  19.390  26.072  1.00  0.00     0.124 S 
ATOM     45  O   UNL A   1      42.818  19.422  24.911  1.00  0.00    -0.237 OA
ATOM     46  O   UNL A   1      42.395  18.578  27.193  1.00  0.00    -0.237 OA
ATOM     47  O   UNL A   1      40.508  19.267  25.764  1.00  0.00    -0.744 OA
ENDBRANCH  43  44
ENDBRANCH  24  38
BRANCH  25  48
ATOM     48  C   UNL A   1      43.928  32.781  31.582  1.00  0.00    -0.014 A 
ATOM     49  C   UNL A   1      43.767  32.961  32.966  1.00  0.00     0.010 A 
ATOM     50  C   UNL A   1      44.297  33.883  30.788  1.00  0.00     0.010 A 
ATOM     51  C   UNL A   1      43.938  34.225  33.539  1.00  0.00     0.020 A 
ATOM     52  C   UNL A   1      44.502  35.139  31.360  1.00  0.00     0.020 A 
ATOM     53  C   UNL A   1      44.301  35.306  32.730  1.00  0.00     0.054 A 
BRANCH  53  54
ATOM     54  S   UNL A   1      44.537  36.935  33.494  1.00  0.00     0.124 S 
ATOM     55  O   UNL A   1      45.441  36.622  34.595  1.00  0.00    -0.237 OA
ATOM     56  O   UNL A   1      45.112  37.717  32.403  1.00  0.00    -0.237 OA
ATOM     57  O   UNL A   1      43.184  37.326  33.885  1.00  0.00    -0.744 OA
ENDBRANCH  53  54
ENDBRANCH  25  48
BRANCH  37  58
ATOM     58  C   UNL A   1      48.040  27.285  30.401  1.00  0.00    -0.014 A 
ATOM     59  C   UNL A   1      48.461  26.618  31.564  1.00  0.00     0.010 A 
ATOM     60  C   UNL A   1      48.998  27.691  29.456  1.00  0.00     0.010 A 
ATOM     61  C   UNL A   1      49.820  26.396  31.797  1.00  0.00     0.020 A 
ATOM     62  C   UNL A   1      50.356  27.445  29.670  1.00  0.00     0.020 A 
ATOM     63  C   UNL A   1      50.760  26.813  30.847  1.00  0.00     0.054 A 
BRANCH  63  64
ATOM     64  S   UNL A   1      52.516  26.481  31.154  1.00  0.00     0.124 S 
ATOM     65  O   UNL A   1      52.934  27.688  31.862  1.00  0.00    -0.237 OA
ATOM     66  O   UNL A   1      52.477  25.263  31.959  1.00  0.00    -0.237 OA
ATOM     67  O   UNL A   1      53.077  26.319  29.815  1.00  0.00    -0.744 OA
ENDBRANCH  63  64
ENDBRANCH  37  58
ENDBRANCH  11  12
ENDBRANCH   4   6
ENDBRANCH   1   2
BRANCH   1  68
ATOM     68  C   UNL A   1      32.448  27.685  26.852  1.00  0.00     0.042 C 
BRANCH  68  69
ATOM     69  C   UNL A   1      32.000  27.990  25.429  1.00  0.00     0.117 C 
BRANCH  69  70
ATOM     70  N   UNL A   1      31.252  26.878  24.879  1.00  0.00    -0.356 N 
ATOM     71  C   UNL A   1      31.462  26.194  23.723  1.00  0.00     0.224 C 
ATOM     72  H   UNL A   1      30.485  26.575  25.417  1.00  0.00     0.163 HD
ATOM     73  O   UNL A   1      30.548  25.480  23.310  1.00  0.00    -0.275 OA
BRANCH  71  74
ATOM     74  C   UNL A   1      32.805  26.337  23.009  1.00  0.00     0.098 C 
ATOM     75  C   UNL A   1      32.845  25.572  21.683  1.00  0.00     0.017 C 
ATOM     76  C   UNL A   1      33.944  25.856  23.917  1.00  0.00     0.134 C 
ATOM     77  C   UNL A   1      32.858  24.063  21.885  1.00  0.00     0.022 C 
ATOM     78  N   UNL A   1      33.879  24.413  24.160  1.00  0.00    -0.324 N 
ATOM     79  C   UNL A   1      33.859  23.600  22.938  1.00  0.00     0.121 C 
BRANCH  78  80
ATOM     80  C   UNL A   1      33.721  23.993  25.466  1.00  0.00     0.321 C 
ATOM     81  O   UNL A   1      32.737  24.317  26.141  1.00  0.00    -0.248 OA
ATOM     82  N   UNL A   1      34.574  23.106  26.041  1.00  0.00    -0.308 N 
ATOM     83  H   UNL A   1      34.169  22.569  26.760  1.00  0.00     0.171 HD
BRANCH  82  84
ATOM     84  C   UNL A   1      35.920  22.813  25.805  1.00  0.00     0.042 A 
ATOM     85  C   UNL A   1      36.856  23.797  26.126  1.00  0.00     0.026 A 
ATOM     86  C   UNL A   1      36.345  21.566  25.341  1.00  0.00     0.026 A 
ATOM     87  C   UNL A   1      38.215  23.484  26.127  1.00  0.00     0.002 A 
ATOM     88  C   UNL A   1      37.706  21.260  25.326  1.00  0.00     0.002 A 
ATOM     89  C   UNL A   1      38.637  22.209  25.749  1.00  0.00     0.000 A 
ENDBRANCH  82  84
ENDBRANCH  78  80
ENDBRANCH  71  74
ENDBRANCH  69  70
ENDBRANCH  68  69
ENDBRANCH   1  68
TORSDOF 15
ENDMDL
MODEL 2
REMARK VINA RESULT:     -10.5      1.797      8.633
REMARK SMILES O=C(NCCCNC(=O)[C@@H]1CCCN(C(=O)Nc2ccccc2)C1)c1ccc(-c2c3nc(c(-c4ccc(S(=O)(=O)[O-])cc4)c4ccc([nH]4)c(-c4ccc(S(=O)(=O)[O-])cc4)c4nc(c(-c5ccc(S(=O)(=O)[O-])cc5)c5ccc2[nH]5)C=C4)C=C3)cc1
REMARK SMILES IDX 4 1 3 2 1 3 2 4 25 6 26 7 84 8 27 9 83 10 28 11 29 12 30 13
REMARK SMILES IDX 77 14 31 15 82 16 76 17 78 18 32 19 81 20 75 21 74 22 33 24
REMARK SMILES IDX 63 25 44 26 62 27 45 28 48 29 61 30 79 31 46 32 47 33 60 35
REMARK SMILES IDX 80 36 49 37 34 38 35 39 43 40 36 41 42 42 37 43 38 44 39 45
REMARK SMILES IDX 40 46 41 47 64 48 65 49 73 50 66 51 72 52 67 53 68 54 69 55
REMARK SMILES IDX 70 56 71 57 50 58 51 59 59 60 52 61 58 62 53 63 54 64 55 65
REMARK SMILES IDX 56 66 57 67 5 68 6 69 7 70 8 71 9 73 10 74 11 75 24 76 12 77
REMARK SMILES IDX 14 78 13 79 15 80 16 81 17 82 18 84 19 85 23 86 20 87 22 88
REMARK SMILES IDX 21 89
REMARK H PARENT 3 5 78 23 48 34 7 72 17 83
REMARK Flexibility Score: inf
ROOT
ATOM      1  C   UNL A   1      34.028  28.108  26.671  1.00  0.00     0.118 C 
ENDROOT
BRANCH   1   2
ATOM      2  N   UNL A   1      33.757  29.483  27.071  1.00  0.00    -0.352 N 
ATOM      3  O   UNL A   1      34.036  31.386  28.243  1.00  0.00    -0.269 OA
ATOM      4  C   UNL A   1      34.519  30.334  27.831  1.00  0.00     0.251 C 
ATOM      5  H   UNL A   1      32.906  29.856  26.748  1.00  0.00     0.163 HD
BRANCH   4   6
ATOM      6  C   UNL A   1      35.913  29.974  28.161  1.00  0.00     0.039 A 
ATOM      7  C   UNL A   1      36.926  30.139  27.214  1.00  0.00     0.014 A 
ATOM      8  C   UNL A   1      36.213  29.487  29.436  1.00  0.00     0.014 A 
ATOM      9  C   UNL A   1      38.211  29.695  27.494  1.00  0.00     0.010 A 
ATOM     10  C   UNL A   1      37.528  29.130  29.748  1.00  0.00     0.010 A 
ATOM     11  C   UNL A   1      38.533  29.216  28.774  1.00  0.00    -0.014 A 
BRANCH  11  12
ATOM     12  C   UNL A   1      39.951  28.917  29.092  1.00  0.00     0.031 A 
ATOM     13  C   UNL A   1      40.832  29.926  29.770  1.00  0.00     0.074 A 
ATOM     14  C   UNL A   1      40.428  27.697  28.772  1.00  0.00     0.049 A 
ATOM     15  N   UNL A   1      42.086  29.806  30.130  1.00  0.00    -0.248 NA
ATOM     16  C   UNL A   1      40.244  31.239  30.083  1.00  0.00     0.031 C 
ATOM     17  C   UNL A   1      39.661  26.643  28.097  1.00  0.00     0.029 A 
ATOM     18  N   UNL A   1      41.656  27.126  28.981  1.00  0.00    -0.354 N 
ATOM     19  C   UNL A   1      42.443  31.026  30.690  1.00  0.00     0.074 A 
ATOM     20  C   UNL A   1      41.279  31.882  30.610  1.00  0.00     0.031 C 
ATOM     21  C   UNL A   1      40.420  25.543  27.991  1.00  0.00     0.029 A 
ATOM     22  C   UNL A   1      41.745  25.833  28.523  1.00  0.00     0.049 A 
ATOM     23  H   UNL A   1      42.402  27.597  29.417  1.00  0.00     0.167 HD
ATOM     24  C   UNL A   1      43.634  31.393  31.220  1.00  0.00     0.031 A 
ATOM     25  C   UNL A   1      42.784  24.978  28.504  1.00  0.00     0.031 A 
ATOM     26  C   UNL A   1      44.784  30.528  31.298  1.00  0.00     0.049 A 
ATOM     27  C   UNL A   1      44.098  25.427  29.075  1.00  0.00     0.074 A 
ATOM     28  C   UNL A   1      46.021  30.795  31.860  1.00  0.00     0.029 A 
ATOM     29  N   UNL A   1      44.845  29.237  30.796  1.00  0.00    -0.354 N 
ATOM     30  N   UNL A   1      44.398  26.569  29.646  1.00  0.00    -0.248 NA
ATOM     31  C   UNL A   1      45.212  24.475  28.998  1.00  0.00     0.031 C 
ATOM     32  C   UNL A   1      46.847  29.687  31.645  1.00  0.00     0.029 A 
ATOM     33  C   UNL A   1      46.108  28.707  31.006  1.00  0.00     0.049 A 
ATOM     34  H   UNL A   1      44.101  28.767  30.356  1.00  0.00     0.167 HD
ATOM     35  C   UNL A   1      45.734  26.466  30.009  1.00  0.00     0.074 A 
ATOM     36  C   UNL A   1      46.174  25.142  29.619  1.00  0.00     0.031 C 
ATOM     37  C   UNL A   1      46.529  27.388  30.606  1.00  0.00     0.031 A 
BRANCH  24  38
ATOM     38  C   UNL A   1      43.779  32.798  31.745  1.00  0.00    -0.014 A 
ATOM     39  C   UNL A   1      44.167  33.855  30.904  1.00  0.00     0.010 A 
ATOM     40  C   UNL A   1      43.423  33.080  33.077  1.00  0.00     0.010 A 
ATOM     41  C   UNL A   1      44.206  35.166  31.389  1.00  0.00     0.020 A 
ATOM     42  C   UNL A   1      43.440  34.391  33.560  1.00  0.00     0.020 A 
ATOM     43  C   UNL A   1      43.839  35.427  32.713  1.00  0.00     0.054 A 
BRANCH  43  44
ATOM     44  S   UNL A   1      43.840  37.146  33.294  1.00  0.00     0.124 S 
ATOM     45  O   UNL A   1      43.809  37.889  32.037  1.00  0.00    -0.237 OA
ATOM     46  O   UNL A   1      42.620  37.214  34.093  1.00  0.00    -0.237 OA
ATOM     47  O   UNL A   1      45.085  37.256  34.051  1.00  0.00    -0.744 OA
ENDBRANCH  43  44
ENDBRANCH  24  38
BRANCH  25  48
ATOM     48  C   UNL A   1      42.632  23.633  27.889  1.00  0.00    -0.014 A 
ATOM     49  C   UNL A   1      42.178  22.540  28.645  1.00  0.00     0.010 A 
ATOM     50  C   UNL A   1      42.946  23.441  26.530  1.00  0.00     0.010 A 
ATOM     51  C   UNL A   1      42.074  21.273  28.064  1.00  0.00     0.020 A 
ATOM     52  C   UNL A   1      42.810  22.185  25.936  1.00  0.00     0.020 A 
ATOM     53  C   UNL A   1      42.394  21.104  26.714  1.00  0.00     0.054 A 
BRANCH  53  54
ATOM     54  S   UNL A   1      42.236  19.456  25.972  1.00  0.00     0.124 S 
ATOM     55  O   UNL A   1      43.114  19.562  24.813  1.00  0.00    -0.237 OA
ATOM     56  O   UNL A   1      42.703  18.580  27.044  1.00  0.00    -0.237 OA
ATOM     57  O   UNL A   1      40.809  19.353  25.673  1.00  0.00    -0.744 OA
ENDBRANCH  53  54
ENDBRANCH  25  48
BRANCH  37  58
ATOM     58  C   UNL A   1      47.948  26.982  30.896  1.00  0.00    -0.014 A 
ATOM     59  C   UNL A   1      48.990  27.302  30.009  1.00  0.00     0.010 A 
ATOM     60  C   UNL A   1      48.246  26.302  32.090  1.00  0.00     0.010 A 
ATOM     61  C   UNL A   1      50.302  26.916  30.293  1.00  0.00     0.020 A 
ATOM     62  C   UNL A   1      49.560  25.940  32.393  1.00  0.00     0.020 A 
ATOM     63  C   UNL A   1      50.578  26.236  31.484  1.00  0.00     0.054 A 
BRANCH  63  64
ATOM     64  S   UNL A   1      52.294  25.777  31.848  1.00  0.00     0.124 S 
ATOM     65  O   UNL A   1      52.636  26.704  32.923  1.00  0.00    -0.237 OA
ATOM     66  O   UNL A   1      52.175  24.376  32.241  1.00  0.00    -0.237 OA
ATOM     67  O   UNL A   1      52.989  26.007  30.583  1.00  0.00    -0.744 OA
ENDBRANCH  63  64
ENDBRANCH  37  58
ENDBRANCH  11  12
ENDBRANCH   4   6
ENDBRANCH   1   2
BRANCH   1  68
ATOM     68  C   UNL A   1      32.844  27.469  25.956  1.00  0.00     0.042 C 
BRANCH  68  69
ATOM     69  C   UNL A   1      32.815  25.951  26.079  1.00  0.00     0.117 C 
BRANCH  69  70
ATOM     70  N   UNL A   1      33.313  25.331  24.867  1.00  0.00    -0.356 N 
ATOM     71  C   UNL A   1      34.217  24.325  24.730  1.00  0.00     0.224 C 
ATOM     72  H   UNL A   1      32.944  25.688  24.027  1.00  0.00     0.163 HD
ATOM     73  O   UNL A   1      34.705  24.149  23.614  1.00  0.00    -0.275 OA
BRANCH  71  74
ATOM     74  C   UNL A   1      34.569  23.473  25.947  1.00  0.00     0.098 C 
ATOM     75  C   UNL A   1      36.010  22.956  25.900  1.00  0.00     0.017 C 
ATOM     76  C   UNL A   1      33.601  22.289  26.067  1.00  0.00     0.134 C 
ATOM     77  C   UNL A   1      36.212  21.901  24.821  1.00  0.00     0.022 C 
ATOM     78  N   UNL A   1      33.763  21.335  24.967  1.00  0.00    -0.324 N 
ATOM     79  C   UNL A   1      35.131  20.826  24.814  1.00  0.00     0.121 C 
BRANCH  78  80
ATOM     80  C   UNL A   1      32.676  21.121  24.143  1.00  0.00     0.321 C 
ATOM     81  O   UNL A   1      31.939  22.046  23.781  1.00  0.00    -0.248 OA
ATOM     82  N   UNL A   1      32.426  19.906  23.589  1.00  0.00    -0.308 N 
ATOM     83  H   UNL A   1      31.933  19.948  22.738  1.00  0.00     0.171 HD
BRANCH  82  84
ATOM     84  C   UNL A   1      32.735  18.607  24.000  1.00  0.00     0.042 A 
ATOM     85  C   UNL A   1      33.380  17.780  23.080  1.00  0.00     0.026 A 
ATOM     86  C   UNL A   1      32.488  18.153  25.299  1.00  0.00     0.026 A 
ATOM     87  C   UNL A   1      33.912  16.562  23.501  1.00  0.00     0.002 A 
ATOM     88  C   UNL A   1      33.007  16.927  25.712  1.00  0.00     0.002 A 
ATOM     89  C   UNL A   1      33.745  16.147  24.822  1.00  0.00     0.000 A 
ENDBRANCH  82  84
ENDBRANCH  78  80
ENDBRANCH  71  74
ENDBRANCH  69  70
ENDBRANCH  68  69
ENDBRANCH   1  68
TORSDOF 15
ENDMDL
MODEL 3
REMARK VINA RESULT:     -10.5      2.481      9.139
REMARK SMILES O=C(NCCCNC(=O)[C@@H]1CCCN(C(=O)Nc2ccccc2)C1)c1ccc(-c2c3nc(c(-c4ccc(S(=O)(=O)[O-])cc4)c4ccc([nH]4)c(-c4ccc(S(=O)(=O)[O-])cc4)c4nc(c(-c5ccc(S(=O)(=O)[O-])cc5)c5ccc2[nH]5)C=C4)C=C3)cc1
REMARK SMILES IDX 4 1 3 2 1 3 2 4 25 6 26 7 84 8 27 9 83 10 28 11 29 12 30 13
REMARK SMILES IDX 77 14 31 15 82 16 76 17 78 18 32 19 81 20 75 21 74 22 33 24
REMARK SMILES IDX 63 25 44 26 62 27 45 28 48 29 61 30 79 31 46 32 47 33 60 35
REMARK SMILES IDX 80 36 49 37 34 38 35 39 43 40 36 41 42 42 37 43 38 44 39 45
REMARK SMILES IDX 40 46 41 47 64 48 65 49 73 50 66 51 72 52 67 53 68 54 69 55
REMARK SMILES IDX 70 56 71 57 50 58 51 59 59 60 52 61 58 62 53 63 54 64 55 65
REMARK SMILES IDX 56 66 57 67 5 68 6 69 7 70 8 71 9 73 10 74 11 75 24 76 12 77
REMARK SMILES IDX 14 78 13 79 15 80 16 81 17 82 18 84 19 85 23 86 20 87 22 88
REMARK SMILES IDX 21 89
REMARK H PARENT 3 5 78 23 48 34 7 72 17 83
REMARK Flexibility Score: inf
ROOT
ATOM      1  C   UNL A   1      36.680  23.835  25.347  1.00  0.00     0.118 C 
ENDROOT
BRANCH   1   2
ATOM      2  N   UNL A   1      37.664  22.784  25.569  1.00  0.00    -0.352 N 
ATOM      3  O   UNL A   1      39.693  21.916  26.024  1.00  0.00    -0.269 OA
ATOM      4  C   UNL A   1      38.923  22.870  26.109  1.00  0.00     0.251 C 
ATOM      5  H   UNL A   1      37.387  21.881  25.292  1.00  0.00     0.163 HD
BRANCH   4   6
ATOM      6  C   UNL A   1      39.349  24.115  26.780  1.00  0.00     0.039 A 
ATOM      7  C   UNL A   1      39.034  24.335  28.122  1.00  0.00     0.014 A 
ATOM      8  C   UNL A   1      40.088  25.061  26.066  1.00  0.00     0.014 A 
ATOM      9  C   UNL A   1      39.342  25.553  28.712  1.00  0.00     0.010 A 
ATOM     10  C   UNL A   1      40.481  26.248  26.691  1.00  0.00     0.010 A 
ATOM     11  C   UNL A   1      40.096  26.510  28.013  1.00  0.00    -0.014 A 
BRANCH  11  12
ATOM     12  C   UNL A   1      40.558  27.724  28.731  1.00  0.00     0.031 A 
ATOM     13  C   UNL A   1      39.647  28.896  28.956  1.00  0.00     0.074 A 
ATOM     14  C   UNL A   1      41.822  27.738  29.199  1.00  0.00     0.049 A 
ATOM     15  N   UNL A   1      39.901  30.019  29.580  1.00  0.00    -0.248 NA
ATOM     16  C   UNL A   1      38.283  28.811  28.411  1.00  0.00     0.031 C 
ATOM     17  C   UNL A   1      42.799  26.657  29.024  1.00  0.00     0.029 A 
ATOM     18  N   UNL A   1      42.502  28.679  29.927  1.00  0.00    -0.354 N 
ATOM     19  C   UNL A   1      38.741  30.780  29.487  1.00  0.00     0.074 A 
ATOM     20  C   UNL A   1      37.786  29.998  28.731  1.00  0.00     0.031 C 
ATOM     21  C   UNL A   1      43.931  26.975  29.667  1.00  0.00     0.029 A 
ATOM     22  C   UNL A   1      43.789  28.308  30.237  1.00  0.00     0.049 A 
ATOM     23  H   UNL A   1      42.107  29.538  30.202  1.00  0.00     0.167 HD
ATOM     24  C   UNL A   1      38.503  32.016  29.987  1.00  0.00     0.031 A 
ATOM     25  C   UNL A   1      44.763  28.974  30.884  1.00  0.00     0.031 A 
ATOM     26  C   UNL A   1      39.463  32.780  30.743  1.00  0.00     0.049 A 
ATOM     27  C   UNL A   1      44.473  30.353  31.401  1.00  0.00     0.074 A 
ATOM     28  C   UNL A   1      39.297  34.023  31.332  1.00  0.00     0.029 A 
ATOM     29  N   UNL A   1      40.764  32.384  31.010  1.00  0.00    -0.354 N 
ATOM     30  N   UNL A   1      43.353  31.032  31.346  1.00  0.00    -0.248 NA
ATOM     31  C   UNL A   1      45.577  31.055  32.066  1.00  0.00     0.031 C 
ATOM     32  C   UNL A   1      40.515  34.403  31.902  1.00  0.00     0.029 A 
ATOM     33  C   UNL A   1      41.422  33.372  31.725  1.00  0.00     0.049 A 
ATOM     34  H   UNL A   1      41.161  31.528  30.732  1.00  0.00     0.167 HD
ATOM     35  C   UNL A   1      43.613  32.239  31.982  1.00  0.00     0.074 A 
ATOM     36  C   UNL A   1      44.987  32.183  32.438  1.00  0.00     0.031 C 
ATOM     37  C   UNL A   1      42.792  33.300  32.166  1.00  0.00     0.031 A 
BRANCH  24  38
ATOM     38  C   UNL A   1      37.159  32.644  29.724  1.00  0.00    -0.014 A 
ATOM     39  C   UNL A   1      36.153  32.655  30.706  1.00  0.00     0.010 A 
ATOM     40  C   UNL A   1      36.937  33.323  28.511  1.00  0.00     0.010 A 
ATOM     41  C   UNL A   1      34.947  33.324  30.475  1.00  0.00     0.020 A 
ATOM     42  C   UNL A   1      35.741  34.010  28.284  1.00  0.00     0.020 A 
ATOM     43  C   UNL A   1      34.750  34.000  29.267  1.00  0.00     0.054 A 
BRANCH  43  44
ATOM     44  S   UNL A   1      33.199  34.911  29.022  1.00  0.00     0.124 S 
ATOM     45  O   UNL A   1      32.614  34.874  30.360  1.00  0.00    -0.237 OA
ATOM     46  O   UNL A   1      33.665  36.221  28.578  1.00  0.00    -0.237 OA
ATOM     47  O   UNL A   1      32.492  34.128  28.011  1.00  0.00    -0.744 OA
ENDBRANCH  43  44
ENDBRANCH  24  38
BRANCH  25  48
ATOM     48  C   UNL A   1      46.109  28.362  31.039  1.00  0.00    -0.014 A 
ATOM     49  C   UNL A   1      47.095  28.527  30.052  1.00  0.00     0.010 A 
ATOM     50  C   UNL A   1      46.410  27.602  32.186  1.00  0.00     0.010 A 
ATOM     51  C   UNL A   1      48.345  27.915  30.192  1.00  0.00     0.020 A 
ATOM     52  C   UNL A   1      47.667  27.019  32.347  1.00  0.00     0.020 A 
ATOM     53  C   UNL A   1      48.621  27.162  31.338  1.00  0.00     0.054 A 
BRANCH  53  54
ATOM     54  S   UNL A   1      50.254  26.392  31.511  1.00  0.00     0.124 S 
ATOM     55  O   UNL A   1      50.990  26.999  30.408  1.00  0.00    -0.237 OA
ATOM     56  O   UNL A   1      50.660  26.808  32.851  1.00  0.00    -0.237 OA
ATOM     57  O   UNL A   1      49.974  24.965  31.369  1.00  0.00    -0.744 OA
ENDBRANCH  53  54
ENDBRANCH  25  48
BRANCH  37  58
ATOM     58  C   UNL A   1      43.354  34.477  32.916  1.00  0.00    -0.014 A 
ATOM     59  C   UNL A   1      43.889  35.584  32.235  1.00  0.00     0.010 A 
ATOM     60  C   UNL A   1      43.311  34.490  34.322  1.00  0.00     0.010 A 
ATOM     61  C   UNL A   1      44.408  36.667  32.947  1.00  0.00     0.020 A 
ATOM     62  C   UNL A   1      43.801  35.584  35.037  1.00  0.00     0.020 A 
ATOM     63  C   UNL A   1      44.362  36.660  34.345  1.00  0.00     0.054 A 
BRANCH  63  64
ATOM     64  S   UNL A   1      45.009  38.094  35.247  1.00  0.00     0.124 S 
ATOM     65  O   UNL A   1      46.266  37.576  35.780  1.00  0.00    -0.237 OA
ATOM     66  O   UNL A   1      45.139  39.100  34.197  1.00  0.00    -0.237 OA
ATOM     67  O   UNL A   1      43.976  38.370  36.244  1.00  0.00    -0.744 OA
ENDBRANCH  63  64
ENDBRANCH  37  58
ENDBRANCH  11  12
ENDBRANCH   4   6
ENDBRANCH   1   2
BRANCH   1  68
ATOM     68  C   UNL A   1      35.790  23.550  24.144  1.00  0.00     0.042 C 
BRANCH  68  69
ATOM     69  C   UNL A   1      34.754  22.464  24.405  1.00  0.00     0.117 C 
BRANCH  69  70
ATOM     70  N   UNL A   1      33.481  22.819  23.813  1.00  0.00    -0.356 N 
ATOM     71  C   UNL A   1      32.310  23.138  24.427  1.00  0.00     0.224 C 
ATOM     72  H   UNL A   1      33.460  22.832  22.828  1.00  0.00     0.163 HD
ATOM     73  O   UNL A   1      31.288  23.127  23.742  1.00  0.00    -0.275 OA
BRANCH  71  74
ATOM     74  C   UNL A   1      32.325  23.496  25.911  1.00  0.00     0.098 C 
ATOM     75  C   UNL A   1      30.914  23.632  26.492  1.00  0.00     0.017 C 
ATOM     76  C   UNL A   1      33.103  24.799  26.138  1.00  0.00     0.134 C 
ATOM     77  C   UNL A   1      30.189  24.864  25.972  1.00  0.00     0.022 C 
ATOM     78  N   UNL A   1      32.420  25.954  25.551  1.00  0.00    -0.324 N 
ATOM     79  C   UNL A   1      31.038  26.131  26.013  1.00  0.00     0.121 C 
BRANCH  78  80
ATOM     80  C   UNL A   1      33.086  26.654  24.564  1.00  0.00     0.321 C 
ATOM     81  O   UNL A   1      33.501  26.102  23.538  1.00  0.00    -0.248 OA
ATOM     82  N   UNL A   1      33.217  28.005  24.610  1.00  0.00    -0.308 N 
ATOM     83  H   UNL A   1      33.306  28.429  23.726  1.00  0.00     0.171 HD
BRANCH  82  84
ATOM     84  C   UNL A   1      33.250  28.908  25.676  1.00  0.00     0.042 A 
ATOM     85  C   UNL A   1      34.391  28.909  26.481  1.00  0.00     0.026 A 
ATOM     86  C   UNL A   1      32.231  29.836  25.905  1.00  0.00     0.026 A 
ATOM     87  C   UNL A   1      34.580  29.930  27.411  1.00  0.00     0.002 A 
ATOM     88  C   UNL A   1      32.415  30.846  26.849  1.00  0.00     0.002 A 
ATOM     89  C   UNL A   1      33.602  30.910  27.578  1.00  0.00     0.000 A 
ENDBRANCH  82  84
ENDBRANCH  78  80
ENDBRANCH  71  74
ENDBRANCH  69  70
ENDBRANCH  68  69
ENDBRANCH   1  68
TORSDOF 15
ENDMDL
