MODEL 1
REMARK VINA RESULT:     -11.4      0.000      0.000
REMARK SMILES CC(C)CCOc1ccc(C(=O)N2CCC[C@H](C(=O)NCCCNC(=O)c3ccc(-c4c5nc(c(-c6ccc(S(=O)(=O)[O-])cc6)c6ccc([nH]6)c(-c6ccc(S(=O)(=O)[O-])cc6)c6nc(c(-c7ccc(S(=O)(=O)[O-])cc7)c7ccc4[nH]7)C=C6)C=C5)cc3)C2)cc1
REMARK SMILES IDX 18 1 19 2 20 3 17 5 13 6 14 7 87 8 15 9 16 10 11 11 12 12
REMARK SMILES IDX 10 13 7 14 8 15 89 16 9 17 88 18 6 19 5 20 4 21 2 22 1 23
REMARK SMILES IDX 3 24 21 25 22 26 23 27 24 28 25 29 26 31 27 32 28 33 86 34
REMARK SMILES IDX 29 35 85 36 30 37 31 38 32 39 79 40 33 41 84 42 78 43 80 44
REMARK SMILES IDX 34 45 83 46 77 47 76 48 35 50 65 51 46 52 64 53 47 54 50 55
REMARK SMILES IDX 63 56 81 57 48 58 49 59 62 61 82 62 51 63 36 64 37 65 45 66
REMARK SMILES IDX 38 67 44 68 39 69 40 70 41 71 42 72 43 73 66 74 67 75 75 76
REMARK SMILES IDX 68 77 74 78 69 79 70 80 71 81 72 82 73 83 52 84 53 85 61 86
REMARK SMILES IDX 54 87 60 88 55 89 56 90 57 91 58 92 59 93
REMARK H PARENT 20 4 24 30 80 49 50 60
REMARK Flexibility Score: inf
ROOT
ATOM      1  C   UNL A   1      31.755  24.171  26.812  1.00  0.00     0.224 C 
ATOM      2  O   UNL A   1      30.849  23.605  27.436  1.00  0.00    -0.275 OA
ATOM      3  N   UNL A   1      31.587  25.495  26.568  1.00  0.00    -0.356 N 
ATOM      4  H   UNL A   1      30.694  25.844  26.795  1.00  0.00     0.163 HD
ENDROOT
BRANCH   1   5
ATOM      5  C   UNL A   1      32.974  23.359  26.363  1.00  0.00     0.098 C 
ATOM      6  N   UNL A   1      33.321  23.122  23.876  1.00  0.00    -0.338 N 
ATOM      7  C   UNL A   1      33.312  21.663  23.975  1.00  0.00     0.120 C 
ATOM      8  C   UNL A   1      33.651  23.865  25.089  1.00  0.00     0.133 C 
ATOM      9  C   UNL A   1      32.487  21.142  25.143  1.00  0.00     0.022 C 
ATOM     10  C   UNL A   1      32.811  21.840  26.456  1.00  0.00     0.017 C 
BRANCH   6  11
ATOM     11  C   UNL A   1      32.932  23.699  22.663  1.00  0.00     0.253 C 
ATOM     12  O   UNL A   1      33.538  23.437  21.621  1.00  0.00    -0.269 OA
BRANCH  11  13
ATOM     13  C   UNL A   1      31.862  24.746  22.592  1.00  0.00     0.040 A 
ATOM     14  C   UNL A   1      30.360  27.015  23.164  1.00  0.00     0.119 A 
ATOM     15  C   UNL A   1      31.489  27.141  22.365  1.00  0.00     0.047 A 
ATOM     16  C   UNL A   1      29.847  25.765  23.484  1.00  0.00     0.047 A 
ATOM     17  C   UNL A   1      32.235  25.999  22.069  1.00  0.00     0.017 A 
ATOM     18  C   UNL A   1      30.628  24.635  23.246  1.00  0.00     0.017 A 
BRANCH  14  19
ATOM     19  O   UNL A   1      29.813  28.105  23.782  1.00  0.00    -0.494 OA
BRANCH  19  20
ATOM     20  C   UNL A   1      30.163  29.318  23.068  1.00  0.00     0.230 C 
BRANCH  20  21
ATOM     21  C   UNL A   1      29.041  29.816  22.132  1.00  0.00     0.044 C 
BRANCH  21  22
ATOM     22  C   UNL A   1      28.680  31.314  22.277  1.00  0.00    -0.014 C 
ATOM     23  C   UNL A   1      28.139  31.922  20.984  1.00  0.00     0.007 C 
ATOM     24  C   UNL A   1      27.675  31.518  23.414  1.00  0.00     0.007 C 
ENDBRANCH  21  22
ENDBRANCH  20  21
ENDBRANCH  19  20
ENDBRANCH  14  19
ENDBRANCH  11  13
ENDBRANCH   6  11
ENDBRANCH   1   5
BRANCH   3  25
ATOM     25  C   UNL A   1      32.502  26.474  26.031  1.00  0.00     0.117 C 
BRANCH  25  26
ATOM     26  C   UNL A   1      32.399  27.834  26.695  1.00  0.00     0.042 C 
BRANCH  26  27
ATOM     27  C   UNL A   1      33.749  28.487  26.911  1.00  0.00     0.118 C 
BRANCH  27  28
ATOM     28  N   UNL A   1      33.644  29.823  27.491  1.00  0.00    -0.352 N 
ATOM     29  C   UNL A   1      34.551  30.556  28.222  1.00  0.00     0.251 C 
ATOM     30  H   UNL A   1      32.782  30.273  27.335  1.00  0.00     0.163 HD
ATOM     31  O   UNL A   1      34.213  31.620  28.718  1.00  0.00    -0.269 OA
BRANCH  29  32
ATOM     32  C   UNL A   1      35.921  30.038  28.433  1.00  0.00     0.039 A 
ATOM     33  C   UNL A   1      36.839  30.107  27.382  1.00  0.00     0.014 A 
ATOM     34  C   UNL A   1      36.307  29.506  29.663  1.00  0.00     0.014 A 
ATOM     35  C   UNL A   1      38.163  29.716  27.594  1.00  0.00     0.010 A 
ATOM     36  C   UNL A   1      37.645  29.236  29.908  1.00  0.00     0.010 A 
ATOM     37  C   UNL A   1      38.587  29.320  28.873  1.00  0.00    -0.014 A 
BRANCH  37  38
ATOM     38  C   UNL A   1      39.997  28.954  29.156  1.00  0.00     0.031 A 
ATOM     39  C   UNL A   1      40.925  29.980  29.754  1.00  0.00     0.074 A 
ATOM     40  C   UNL A   1      40.462  27.740  28.801  1.00  0.00     0.049 A 
ATOM     41  N   UNL A   1      42.212  29.905  29.966  1.00  0.00    -0.248 NA
ATOM     42  C   UNL A   1      40.333  31.280  30.120  1.00  0.00     0.031 C 
ATOM     43  C   UNL A   1      39.677  26.680  28.163  1.00  0.00     0.029 A 
ATOM     44  N   UNL A   1      41.717  27.195  28.918  1.00  0.00    -0.354 N 
ATOM     45  C   UNL A   1      42.587  31.151  30.456  1.00  0.00     0.074 A 
ATOM     46  C   UNL A   1      41.405  31.982  30.451  1.00  0.00     0.031 C 
ATOM     47  C   UNL A   1      40.458  25.603  27.976  1.00  0.00     0.029 A 
ATOM     48  C   UNL A   1      41.807  25.910  28.437  1.00  0.00     0.049 A 
ATOM     49  H   UNL A   1      42.479  27.679  29.309  1.00  0.00     0.167 HD
ATOM     50  C   UNL A   1      43.799  31.561  30.900  1.00  0.00     0.031 A 
ATOM     51  C   UNL A   1      42.863  25.074  28.370  1.00  0.00     0.031 A 
ATOM     52  C   UNL A   1      44.961  30.716  30.939  1.00  0.00     0.049 A 
ATOM     53  C   UNL A   1      44.192  25.538  28.897  1.00  0.00     0.074 A 
ATOM     54  C   UNL A   1      46.220  31.008  31.428  1.00  0.00     0.029 A 
ATOM     55  N   UNL A   1      44.998  29.407  30.484  1.00  0.00    -0.354 N 
ATOM     56  N   UNL A   1      44.513  26.704  29.409  1.00  0.00    -0.248 NA
ATOM     57  C   UNL A   1      45.298  24.573  28.852  1.00  0.00     0.031 C 
ATOM     58  C   UNL A   1      47.033  29.887  31.233  1.00  0.00     0.029 A 
ATOM     59  C   UNL A   1      46.264  28.879  30.669  1.00  0.00     0.049 A 
ATOM     60  H   UNL A   1      44.238  28.924  30.087  1.00  0.00     0.167 HD
ATOM     61  C   UNL A   1      45.852  26.603  29.769  1.00  0.00     0.074 A 
ATOM     62  C   UNL A   1      46.274  25.258  29.432  1.00  0.00     0.031 C 
ATOM     63  C   UNL A   1      46.659  27.537  30.329  1.00  0.00     0.031 A 
BRANCH  50  64
ATOM     64  C   UNL A   1      43.917  32.982  31.383  1.00  0.00    -0.014 A 
ATOM     65  C   UNL A   1      43.706  33.308  32.737  1.00  0.00     0.010 A 
ATOM     66  C   UNL A   1      44.260  34.004  30.481  1.00  0.00     0.010 A 
ATOM     67  C   UNL A   1      43.786  34.634  33.167  1.00  0.00     0.020 A 
ATOM     68  C   UNL A   1      44.372  35.329  30.914  1.00  0.00     0.020 A 
ATOM     69  C   UNL A   1      44.113  35.637  32.251  1.00  0.00     0.054 A 
BRANCH  69  70
ATOM     70  S   UNL A   1      44.226  37.349  32.841  1.00  0.00     0.124 S 
ATOM     71  O   UNL A   1      43.153  37.397  33.831  1.00  0.00    -0.237 OA
ATOM     72  O   UNL A   1      45.582  37.413  33.383  1.00  0.00    -0.237 OA
ATOM     73  O   UNL A   1      44.002  38.146  31.638  1.00  0.00    -0.744 OA
ENDBRANCH  69  70
ENDBRANCH  50  64
BRANCH  51  74
ATOM     74  C   UNL A   1      42.694  23.708  27.804  1.00  0.00    -0.014 A 
ATOM     75  C   UNL A   1      42.799  23.493  26.418  1.00  0.00     0.010 A 
ATOM     76  C   UNL A   1      42.450  22.609  28.648  1.00  0.00     0.010 A 
ATOM     77  C   UNL A   1      42.643  22.210  25.885  1.00  0.00     0.020 A 
ATOM     78  C   UNL A   1      42.320  21.320  28.122  1.00  0.00     0.020 A 
ATOM     79  C   UNL A   1      42.406  21.131  26.742  1.00  0.00     0.054 A 
BRANCH  79  80
ATOM     80  S   UNL A   1      42.260  19.466  26.033  1.00  0.00     0.124 S 
ATOM     81  O   UNL A   1      42.687  18.624  27.145  1.00  0.00    -0.237 OA
ATOM     82  O   UNL A   1      40.842  19.391  25.691  1.00  0.00    -0.237 OA
ATOM     83  O   UNL A   1      43.167  19.502  24.888  1.00  0.00    -0.744 OA
ENDBRANCH  79  80
ENDBRANCH  51  74
BRANCH  63  84
ATOM     84  C   UNL A   1      48.072  27.129  30.644  1.00  0.00    -0.014 A 
ATOM     85  C   UNL A   1      49.098  27.265  29.693  1.00  0.00     0.010 A 
ATOM     86  C   UNL A   1      48.387  26.665  31.935  1.00  0.00     0.010 A 
ATOM     87  C   UNL A   1      50.411  26.916  30.018  1.00  0.00     0.020 A 
ATOM     88  C   UNL A   1      49.703  26.341  32.271  1.00  0.00     0.020 A 
ATOM     89  C   UNL A   1      50.704  26.456  31.306  1.00  0.00     0.054 A 
BRANCH  89  90
ATOM     90  S   UNL A   1      52.424  26.057  31.719  1.00  0.00     0.124 S 
ATOM     91  O   UNL A   1      53.129  26.460  30.505  1.00  0.00    -0.237 OA
ATOM     92  O   UNL A   1      52.673  26.888  32.896  1.00  0.00    -0.237 OA
ATOM     93  O   UNL A   1      52.395  24.619  31.975  1.00  0.00    -0.744 OA
ENDBRANCH  89  90
ENDBRANCH  63  84
ENDBRANCH  37  38
ENDBRANCH  29  32
ENDBRANCH  27  28
ENDBRANCH  26  27
ENDBRANCH  25  26
ENDBRANCH   3  25
TORSDOF 19
ENDMDL
MODEL 2
REMARK VINA RESULT:     -11.1      1.325      4.132
REMARK SMILES CC(C)CCOc1ccc(C(=O)N2CCC[C@H](C(=O)NCCCNC(=O)c3ccc(-c4c5nc(c(-c6ccc(S(=O)(=O)[O-])cc6)c6ccc([nH]6)c(-c6ccc(S(=O)(=O)[O-])cc6)c6nc(c(-c7ccc(S(=O)(=O)[O-])cc7)c7ccc4[nH]7)C=C6)C=C5)cc3)C2)cc1
REMARK SMILES IDX 18 1 19 2 20 3 17 5 13 6 14 7 87 8 15 9 16 10 11 11 12 12
REMARK SMILES IDX 10 13 7 14 8 15 89 16 9 17 88 18 6 19 5 20 4 21 2 22 1 23
REMARK SMILES IDX 3 24 21 25 22 26 23 27 24 28 25 29 26 31 27 32 28 33 86 34
REMARK SMILES IDX 29 35 85 36 30 37 31 38 32 39 79 40 33 41 84 42 78 43 80 44
REMARK SMILES IDX 34 45 83 46 77 47 76 48 35 50 65 51 46 52 64 53 47 54 50 55
REMARK SMILES IDX 63 56 81 57 48 58 49 59 62 61 82 62 51 63 36 64 37 65 45 66
REMARK SMILES IDX 38 67 44 68 39 69 40 70 41 71 42 72 43 73 66 74 67 75 75 76
REMARK SMILES IDX 68 77 74 78 69 79 70 80 71 81 72 82 73 83 52 84 53 85 61 86
REMARK SMILES IDX 54 87 60 88 55 89 56 90 57 91 58 92 59 93
REMARK H PARENT 20 4 24 30 80 49 50 60
REMARK Flexibility Score: inf
ROOT
ATOM      1  C   UNL A   1      30.141  25.688  25.840  1.00  0.00     0.224 C 
ATOM      2  O   UNL A   1      29.581  24.882  26.594  1.00  0.00    -0.275 OA
ATOM      3  N   UNL A   1      30.995  26.567  26.421  1.00  0.00    -0.356 N 
ATOM      4  H   UNL A   1      30.980  26.566  27.406  1.00  0.00     0.163 HD
ENDROOT
BRANCH   1   5
ATOM      5  C   UNL A   1      29.838  25.642  24.339  1.00  0.00     0.098 C 
ATOM      6  N   UNL A   1      31.823  25.687  22.784  1.00  0.00    -0.338 N 
ATOM      7  C   UNL A   1      31.308  26.872  22.099  1.00  0.00     0.120 C 
ATOM      8  C   UNL A   1      30.853  24.864  23.502  1.00  0.00     0.133 C 
ATOM      9  C   UNL A   1      30.436  27.751  22.985  1.00  0.00     0.022 C 
ATOM     10  C   UNL A   1      29.368  26.965  23.731  1.00  0.00     0.017 C 
BRANCH   6  11
ATOM     11  C   UNL A   1      33.206  25.476  22.777  1.00  0.00     0.253 C 
ATOM     12  O   UNL A   1      33.921  26.036  21.943  1.00  0.00    -0.269 OA
BRANCH  11  13
ATOM     13  C   UNL A   1      33.857  24.476  23.684  1.00  0.00     0.040 A 
ATOM     14  C   UNL A   1      34.331  22.140  25.114  1.00  0.00     0.119 A 
ATOM     15  C   UNL A   1      34.711  22.198  23.780  1.00  0.00     0.047 A 
ATOM     16  C   UNL A   1      33.938  23.284  25.796  1.00  0.00     0.047 A 
ATOM     17  C   UNL A   1      34.484  23.376  23.067  1.00  0.00     0.017 A 
ATOM     18  C   UNL A   1      33.648  24.436  25.068  1.00  0.00     0.017 A 
BRANCH  14  19
ATOM     19  O   UNL A   1      34.184  20.937  25.751  1.00  0.00    -0.494 OA
BRANCH  19  20
ATOM     20  C   UNL A   1      33.699  19.933  24.824  1.00  0.00     0.230 C 
BRANCH  20  21
ATOM     21  C   UNL A   1      34.677  18.753  24.641  1.00  0.00     0.044 C 
BRANCH  21  22
ATOM     22  C   UNL A   1      34.010  17.373  24.420  1.00  0.00    -0.014 C 
ATOM     23  C   UNL A   1      33.957  16.970  22.948  1.00  0.00     0.007 C 
ATOM     24  C   UNL A   1      34.727  16.293  25.236  1.00  0.00     0.007 C 
ENDBRANCH  21  22
ENDBRANCH  20  21
ENDBRANCH  19  20
ENDBRANCH  14  19
ENDBRANCH  11  13
ENDBRANCH   6  11
ENDBRANCH   1   5
BRANCH   3  25
ATOM     25  C   UNL A   1      31.922  27.504  25.831  1.00  0.00     0.117 C 
BRANCH  25  26
ATOM     26  C   UNL A   1      33.187  27.703  26.643  1.00  0.00     0.042 C 
BRANCH  26  27
ATOM     27  C   UNL A   1      34.017  28.876  26.161  1.00  0.00     0.118 C 
BRANCH  27  28
ATOM     28  N   UNL A   1      33.812  30.080  26.962  1.00  0.00    -0.352 N 
ATOM     29  C   UNL A   1      34.609  30.667  27.918  1.00  0.00     0.251 C 
ATOM     30  H   UNL A   1      32.963  30.549  26.790  1.00  0.00     0.163 HD
ATOM     31  O   UNL A   1      34.190  31.619  28.558  1.00  0.00    -0.269 OA
BRANCH  29  32
ATOM     32  C   UNL A   1      35.958  30.122  28.191  1.00  0.00     0.039 A 
ATOM     33  C   UNL A   1      36.925  30.175  27.184  1.00  0.00     0.014 A 
ATOM     34  C   UNL A   1      36.276  29.581  29.436  1.00  0.00     0.014 A 
ATOM     35  C   UNL A   1      38.230  29.758  27.457  1.00  0.00     0.010 A 
ATOM     36  C   UNL A   1      37.596  29.285  29.743  1.00  0.00     0.010 A 
ATOM     37  C   UNL A   1      38.586  29.352  28.752  1.00  0.00    -0.014 A 
BRANCH  37  38
ATOM     38  C   UNL A   1      39.974  28.959  29.100  1.00  0.00     0.031 A 
ATOM     39  C   UNL A   1      40.891  29.964  29.750  1.00  0.00     0.074 A 
ATOM     40  C   UNL A   1      40.435  27.739  28.758  1.00  0.00     0.049 A 
ATOM     41  N   UNL A   1      42.165  29.863  30.023  1.00  0.00    -0.248 NA
ATOM     42  C   UNL A   1      40.305  31.271  30.098  1.00  0.00     0.031 C 
ATOM     43  C   UNL A   1      39.662  26.698  28.075  1.00  0.00     0.029 A 
ATOM     44  N   UNL A   1      41.672  27.170  28.931  1.00  0.00    -0.354 N 
ATOM     45  C   UNL A   1      42.537  31.099  30.541  1.00  0.00     0.074 A 
ATOM     46  C   UNL A   1      41.372  31.952  30.486  1.00  0.00     0.031 C 
ATOM     47  C   UNL A   1      40.432  25.609  27.916  1.00  0.00     0.029 A 
ATOM     48  C   UNL A   1      41.763  25.888  28.444  1.00  0.00     0.049 A 
ATOM     49  H   UNL A   1      42.424  27.638  29.362  1.00  0.00     0.167 HD
ATOM     50  C   UNL A   1      43.733  31.484  31.046  1.00  0.00     0.031 A 
ATOM     51  C   UNL A   1      42.805  25.033  28.422  1.00  0.00     0.031 A 
ATOM     52  C   UNL A   1      44.877  30.618  31.134  1.00  0.00     0.049 A 
ATOM     53  C   UNL A   1      44.116  25.470  29.016  1.00  0.00     0.074 A 
ATOM     54  C   UNL A   1      46.117  30.883  31.685  1.00  0.00     0.029 A 
ATOM     55  N   UNL A   1      44.913  29.311  30.670  1.00  0.00    -0.354 N 
ATOM     56  N   UNL A   1      44.432  26.625  29.552  1.00  0.00    -0.248 NA
ATOM     57  C   UNL A   1      45.205  24.485  29.016  1.00  0.00     0.031 C 
ATOM     58  C   UNL A   1      46.918  29.749  31.520  1.00  0.00     0.029 A 
ATOM     59  C   UNL A   1      46.159  28.760  30.912  1.00  0.00     0.049 A 
ATOM     60  H   UNL A   1      44.164  28.845  30.233  1.00  0.00     0.167 HD
ATOM     61  C   UNL A   1      45.751  26.497  29.975  1.00  0.00     0.074 A 
ATOM     62  C   UNL A   1      46.165  25.148  29.647  1.00  0.00     0.031 C 
ATOM     63  C   UNL A   1      46.546  27.413  30.580  1.00  0.00     0.031 A 
BRANCH  50  64
ATOM     64  C   UNL A   1      43.853  32.898  31.546  1.00  0.00    -0.014 A 
ATOM     65  C   UNL A   1      44.237  33.943  30.683  1.00  0.00     0.010 A 
ATOM     66  C   UNL A   1      43.564  33.196  32.889  1.00  0.00     0.010 A 
ATOM     67  C   UNL A   1      44.377  35.246  31.165  1.00  0.00     0.020 A 
ATOM     68  C   UNL A   1      43.673  34.504  33.369  1.00  0.00     0.020 A 
ATOM     69  C   UNL A   1      44.099  35.517  32.508  1.00  0.00     0.054 A 
BRANCH  69  70
ATOM     70  S   UNL A   1      44.274  37.222  33.105  1.00  0.00     0.124 S 
ATOM     71  O   UNL A   1      43.055  37.391  33.892  1.00  0.00    -0.237 OA
ATOM     72  O   UNL A   1      45.515  37.166  33.874  1.00  0.00    -0.237 OA
ATOM     73  O   UNL A   1      44.340  38.013  31.879  1.00  0.00    -0.744 OA
ENDBRANCH  69  70
ENDBRANCH  50  64
BRANCH  51  74
ATOM     74  C   UNL A   1      42.640  23.674  27.837  1.00  0.00    -0.014 A 
ATOM     75  C   UNL A   1      42.260  22.591  28.648  1.00  0.00     0.010 A 
ATOM     76  C   UNL A   1      42.842  23.460  26.461  1.00  0.00     0.010 A 
ATOM     77  C   UNL A   1      42.102  21.315  28.099  1.00  0.00     0.020 A 
ATOM     78  C   UNL A   1      42.660  22.191  25.903  1.00  0.00     0.020 A 
ATOM     79  C   UNL A   1      42.302  21.123  26.728  1.00  0.00     0.054 A 
BRANCH  79  80
ATOM     80  S   UNL A   1      42.041  19.469  26.028  1.00  0.00     0.124 S 
ATOM     81  O   UNL A   1      40.606  19.474  25.764  1.00  0.00    -0.237 OA
ATOM     82  O   UNL A   1      42.901  19.486  24.848  1.00  0.00    -0.237 OA
ATOM     83  O   UNL A   1      42.480  18.574  27.096  1.00  0.00    -0.744 OA
ENDBRANCH  79  80
ENDBRANCH  51  74
BRANCH  63  84
ATOM     84  C   UNL A   1      47.935  26.977  30.960  1.00  0.00    -0.014 A 
ATOM     85  C   UNL A   1      49.019  27.158  30.083  1.00  0.00     0.010 A 
ATOM     86  C   UNL A   1      48.166  26.440  32.240  1.00  0.00     0.010 A 
ATOM     87  C   UNL A   1      50.308  26.781  30.469  1.00  0.00     0.020 A 
ATOM     88  C   UNL A   1      49.457  26.088  32.639  1.00  0.00     0.020 A 
ATOM     89  C   UNL A   1      50.518  26.248  31.746  1.00  0.00     0.054 A 
BRANCH  89  90
ATOM     90  S   UNL A   1      52.207  25.814  32.243  1.00  0.00     0.124 S 
ATOM     91  O   UNL A   1      52.994  26.338  31.130  1.00  0.00    -0.237 OA
ATOM     92  O   UNL A   1      52.360  26.522  33.512  1.00  0.00    -0.237 OA
ATOM     93  O   UNL A   1      52.173  24.357  32.350  1.00  0.00    -0.744 OA
ENDBRANCH  89  90
ENDBRANCH  63  84
ENDBRANCH  37  38
ENDBRANCH  29  32
ENDBRANCH  27  28
ENDBRANCH  26  27
ENDBRANCH  25  26
ENDBRANCH   3  25
TORSDOF 19
ENDMDL
MODEL 3
REMARK VINA RESULT:     -11.0      2.773      4.739
REMARK SMILES CC(C)CCOc1ccc(C(=O)N2CCC[C@H](C(=O)NCCCNC(=O)c3ccc(-c4c5nc(c(-c6ccc(S(=O)(=O)[O-])cc6)c6ccc([nH]6)c(-c6ccc(S(=O)(=O)[O-])cc6)c6nc(c(-c7ccc(S(=O)(=O)[O-])cc7)c7ccc4[nH]7)C=C6)C=C5)cc3)C2)cc1
REMARK SMILES IDX 18 1 19 2 20 3 17 5 13 6 14 7 87 8 15 9 16 10 11 11 12 12
REMARK SMILES IDX 10 13 7 14 8 15 89 16 9 17 88 18 6 19 5 20 4 21 2 22 1 23
REMARK SMILES IDX 3 24 21 25 22 26 23 27 24 28 25 29 26 31 27 32 28 33 86 34
REMARK SMILES IDX 29 35 85 36 30 37 31 38 32 39 79 40 33 41 84 42 78 43 80 44
REMARK SMILES IDX 34 45 83 46 77 47 76 48 35 50 65 51 46 52 64 53 47 54 50 55
REMARK SMILES IDX 63 56 81 57 48 58 49 59 62 61 82 62 51 63 36 64 37 65 45 66
REMARK SMILES IDX 38 67 44 68 39 69 40 70 41 71 42 72 43 73 66 74 67 75 75 76
REMARK SMILES IDX 68 77 74 78 69 79 70 80 71 81 72 82 73 83 52 84 53 85 61 86
REMARK SMILES IDX 54 87 60 88 55 89 56 90 57 91 58 92 59 93
REMARK H PARENT 20 4 24 30 80 49 50 60
REMARK Flexibility Score: inf
ROOT
ATOM      1  C   UNL A   1      30.431  25.492  25.998  1.00  0.00     0.224 C 
ATOM      2  O   UNL A   1      29.994  24.598  26.733  1.00  0.00    -0.275 OA
ATOM      3  N   UNL A   1      31.209  26.434  26.585  1.00  0.00    -0.356 N 
ATOM      4  H   UNL A   1      31.237  26.390  27.568  1.00  0.00     0.163 HD
ENDROOT
BRANCH   1   5
ATOM      5  C   UNL A   1      30.070  25.476  24.509  1.00  0.00     0.098 C 
ATOM      6  N   UNL A   1      31.975  25.767  22.881  1.00  0.00    -0.338 N 
ATOM      7  C   UNL A   1      31.324  26.924  22.268  1.00  0.00     0.120 C 
ATOM      8  C   UNL A   1      31.116  24.830  23.600  1.00  0.00     0.133 C 
ATOM      9  C   UNL A   1      30.414  27.682  23.223  1.00  0.00     0.022 C 
ATOM     10  C   UNL A   1      29.455  26.772  23.976  1.00  0.00     0.017 C 
BRANCH   6  11
ATOM     11  C   UNL A   1      33.370  25.686  22.812  1.00  0.00     0.253 C 
ATOM     12  O   UNL A   1      33.990  26.297  21.939  1.00  0.00    -0.269 OA
BRANCH  11  13
ATOM     13  C   UNL A   1      34.154  24.767  23.699  1.00  0.00     0.040 A 
ATOM     14  C   UNL A   1      34.886  22.528  25.175  1.00  0.00     0.119 A 
ATOM     15  C   UNL A   1      35.153  22.550  23.812  1.00  0.00     0.047 A 
ATOM     16  C   UNL A   1      34.479  23.676  25.842  1.00  0.00     0.047 A 
ATOM     17  C   UNL A   1      34.795  23.680  23.075  1.00  0.00     0.017 A 
ATOM     18  C   UNL A   1      34.061  24.776  25.096  1.00  0.00     0.017 A 
BRANCH  14  19
ATOM     19  O   UNL A   1      34.867  21.348  25.868  1.00  0.00    -0.494 OA
BRANCH  19  20
ATOM     20  C   UNL A   1      33.615  20.652  25.641  1.00  0.00     0.230 C 
BRANCH  20  21
ATOM     21  C   UNL A   1      33.779  19.371  24.796  1.00  0.00     0.044 C 
BRANCH  21  22
ATOM     22  C   UNL A   1      32.585  19.037  23.868  1.00  0.00    -0.014 C 
ATOM     23  C   UNL A   1      32.208  20.195  22.946  1.00  0.00     0.007 C 
ATOM     24  C   UNL A   1      32.880  17.782  23.042  1.00  0.00     0.007 C 
ENDBRANCH  21  22
ENDBRANCH  20  21
ENDBRANCH  19  20
ENDBRANCH  14  19
ENDBRANCH  11  13
ENDBRANCH   6  11
ENDBRANCH   1   5
BRANCH   3  25
ATOM     25  C   UNL A   1      32.003  27.492  26.004  1.00  0.00     0.117 C 
BRANCH  25  26
ATOM     26  C   UNL A   1      33.185  27.907  26.859  1.00  0.00     0.042 C 
BRANCH  26  27
ATOM     27  C   UNL A   1      34.056  28.951  26.191  1.00  0.00     0.118 C 
BRANCH  27  28
ATOM     28  N   UNL A   1      33.833  30.295  26.718  1.00  0.00    -0.352 N 
ATOM     29  C   UNL A   1      34.534  31.018  27.655  1.00  0.00     0.251 C 
ATOM     30  H   UNL A   1      33.050  30.760  26.341  1.00  0.00     0.163 HD
ATOM     31  O   UNL A   1      34.102  32.093  28.041  1.00  0.00    -0.269 OA
BRANCH  29  32
ATOM     32  C   UNL A   1      35.792  30.475  28.217  1.00  0.00     0.039 A 
ATOM     33  C   UNL A   1      37.008  30.857  27.645  1.00  0.00     0.014 A 
ATOM     34  C   UNL A   1      35.775  29.612  29.312  1.00  0.00     0.014 A 
ATOM     35  C   UNL A   1      38.207  30.435  28.225  1.00  0.00     0.010 A 
ATOM     36  C   UNL A   1      36.961  29.297  29.959  1.00  0.00     0.010 A 
ATOM     37  C   UNL A   1      38.192  29.689  29.413  1.00  0.00    -0.014 A 
BRANCH  37  38
ATOM     38  C   UNL A   1      39.443  29.272  30.095  1.00  0.00     0.031 A 
ATOM     39  C   UNL A   1      39.912  30.026  31.313  1.00  0.00     0.074 A 
ATOM     40  C   UNL A   1      40.194  28.281  29.577  1.00  0.00     0.049 A 
ATOM     41  N   UNL A   1      41.029  29.903  31.981  1.00  0.00    -0.248 NA
ATOM     42  C   UNL A   1      39.027  31.090  31.819  1.00  0.00     0.031 C 
ATOM     43  C   UNL A   1      39.876  27.512  28.371  1.00  0.00     0.029 A 
ATOM     44  N   UNL A   1      41.391  27.754  29.996  1.00  0.00    -0.354 N 
ATOM     45  C   UNL A   1      40.995  30.890  32.958  1.00  0.00     0.074 A 
ATOM     46  C   UNL A   1      39.778  31.644  32.759  1.00  0.00     0.031 C 
ATOM     47  C   UNL A   1      40.834  26.593  28.166  1.00  0.00     0.029 A 
ATOM     48  C   UNL A   1      41.856  26.736  29.197  1.00  0.00     0.049 A 
ATOM     49  H   UNL A   1      41.871  28.076  30.793  1.00  0.00     0.167 HD
ATOM     50  C   UNL A   1      41.880  31.133  33.954  1.00  0.00     0.031 A 
ATOM     51  C   UNL A   1      42.983  26.001  29.284  1.00  0.00     0.031 A 
ATOM     52  C   UNL A   1      43.068  30.354  34.171  1.00  0.00     0.049 A 
ATOM     53  C   UNL A   1      43.937  26.266  30.416  1.00  0.00     0.074 A 
ATOM     54  C   UNL A   1      44.000  30.471  35.186  1.00  0.00     0.029 A 
ATOM     55  N   UNL A   1      43.478  29.302  33.365  1.00  0.00    -0.354 N 
ATOM     56  N   UNL A   1      43.858  27.170  31.364  1.00  0.00    -0.248 NA
ATOM     57  C   UNL A   1      45.124  25.405  30.498  1.00  0.00     0.031 C 
ATOM     58  C   UNL A   1      44.997  29.514  34.972  1.00  0.00     0.029 A 
ATOM     59  C   UNL A   1      44.658  28.767  33.853  1.00  0.00     0.049 A 
ATOM     60  H   UNL A   1      43.002  28.984  32.565  1.00  0.00     0.167 HD
ATOM     61  C   UNL A   1      44.973  26.970  32.170  1.00  0.00     0.074 A 
ATOM     62  C   UNL A   1      45.700  25.849  31.607  1.00  0.00     0.031 C 
ATOM     63  C   UNL A   1      45.360  27.650  33.278  1.00  0.00     0.031 A 
BRANCH  50  64
ATOM     64  C   UNL A   1      41.584  32.281  34.882  1.00  0.00    -0.014 A 
ATOM     65  C   UNL A   1      42.124  33.560  34.649  1.00  0.00     0.010 A 
ATOM     66  C   UNL A   1      40.743  32.088  35.992  1.00  0.00     0.010 A 
ATOM     67  C   UNL A   1      41.871  34.609  35.535  1.00  0.00     0.020 A 
ATOM     68  C   UNL A   1      40.461  33.143  36.864  1.00  0.00     0.020 A 
ATOM     69  C   UNL A   1      41.044  34.393  36.640  1.00  0.00     0.054 A 
BRANCH  69  70
ATOM     70  S   UNL A   1      40.717  35.777  37.766  1.00  0.00     0.124 S 
ATOM     71  O   UNL A   1      39.754  36.565  37.002  1.00  0.00    -0.237 OA
ATOM     72  O   UNL A   1      40.182  35.109  38.950  1.00  0.00    -0.237 OA
ATOM     73  O   UNL A   1      42.028  36.397  37.943  1.00  0.00    -0.744 OA
ENDBRANCH  69  70
ENDBRANCH  50  64
BRANCH  51  74
ATOM     74  C   UNL A   1      43.254  24.934  28.283  1.00  0.00    -0.014 A 
ATOM     75  C   UNL A   1      42.830  23.614  28.517  1.00  0.00     0.010 A 
ATOM     76  C   UNL A   1      43.918  25.234  27.080  1.00  0.00     0.010 A 
ATOM     77  C   UNL A   1      43.082  22.610  27.576  1.00  0.00     0.020 A 
ATOM     78  C   UNL A   1      44.149  24.240  26.125  1.00  0.00     0.020 A 
ATOM     79  C   UNL A   1      43.739  22.931  26.384  1.00  0.00     0.054 A 
BRANCH  79  80
ATOM     80  S   UNL A   1      44.009  21.623  25.154  1.00  0.00     0.124 S 
ATOM     81  O   UNL A   1      45.355  21.168  25.486  1.00  0.00    -0.237 OA
ATOM     82  O   UNL A   1      42.932  20.683  25.450  1.00  0.00    -0.237 OA
ATOM     83  O   UNL A   1      43.880  22.325  23.879  1.00  0.00    -0.744 OA
ENDBRANCH  79  80
ENDBRANCH  51  74
BRANCH  63  84
ATOM     84  C   UNL A   1      46.608  27.182  33.974  1.00  0.00    -0.014 A 
ATOM     85  C   UNL A   1      47.856  27.772  33.706  1.00  0.00     0.010 A 
ATOM     86  C   UNL A   1      46.517  26.181  34.959  1.00  0.00     0.010 A 
ATOM     87  C   UNL A   1      48.997  27.349  34.392  1.00  0.00     0.020 A 
ATOM     88  C   UNL A   1      47.651  25.775  35.665  1.00  0.00     0.020 A 
ATOM     89  C   UNL A   1      48.887  26.352  35.367  1.00  0.00     0.054 A 
BRANCH  89  90
ATOM     90  S   UNL A   1      50.373  25.855  36.279  1.00  0.00     0.124 S 
ATOM     91  O   UNL A   1      49.953  26.036  37.665  1.00  0.00    -0.237 OA
ATOM     92  O   UNL A   1      50.563  24.470  35.853  1.00  0.00    -0.237 OA
ATOM     93  O   UNL A   1      51.395  26.789  35.810  1.00  0.00    -0.744 OA
ENDBRANCH  89  90
ENDBRANCH  63  84
ENDBRANCH  37  38
ENDBRANCH  29  32
ENDBRANCH  27  28
ENDBRANCH  26  27
ENDBRANCH  25  26
ENDBRANCH   3  25
TORSDOF 19
ENDMDL
