MODEL 1
REMARK VINA RESULT:     -12.7      0.000      0.000
REMARK SMILES CC1=C[C@@H]([C@@H]2N=N[C@H](S)N2/N=C/c2ccc(C(=O)NCCCNC(=O)c3ccc(-c4c5nc(c(-c6ccc(S(=O)(=O)[O-])cc6)c6ccc([nH]6)c(-c6ccc(S(=O)(=O)[O-])cc6)c6nc(c(-c7ccc(S(=O)(=O)[O-])cc7)c7ccc4[nH]7)C=C6)C=C5)cc3)cc2)N=N1
REMARK SMILES IDX 21 1 20 2 19 3 17 4 18 5 16 7 13 8 14 9 87 10 15 11 86 12
REMARK SMILES IDX 12 13 11 14 10 15 5 16 6 17 7 18 8 19 4 20 1 21 2 22 3 23
REMARK SMILES IDX 89 24 88 25 9 26 22 28 23 29 24 30 25 32 26 33 27 34 85 35
REMARK SMILES IDX 28 36 84 37 29 38 30 39 31 40 78 41 32 42 83 43 77 44 79 45
REMARK SMILES IDX 33 46 82 47 76 48 75 49 34 51 64 52 45 53 63 54 46 55 49 56
REMARK SMILES IDX 62 57 80 58 47 59 48 60 61 62 81 63 50 64 35 65 36 66 44 67
REMARK SMILES IDX 37 68 43 69 38 70 39 71 40 72 41 73 42 74 65 75 66 76 74 77
REMARK SMILES IDX 67 78 73 79 68 80 69 81 70 82 71 83 72 84 51 85 52 86 60 87
REMARK SMILES IDX 53 88 59 89 54 90 55 91 56 92 57 93 58 94
REMARK H PARENT 19 6 9 27 23 31 79 50 49 61
REMARK Flexibility Score: inf
ROOT
ATOM      1  C   UNL A   1      36.406  22.094  25.731  1.00  0.00     0.042 C 
ENDROOT
BRANCH   1   2
ATOM      2  C   UNL A   1      36.443  20.828  24.863  1.00  0.00     0.118 C 
BRANCH   2   3
ATOM      3  N   UNL A   1      35.341  19.929  25.167  1.00  0.00    -0.352 N 
ATOM      4  C   UNL A   1      33.978  20.077  25.091  1.00  0.00     0.251 C 
ATOM      5  O   UNL A   1      33.281  19.087  25.315  1.00  0.00    -0.269 OA
ATOM      6  H   UNL A   1      35.628  19.044  25.490  1.00  0.00     0.163 HD
BRANCH   4   7
ATOM      7  C   UNL A   1      33.307  21.350  24.697  1.00  0.00     0.039 A 
ATOM      8  C   UNL A   1      32.194  23.752  23.768  1.00  0.00    -0.005 A 
ATOM      9  C   UNL A   1      32.389  22.696  22.879  1.00  0.00     0.010 A 
ATOM     10  C   UNL A   1      32.475  23.591  25.122  1.00  0.00     0.010 A 
ATOM     11  C   UNL A   1      32.954  21.503  23.345  1.00  0.00     0.014 A 
ATOM     12  C   UNL A   1      32.999  22.383  25.583  1.00  0.00     0.014 A 
BRANCH   8  13
ATOM     13  C   UNL A   1      31.766  25.066  23.258  1.00  0.00     0.141 C 
ATOM     14  N   UNL A   1      31.372  25.989  24.078  1.00  0.00    -0.180 NA
BRANCH  14  15
ATOM     15  N   UNL A   1      31.088  27.187  23.529  1.00  0.00    -0.233 NA
ATOM     16  C   UNL A   1      31.680  28.421  24.049  1.00  0.00     0.274 C 
ATOM     17  N   UNL A   1      30.874  29.555  23.526  1.00  0.00    -0.161 NA
ATOM     18  N   UNL A   1      29.869  29.125  22.906  1.00  0.00    -0.153 NA
ATOM     19  C   UNL A   1      29.816  27.646  22.970  1.00  0.00     0.298 C 
BRANCH  16  20
ATOM     20  C   UNL A   1      31.817  28.501  25.591  1.00  0.00     0.201 C 
ATOM     21  C   UNL A   1      33.612  31.070  27.578  1.00  0.00     0.068 C 
ATOM     22  C   UNL A   1      33.057  29.915  26.827  1.00  0.00     0.058 C 
ATOM     23  C   UNL A   1      31.883  29.857  26.203  1.00  0.00     0.031 C 
ATOM     24  N   UNL A   1      33.775  28.753  26.704  1.00  0.00    -0.160 NA
ATOM     25  N   UNL A   1      33.127  27.911  26.019  1.00  0.00    -0.177 NA
ENDBRANCH  16  20
BRANCH  19  26
ATOM     26  S   UNL A   1      28.341  27.011  23.843  1.00  0.00    -0.128 SA
ATOM     27  H   UNL A   1      27.654  26.173  23.020  1.00  0.00     0.106 HD
ENDBRANCH  19  26
ENDBRANCH  14  15
ENDBRANCH   8  13
ENDBRANCH   4   7
ENDBRANCH   2   3
ENDBRANCH   1   2
BRANCH   1  28
ATOM     28  C   UNL A   1      37.761  22.773  25.826  1.00  0.00     0.118 C 
BRANCH  28  29
ATOM     29  N   UNL A   1      38.760  21.915  26.464  1.00  0.00    -0.352 N 
ATOM     30  C   UNL A   1      39.984  22.278  26.999  1.00  0.00     0.251 C 
ATOM     31  H   UNL A   1      38.534  20.959  26.519  1.00  0.00     0.163 HD
ATOM     32  O   UNL A   1      40.860  21.449  27.169  1.00  0.00    -0.269 OA
BRANCH  30  33
ATOM     33  C   UNL A   1      40.198  23.694  27.350  1.00  0.00     0.039 A 
ATOM     34  C   UNL A   1      39.171  24.633  27.228  1.00  0.00     0.014 A 
ATOM     35  C   UNL A   1      41.439  24.052  27.868  1.00  0.00     0.014 A 
ATOM     36  C   UNL A   1      39.379  25.919  27.721  1.00  0.00     0.010 A 
ATOM     37  C   UNL A   1      41.585  25.264  28.493  1.00  0.00     0.010 A 
ATOM     38  C   UNL A   1      40.581  26.221  28.379  1.00  0.00    -0.014 A 
BRANCH  38  39
ATOM     39  C   UNL A   1      40.763  27.496  29.066  1.00  0.00     0.031 A 
ATOM     40  C   UNL A   1      41.808  28.375  28.474  1.00  0.00     0.074 A 
ATOM     41  C   UNL A   1      39.902  27.959  29.999  1.00  0.00     0.049 A 
ATOM     42  N   UNL A   1      42.969  28.662  28.962  1.00  0.00    -0.248 NA
ATOM     43  C   UNL A   1      41.598  28.879  27.106  1.00  0.00     0.031 C 
ATOM     44  C   UNL A   1      38.636  27.356  30.440  1.00  0.00     0.029 A 
ATOM     45  N   UNL A   1      39.912  29.144  30.664  1.00  0.00    -0.354 N 
ATOM     46  C   UNL A   1      43.535  29.579  28.081  1.00  0.00     0.074 A 
ATOM     47  C   UNL A   1      42.753  29.507  26.872  1.00  0.00     0.031 C 
ATOM     48  C   UNL A   1      37.895  28.281  31.088  1.00  0.00     0.029 A 
ATOM     49  C   UNL A   1      38.708  29.464  31.282  1.00  0.00     0.049 A 
ATOM     50  H   UNL A   1      40.705  29.727  30.705  1.00  0.00     0.167 HD
ATOM     51  C   UNL A   1      44.420  30.525  28.508  1.00  0.00     0.031 A 
ATOM     52  C   UNL A   1      38.395  30.628  31.902  1.00  0.00     0.031 A 
ATOM     53  C   UNL A   1      44.866  30.257  29.852  1.00  0.00     0.049 A 
ATOM     54  C   UNL A   1      39.677  31.279  32.258  1.00  0.00     0.074 A 
ATOM     55  C   UNL A   1      45.560  29.244  30.481  1.00  0.00     0.029 A 
ATOM     56  N   UNL A   1      44.221  30.962  30.840  1.00  0.00    -0.354 N 
ATOM     57  N   UNL A   1      40.530  30.772  33.104  1.00  0.00    -0.248 NA
ATOM     58  C   UNL A   1      40.214  32.294  31.367  1.00  0.00     0.031 C 
ATOM     59  C   UNL A   1      44.965  29.133  31.773  1.00  0.00     0.029 A 
ATOM     60  C   UNL A   1      43.986  30.123  31.897  1.00  0.00     0.049 A 
ATOM     61  H   UNL A   1      43.970  31.913  30.796  1.00  0.00     0.167 HD
ATOM     62  C   UNL A   1      41.775  31.069  32.573  1.00  0.00     0.074 A 
ATOM     63  C   UNL A   1      41.519  32.117  31.589  1.00  0.00     0.031 C 
ATOM     64  C   UNL A   1      42.843  30.243  32.782  1.00  0.00     0.031 A 
BRANCH  51  65
ATOM     65  C   UNL A   1      44.529  31.915  27.916  1.00  0.00    -0.014 A 
ATOM     66  C   UNL A   1      45.667  32.234  27.143  1.00  0.00     0.010 A 
ATOM     67  C   UNL A   1      43.718  32.994  28.325  1.00  0.00     0.010 A 
ATOM     68  C   UNL A   1      46.012  33.564  26.862  1.00  0.00     0.020 A 
ATOM     69  C   UNL A   1      44.028  34.320  28.013  1.00  0.00     0.020 A 
ATOM     70  C   UNL A   1      45.193  34.599  27.313  1.00  0.00     0.054 A 
BRANCH  70  71
ATOM     71  S   UNL A   1      45.696  36.314  27.033  1.00  0.00     0.124 S 
ATOM     72  O   UNL A   1      46.502  36.198  25.823  1.00  0.00    -0.237 OA
ATOM     73  O   UNL A   1      44.410  36.991  26.877  1.00  0.00    -0.237 OA
ATOM     74  O   UNL A   1      46.431  36.657  28.249  1.00  0.00    -0.744 OA
ENDBRANCH  70  71
ENDBRANCH  51  65
BRANCH  52  75
ATOM     75  C   UNL A   1      37.095  31.340  31.932  1.00  0.00    -0.014 A 
ATOM     76  C   UNL A   1      36.587  31.865  33.135  1.00  0.00     0.010 A 
ATOM     77  C   UNL A   1      36.502  31.769  30.726  1.00  0.00     0.010 A 
ATOM     78  C   UNL A   1      35.572  32.838  33.129  1.00  0.00     0.020 A 
ATOM     79  C   UNL A   1      35.488  32.736  30.713  1.00  0.00     0.020 A 
ATOM     80  C   UNL A   1      35.045  33.285  31.915  1.00  0.00     0.054 A 
BRANCH  80  81
ATOM     81  S   UNL A   1      33.876  34.677  31.908  1.00  0.00     0.124 S 
ATOM     82  O   UNL A   1      33.493  34.756  30.502  1.00  0.00    -0.237 OA
ATOM     83  O   UNL A   1      32.833  34.221  32.824  1.00  0.00    -0.237 OA
ATOM     84  O   UNL A   1      34.674  35.801  32.397  1.00  0.00    -0.744 OA
ENDBRANCH  80  81
ENDBRANCH  52  75
BRANCH  64  85
ATOM     85  C   UNL A   1      42.755  29.235  33.906  1.00  0.00    -0.014 A 
ATOM     86  C   UNL A   1      43.066  29.510  35.253  1.00  0.00     0.010 A 
ATOM     87  C   UNL A   1      42.206  27.979  33.590  1.00  0.00     0.010 A 
ATOM     88  C   UNL A   1      42.854  28.541  36.249  1.00  0.00     0.020 A 
ATOM     89  C   UNL A   1      41.974  27.021  34.577  1.00  0.00     0.020 A 
ATOM     90  C   UNL A   1      42.309  27.300  35.901  1.00  0.00     0.054 A 
BRANCH  90  91
ATOM     91  S   UNL A   1      42.001  26.060  37.192  1.00  0.00     0.124 S 
ATOM     92  O   UNL A   1      40.601  26.299  37.533  1.00  0.00    -0.237 OA
ATOM     93  O   UNL A   1      42.276  24.800  36.505  1.00  0.00    -0.237 OA
ATOM     94  O   UNL A   1      42.959  26.406  38.242  1.00  0.00    -0.744 OA
ENDBRANCH  90  91
ENDBRANCH  64  85
ENDBRANCH  38  39
ENDBRANCH  30  33
ENDBRANCH  28  29
ENDBRANCH   1  28
TORSDOF 17
ENDMDL
MODEL 2
REMARK VINA RESULT:     -12.4      2.493      9.646
REMARK SMILES CC1=C[C@@H]([C@@H]2N=N[C@H](S)N2/N=C/c2ccc(C(=O)NCCCNC(=O)c3ccc(-c4c5nc(c(-c6ccc(S(=O)(=O)[O-])cc6)c6ccc([nH]6)c(-c6ccc(S(=O)(=O)[O-])cc6)c6nc(c(-c7ccc(S(=O)(=O)[O-])cc7)c7ccc4[nH]7)C=C6)C=C5)cc3)cc2)N=N1
REMARK SMILES IDX 21 1 20 2 19 3 17 4 18 5 16 7 13 8 14 9 87 10 15 11 86 12
REMARK SMILES IDX 12 13 11 14 10 15 5 16 6 17 7 18 8 19 4 20 1 21 2 22 3 23
REMARK SMILES IDX 89 24 88 25 9 26 22 28 23 29 24 30 25 32 26 33 27 34 85 35
REMARK SMILES IDX 28 36 84 37 29 38 30 39 31 40 78 41 32 42 83 43 77 44 79 45
REMARK SMILES IDX 33 46 82 47 76 48 75 49 34 51 64 52 45 53 63 54 46 55 49 56
REMARK SMILES IDX 62 57 80 58 47 59 48 60 61 62 81 63 50 64 35 65 36 66 44 67
REMARK SMILES IDX 37 68 43 69 38 70 39 71 40 72 41 73 42 74 65 75 66 76 74 77
REMARK SMILES IDX 67 78 73 79 68 80 69 81 70 82 71 83 72 84 51 85 52 86 60 87
REMARK SMILES IDX 53 88 59 89 54 90 55 91 56 92 57 93 58 94
REMARK H PARENT 19 6 9 27 23 31 79 50 49 61
REMARK Flexibility Score: inf
ROOT
ATOM      1  C   UNL A   1      32.917  35.059  29.093  1.00  0.00     0.042 C 
ENDROOT
BRANCH   1   2
ATOM      2  C   UNL A   1      33.192  34.034  27.984  1.00  0.00     0.118 C 
BRANCH   2   3
ATOM      3  N   UNL A   1      34.547  33.509  28.053  1.00  0.00    -0.352 N 
ATOM      4  C   UNL A   1      35.064  32.254  27.845  1.00  0.00     0.251 C 
ATOM      5  O   UNL A   1      36.288  32.128  27.869  1.00  0.00    -0.269 OA
ATOM      6  H   UNL A   1      35.222  34.183  28.297  1.00  0.00     0.163 HD
BRANCH   4   7
ATOM      7  C   UNL A   1      34.228  31.057  27.536  1.00  0.00     0.039 A 
ATOM      8  C   UNL A   1      32.829  28.737  26.807  1.00  0.00    -0.005 A 
ATOM      9  C   UNL A   1      34.174  28.645  27.165  1.00  0.00     0.010 A 
ATOM     10  C   UNL A   1      32.163  29.957  26.888  1.00  0.00     0.010 A 
ATOM     11  C   UNL A   1      34.870  29.807  27.518  1.00  0.00     0.014 A 
ATOM     12  C   UNL A   1      32.856  31.102  27.281  1.00  0.00     0.014 A 
BRANCH   8  13
ATOM     13  C   UNL A   1      32.135  27.555  26.267  1.00  0.00     0.141 C 
ATOM     14  N   UNL A   1      32.644  26.373  26.418  1.00  0.00    -0.180 NA
BRANCH  14  15
ATOM     15  N   UNL A   1      31.895  25.344  25.974  1.00  0.00    -0.233 NA
ATOM     16  C   UNL A   1      32.006  24.011  26.567  1.00  0.00     0.274 C 
ATOM     17  N   UNL A   1      31.387  23.049  25.617  1.00  0.00    -0.161 NA
ATOM     18  N   UNL A   1      31.069  23.634  24.551  1.00  0.00    -0.153 NA
ATOM     19  C   UNL A   1      31.478  25.057  24.601  1.00  0.00     0.298 C 
BRANCH  16  20
ATOM     20  C   UNL A   1      33.440  23.565  26.953  1.00  0.00     0.201 C 
ATOM     21  C   UNL A   1      35.504  20.929  25.356  1.00  0.00     0.068 C 
ATOM     22  C   UNL A   1      34.649  21.845  26.152  1.00  0.00     0.058 C 
ATOM     23  C   UNL A   1      34.332  23.104  25.855  1.00  0.00     0.031 C 
ATOM     24  N   UNL A   1      34.073  21.421  27.322  1.00  0.00    -0.160 NA
ATOM     25  N   UNL A   1      33.379  22.349  27.827  1.00  0.00    -0.177 NA
ENDBRANCH  16  20
BRANCH  19  26
ATOM     26  S   UNL A   1      32.719  25.499  23.333  1.00  0.00    -0.128 SA
ATOM     27  H   UNL A   1      33.259  26.711  23.632  1.00  0.00     0.106 HD
ENDBRANCH  19  26
ENDBRANCH  14  15
ENDBRANCH   8  13
ENDBRANCH   4   7
ENDBRANCH   2   3
ENDBRANCH   1   2
BRANCH   1  28
ATOM     28  C   UNL A   1      34.103  35.239  30.024  1.00  0.00     0.118 C 
BRANCH  28  29
ATOM     29  N   UNL A   1      33.770  34.901  31.408  1.00  0.00    -0.352 N 
ATOM     30  C   UNL A   1      34.234  33.840  32.166  1.00  0.00     0.251 C 
ATOM     31  H   UNL A   1      33.135  35.504  31.857  1.00  0.00     0.163 HD
ATOM     32  O   UNL A   1      33.626  33.467  33.153  1.00  0.00    -0.269 OA
BRANCH  30  33
ATOM     33  C   UNL A   1      35.479  33.175  31.743  1.00  0.00     0.039 A 
ATOM     34  C   UNL A   1      36.698  33.857  31.736  1.00  0.00     0.014 A 
ATOM     35  C   UNL A   1      35.411  31.825  31.410  1.00  0.00     0.014 A 
ATOM     36  C   UNL A   1      37.865  33.139  31.480  1.00  0.00     0.010 A 
ATOM     37  C   UNL A   1      36.567  31.094  31.316  1.00  0.00     0.010 A 
ATOM     38  C   UNL A   1      37.795  31.749  31.298  1.00  0.00    -0.014 A 
BRANCH  38  39
ATOM     39  C   UNL A   1      39.007  30.941  31.208  1.00  0.00     0.031 A 
ATOM     40  C   UNL A   1      39.648  30.637  32.517  1.00  0.00     0.074 A 
ATOM     41  C   UNL A   1      39.387  30.308  30.077  1.00  0.00     0.049 A 
ATOM     42  N   UNL A   1      40.753  31.113  32.986  1.00  0.00    -0.248 NA
ATOM     43  C   UNL A   1      38.896  29.819  33.484  1.00  0.00     0.031 C 
ATOM     44  C   UNL A   1      38.670  30.235  28.796  1.00  0.00     0.029 A 
ATOM     45  N   UNL A   1      40.444  29.478  29.870  1.00  0.00    -0.354 N 
ATOM     46  C   UNL A   1      40.961  30.466  34.201  1.00  0.00     0.074 A 
ATOM     47  C   UNL A   1      39.701  29.856  34.548  1.00  0.00     0.031 C 
ATOM     48  C   UNL A   1      39.168  29.223  28.053  1.00  0.00     0.029 A 
ATOM     49  C   UNL A   1      40.356  28.715  28.711  1.00  0.00     0.049 A 
ATOM     50  H   UNL A   1      41.208  29.422  30.490  1.00  0.00     0.167 HD
ATOM     51  C   UNL A   1      42.217  30.241  34.682  1.00  0.00     0.031 A 
ATOM     52  C   UNL A   1      41.195  27.725  28.322  1.00  0.00     0.031 A 
ATOM     53  C   UNL A   1      43.203  30.983  33.939  1.00  0.00     0.049 A 
ATOM     54  C   UNL A   1      42.468  27.936  29.048  1.00  0.00     0.074 A 
ATOM     55  C   UNL A   1      43.471  32.316  33.707  1.00  0.00     0.029 A 
ATOM     56  N   UNL A   1      43.864  30.276  32.964  1.00  0.00    -0.354 N 
ATOM     57  N   UNL A   1      43.228  28.982  28.876  1.00  0.00    -0.248 NA
ATOM     58  C   UNL A   1      42.705  27.190  30.272  1.00  0.00     0.031 C 
ATOM     59  C   UNL A   1      43.935  32.373  32.359  1.00  0.00     0.029 A 
ATOM     60  C   UNL A   1      43.994  31.070  31.855  1.00  0.00     0.049 A 
ATOM     61  H   UNL A   1      44.191  29.351  33.047  1.00  0.00     0.167 HD
ATOM     62  C   UNL A   1      43.716  29.276  30.139  1.00  0.00     0.074 A 
ATOM     63  C   UNL A   1      43.474  28.067  30.922  1.00  0.00     0.031 C 
ATOM     64  C   UNL A   1      44.010  30.562  30.497  1.00  0.00     0.031 A 
BRANCH  51  65
ATOM     65  C   UNL A   1      42.610  29.026  35.496  1.00  0.00    -0.014 A 
ATOM     66  C   UNL A   1      43.639  29.157  36.454  1.00  0.00     0.010 A 
ATOM     67  C   UNL A   1      42.220  27.713  35.162  1.00  0.00     0.010 A 
ATOM     68  C   UNL A   1      44.292  28.035  36.986  1.00  0.00     0.020 A 
ATOM     69  C   UNL A   1      42.832  26.587  35.718  1.00  0.00     0.020 A 
ATOM     70  C   UNL A   1      43.889  26.756  36.601  1.00  0.00     0.054 A 
BRANCH  70  71
ATOM     71  S   UNL A   1      44.799  25.317  37.214  1.00  0.00     0.124 S 
ATOM     72  O   UNL A   1      44.217  24.236  36.427  1.00  0.00    -0.237 OA
ATOM     73  O   UNL A   1      46.180  25.665  36.892  1.00  0.00    -0.237 OA
ATOM     74  O   UNL A   1      44.483  25.297  38.641  1.00  0.00    -0.744 OA
ENDBRANCH  70  71
ENDBRANCH  51  65
BRANCH  52  75
ATOM     75  C   UNL A   1      40.872  26.463  27.614  1.00  0.00    -0.014 A 
ATOM     76  C   UNL A   1      41.859  25.764  26.896  1.00  0.00     0.010 A 
ATOM     77  C   UNL A   1      39.666  25.787  27.899  1.00  0.00     0.010 A 
ATOM     78  C   UNL A   1      41.679  24.417  26.539  1.00  0.00     0.020 A 
ATOM     79  C   UNL A   1      39.477  24.446  27.543  1.00  0.00     0.020 A 
ATOM     80  C   UNL A   1      40.496  23.758  26.886  1.00  0.00     0.054 A 
BRANCH  80  81
ATOM     81  S   UNL A   1      40.352  21.970  26.593  1.00  0.00     0.124 S 
ATOM     82  O   UNL A   1      39.002  21.851  26.052  1.00  0.00    -0.237 OA
ATOM     83  O   UNL A   1      41.436  21.714  25.648  1.00  0.00    -0.237 OA
ATOM     84  O   UNL A   1      40.542  21.385  27.919  1.00  0.00    -0.744 OA
ENDBRANCH  80  81
ENDBRANCH  52  75
BRANCH  64  85
ATOM     85  C   UNL A   1      44.177  31.587  29.398  1.00  0.00    -0.014 A 
ATOM     86  C   UNL A   1      45.232  31.595  28.464  1.00  0.00     0.010 A 
ATOM     87  C   UNL A   1      43.132  32.515  29.234  1.00  0.00     0.010 A 
ATOM     88  C   UNL A   1      45.249  32.524  27.411  1.00  0.00     0.020 A 
ATOM     89  C   UNL A   1      43.134  33.428  28.178  1.00  0.00     0.020 A 
ATOM     90  C   UNL A   1      44.197  33.437  27.277  1.00  0.00     0.054 A 
BRANCH  90  91
ATOM     91  S   UNL A   1      44.199  34.616  25.895  1.00  0.00     0.124 S 
ATOM     92  O   UNL A   1      42.808  35.056  25.851  1.00  0.00    -0.237 OA
ATOM     93  O   UNL A   1      45.166  35.623  26.328  1.00  0.00    -0.237 OA
ATOM     94  O   UNL A   1      44.628  33.810  24.752  1.00  0.00    -0.744 OA
ENDBRANCH  90  91
ENDBRANCH  64  85
ENDBRANCH  38  39
ENDBRANCH  30  33
ENDBRANCH  28  29
ENDBRANCH   1  28
TORSDOF 17
ENDMDL
MODEL 3
REMARK VINA RESULT:     -12.4      1.741      2.535
REMARK SMILES CC1=C[C@@H]([C@@H]2N=N[C@H](S)N2/N=C/c2ccc(C(=O)NCCCNC(=O)c3ccc(-c4c5nc(c(-c6ccc(S(=O)(=O)[O-])cc6)c6ccc([nH]6)c(-c6ccc(S(=O)(=O)[O-])cc6)c6nc(c(-c7ccc(S(=O)(=O)[O-])cc7)c7ccc4[nH]7)C=C6)C=C5)cc3)cc2)N=N1
REMARK SMILES IDX 21 1 20 2 19 3 17 4 18 5 16 7 13 8 14 9 87 10 15 11 86 12
REMARK SMILES IDX 12 13 11 14 10 15 5 16 6 17 7 18 8 19 4 20 1 21 2 22 3 23
REMARK SMILES IDX 89 24 88 25 9 26 22 28 23 29 24 30 25 32 26 33 27 34 85 35
REMARK SMILES IDX 28 36 84 37 29 38 30 39 31 40 78 41 32 42 83 43 77 44 79 45
REMARK SMILES IDX 33 46 82 47 76 48 75 49 34 51 64 52 45 53 63 54 46 55 49 56
REMARK SMILES IDX 62 57 80 58 47 59 48 60 61 62 81 63 50 64 35 65 36 66 44 67
REMARK SMILES IDX 37 68 43 69 38 70 39 71 40 72 41 73 42 74 65 75 66 76 74 77
REMARK SMILES IDX 67 78 73 79 68 80 69 81 70 82 71 83 72 84 51 85 52 86 60 87
REMARK SMILES IDX 53 88 59 89 54 90 55 91 56 92 57 93 58 94
REMARK H PARENT 19 6 9 27 23 31 79 50 49 61
REMARK Flexibility Score: inf
ROOT
ATOM      1  C   UNL A   1      39.921  23.528  26.706  1.00  0.00     0.042 C 
ENDROOT
BRANCH   1   2
ATOM      2  C   UNL A   1      38.490  23.056  26.412  1.00  0.00     0.118 C 
BRANCH   2   3
ATOM      3  N   UNL A   1      38.456  21.671  25.967  1.00  0.00    -0.352 N 
ATOM      4  C   UNL A   1      37.602  20.987  25.138  1.00  0.00     0.251 C 
ATOM      5  O   UNL A   1      37.890  19.825  24.852  1.00  0.00    -0.269 OA
ATOM      6  H   UNL A   1      39.186  21.118  26.331  1.00  0.00     0.163 HD
BRANCH   4   7
ATOM      7  C   UNL A   1      36.384  21.594  24.526  1.00  0.00     0.039 A 
ATOM      8  C   UNL A   1      34.191  22.949  23.419  1.00  0.00    -0.005 A 
ATOM      9  C   UNL A   1      35.484  23.319  23.052  1.00  0.00     0.010 A 
ATOM     10  C   UNL A   1      33.985  21.863  24.266  1.00  0.00     0.010 A 
ATOM     11  C   UNL A   1      36.575  22.647  23.615  1.00  0.00     0.014 A 
ATOM     12  C   UNL A   1      35.079  21.173  24.788  1.00  0.00     0.014 A 
BRANCH   8  13
ATOM     13  C   UNL A   1      33.045  23.759  22.972  1.00  0.00     0.141 C 
ATOM     14  N   UNL A   1      32.640  24.766  23.680  1.00  0.00    -0.180 NA
BRANCH  14  15
ATOM     15  N   UNL A   1      31.646  25.504  23.146  1.00  0.00    -0.233 NA
ATOM     16  C   UNL A   1      31.931  26.666  22.302  1.00  0.00     0.274 C 
ATOM     17  N   UNL A   1      30.687  27.475  22.226  1.00  0.00    -0.161 NA
ATOM     18  N   UNL A   1      29.812  27.001  22.993  1.00  0.00    -0.153 NA
ATOM     19  C   UNL A   1      30.353  25.843  23.741  1.00  0.00     0.298 C 
BRANCH  16  20
ATOM     20  C   UNL A   1      33.135  27.537  22.743  1.00  0.00     0.201 C 
ATOM     21  C   UNL A   1      34.056  28.554  26.190  1.00  0.00     0.068 C 
ATOM     22  C   UNL A   1      33.619  28.346  24.787  1.00  0.00     0.058 C 
ATOM     23  C   UNL A   1      33.751  27.235  24.065  1.00  0.00     0.031 C 
ATOM     24  N   UNL A   1      32.993  29.351  24.095  1.00  0.00    -0.160 NA
ATOM     25  N   UNL A   1      32.696  28.958  22.930  1.00  0.00    -0.177 NA
ENDBRANCH  16  20
BRANCH  19  26
ATOM     26  S   UNL A   1      30.406  26.108  25.549  1.00  0.00    -0.128 SA
ATOM     27  H   UNL A   1      29.909  25.012  26.182  1.00  0.00     0.106 HD
ENDBRANCH  19  26
ENDBRANCH  14  15
ENDBRANCH   8  13
ENDBRANCH   4   7
ENDBRANCH   2   3
ENDBRANCH   1   2
BRANCH   1  28
ATOM     28  C   UNL A   1      40.824  22.395  27.161  1.00  0.00     0.118 C 
BRANCH  28  29
ATOM     29  N   UNL A   1      41.955  22.197  26.254  1.00  0.00    -0.352 N 
ATOM     30  C   UNL A   1      42.731  23.158  25.629  1.00  0.00     0.251 C 
ATOM     31  H   UNL A   1      42.194  21.261  26.063  1.00  0.00     0.163 HD
ATOM     32  O   UNL A   1      43.389  22.882  24.643  1.00  0.00    -0.269 OA
BRANCH  30  33
ATOM     33  C   UNL A   1      42.732  24.522  26.187  1.00  0.00     0.039 A 
ATOM     34  C   UNL A   1      42.140  25.585  25.501  1.00  0.00     0.014 A 
ATOM     35  C   UNL A   1      43.286  24.705  27.450  1.00  0.00     0.014 A 
ATOM     36  C   UNL A   1      42.030  26.817  26.142  1.00  0.00     0.010 A 
ATOM     37  C   UNL A   1      43.036  25.866  28.136  1.00  0.00     0.010 A 
ATOM     38  C   UNL A   1      42.456  26.943  27.473  1.00  0.00    -0.014 A 
BRANCH  38  39
ATOM     39  C   UNL A   1      42.193  28.160  28.235  1.00  0.00     0.031 A 
ATOM     40  C   UNL A   1      43.215  29.229  28.070  1.00  0.00     0.074 A 
ATOM     41  C   UNL A   1      41.011  28.407  28.841  1.00  0.00     0.049 A 
ATOM     42  N   UNL A   1      44.089  29.627  28.933  1.00  0.00    -0.248 NA
ATOM     43  C   UNL A   1      43.385  29.826  26.734  1.00  0.00     0.031 C 
ATOM     44  C   UNL A   1      39.786  27.595  28.802  1.00  0.00     0.029 A 
ATOM     45  N   UNL A   1      40.609  29.513  29.521  1.00  0.00    -0.354 N 
ATOM     46  C   UNL A   1      44.755  30.694  28.335  1.00  0.00     0.074 A 
ATOM     47  C   UNL A   1      44.433  30.628  26.931  1.00  0.00     0.031 C 
ATOM     48  C   UNL A   1      38.733  28.341  29.200  1.00  0.00     0.029 A 
ATOM     49  C   UNL A   1      39.234  29.603  29.709  1.00  0.00     0.049 A 
ATOM     50  H   UNL A   1      41.238  30.195  29.852  1.00  0.00     0.167 HD
ATOM     51  C   UNL A   1      45.284  31.709  29.076  1.00  0.00     0.031 A 
ATOM     52  C   UNL A   1      38.550  30.647  30.236  1.00  0.00     0.031 A 
ATOM     53  C   UNL A   1      45.303  31.379  30.479  1.00  0.00     0.049 A 
ATOM     54  C   UNL A   1      39.520  31.434  31.031  1.00  0.00     0.074 A 
ATOM     55  C   UNL A   1      45.909  30.418  31.261  1.00  0.00     0.029 A 
ATOM     56  N   UNL A   1      44.265  31.890  31.221  1.00  0.00    -0.354 N 
ATOM     57  N   UNL A   1      40.120  30.972  32.094  1.00  0.00    -0.248 NA
ATOM     58  C   UNL A   1      40.145  32.594  30.419  1.00  0.00     0.031 C 
ATOM     59  C   UNL A   1      44.951  30.102  32.271  1.00  0.00     0.029 A 
ATOM     60  C   UNL A   1      43.837  30.930  32.099  1.00  0.00     0.049 A 
ATOM     61  H   UNL A   1      43.890  32.796  31.135  1.00  0.00     0.167 HD
ATOM     62  C   UNL A   1      41.404  31.490  32.028  1.00  0.00     0.074 A 
ATOM     63  C   UNL A   1      41.316  32.581  31.061  1.00  0.00     0.031 C 
ATOM     64  C   UNL A   1      42.465  30.804  32.550  1.00  0.00     0.031 A 
BRANCH  51  65
ATOM     65  C   UNL A   1      45.352  33.151  28.617  1.00  0.00    -0.014 A 
ATOM     66  C   UNL A   1      46.487  33.918  28.961  1.00  0.00     0.010 A 
ATOM     67  C   UNL A   1      44.237  33.857  28.122  1.00  0.00     0.010 A 
ATOM     68  C   UNL A   1      46.474  35.318  28.886  1.00  0.00     0.020 A 
ATOM     69  C   UNL A   1      44.229  35.248  28.000  1.00  0.00     0.020 A 
ATOM     70  C   UNL A   1      45.336  35.973  28.417  1.00  0.00     0.054 A 
BRANCH  70  71
ATOM     71  S   UNL A   1      45.290  37.782  28.415  1.00  0.00     0.124 S 
ATOM     72  O   UNL A   1      44.226  38.056  29.375  1.00  0.00    -0.237 OA
ATOM     73  O   UNL A   1      46.642  38.125  28.850  1.00  0.00    -0.237 OA
ATOM     74  O   UNL A   1      44.985  38.114  27.025  1.00  0.00    -0.744 OA
ENDBRANCH  70  71
ENDBRANCH  51  65
BRANCH  52  75
ATOM     75  C   UNL A   1      37.214  31.165  29.856  1.00  0.00    -0.014 A 
ATOM     76  C   UNL A   1      36.374  31.769  30.810  1.00  0.00     0.010 A 
ATOM     77  C   UNL A   1      36.890  31.339  28.494  1.00  0.00     0.010 A 
ATOM     78  C   UNL A   1      35.295  32.578  30.417  1.00  0.00     0.020 A 
ATOM     79  C   UNL A   1      35.813  32.140  28.094  1.00  0.00     0.020 A 
ATOM     80  C   UNL A   1      35.035  32.779  29.058  1.00  0.00     0.054 A 
BRANCH  80  81
ATOM     81  S   UNL A   1      33.761  33.977  28.561  1.00  0.00     0.124 S 
ATOM     82  O   UNL A   1      32.846  33.152  27.779  1.00  0.00    -0.237 OA
ATOM     83  O   UNL A   1      33.248  34.448  29.845  1.00  0.00    -0.237 OA
ATOM     84  O   UNL A   1      34.506  34.974  27.793  1.00  0.00    -0.744 OA
ENDBRANCH  80  81
ENDBRANCH  52  75
BRANCH  64  85
ATOM     85  C   UNL A   1      42.180  29.692  33.534  1.00  0.00    -0.014 A 
ATOM     86  C   UNL A   1      41.868  28.366  33.175  1.00  0.00     0.010 A 
ATOM     87  C   UNL A   1      42.365  29.989  34.897  1.00  0.00     0.010 A 
ATOM     88  C   UNL A   1      41.722  27.372  34.158  1.00  0.00     0.020 A 
ATOM     89  C   UNL A   1      42.240  29.003  35.877  1.00  0.00     0.020 A 
ATOM     90  C   UNL A   1      41.909  27.701  35.505  1.00  0.00     0.054 A 
BRANCH  90  91
ATOM     91  S   UNL A   1      41.756  26.411  36.774  1.00  0.00     0.124 S 
ATOM     92  O   UNL A   1      42.967  26.602  37.569  1.00  0.00    -0.237 OA
ATOM     93  O   UNL A   1      40.504  26.758  37.442  1.00  0.00    -0.237 OA
ATOM     94  O   UNL A   1      41.714  25.168  36.004  1.00  0.00    -0.744 OA
ENDBRANCH  90  91
ENDBRANCH  64  85
ENDBRANCH  38  39
ENDBRANCH  30  33
ENDBRANCH  28  29
ENDBRANCH   1  28
TORSDOF 17
ENDMDL
