MODEL 1
REMARK VINA RESULT:     -11.7      0.000      0.000
REMARK SMILES Cc1ccc(OC(F)(F)F)cc1C(=O)NCCCNC(=O)c1ccc(-c2c3nc(c(-c4ccc(S(=O)(=O)[O-])cc4)c4ccc([nH]4)c(-c4ccc(S(=O)(=O)[O-])cc4)c4nc(c(-c5ccc(S(=O)(=O)[O-])cc5)c5ccc2[nH]5)C=C4)C=C3)cc1
REMARK SMILES IDX 17 1 16 2 15 3 13 4 14 5 12 7 1 8 2 9 3 10 4 11 11 12 5 13
REMARK SMILES IDX 6 14 7 15 8 16 9 17 10 18 18 19 19 20 20 21 21 23 22 24
REMARK SMILES IDX 23 25 81 26 24 27 80 28 25 29 26 30 27 31 74 32 28 33 79 34
REMARK SMILES IDX 73 35 75 36 29 37 78 38 72 39 71 40 30 42 60 43 41 44 59 45
REMARK SMILES IDX 42 46 45 47 58 48 76 49 43 50 44 51 57 53 77 54 46 55 31 56
REMARK SMILES IDX 32 57 40 58 33 59 39 60 34 61 35 62 36 63 37 64 38 65 61 66
REMARK SMILES IDX 62 67 70 68 63 69 69 70 64 71 65 72 66 73 67 74 68 75 47 76
REMARK SMILES IDX 48 77 56 78 49 79 55 80 50 81 51 82 52 83 53 84 54 85
REMARK H PARENT 15 6 19 22 75 41 45 52
REMARK Flexibility Score: inf
ROOT
ATOM      1  C   UNL A   1      30.497  26.391  26.209  1.00  0.00     0.042 C 
ENDROOT
BRANCH   1   2
ATOM      2  C   UNL A   1      30.469  24.796  25.895  1.00  0.00     0.118 C 
BRANCH   2   3
ATOM      3  N   UNL A   1      30.919  24.332  24.561  1.00  0.00    -0.352 N 
ATOM      4  C   UNL A   1      31.738  24.764  23.537  1.00  0.00     0.251 C 
ATOM      5  O   UNL A   1      32.148  23.969  22.688  1.00  0.00    -0.269 OA
ATOM      6  H   UNL A   1      30.515  23.461  24.341  1.00  0.00     0.163 HD
BRANCH   4   7
ATOM      7  C   UNL A   1      32.188  26.171  23.372  1.00  0.00     0.046 A 
ATOM      8  C   UNL A   1      34.274  25.873  24.816  1.00  0.00     0.045 C 
ATOM      9  C   UNL A   1      33.403  26.652  23.876  1.00  0.00    -0.038 A 
ATOM     10  C   UNL A   1      33.790  27.962  23.565  1.00  0.00     0.008 A 
ATOM     11  C   UNL A   1      32.906  28.839  22.941  1.00  0.00     0.047 A 
ATOM     12  C   UNL A   1      31.261  27.097  22.818  1.00  0.00     0.061 A 
ATOM     13  C   UNL A   1      31.606  28.438  22.640  1.00  0.00     0.130 A 
BRANCH  13  14
ATOM     14  O   UNL A   1      30.811  29.445  22.175  1.00  0.00    -0.406 OA
BRANCH  14  15
ATOM     15  C   UNL A   1      29.736  29.878  22.993  1.00  0.00     0.573 C 
ATOM     16  F   UNL A   1      29.318  31.104  22.621  1.00  0.00    -0.132 F 
ATOM     17  F   UNL A   1      28.707  29.010  22.984  1.00  0.00    -0.132 F 
ATOM     18  F   UNL A   1      30.190  29.966  24.268  1.00  0.00    -0.132 F 
ENDBRANCH  14  15
ENDBRANCH  13  14
ENDBRANCH   4   7
ENDBRANCH   2   3
ENDBRANCH   1   2
BRANCH   1  19
ATOM     19  C   UNL A   1      31.721  26.923  27.085  1.00  0.00     0.118 C 
BRANCH  19  20
ATOM     20  N   UNL A   1      31.891  28.369  27.685  1.00  0.00    -0.352 N 
ATOM     21  C   UNL A   1      32.581  29.607  27.314  1.00  0.00     0.251 C 
ATOM     22  H   UNL A   1      31.406  28.467  28.535  1.00  0.00     0.163 HD
ATOM     23  O   UNL A   1      31.800  30.544  27.064  1.00  0.00    -0.269 OA
BRANCH  21  24
ATOM     24  C   UNL A   1      34.110  30.045  27.260  1.00  0.00     0.039 A 
ATOM     25  C   UNL A   1      35.137  29.115  26.878  1.00  0.00     0.014 A 
ATOM     26  C   UNL A   1      34.634  31.278  27.636  1.00  0.00     0.014 A 
ATOM     27  C   UNL A   1      36.500  29.230  27.389  1.00  0.00     0.010 A 
ATOM     28  C   UNL A   1      35.974  31.393  28.147  1.00  0.00     0.010 A 
ATOM     29  C   UNL A   1      36.835  30.288  28.256  1.00  0.00    -0.014 A 
BRANCH  29  30
ATOM     30  C   UNL A   1      37.775  30.159  29.469  1.00  0.00     0.031 A 
ATOM     31  C   UNL A   1      37.567  30.955  30.672  1.00  0.00     0.074 A 
ATOM     32  C   UNL A   1      38.783  29.256  29.700  1.00  0.00     0.049 A 
ATOM     33  N   UNL A   1      38.466  31.688  31.248  1.00  0.00    -0.248 NA
ATOM     34  C   UNL A   1      36.306  30.855  31.381  1.00  0.00     0.031 C 
ATOM     35  C   UNL A   1      39.656  28.950  30.850  1.00  0.00     0.029 A 
ATOM     36  N   UNL A   1      39.248  28.285  28.849  1.00  0.00    -0.354 N 
ATOM     37  C   UNL A   1      38.007  31.864  32.537  1.00  0.00     0.074 A 
ATOM     38  C   UNL A   1      36.590  31.544  32.488  1.00  0.00     0.031 C 
ATOM     39  C   UNL A   1      40.712  28.200  30.441  1.00  0.00     0.029 A 
ATOM     40  C   UNL A   1      40.602  28.023  29.006  1.00  0.00     0.049 A 
ATOM     41  H   UNL A   1      38.679  27.821  28.193  1.00  0.00     0.167 HD
ATOM     42  C   UNL A   1      38.855  31.924  33.610  1.00  0.00     0.031 A 
ATOM     43  C   UNL A   1      41.472  28.345  27.992  1.00  0.00     0.031 A 
ATOM     44  C   UNL A   1      40.239  31.543  33.267  1.00  0.00     0.049 A 
ATOM     45  C   UNL A   1      42.304  29.526  28.407  1.00  0.00     0.074 A 
ATOM     46  C   UNL A   1      41.031  30.460  33.633  1.00  0.00     0.029 A 
ATOM     47  N   UNL A   1      40.902  32.142  32.199  1.00  0.00    -0.354 N 
ATOM     48  N   UNL A   1      42.180  30.097  29.567  1.00  0.00    -0.248 NA
ATOM     49  C   UNL A   1      43.292  30.194  27.574  1.00  0.00     0.031 C 
ATOM     50  C   UNL A   1      42.150  30.398  32.753  1.00  0.00     0.029 A 
ATOM     51  C   UNL A   1      42.067  31.463  31.873  1.00  0.00     0.049 A 
ATOM     52  H   UNL A   1      40.583  32.947  31.731  1.00  0.00     0.167 HD
ATOM     53  C   UNL A   1      42.980  31.189  29.663  1.00  0.00     0.074 A 
ATOM     54  C   UNL A   1      43.686  31.192  28.390  1.00  0.00     0.031 C 
ATOM     55  C   UNL A   1      42.936  31.956  30.793  1.00  0.00     0.031 A 
BRANCH  42  56
ATOM     56  C   UNL A   1      38.332  32.007  35.041  1.00  0.00    -0.014 A 
ATOM     57  C   UNL A   1      37.842  33.214  35.578  1.00  0.00     0.010 A 
ATOM     58  C   UNL A   1      38.253  30.887  35.895  1.00  0.00     0.010 A 
ATOM     59  C   UNL A   1      37.388  33.311  36.908  1.00  0.00     0.020 A 
ATOM     60  C   UNL A   1      37.872  30.978  37.241  1.00  0.00     0.020 A 
ATOM     61  C   UNL A   1      37.426  32.193  37.739  1.00  0.00     0.054 A 
BRANCH  61  62
ATOM     62  S   UNL A   1      36.815  32.312  39.441  1.00  0.00     0.124 S 
ATOM     63  O   UNL A   1      37.532  33.473  39.961  1.00  0.00    -0.237 OA
ATOM     64  O   UNL A   1      35.380  32.494  39.244  1.00  0.00    -0.237 OA
ATOM     65  O   UNL A   1      37.196  31.034  40.039  1.00  0.00    -0.744 OA
ENDBRANCH  61  62
ENDBRANCH  42  56
BRANCH  43  66
ATOM     66  C   UNL A   1      40.987  28.103  26.537  1.00  0.00    -0.014 A 
ATOM     67  C   UNL A   1      41.880  28.566  25.544  1.00  0.00     0.010 A 
ATOM     68  C   UNL A   1      40.540  26.807  26.344  1.00  0.00     0.010 A 
ATOM     69  C   UNL A   1      42.850  27.695  25.022  1.00  0.00     0.020 A 
ATOM     70  C   UNL A   1      41.536  25.947  25.847  1.00  0.00     0.020 A 
ATOM     71  C   UNL A   1      42.756  26.361  25.362  1.00  0.00     0.054 A 
BRANCH  71  72
ATOM     72  S   UNL A   1      44.378  25.228  25.614  1.00  0.00     0.124 S 
ATOM     73  O   UNL A   1      44.586  25.447  27.039  1.00  0.00    -0.237 OA
ATOM     74  O   UNL A   1      43.987  23.874  25.307  1.00  0.00    -0.237 OA
ATOM     75  O   UNL A   1      45.428  25.764  24.762  1.00  0.00    -0.744 OA
ENDBRANCH  71  72
ENDBRANCH  43  66
BRANCH  55  76
ATOM     76  C   UNL A   1      43.710  33.225  31.052  1.00  0.00    -0.014 A 
ATOM     77  C   UNL A   1      45.103  33.336  31.051  1.00  0.00     0.010 A 
ATOM     78  C   UNL A   1      42.983  34.416  31.311  1.00  0.00     0.010 A 
ATOM     79  C   UNL A   1      45.739  34.563  31.276  1.00  0.00     0.020 A 
ATOM     80  C   UNL A   1      43.599  35.649  31.507  1.00  0.00     0.020 A 
ATOM     81  C   UNL A   1      44.982  35.712  31.492  1.00  0.00     0.054 A 
BRANCH  81  82
ATOM     82  S   UNL A   1      45.837  37.279  31.740  1.00  0.00     0.124 S 
ATOM     83  O   UNL A   1      47.218  36.844  31.931  1.00  0.00    -0.237 OA
ATOM     84  O   UNL A   1      45.569  37.981  30.487  1.00  0.00    -0.237 OA
ATOM     85  O   UNL A   1      45.193  37.848  32.921  1.00  0.00    -0.744 OA
ENDBRANCH  81  82
ENDBRANCH  55  76
ENDBRANCH  29  30
ENDBRANCH  21  24
ENDBRANCH  19  20
ENDBRANCH   1  19
TORSDOF 15
ENDMDL
MODEL 2
REMARK VINA RESULT:     -11.6      2.418      3.323
REMARK SMILES Cc1ccc(OC(F)(F)F)cc1C(=O)NCCCNC(=O)c1ccc(-c2c3nc(c(-c4ccc(S(=O)(=O)[O-])cc4)c4ccc([nH]4)c(-c4ccc(S(=O)(=O)[O-])cc4)c4nc(c(-c5ccc(S(=O)(=O)[O-])cc5)c5ccc2[nH]5)C=C4)C=C3)cc1
REMARK SMILES IDX 17 1 16 2 15 3 13 4 14 5 12 7 1 8 2 9 3 10 4 11 11 12 5 13
REMARK SMILES IDX 6 14 7 15 8 16 9 17 10 18 18 19 19 20 20 21 21 23 22 24
REMARK SMILES IDX 23 25 81 26 24 27 80 28 25 29 26 30 27 31 74 32 28 33 79 34
REMARK SMILES IDX 73 35 75 36 29 37 78 38 72 39 71 40 30 42 60 43 41 44 59 45
REMARK SMILES IDX 42 46 45 47 58 48 76 49 43 50 44 51 57 53 77 54 46 55 31 56
REMARK SMILES IDX 32 57 40 58 33 59 39 60 34 61 35 62 36 63 37 64 38 65 61 66
REMARK SMILES IDX 62 67 70 68 63 69 69 70 64 71 65 72 66 73 67 74 68 75 47 76
REMARK SMILES IDX 48 77 56 78 49 79 55 80 50 81 51 82 52 83 53 84 54 85
REMARK H PARENT 15 6 19 22 75 41 45 52
REMARK Flexibility Score: inf
ROOT
ATOM      1  C   UNL A   1      31.709  27.133  25.376  1.00  0.00     0.042 C 
ENDROOT
BRANCH   1   2
ATOM      2  C   UNL A   1      33.238  27.016  24.838  1.00  0.00     0.118 C 
BRANCH   2   3
ATOM      3  N   UNL A   1      33.459  26.672  23.413  1.00  0.00    -0.352 N 
ATOM      4  C   UNL A   1      33.357  25.572  22.586  1.00  0.00     0.251 C 
ATOM      5  O   UNL A   1      33.311  25.713  21.361  1.00  0.00    -0.269 OA
ATOM      6  H   UNL A   1      33.770  27.460  22.910  1.00  0.00     0.163 HD
BRANCH   4   7
ATOM      7  C   UNL A   1      33.289  24.170  23.075  1.00  0.00     0.046 A 
ATOM      8  C   UNL A   1      30.738  24.125  23.169  1.00  0.00     0.045 C 
ATOM      9  C   UNL A   1      32.087  23.474  23.247  1.00  0.00    -0.038 A 
ATOM     10  C   UNL A   1      32.137  22.119  23.599  1.00  0.00     0.008 A 
ATOM     11  C   UNL A   1      33.339  21.520  23.968  1.00  0.00     0.047 A 
ATOM     12  C   UNL A   1      34.497  23.577  23.539  1.00  0.00     0.061 A 
ATOM     13  C   UNL A   1      34.513  22.267  24.022  1.00  0.00     0.130 A 
BRANCH  13  14
ATOM     14  O   UNL A   1      35.576  21.589  24.546  1.00  0.00    -0.406 OA
BRANCH  14  15
ATOM     15  C   UNL A   1      36.880  21.993  24.160  1.00  0.00     0.573 C 
ATOM     16  F   UNL A   1      36.894  22.389  22.872  1.00  0.00    -0.132 F 
ATOM     17  F   UNL A   1      37.367  22.966  24.954  1.00  0.00    -0.132 F 
ATOM     18  F   UNL A   1      37.701  20.920  24.272  1.00  0.00    -0.132 F 
ENDBRANCH  14  15
ENDBRANCH  13  14
ENDBRANCH   4   7
ENDBRANCH   2   3
ENDBRANCH   1   2
BRANCH   1  19
ATOM     19  C   UNL A   1      31.523  27.457  26.929  1.00  0.00     0.118 C 
BRANCH  19  20
ATOM     20  N   UNL A   1      31.827  28.824  27.648  1.00  0.00    -0.352 N 
ATOM     21  C   UNL A   1      32.605  30.032  27.365  1.00  0.00     0.251 C 
ATOM     22  H   UNL A   1      31.375  28.881  28.521  1.00  0.00     0.163 HD
ATOM     23  O   UNL A   1      31.897  31.047  27.227  1.00  0.00    -0.269 OA
BRANCH  21  24
ATOM     24  C   UNL A   1      34.163  30.351  27.296  1.00  0.00     0.039 A 
ATOM     25  C   UNL A   1      35.114  29.338  26.933  1.00  0.00     0.014 A 
ATOM     26  C   UNL A   1      34.780  31.550  27.641  1.00  0.00     0.014 A 
ATOM     27  C   UNL A   1      36.484  29.360  27.437  1.00  0.00     0.010 A 
ATOM     28  C   UNL A   1      36.127  31.574  28.145  1.00  0.00     0.010 A 
ATOM     29  C   UNL A   1      36.903  30.409  28.278  1.00  0.00    -0.014 A 
BRANCH  29  30
ATOM     30  C   UNL A   1      37.836  30.238  29.491  1.00  0.00     0.031 A 
ATOM     31  C   UNL A   1      37.650  31.026  30.703  1.00  0.00     0.074 A 
ATOM     32  C   UNL A   1      38.816  29.303  29.712  1.00  0.00     0.049 A 
ATOM     33  N   UNL A   1      38.569  31.725  31.288  1.00  0.00    -0.248 NA
ATOM     34  C   UNL A   1      36.385  30.956  31.409  1.00  0.00     0.031 C 
ATOM     35  C   UNL A   1      39.677  28.957  30.860  1.00  0.00     0.029 A 
ATOM     36  N   UNL A   1      39.253  28.328  28.850  1.00  0.00    -0.354 N 
ATOM     37  C   UNL A   1      38.113  31.898  32.579  1.00  0.00     0.074 A 
ATOM     38  C   UNL A   1      36.688  31.622  32.524  1.00  0.00     0.031 C 
ATOM     39  C   UNL A   1      40.711  28.180  30.444  1.00  0.00     0.029 A 
ATOM     40  C   UNL A   1      40.598  28.023  29.007  1.00  0.00     0.049 A 
ATOM     41  H   UNL A   1      38.672  27.889  28.188  1.00  0.00     0.167 HD
ATOM     42  C   UNL A   1      38.960  31.921  33.654  1.00  0.00     0.031 A 
ATOM     43  C   UNL A   1      41.479  28.331  27.998  1.00  0.00     0.031 A 
ATOM     44  C   UNL A   1      40.333  31.502  33.309  1.00  0.00     0.049 A 
ATOM     45  C   UNL A   1      42.345  29.481  28.429  1.00  0.00     0.074 A 
ATOM     46  C   UNL A   1      41.091  30.392  33.663  1.00  0.00     0.029 A 
ATOM     47  N   UNL A   1      41.016  32.093  32.249  1.00  0.00    -0.354 N 
ATOM     48  N   UNL A   1      42.237  30.042  29.595  1.00  0.00    -0.248 NA
ATOM     49  C   UNL A   1      43.355  30.129  27.605  1.00  0.00     0.031 C 
ATOM     50  C   UNL A   1      42.209  30.306  32.784  1.00  0.00     0.029 A 
ATOM     51  C   UNL A   1      42.161  31.383  31.917  1.00  0.00     0.049 A 
ATOM     52  H   UNL A   1      40.722  32.914  31.791  1.00  0.00     0.167 HD
ATOM     53  C   UNL A   1      43.069  31.108  29.705  1.00  0.00     0.074 A 
ATOM     54  C   UNL A   1      43.777  31.105  28.433  1.00  0.00     0.031 C 
ATOM     55  C   UNL A   1      43.046  31.863  30.844  1.00  0.00     0.031 A 
BRANCH  42  56
ATOM     56  C   UNL A   1      38.438  32.002  35.085  1.00  0.00    -0.014 A 
ATOM     57  C   UNL A   1      38.355  30.860  35.906  1.00  0.00     0.010 A 
ATOM     58  C   UNL A   1      38.058  33.217  35.696  1.00  0.00     0.010 A 
ATOM     59  C   UNL A   1      37.844  30.918  37.217  1.00  0.00     0.020 A 
ATOM     60  C   UNL A   1      37.482  33.283  36.972  1.00  0.00     0.020 A 
ATOM     61  C   UNL A   1      37.389  32.129  37.735  1.00  0.00     0.054 A 
BRANCH  61  62
ATOM     62  S   UNL A   1      36.759  32.205  39.432  1.00  0.00     0.124 S 
ATOM     63  O   UNL A   1      37.449  33.368  39.981  1.00  0.00    -0.237 OA
ATOM     64  O   UNL A   1      35.323  32.365  39.223  1.00  0.00    -0.237 OA
ATOM     65  O   UNL A   1      37.158  30.923  40.010  1.00  0.00    -0.744 OA
ENDBRANCH  61  62
ENDBRANCH  42  56
BRANCH  43  66
ATOM     66  C   UNL A   1      40.990  28.121  26.539  1.00  0.00    -0.014 A 
ATOM     67  C   UNL A   1      41.893  28.581  25.554  1.00  0.00     0.010 A 
ATOM     68  C   UNL A   1      40.517  26.838  26.327  1.00  0.00     0.010 A 
ATOM     69  C   UNL A   1      42.845  27.697  25.019  1.00  0.00     0.020 A 
ATOM     70  C   UNL A   1      41.494  25.965  25.818  1.00  0.00     0.020 A 
ATOM     71  C   UNL A   1      42.723  26.360  25.339  1.00  0.00     0.054 A 
BRANCH  71  72
ATOM     72  S   UNL A   1      44.321  25.190  25.574  1.00  0.00     0.124 S 
ATOM     73  O   UNL A   1      44.061  24.726  26.930  1.00  0.00    -0.237 OA
ATOM     74  O   UNL A   1      44.210  24.139  24.592  1.00  0.00    -0.237 OA
ATOM     75  O   UNL A   1      45.504  26.025  25.438  1.00  0.00    -0.744 OA
ENDBRANCH  71  72
ENDBRANCH  43  66
BRANCH  55  76
ATOM     76  C   UNL A   1      43.858  33.105  31.120  1.00  0.00    -0.014 A 
ATOM     77  C   UNL A   1      43.815  34.282  30.367  1.00  0.00     0.010 A 
ATOM     78  C   UNL A   1      44.735  33.101  32.235  1.00  0.00     0.010 A 
ATOM     79  C   UNL A   1      44.585  35.399  30.712  1.00  0.00     0.020 A 
ATOM     80  C   UNL A   1      45.485  34.214  32.608  1.00  0.00     0.020 A 
ATOM     81  C   UNL A   1      45.406  35.360  31.836  1.00  0.00     0.054 A 
BRANCH  81  82
ATOM     82  S   UNL A   1      46.354  36.831  32.268  1.00  0.00     0.124 S 
ATOM     83  O   UNL A   1      46.476  37.503  30.976  1.00  0.00    -0.237 OA
ATOM     84  O   UNL A   1      45.480  37.490  33.236  1.00  0.00    -0.237 OA
ATOM     85  O   UNL A   1      47.598  36.300  32.816  1.00  0.00    -0.744 OA
ENDBRANCH  81  82
ENDBRANCH  55  76
ENDBRANCH  29  30
ENDBRANCH  21  24
ENDBRANCH  19  20
ENDBRANCH   1  19
TORSDOF 15
ENDMDL
MODEL 3
REMARK VINA RESULT:     -11.3      4.378      9.587
REMARK SMILES Cc1ccc(OC(F)(F)F)cc1C(=O)NCCCNC(=O)c1ccc(-c2c3nc(c(-c4ccc(S(=O)(=O)[O-])cc4)c4ccc([nH]4)c(-c4ccc(S(=O)(=O)[O-])cc4)c4nc(c(-c5ccc(S(=O)(=O)[O-])cc5)c5ccc2[nH]5)C=C4)C=C3)cc1
REMARK SMILES IDX 17 1 16 2 15 3 13 4 14 5 12 7 1 8 2 9 3 10 4 11 11 12 5 13
REMARK SMILES IDX 6 14 7 15 8 16 9 17 10 18 18 19 19 20 20 21 21 23 22 24
REMARK SMILES IDX 23 25 81 26 24 27 80 28 25 29 26 30 27 31 74 32 28 33 79 34
REMARK SMILES IDX 73 35 75 36 29 37 78 38 72 39 71 40 30 42 60 43 41 44 59 45
REMARK SMILES IDX 42 46 45 47 58 48 76 49 43 50 44 51 57 53 77 54 46 55 31 56
REMARK SMILES IDX 32 57 40 58 33 59 39 60 34 61 35 62 36 63 37 64 38 65 61 66
REMARK SMILES IDX 62 67 70 68 63 69 69 70 64 71 65 72 66 73 67 74 68 75 47 76
REMARK SMILES IDX 48 77 56 78 49 79 55 80 50 81 51 82 52 83 53 84 54 85
REMARK H PARENT 15 6 19 22 75 41 45 52
REMARK Flexibility Score: inf
ROOT
ATOM      1  C   UNL A   1      33.326  32.302  27.636  1.00  0.00     0.042 C 
ENDROOT
BRANCH   1   2
ATOM      2  C   UNL A   1      33.573  30.741  27.261  1.00  0.00     0.118 C 
BRANCH   2   3
ATOM      3  N   UNL A   1      32.526  29.755  27.620  1.00  0.00    -0.352 N 
ATOM      4  C   UNL A   1      31.904  28.656  27.063  1.00  0.00     0.251 C 
ATOM      5  O   UNL A   1      31.289  27.857  27.775  1.00  0.00    -0.269 OA
ATOM      6  H   UNL A   1      32.170  29.938  28.520  1.00  0.00     0.163 HD
BRANCH   4   7
ATOM      7  C   UNL A   1      31.922  28.340  25.610  1.00  0.00     0.046 A 
ATOM      8  C   UNL A   1      33.975  26.829  25.769  1.00  0.00     0.045 C 
ATOM      9  C   UNL A   1      32.811  27.425  25.034  1.00  0.00    -0.038 A 
ATOM     10  C   UNL A   1      32.668  27.110  23.676  1.00  0.00     0.008 A 
ATOM     11  C   UNL A   1      31.799  27.832  22.863  1.00  0.00     0.047 A 
ATOM     12  C   UNL A   1      31.105  29.132  24.756  1.00  0.00     0.061 A 
ATOM     13  C   UNL A   1      31.074  28.904  23.379  1.00  0.00     0.130 A 
BRANCH  13  14
ATOM     14  O   UNL A   1      30.385  29.611  22.436  1.00  0.00    -0.406 OA
BRANCH  14  15
ATOM     15  C   UNL A   1      29.061  30.015  22.741  1.00  0.00     0.573 C 
ATOM     16  F   UNL A   1      28.330  28.967  23.170  1.00  0.00    -0.132 F 
ATOM     17  F   UNL A   1      29.028  31.011  23.648  1.00  0.00    -0.132 F 
ATOM     18  F   UNL A   1      28.490  30.478  21.601  1.00  0.00    -0.132 F 
ENDBRANCH  14  15
ENDBRANCH  13  14
ENDBRANCH   4   7
ENDBRANCH   2   3
ENDBRANCH   1   2
BRANCH   1  19
ATOM     19  C   UNL A   1      34.588  33.111  28.187  1.00  0.00     0.118 C 
BRANCH  19  20
ATOM     20  N   UNL A   1      35.670  32.588  29.205  1.00  0.00    -0.352 N 
ATOM     21  C   UNL A   1      36.916  31.821  29.141  1.00  0.00     0.251 C 
ATOM     22  H   UNL A   1      35.450  32.844  30.129  1.00  0.00     0.163 HD
ATOM     23  O   UNL A   1      37.915  32.485  29.474  1.00  0.00    -0.269 OA
BRANCH  21  24
ATOM     24  C   UNL A   1      37.260  30.297  28.838  1.00  0.00     0.039 A 
ATOM     25  C   UNL A   1      37.462  29.354  29.903  1.00  0.00     0.014 A 
ATOM     26  C   UNL A   1      37.484  29.730  27.587  1.00  0.00     0.014 A 
ATOM     27  C   UNL A   1      38.345  28.202  29.747  1.00  0.00     0.010 A 
ATOM     28  C   UNL A   1      38.360  28.600  27.429  1.00  0.00     0.010 A 
ATOM     29  C   UNL A   1      39.000  27.984  28.519  1.00  0.00    -0.014 A 
BRANCH  29  30
ATOM     30  C   UNL A   1      40.446  27.475  28.378  1.00  0.00     0.031 A 
ATOM     31  C   UNL A   1      40.730  26.063  28.156  1.00  0.00     0.074 A 
ATOM     32  C   UNL A   1      41.616  28.187  28.279  1.00  0.00     0.049 A 
ATOM     33  N   UNL A   1      41.548  25.346  28.859  1.00  0.00    -0.248 NA
ATOM     34  C   UNL A   1      40.167  25.398  26.997  1.00  0.00     0.031 C 
ATOM     35  C   UNL A   1      43.025  27.833  28.017  1.00  0.00     0.029 A 
ATOM     36  N   UNL A   1      41.777  29.548  28.362  1.00  0.00    -0.354 N 
ATOM     37  C   UNL A   1      41.858  24.271  28.052  1.00  0.00     0.074 A 
ATOM     38  C   UNL A   1      40.813  24.232  27.044  1.00  0.00     0.031 C 
ATOM     39  C   UNL A   1      43.833  28.868  28.366  1.00  0.00     0.029 A 
ATOM     40  C   UNL A   1      42.997  29.920  28.910  1.00  0.00     0.049 A 
ATOM     41  H   UNL A   1      41.097  30.193  28.065  1.00  0.00     0.167 HD
ATOM     42  C   UNL A   1      43.101  23.698  28.048  1.00  0.00     0.031 A 
ATOM     43  C   UNL A   1      43.022  30.543  30.135  1.00  0.00     0.031 A 
ATOM     44  C   UNL A   1      44.100  24.493  28.789  1.00  0.00     0.049 A 
ATOM     45  C   UNL A   1      43.573  29.596  31.164  1.00  0.00     0.074 A 
ATOM     46  C   UNL A   1      45.226  25.200  28.382  1.00  0.00     0.029 A 
ATOM     47  N   UNL A   1      43.856  24.909  30.096  1.00  0.00    -0.354 N 
ATOM     48  N   UNL A   1      43.962  28.392  30.871  1.00  0.00    -0.248 NA
ATOM     49  C   UNL A   1      43.695  29.876  32.586  1.00  0.00     0.031 C 
ATOM     50  C   UNL A   1      45.628  26.063  29.441  1.00  0.00     0.029 A 
ATOM     51  C   UNL A   1      44.776  25.861  30.511  1.00  0.00     0.049 A 
ATOM     52  H   UNL A   1      43.120  24.570  30.655  1.00  0.00     0.167 HD
ATOM     53  C   UNL A   1      44.335  27.713  31.985  1.00  0.00     0.074 A 
ATOM     54  C   UNL A   1      44.177  28.702  33.041  1.00  0.00     0.031 C 
ATOM     55  C   UNL A   1      44.715  26.404  31.877  1.00  0.00     0.031 A 
BRANCH  42  56
ATOM     56  C   UNL A   1      43.467  22.582  27.074  1.00  0.00    -0.014 A 
ATOM     57  C   UNL A   1      42.800  21.340  27.092  1.00  0.00     0.010 A 
ATOM     58  C   UNL A   1      44.444  22.731  26.067  1.00  0.00     0.010 A 
ATOM     59  C   UNL A   1      43.151  20.291  26.220  1.00  0.00     0.020 A 
ATOM     60  C   UNL A   1      44.854  21.677  25.239  1.00  0.00     0.020 A 
ATOM     61  C   UNL A   1      44.194  20.460  25.311  1.00  0.00     0.054 A 
BRANCH  61  62
ATOM     62  S   UNL A   1      44.624  19.119  24.171  1.00  0.00     0.124 S 
ATOM     63  O   UNL A   1      43.632  18.096  24.488  1.00  0.00    -0.237 OA
ATOM     64  O   UNL A   1      44.475  19.759  22.868  1.00  0.00    -0.237 OA
ATOM     65  O   UNL A   1      45.998  18.778  24.537  1.00  0.00    -0.744 OA
ENDBRANCH  61  62
ENDBRANCH  42  56
BRANCH  43  66
ATOM     66  C   UNL A   1      41.900  31.575  30.430  1.00  0.00    -0.014 A 
ATOM     67  C   UNL A   1      40.594  31.037  30.396  1.00  0.00     0.010 A 
ATOM     68  C   UNL A   1      42.174  32.339  31.551  1.00  0.00     0.010 A 
ATOM     69  C   UNL A   1      40.012  30.551  31.579  1.00  0.00     0.020 A 
ATOM     70  C   UNL A   1      41.605  31.819  32.727  1.00  0.00     0.020 A 
ATOM     71  C   UNL A   1      40.672  30.808  32.764  1.00  0.00     0.054 A 
BRANCH  71  72
ATOM     72  S   UNL A   1      40.654  29.506  34.275  1.00  0.00     0.124 S 
ATOM     73  O   UNL A   1      39.290  29.722  34.740  1.00  0.00    -0.237 OA
ATOM     74  O   UNL A   1      40.848  28.200  33.696  1.00  0.00    -0.237 OA
ATOM     75  O   UNL A   1      41.683  29.911  35.219  1.00  0.00    -0.744 OA
ENDBRANCH  71  72
ENDBRANCH  43  66
BRANCH  55  76
ATOM     76  C   UNL A   1      45.109  25.484  33.006  1.00  0.00    -0.014 A 
ATOM     77  C   UNL A   1      46.356  25.466  33.637  1.00  0.00     0.010 A 
ATOM     78  C   UNL A   1      44.146  24.560  33.488  1.00  0.00     0.010 A 
ATOM     79  C   UNL A   1      46.627  24.594  34.698  1.00  0.00     0.020 A 
ATOM     80  C   UNL A   1      44.390  23.707  34.561  1.00  0.00     0.020 A 
ATOM     81  C   UNL A   1      45.638  23.728  35.159  1.00  0.00     0.054 A 
BRANCH  81  82
ATOM     82  S   UNL A   1      46.014  22.647  36.551  1.00  0.00     0.124 S 
ATOM     83  O   UNL A   1      45.418  21.384  36.123  1.00  0.00    -0.237 OA
ATOM     84  O   UNL A   1      47.475  22.674  36.579  1.00  0.00    -0.237 OA
ATOM     85  O   UNL A   1      45.360  23.294  37.685  1.00  0.00    -0.744 OA
ENDBRANCH  81  82
ENDBRANCH  55  76
ENDBRANCH  29  30
ENDBRANCH  21  24
ENDBRANCH  19  20
ENDBRANCH   1  19
TORSDOF 15
ENDMDL
