MODEL 1
REMARK VINA RESULT:     -10.0      0.000      0.000
REMARK SMILES COc1cc(C(=O)CCC(=O)NCCCNC(=O)c2ccc(-c3c4nc(c(-c5ccc(S(=O)(=O)[O-])cc5)c5ccc([nH]5)c(-c5ccc(S(=O)(=O)[O-])cc5)c5nc(c(-c6ccc(S(=O)(=O)[O-])cc6)c6ccc3[nH]6)C=C5)C=C4)cc2)cc(OC)c1OC
REMARK SMILES IDX 13 1 12 2 10 3 11 4 9 6 8 7 6 8 7 9 5 10 3 11 4 12 83 13
REMARK SMILES IDX 80 14 79 15 2 16 1 17 84 18 85 19 81 20 82 21 14 22 15 23
REMARK SMILES IDX 16 24 17 25 18 27 19 28 20 29 78 30 21 31 77 32 22 33 23 34
REMARK SMILES IDX 24 35 71 36 25 37 76 38 70 39 72 40 26 41 75 42 69 43 68 44
REMARK SMILES IDX 27 46 57 47 38 48 56 49 39 50 42 51 55 52 73 53 40 54 41 55
REMARK SMILES IDX 54 57 74 58 43 59 28 60 29 61 37 62 30 63 36 64 31 65 32 66
REMARK SMILES IDX 33 67 34 68 35 69 58 70 59 71 67 72 60 73 66 74 61 75 62 76
REMARK SMILES IDX 63 77 64 78 65 79 44 80 45 81 53 82 46 83 52 84 47 85 48 86
REMARK SMILES IDX 49 87 50 88 51 89
REMARK H PARENT 12 5 16 26 72 45 42 56
REMARK Flexibility Score: inf
ROOT
ATOM      1  C   UNL A   1      35.059  21.373  25.908  1.00  0.00     0.117 C 
ENDROOT
BRANCH   1   2
ATOM      2  N   UNL A   1      34.092  20.312  25.619  1.00  0.00    -0.356 N 
ATOM      3  C   UNL A   1      32.795  20.347  25.210  1.00  0.00     0.220 C 
ATOM      4  O   UNL A   1      32.191  19.280  25.083  1.00  0.00    -0.275 OA
ATOM      5  H   UNL A   1      34.447  19.401  25.744  1.00  0.00     0.163 HD
BRANCH   3   6
ATOM      6  C   UNL A   1      32.101  21.661  24.941  1.00  0.00     0.108 C 
BRANCH   6   7
ATOM      7  C   UNL A   1      32.157  22.009  23.456  1.00  0.00     0.091 C 
BRANCH   7   8
ATOM      8  C   UNL A   1      32.991  23.256  23.237  1.00  0.00     0.163 C 
ATOM      9  O   UNL A   1      34.156  23.148  22.847  1.00  0.00    -0.294 OA
BRANCH   8  10
ATOM     10  C   UNL A   1      32.468  24.608  23.615  1.00  0.00     0.025 A 
ATOM     11  C   UNL A   1      32.984  26.952  24.103  1.00  0.00     0.165 A 
ATOM     12  C   UNL A   1      33.356  25.693  23.601  1.00  0.00     0.062 A 
ATOM     13  C   UNL A   1      31.669  27.197  24.494  1.00  0.00     0.203 A 
ATOM     14  C   UNL A   1      30.788  26.096  24.516  1.00  0.00     0.165 A 
ATOM     15  C   UNL A   1      31.174  24.824  24.070  1.00  0.00     0.062 A 
BRANCH  11  16
ATOM     16  O   UNL A   1      33.975  27.891  24.169  1.00  0.00    -0.493 OA
ATOM     17  C   UNL A   1      34.110  28.631  22.953  1.00  0.00     0.278 C 
ENDBRANCH  11  16
BRANCH  13  18
ATOM     18  O   UNL A   1      31.112  28.390  24.854  1.00  0.00    -0.490 OA
ATOM     19  C   UNL A   1      30.640  29.318  23.892  1.00  0.00     0.278 C 
ENDBRANCH  13  18
BRANCH  14  20
ATOM     20  O   UNL A   1      29.489  26.168  24.963  1.00  0.00    -0.493 OA
ATOM     21  C   UNL A   1      28.554  26.351  23.898  1.00  0.00     0.278 C 
ENDBRANCH  14  20
ENDBRANCH   8  10
ENDBRANCH   7   8
ENDBRANCH   6   7
ENDBRANCH   3   6
ENDBRANCH   1   2
BRANCH   1  22
ATOM     22  C   UNL A   1      36.322  21.239  25.045  1.00  0.00     0.042 C 
BRANCH  22  23
ATOM     23  C   UNL A   1      37.265  22.447  25.021  1.00  0.00     0.118 C 
BRANCH  23  24
ATOM     24  N   UNL A   1      38.644  22.144  25.369  1.00  0.00    -0.352 N 
ATOM     25  C   UNL A   1      39.478  22.684  26.327  1.00  0.00     0.251 C 
ATOM     26  H   UNL A   1      39.054  21.431  24.828  1.00  0.00     0.163 HD
ATOM     27  O   UNL A   1      40.323  21.942  26.830  1.00  0.00    -0.269 OA
BRANCH  25  28
ATOM     28  C   UNL A   1      39.478  24.115  26.746  1.00  0.00     0.039 A 
ATOM     29  C   UNL A   1      38.781  24.510  27.899  1.00  0.00     0.014 A 
ATOM     30  C   UNL A   1      40.413  25.002  26.212  1.00  0.00     0.014 A 
ATOM     31  C   UNL A   1      39.015  25.769  28.507  1.00  0.00     0.010 A 
ATOM     32  C   UNL A   1      40.619  26.273  26.796  1.00  0.00     0.010 A 
ATOM     33  C   UNL A   1      39.958  26.664  27.979  1.00  0.00    -0.014 A 
BRANCH  33  34
ATOM     34  C   UNL A   1      40.456  27.845  28.770  1.00  0.00     0.031 A 
ATOM     35  C   UNL A   1      41.786  27.897  29.488  1.00  0.00     0.074 A 
ATOM     36  C   UNL A   1      39.652  28.926  28.875  1.00  0.00     0.049 A 
ATOM     37  N   UNL A   1      42.359  28.916  30.089  1.00  0.00    -0.248 NA
ATOM     38  C   UNL A   1      42.565  26.656  29.560  1.00  0.00     0.031 C 
ATOM     39  C   UNL A   1      38.325  29.049  28.268  1.00  0.00     0.029 A 
ATOM     40  N   UNL A   1      39.815  30.113  29.552  1.00  0.00    -0.354 N 
ATOM     41  C   UNL A   1      43.574  28.457  30.589  1.00  0.00     0.074 A 
ATOM     42  C   UNL A   1      43.636  27.045  30.249  1.00  0.00     0.031 C 
ATOM     43  C   UNL A   1      37.769  30.206  28.654  1.00  0.00     0.029 A 
ATOM     44  C   UNL A   1      38.715  30.935  29.493  1.00  0.00     0.049 A 
ATOM     45  H   UNL A   1      40.640  30.350  30.034  1.00  0.00     0.167 HD
ATOM     46  C   UNL A   1      44.545  29.139  31.254  1.00  0.00     0.031 A 
ATOM     47  C   UNL A   1      38.477  32.152  30.021  1.00  0.00     0.031 A 
ATOM     48  C   UNL A   1      44.477  30.535  31.632  1.00  0.00     0.049 A 
ATOM     49  C   UNL A   1      39.564  32.895  30.736  1.00  0.00     0.074 A 
ATOM     50  C   UNL A   1      45.468  31.326  32.197  1.00  0.00     0.029 A 
ATOM     51  N   UNL A   1      43.356  31.344  31.521  1.00  0.00    -0.354 N 
ATOM     52  N   UNL A   1      40.772  32.491  31.041  1.00  0.00    -0.248 NA
ATOM     53  C   UNL A   1      39.271  34.283  31.122  1.00  0.00     0.031 C 
ATOM     54  C   UNL A   1      44.932  32.590  32.477  1.00  0.00     0.029 A 
ATOM     55  C   UNL A   1      43.621  32.607  32.038  1.00  0.00     0.049 A 
ATOM     56  H   UNL A   1      42.496  31.063  31.133  1.00  0.00     0.167 HD
ATOM     57  C   UNL A   1      41.400  33.592  31.614  1.00  0.00     0.074 A 
ATOM     58  C   UNL A   1      40.438  34.674  31.615  1.00  0.00     0.031 C 
ATOM     59  C   UNL A   1      42.671  33.690  32.075  1.00  0.00     0.031 A 
BRANCH  46  60
ATOM     60  C   UNL A   1      45.816  28.402  31.619  1.00  0.00    -0.014 A 
ATOM     61  C   UNL A   1      46.916  28.392  30.744  1.00  0.00     0.010 A 
ATOM     62  C   UNL A   1      45.965  27.833  32.900  1.00  0.00     0.010 A 
ATOM     63  C   UNL A   1      48.128  27.805  31.128  1.00  0.00     0.020 A 
ATOM     64  C   UNL A   1      47.182  27.264  33.297  1.00  0.00     0.020 A 
ATOM     65  C   UNL A   1      48.252  27.241  32.400  1.00  0.00     0.054 A 
BRANCH  65  66
ATOM     66  S   UNL A   1      49.848  26.522  32.884  1.00  0.00     0.124 S 
ATOM     67  O   UNL A   1      49.644  25.108  32.580  1.00  0.00    -0.237 OA
ATOM     68  O   UNL A   1      50.794  27.219  32.015  1.00  0.00    -0.237 OA
ATOM     69  O   UNL A   1      49.960  26.845  34.304  1.00  0.00    -0.744 OA
ENDBRANCH  65  66
ENDBRANCH  46  60
BRANCH  47  70
ATOM     70  C   UNL A   1      37.149  32.778  29.797  1.00  0.00    -0.014 A 
ATOM     71  C   UNL A   1      36.166  32.727  30.799  1.00  0.00     0.010 A 
ATOM     72  C   UNL A   1      36.895  33.492  28.612  1.00  0.00     0.010 A 
ATOM     73  C   UNL A   1      34.948  33.387  30.623  1.00  0.00     0.020 A 
ATOM     74  C   UNL A   1      35.684  34.166  28.440  1.00  0.00     0.020 A 
ATOM     75  C   UNL A   1      34.717  34.108  29.446  1.00  0.00     0.054 A 
BRANCH  75  76
ATOM     76  S   UNL A   1      33.168  35.037  29.283  1.00  0.00     0.124 S 
ATOM     77  O   UNL A   1      32.440  34.243  28.300  1.00  0.00    -0.237 OA
ATOM     78  O   UNL A   1      32.633  35.005  30.643  1.00  0.00    -0.237 OA
ATOM     79  O   UNL A   1      33.607  36.354  28.828  1.00  0.00    -0.744 OA
ENDBRANCH  75  76
ENDBRANCH  47  70
BRANCH  59  80
ATOM     80  C   UNL A   1      43.106  35.036  32.600  1.00  0.00    -0.014 A 
ATOM     81  C   UNL A   1      43.700  35.995  31.756  1.00  0.00     0.010 A 
ATOM     82  C   UNL A   1      42.949  35.336  33.965  1.00  0.00     0.010 A 
ATOM     83  C   UNL A   1      44.180  37.200  32.280  1.00  0.00     0.020 A 
ATOM     84  C   UNL A   1      43.406  36.551  34.487  1.00  0.00     0.020 A 
ATOM     85  C   UNL A   1      44.043  37.465  33.646  1.00  0.00     0.054 A 
BRANCH  85  86
ATOM     86  S   UNL A   1      44.688  39.026  34.311  1.00  0.00     0.124 S 
ATOM     87  O   UNL A   1      44.556  38.818  35.751  1.00  0.00    -0.237 OA
ATOM     88  O   UNL A   1      46.057  39.056  33.805  1.00  0.00    -0.237 OA
ATOM     89  O   UNL A   1      43.799  40.036  33.743  1.00  0.00    -0.744 OA
ENDBRANCH  85  86
ENDBRANCH  59  80
ENDBRANCH  33  34
ENDBRANCH  25  28
ENDBRANCH  23  24
ENDBRANCH  22  23
ENDBRANCH   1  22
TORSDOF 19
ENDMDL
MODEL 2
REMARK VINA RESULT:      -9.9      1.312      8.407
REMARK SMILES COc1cc(C(=O)CCC(=O)NCCCNC(=O)c2ccc(-c3c4nc(c(-c5ccc(S(=O)(=O)[O-])cc5)c5ccc([nH]5)c(-c5ccc(S(=O)(=O)[O-])cc5)c5nc(c(-c6ccc(S(=O)(=O)[O-])cc6)c6ccc3[nH]6)C=C5)C=C4)cc2)cc(OC)c1OC
REMARK SMILES IDX 13 1 12 2 10 3 11 4 9 6 8 7 6 8 7 9 5 10 3 11 4 12 83 13
REMARK SMILES IDX 80 14 79 15 2 16 1 17 84 18 85 19 81 20 82 21 14 22 15 23
REMARK SMILES IDX 16 24 17 25 18 27 19 28 20 29 78 30 21 31 77 32 22 33 23 34
REMARK SMILES IDX 24 35 71 36 25 37 76 38 70 39 72 40 26 41 75 42 69 43 68 44
REMARK SMILES IDX 27 46 57 47 38 48 56 49 39 50 42 51 55 52 73 53 40 54 41 55
REMARK SMILES IDX 54 57 74 58 43 59 28 60 29 61 37 62 30 63 36 64 31 65 32 66
REMARK SMILES IDX 33 67 34 68 35 69 58 70 59 71 67 72 60 73 66 74 61 75 62 76
REMARK SMILES IDX 63 77 64 78 65 79 44 80 45 81 53 82 46 83 52 84 47 85 48 86
REMARK SMILES IDX 49 87 50 88 51 89
REMARK H PARENT 12 5 16 26 72 45 42 56
REMARK Flexibility Score: inf
ROOT
ATOM      1  C   UNL A   1      35.167  21.021  24.763  1.00  0.00     0.117 C 
ENDROOT
BRANCH   1   2
ATOM      2  N   UNL A   1      34.872  22.326  24.167  1.00  0.00    -0.356 N 
ATOM      3  C   UNL A   1      33.738  23.077  24.133  1.00  0.00     0.220 C 
ATOM      4  O   UNL A   1      33.759  24.141  23.510  1.00  0.00    -0.275 OA
ATOM      5  H   UNL A   1      35.638  22.737  23.704  1.00  0.00     0.163 HD
BRANCH   3   6
ATOM      6  C   UNL A   1      32.476  22.610  24.819  1.00  0.00     0.108 C 
BRANCH   6   7
ATOM      7  C   UNL A   1      32.551  22.867  26.321  1.00  0.00     0.091 C 
BRANCH   7   8
ATOM      8  C   UNL A   1      31.553  23.937  26.724  1.00  0.00     0.163 C 
ATOM      9  O   UNL A   1      30.565  23.627  27.393  1.00  0.00    -0.294 OA
BRANCH   8  10
ATOM     10  C   UNL A   1      31.679  25.339  26.209  1.00  0.00     0.025 A 
ATOM     11  C   UNL A   1      30.747  27.098  24.782  1.00  0.00     0.165 A 
ATOM     12  C   UNL A   1      30.630  25.861  25.439  1.00  0.00     0.062 A 
ATOM     13  C   UNL A   1      31.857  27.911  25.000  1.00  0.00     0.203 A 
ATOM     14  C   UNL A   1      32.911  27.371  25.765  1.00  0.00     0.165 A 
ATOM     15  C   UNL A   1      32.821  26.111  26.375  1.00  0.00     0.062 A 
BRANCH  11  16
ATOM     16  O   UNL A   1      29.719  27.437  23.948  1.00  0.00    -0.493 OA
ATOM     17  C   UNL A   1      28.732  26.408  23.848  1.00  0.00     0.278 C 
ENDBRANCH  11  16
BRANCH  13  18
ATOM     18  O   UNL A   1      32.054  29.191  24.568  1.00  0.00    -0.490 OA
ATOM     19  C   UNL A   1      31.369  30.290  25.144  1.00  0.00     0.278 C 
ENDBRANCH  13  18
BRANCH  14  20
ATOM     20  O   UNL A   1      34.104  28.021  25.988  1.00  0.00    -0.493 OA
ATOM     21  C   UNL A   1      34.099  28.766  27.207  1.00  0.00     0.278 C 
ENDBRANCH  14  20
ENDBRANCH   8  10
ENDBRANCH   7   8
ENDBRANCH   6   7
ENDBRANCH   3   6
ENDBRANCH   1   2
BRANCH   1  22
ATOM     22  C   UNL A   1      36.663  20.865  25.074  1.00  0.00     0.042 C 
BRANCH  22  23
ATOM     23  C   UNL A   1      37.369  22.091  25.663  1.00  0.00     0.118 C 
BRANCH  23  24
ATOM     24  N   UNL A   1      38.822  22.032  25.614  1.00  0.00    -0.352 N 
ATOM     25  C   UNL A   1      39.782  22.729  26.320  1.00  0.00     0.251 C 
ATOM     26  H   UNL A   1      39.182  21.385  24.965  1.00  0.00     0.163 HD
ATOM     27  O   UNL A   1      40.844  22.153  26.557  1.00  0.00    -0.269 OA
BRANCH  25  28
ATOM     28  C   UNL A   1      39.655  24.150  26.755  1.00  0.00     0.039 A 
ATOM     29  C   UNL A   1      39.097  24.454  28.007  1.00  0.00     0.014 A 
ATOM     30  C   UNL A   1      40.369  25.151  26.097  1.00  0.00     0.014 A 
ATOM     31  C   UNL A   1      39.251  25.737  28.590  1.00  0.00     0.010 A 
ATOM     32  C   UNL A   1      40.491  26.442  26.661  1.00  0.00     0.010 A 
ATOM     33  C   UNL A   1      39.974  26.747  27.937  1.00  0.00    -0.014 A 
BRANCH  33  34
ATOM     34  C   UNL A   1      40.425  27.989  28.660  1.00  0.00     0.031 A 
ATOM     35  C   UNL A   1      39.552  29.199  28.910  1.00  0.00     0.074 A 
ATOM     36  C   UNL A   1      41.704  28.047  29.092  1.00  0.00     0.049 A 
ATOM     37  N   UNL A   1      39.810  30.265  29.635  1.00  0.00    -0.248 NA
ATOM     38  C   UNL A   1      38.237  29.233  28.260  1.00  0.00     0.031 C 
ATOM     39  C   UNL A   1      42.697  26.985  28.921  1.00  0.00     0.029 A 
ATOM     40  N   UNL A   1      42.398  29.047  29.733  1.00  0.00    -0.354 N 
ATOM     41  C   UNL A   1      38.689  31.087  29.555  1.00  0.00     0.074 A 
ATOM     42  C   UNL A   1      37.758  30.404  28.673  1.00  0.00     0.031 C 
ATOM     43  C   UNL A   1      43.883  27.412  29.378  1.00  0.00     0.029 A 
ATOM     44  C   UNL A   1      43.729  28.758  29.923  1.00  0.00     0.049 A 
ATOM     45  H   UNL A   1      41.982  29.889  30.027  1.00  0.00     0.167 HD
ATOM     46  C   UNL A   1      38.452  32.282  30.160  1.00  0.00     0.031 A 
ATOM     47  C   UNL A   1      44.726  29.463  30.490  1.00  0.00     0.031 A 
ATOM     48  C   UNL A   1      39.387  32.989  31.010  1.00  0.00     0.049 A 
ATOM     49  C   UNL A   1      44.443  30.770  31.166  1.00  0.00     0.074 A 
ATOM     50  C   UNL A   1      39.175  34.142  31.755  1.00  0.00     0.029 A 
ATOM     51  N   UNL A   1      40.715  32.643  31.206  1.00  0.00    -0.354 N 
ATOM     52  N   UNL A   1      43.319  31.440  31.221  1.00  0.00    -0.248 NA
ATOM     53  C   UNL A   1      45.553  31.382  31.911  1.00  0.00     0.031 C 
ATOM     54  C   UNL A   1      40.384  34.520  32.354  1.00  0.00     0.029 A 
ATOM     55  C   UNL A   1      41.339  33.575  32.027  1.00  0.00     0.049 A 
ATOM     56  H   UNL A   1      41.154  31.851  30.817  1.00  0.00     0.167 HD
ATOM     57  C   UNL A   1      43.574  32.531  32.044  1.00  0.00     0.074 A 
ATOM     58  C   UNL A   1      44.957  32.431  32.461  1.00  0.00     0.031 C 
ATOM     59  C   UNL A   1      42.721  33.511  32.432  1.00  0.00     0.031 A 
BRANCH  46  60
ATOM     60  C   UNL A   1      37.099  32.931  29.957  1.00  0.00    -0.014 A 
ATOM     61  C   UNL A   1      36.131  32.905  30.977  1.00  0.00     0.010 A 
ATOM     62  C   UNL A   1      36.842  33.691  28.799  1.00  0.00     0.010 A 
ATOM     63  C   UNL A   1      34.924  33.599  30.832  1.00  0.00     0.020 A 
ATOM     64  C   UNL A   1      35.645  34.404  28.658  1.00  0.00     0.020 A 
ATOM     65  C   UNL A   1      34.687  34.341  29.672  1.00  0.00     0.054 A 
BRANCH  65  66
ATOM     66  S   UNL A   1      33.127  35.262  29.529  1.00  0.00     0.124 S 
ATOM     67  O   UNL A   1      32.569  35.116  30.872  1.00  0.00    -0.237 OA
ATOM     68  O   UNL A   1      33.578  36.608  29.181  1.00  0.00    -0.237 OA
ATOM     69  O   UNL A   1      32.403  34.560  28.473  1.00  0.00    -0.744 OA
ENDBRANCH  65  66
ENDBRANCH  46  60
BRANCH  47  70
ATOM     70  C   UNL A   1      46.090  28.875  30.514  1.00  0.00    -0.014 A 
ATOM     71  C   UNL A   1      47.016  29.197  29.509  1.00  0.00     0.010 A 
ATOM     72  C   UNL A   1      46.486  28.055  31.587  1.00  0.00     0.010 A 
ATOM     73  C   UNL A   1      48.323  28.711  29.576  1.00  0.00     0.020 A 
ATOM     74  C   UNL A   1      47.798  27.582  31.665  1.00  0.00     0.020 A 
ATOM     75  C   UNL A   1      48.708  27.912  30.658  1.00  0.00     0.054 A 
BRANCH  75  76
ATOM     76  S   UNL A   1      50.438  27.376  30.774  1.00  0.00     0.124 S 
ATOM     77  O   UNL A   1      51.145  28.649  30.845  1.00  0.00    -0.237 OA
ATOM     78  O   UNL A   1      50.442  26.580  32.000  1.00  0.00    -0.237 OA
ATOM     79  O   UNL A   1      50.640  26.611  29.546  1.00  0.00    -0.744 OA
ENDBRANCH  75  76
ENDBRANCH  47  70
BRANCH  59  80
ATOM     80  C   UNL A   1      43.260  34.550  33.384  1.00  0.00    -0.014 A 
ATOM     81  C   UNL A   1      43.820  35.754  32.916  1.00  0.00     0.010 A 
ATOM     82  C   UNL A   1      43.234  34.306  34.769  1.00  0.00     0.010 A 
ATOM     83  C   UNL A   1      44.398  36.663  33.810  1.00  0.00     0.020 A 
ATOM     84  C   UNL A   1      43.789  35.224  35.667  1.00  0.00     0.020 A 
ATOM     85  C   UNL A   1      44.391  36.385  35.180  1.00  0.00     0.054 A 
BRANCH  85  86
ATOM     86  S   UNL A   1      45.161  37.567  36.323  1.00  0.00     0.124 S 
ATOM     87  O   UNL A   1      46.509  37.684  35.774  1.00  0.00    -0.237 OA
ATOM     88  O   UNL A   1      44.320  38.753  36.181  1.00  0.00    -0.237 OA
ATOM     89  O   UNL A   1      45.071  36.900  37.619  1.00  0.00    -0.744 OA
ENDBRANCH  85  86
ENDBRANCH  59  80
ENDBRANCH  33  34
ENDBRANCH  25  28
ENDBRANCH  23  24
ENDBRANCH  22  23
ENDBRANCH   1  22
TORSDOF 19
ENDMDL
MODEL 3
REMARK VINA RESULT:      -9.8      3.649      4.771
REMARK SMILES COc1cc(C(=O)CCC(=O)NCCCNC(=O)c2ccc(-c3c4nc(c(-c5ccc(S(=O)(=O)[O-])cc5)c5ccc([nH]5)c(-c5ccc(S(=O)(=O)[O-])cc5)c5nc(c(-c6ccc(S(=O)(=O)[O-])cc6)c6ccc3[nH]6)C=C5)C=C4)cc2)cc(OC)c1OC
REMARK SMILES IDX 13 1 12 2 10 3 11 4 9 6 8 7 6 8 7 9 5 10 3 11 4 12 83 13
REMARK SMILES IDX 80 14 79 15 2 16 1 17 84 18 85 19 81 20 82 21 14 22 15 23
REMARK SMILES IDX 16 24 17 25 18 27 19 28 20 29 78 30 21 31 77 32 22 33 23 34
REMARK SMILES IDX 24 35 71 36 25 37 76 38 70 39 72 40 26 41 75 42 69 43 68 44
REMARK SMILES IDX 27 46 57 47 38 48 56 49 39 50 42 51 55 52 73 53 40 54 41 55
REMARK SMILES IDX 54 57 74 58 43 59 28 60 29 61 37 62 30 63 36 64 31 65 32 66
REMARK SMILES IDX 33 67 34 68 35 69 58 70 59 71 67 72 60 73 66 74 61 75 62 76
REMARK SMILES IDX 63 77 64 78 65 79 44 80 45 81 53 82 46 83 52 84 47 85 48 86
REMARK SMILES IDX 49 87 50 88 51 89
REMARK H PARENT 12 5 16 26 72 45 42 56
REMARK Flexibility Score: inf
ROOT
ATOM      1  C   UNL A   1      39.867  22.470  26.627  1.00  0.00     0.117 C 
ENDROOT
BRANCH   1   2
ATOM      2  N   UNL A   1      38.901  21.440  26.234  1.00  0.00    -0.356 N 
ATOM      3  C   UNL A   1      37.905  21.432  25.308  1.00  0.00     0.220 C 
ATOM      4  O   UNL A   1      37.201  20.424  25.214  1.00  0.00    -0.275 OA
ATOM      5  H   UNL A   1      38.990  20.596  26.733  1.00  0.00     0.163 HD
BRANCH   3   6
ATOM      6  C   UNL A   1      37.648  22.635  24.432  1.00  0.00     0.108 C 
BRANCH   6   7
ATOM      7  C   UNL A   1      36.172  23.023  24.464  1.00  0.00     0.091 C 
BRANCH   7   8
ATOM      8  C   UNL A   1      35.881  23.890  25.674  1.00  0.00     0.163 C 
ATOM      9  O   UNL A   1      36.732  24.008  26.558  1.00  0.00    -0.294 OA
BRANCH   8  10
ATOM     10  C   UNL A   1      34.526  24.498  25.876  1.00  0.00     0.025 A 
ATOM     11  C   UNL A   1      32.217  24.174  26.627  1.00  0.00     0.165 A 
ATOM     12  C   UNL A   1      33.553  23.745  26.548  1.00  0.00     0.062 A 
ATOM     13  C   UNL A   1      31.853  25.438  26.165  1.00  0.00     0.203 A 
ATOM     14  C   UNL A   1      32.836  26.181  25.479  1.00  0.00     0.165 A 
ATOM     15  C   UNL A   1      34.157  25.728  25.348  1.00  0.00     0.062 A 
BRANCH  11  16
ATOM     16  O   UNL A   1      31.332  23.293  27.182  1.00  0.00    -0.493 OA
ATOM     17  C   UNL A   1      30.765  22.405  26.216  1.00  0.00     0.278 C 
ENDBRANCH  11  16
BRANCH  13  18
ATOM     18  O   UNL A   1      30.647  26.063  26.302  1.00  0.00    -0.490 OA
ATOM     19  C   UNL A   1      29.626  25.944  25.327  1.00  0.00     0.278 C 
ENDBRANCH  13  18
BRANCH  14  20
ATOM     20  O   UNL A   1      32.597  27.401  24.890  1.00  0.00    -0.493 OA
ATOM     21  C   UNL A   1      33.514  28.406  25.326  1.00  0.00     0.278 C 
ENDBRANCH  14  20
ENDBRANCH   8  10
ENDBRANCH   7   8
ENDBRANCH   6   7
ENDBRANCH   3   6
ENDBRANCH   1   2
BRANCH   1  22
ATOM     22  C   UNL A   1      41.278  22.147  26.115  1.00  0.00     0.042 C 
BRANCH  22  23
ATOM     23  C   UNL A   1      42.260  23.321  26.034  1.00  0.00     0.118 C 
BRANCH  23  24
ATOM     24  N   UNL A   1      41.691  24.548  25.499  1.00  0.00    -0.352 N 
ATOM     25  C   UNL A   1      41.826  25.862  25.901  1.00  0.00     0.251 C 
ATOM     26  H   UNL A   1      41.110  24.420  24.715  1.00  0.00     0.163 HD
ATOM     27  O   UNL A   1      41.771  26.732  25.032  1.00  0.00    -0.269 OA
BRANCH  25  28
ATOM     28  C   UNL A   1      41.963  26.309  27.317  1.00  0.00     0.039 A 
ATOM     29  C   UNL A   1      42.873  27.325  27.649  1.00  0.00     0.014 A 
ATOM     30  C   UNL A   1      40.987  25.974  28.256  1.00  0.00     0.014 A 
ATOM     31  C   UNL A   1      42.807  27.996  28.896  1.00  0.00     0.010 A 
ATOM     32  C   UNL A   1      40.944  26.617  29.514  1.00  0.00     0.010 A 
ATOM     33  C   UNL A   1      41.823  27.669  29.842  1.00  0.00    -0.014 A 
BRANCH  33  34
ATOM     34  C   UNL A   1      41.528  28.566  31.016  1.00  0.00     0.031 A 
ATOM     35  C   UNL A   1      42.232  28.488  32.352  1.00  0.00     0.074 A 
ATOM     36  C   UNL A   1      40.548  29.487  30.884  1.00  0.00     0.049 A 
ATOM     37  N   UNL A   1      42.137  29.300  33.382  1.00  0.00    -0.248 NA
ATOM     38  C   UNL A   1      43.141  27.358  32.574  1.00  0.00     0.031 C 
ATOM     39  C   UNL A   1      39.746  29.693  29.676  1.00  0.00     0.029 A 
ATOM     40  N   UNL A   1      40.036  30.399  31.778  1.00  0.00    -0.354 N 
ATOM     41  C   UNL A   1      42.987  28.802  34.365  1.00  0.00     0.074 A 
ATOM     42  C   UNL A   1      43.564  27.587  33.816  1.00  0.00     0.031 C 
ATOM     43  C   UNL A   1      38.804  30.615  29.925  1.00  0.00     0.029 A 
ATOM     44  C   UNL A   1      38.963  31.105  31.290  1.00  0.00     0.049 A 
ATOM     45  H   UNL A   1      40.404  30.533  32.682  1.00  0.00     0.167 HD
ATOM     46  C   UNL A   1      43.269  29.308  35.597  1.00  0.00     0.031 A 
ATOM     47  C   UNL A   1      38.193  32.062  31.845  1.00  0.00     0.031 A 
ATOM     48  C   UNL A   1      42.671  30.496  36.170  1.00  0.00     0.049 A 
ATOM     49  C   UNL A   1      38.528  32.617  33.196  1.00  0.00     0.074 A 
ATOM     50  C   UNL A   1      42.994  31.137  37.359  1.00  0.00     0.029 A 
ATOM     51  N   UNL A   1      41.611  31.205  35.626  1.00  0.00    -0.354 N 
ATOM     52  N   UNL A   1      39.460  32.235  34.033  1.00  0.00    -0.248 NA
ATOM     53  C   UNL A   1      37.745  33.778  33.645  1.00  0.00     0.031 C 
ATOM     54  C   UNL A   1      42.097  32.195  37.558  1.00  0.00     0.029 A 
ATOM     55  C   UNL A   1      41.247  32.249  36.469  1.00  0.00     0.049 A 
ATOM     56  H   UNL A   1      41.177  30.996  34.767  1.00  0.00     0.167 HD
ATOM     57  C   UNL A   1      39.405  33.136  35.091  1.00  0.00     0.074 A 
ATOM     58  C   UNL A   1      38.348  34.079  34.787  1.00  0.00     0.031 C 
ATOM     59  C   UNL A   1      40.182  33.182  36.200  1.00  0.00     0.031 A 
BRANCH  46  60
ATOM     60  C   UNL A   1      44.302  28.596  36.443  1.00  0.00    -0.014 A 
ATOM     61  C   UNL A   1      45.608  29.104  36.559  1.00  0.00     0.010 A 
ATOM     62  C   UNL A   1      43.932  27.493  37.239  1.00  0.00     0.010 A 
ATOM     63  C   UNL A   1      46.531  28.509  37.427  1.00  0.00     0.020 A 
ATOM     64  C   UNL A   1      44.846  26.908  38.126  1.00  0.00     0.020 A 
ATOM     65  C   UNL A   1      46.145  27.413  38.202  1.00  0.00     0.054 A 
BRANCH  65  66
ATOM     66  S   UNL A   1      47.353  26.686  39.349  1.00  0.00     0.124 S 
ATOM     67  O   UNL A   1      47.443  27.717  40.381  1.00  0.00    -0.237 OA
ATOM     68  O   UNL A   1      46.703  25.444  39.760  1.00  0.00    -0.237 OA
ATOM     69  O   UNL A   1      48.552  26.517  38.532  1.00  0.00    -0.744 OA
ENDBRANCH  65  66
ENDBRANCH  46  60
BRANCH  47  70
ATOM     70  C   UNL A   1      37.067  32.618  31.053  1.00  0.00    -0.014 A 
ATOM     71  C   UNL A   1      37.311  33.567  30.047  1.00  0.00     0.010 A 
ATOM     72  C   UNL A   1      35.759  32.139  31.253  1.00  0.00     0.010 A 
ATOM     73  C   UNL A   1      36.265  34.028  29.246  1.00  0.00     0.020 A 
ATOM     74  C   UNL A   1      34.713  32.586  30.442  1.00  0.00     0.020 A 
ATOM     75  C   UNL A   1      34.973  33.529  29.445  1.00  0.00     0.054 A 
BRANCH  75  76
ATOM     76  S   UNL A   1      33.649  34.069  28.327  1.00  0.00     0.124 S 
ATOM     77  O   UNL A   1      32.668  34.612  29.260  1.00  0.00    -0.237 OA
ATOM     78  O   UNL A   1      34.328  35.049  27.482  1.00  0.00    -0.237 OA
ATOM     79  O   UNL A   1      33.256  32.839  27.645  1.00  0.00    -0.744 OA
ENDBRANCH  75  76
ENDBRANCH  47  70
BRANCH  59  80
ATOM     80  C   UNL A   1      39.933  34.315  37.165  1.00  0.00    -0.014 A 
ATOM     81  C   UNL A   1      40.548  35.570  36.995  1.00  0.00     0.010 A 
ATOM     82  C   UNL A   1      39.096  34.113  38.277  1.00  0.00     0.010 A 
ATOM     83  C   UNL A   1      40.377  36.579  37.950  1.00  0.00     0.020 A 
ATOM     84  C   UNL A   1      38.903  35.127  39.220  1.00  0.00     0.020 A 
ATOM     85  C   UNL A   1      39.567  36.346  39.065  1.00  0.00     0.054 A 
BRANCH  85  86
ATOM     86  S   UNL A   1      39.371  37.659  40.303  1.00  0.00     0.124 S 
ATOM     87  O   UNL A   1      40.614  38.411  40.145  1.00  0.00    -0.237 OA
ATOM     88  O   UNL A   1      38.162  38.348  39.860  1.00  0.00    -0.237 OA
ATOM     89  O   UNL A   1      39.238  36.929  41.561  1.00  0.00    -0.744 OA
ENDBRANCH  85  86
ENDBRANCH  59  80
ENDBRANCH  33  34
ENDBRANCH  25  28
ENDBRANCH  23  24
ENDBRANCH  22  23
ENDBRANCH   1  22
TORSDOF 19
ENDMDL
