MODEL 1
REMARK VINA RESULT:     -11.7      0.000      0.000
REMARK SMILES C[C@H]1CCC[C@H](C)N1C(=O)[C@H]1[C@@H](C(=O)NCCCNC(=O)c2ccc(-c3c4nc(c(-c5ccc(S(=O)(=O)[O-])cc5)c5ccc([nH]5)c(-c5ccc(S(=O)(=O)[O-])cc5)c5nc(c(-c6ccc(S(=O)(=O)[O-])cc6)c6ccc3[nH]6)C=C5)C=C4)cc2)[C@H]2CC[C@@H]1O2
REMARK SMILES IDX 18 1 17 2 16 3 15 4 13 5 14 6 12 8 11 9 85 10 82 11 84 12
REMARK SMILES IDX 86 13 83 14 9 15 1 16 2 17 3 18 8 19 4 20 6 21 5 22 7 23
REMARK SMILES IDX 10 24 19 25 20 26 21 28 22 29 23 30 81 31 24 32 80 33 25 34
REMARK SMILES IDX 26 35 27 36 74 37 28 38 79 39 73 40 75 41 29 42 78 43 72 44
REMARK SMILES IDX 71 45 30 47 60 48 41 49 59 50 42 51 45 52 58 53 76 54 43 55
REMARK SMILES IDX 44 56 57 58 77 59 46 60 31 61 32 62 40 63 33 64 39 65 34 66
REMARK SMILES IDX 35 67 36 68 37 69 38 70 61 71 62 72 70 73 63 74 69 75 64 76
REMARK SMILES IDX 65 77 66 78 67 79 68 80 47 81 48 82 56 83 49 84 55 85 50 86
REMARK SMILES IDX 51 87 52 88 53 89 54 90
REMARK H PARENT 15 7 19 27 75 46 45 57
REMARK Flexibility Score: inf
ROOT
ATOM      1  C   UNL A   1      33.533  28.629  27.262  1.00  0.00     0.118 C 
ENDROOT
BRANCH   1   2
ATOM      2  C   UNL A   1      32.300  27.854  27.710  1.00  0.00     0.042 C 
BRANCH   2   3
ATOM      3  C   UNL A   1      31.250  27.741  26.613  1.00  0.00     0.117 C 
BRANCH   3   4
ATOM      4  N   UNL A   1      30.848  26.361  26.429  1.00  0.00    -0.356 N 
ATOM      5  C   UNL A   1      30.660  25.568  25.359  1.00  0.00     0.226 C 
ATOM      6  O   UNL A   1      30.396  24.387  25.626  1.00  0.00    -0.275 OA
ATOM      7  H   UNL A   1      30.672  25.899  27.280  1.00  0.00     0.163 HD
BRANCH   5   8
ATOM      8  C   UNL A   1      30.794  25.963  23.903  1.00  0.00     0.122 C 
ATOM      9  C   UNL A   1      32.172  25.970  23.230  1.00  0.00     0.122 C 
ATOM     10  C   UNL A   1      32.069  27.243  22.369  1.00  0.00     0.132 C 
ATOM     11  C   UNL A   1      30.101  27.201  23.326  1.00  0.00     0.132 C 
ATOM     12  C   UNL A   1      32.022  28.582  23.096  1.00  0.00     0.035 C 
ATOM     13  O   UNL A   1      30.659  27.148  21.971  1.00  0.00    -0.373 OA
ATOM     14  C   UNL A   1      30.622  28.575  23.710  1.00  0.00     0.035 C 
BRANCH   9  15
ATOM     15  C   UNL A   1      33.385  25.785  24.127  1.00  0.00     0.229 C 
ATOM     16  C   UNL A   1      33.286  23.388  22.023  1.00  0.00     0.031 C 
ATOM     17  C   UNL A   1      33.980  23.326  23.384  1.00  0.00     0.082 C 
ATOM     18  C   UNL A   1      35.434  22.884  23.077  1.00  0.00     0.025 C 
ATOM     19  N   UNL A   1      33.985  24.527  24.288  1.00  0.00    -0.337 N 
ATOM     20  C   UNL A   1      36.290  22.699  24.321  1.00  0.00     0.004 C 
ATOM     21  C   UNL A   1      34.823  24.358  25.513  1.00  0.00     0.082 C 
ATOM     22  C   UNL A   1      36.259  23.968  25.154  1.00  0.00     0.025 C 
ATOM     23  C   UNL A   1      34.222  23.354  26.513  1.00  0.00     0.031 C 
ATOM     24  O   UNL A   1      33.800  26.763  24.757  1.00  0.00    -0.274 OA
ENDBRANCH   9  15
ENDBRANCH   5   8
ENDBRANCH   3   4
ENDBRANCH   2   3
ENDBRANCH   1   2
BRANCH   1  25
ATOM     25  N   UNL A   1      33.436  30.049  27.573  1.00  0.00    -0.352 N 
ATOM     26  C   UNL A   1      34.380  30.860  28.160  1.00  0.00     0.251 C 
ATOM     27  H   UNL A   1      32.587  30.484  27.330  1.00  0.00     0.163 HD
ATOM     28  O   UNL A   1      34.088  31.993  28.514  1.00  0.00    -0.269 OA
BRANCH  26  29
ATOM     29  C   UNL A   1      35.741  30.328  28.383  1.00  0.00     0.039 A 
ATOM     30  C   UNL A   1      36.666  30.371  27.339  1.00  0.00     0.014 A 
ATOM     31  C   UNL A   1      36.106  29.823  29.634  1.00  0.00     0.014 A 
ATOM     32  C   UNL A   1      37.980  29.958  27.568  1.00  0.00     0.010 A 
ATOM     33  C   UNL A   1      37.432  29.483  29.880  1.00  0.00     0.010 A 
ATOM     34  C   UNL A   1      38.380  29.538  28.847  1.00  0.00    -0.014 A 
BRANCH  34  35
ATOM     35  C   UNL A   1      39.786  29.148  29.120  1.00  0.00     0.031 A 
ATOM     36  C   UNL A   1      40.748  30.147  29.704  1.00  0.00     0.074 A 
ATOM     37  C   UNL A   1      40.214  27.915  28.785  1.00  0.00     0.049 A 
ATOM     38  N   UNL A   1      42.018  30.004  29.981  1.00  0.00    -0.248 NA
ATOM     39  C   UNL A   1      40.219  31.493  29.982  1.00  0.00     0.031 C 
ATOM     40  C   UNL A   1      39.395  26.877  28.151  1.00  0.00     0.029 A 
ATOM     41  N   UNL A   1      41.446  27.327  28.923  1.00  0.00    -0.354 N 
ATOM     42  C   UNL A   1      42.444  31.243  30.448  1.00  0.00     0.074 A 
ATOM     43  C   UNL A   1      41.311  32.138  30.361  1.00  0.00     0.031 C 
ATOM     44  C   UNL A   1      40.142  25.776  27.977  1.00  0.00     0.029 A 
ATOM     45  C   UNL A   1      41.495  26.035  28.457  1.00  0.00     0.049 A 
ATOM     46  H   UNL A   1      42.221  27.788  29.319  1.00  0.00     0.167 HD
ATOM     47  C   UNL A   1      43.659  31.598  30.931  1.00  0.00     0.031 A 
ATOM     48  C   UNL A   1      42.516  25.156  28.420  1.00  0.00     0.031 A 
ATOM     49  C   UNL A   1      44.781  30.702  31.023  1.00  0.00     0.049 A 
ATOM     50  C   UNL A   1      43.848  25.558  28.988  1.00  0.00     0.074 A 
ATOM     51  C   UNL A   1      46.037  30.944  31.548  1.00  0.00     0.029 A 
ATOM     52  N   UNL A   1      44.780  29.387  30.577  1.00  0.00    -0.354 N 
ATOM     53  N   UNL A   1      44.210  26.710  29.499  1.00  0.00    -0.248 NA
ATOM     54  C   UNL A   1      44.901  24.535  28.994  1.00  0.00     0.031 C 
ATOM     55  C   UNL A   1      46.810  29.788  31.381  1.00  0.00     0.029 A 
ATOM     56  C   UNL A   1      46.018  28.810  30.799  1.00  0.00     0.049 A 
ATOM     57  H   UNL A   1      44.011  28.933  30.163  1.00  0.00     0.167 HD
ATOM     58  C   UNL A   1      45.531  26.548  29.901  1.00  0.00     0.074 A 
ATOM     59  C   UNL A   1      45.894  25.179  29.594  1.00  0.00     0.031 C 
ATOM     60  C   UNL A   1      46.367  27.450  30.473  1.00  0.00     0.031 A 
BRANCH  47  61
ATOM     61  C   UNL A   1      43.825  33.023  31.387  1.00  0.00    -0.014 A 
ATOM     62  C   UNL A   1      43.522  33.402  32.709  1.00  0.00     0.010 A 
ATOM     63  C   UNL A   1      44.281  34.002  30.485  1.00  0.00     0.010 A 
ATOM     64  C   UNL A   1      43.608  34.739  33.102  1.00  0.00     0.020 A 
ATOM     65  C   UNL A   1      44.398  35.337  30.883  1.00  0.00     0.020 A 
ATOM     66  C   UNL A   1      44.035  35.702  32.182  1.00  0.00     0.054 A 
BRANCH  66  67
ATOM     67  S   UNL A   1      44.122  37.434  32.711  1.00  0.00     0.124 S 
ATOM     68  O   UNL A   1      45.473  37.510  33.264  1.00  0.00    -0.237 OA
ATOM     69  O   UNL A   1      43.914  38.164  31.463  1.00  0.00    -0.237 OA
ATOM     70  O   UNL A   1      43.043  37.553  33.687  1.00  0.00    -0.744 OA
ENDBRANCH  66  67
ENDBRANCH  47  61
BRANCH  48  71
ATOM     71  C   UNL A   1      42.296  23.803  27.844  1.00  0.00    -0.014 A 
ATOM     72  C   UNL A   1      42.606  23.539  26.498  1.00  0.00     0.010 A 
ATOM     73  C   UNL A   1      41.822  22.755  28.655  1.00  0.00     0.010 A 
ATOM     74  C   UNL A   1      42.442  22.254  25.973  1.00  0.00     0.020 A 
ATOM     75  C   UNL A   1      41.681  21.463  28.139  1.00  0.00     0.020 A 
ATOM     76  C   UNL A   1      41.986  21.222  26.799  1.00  0.00     0.054 A 
BRANCH  76  77
ATOM     77  S   UNL A   1      41.861  19.544  26.118  1.00  0.00     0.124 S 
ATOM     78  O   UNL A   1      40.452  19.471  25.749  1.00  0.00    -0.237 OA
ATOM     79  O   UNL A   1      42.807  19.583  25.006  1.00  0.00    -0.237 OA
ATOM     80  O   UNL A   1      42.263  18.693  27.236  1.00  0.00    -0.744 OA
ENDBRANCH  76  77
ENDBRANCH  48  71
BRANCH  60  81
ATOM     81  C   UNL A   1      47.754  26.979  30.816  1.00  0.00    -0.014 A 
ATOM     82  C   UNL A   1      48.829  27.179  29.932  1.00  0.00     0.010 A 
ATOM     83  C   UNL A   1      47.992  26.364  32.059  1.00  0.00     0.010 A 
ATOM     84  C   UNL A   1      50.112  26.739  30.270  1.00  0.00     0.020 A 
ATOM     85  C   UNL A   1      49.278  25.945  32.411  1.00  0.00     0.020 A 
ATOM     86  C   UNL A   1      50.327  26.121  31.506  1.00  0.00     0.054 A 
BRANCH  86  87
ATOM     87  S   UNL A   1      52.005  25.585  31.934  1.00  0.00     0.124 S 
ATOM     88  O   UNL A   1      51.825  24.150  32.130  1.00  0.00    -0.237 OA
ATOM     89  O   UNL A   1      52.778  25.968  30.754  1.00  0.00    -0.237 OA
ATOM     90  O   UNL A   1      52.312  26.346  33.144  1.00  0.00    -0.744 OA
ENDBRANCH  86  87
ENDBRANCH  60  81
ENDBRANCH  34  35
ENDBRANCH  26  29
ENDBRANCH   1  25
TORSDOF 14
ENDMDL
MODEL 2
REMARK VINA RESULT:     -11.4      4.500     10.316
REMARK SMILES C[C@H]1CCC[C@H](C)N1C(=O)[C@H]1[C@@H](C(=O)NCCCNC(=O)c2ccc(-c3c4nc(c(-c5ccc(S(=O)(=O)[O-])cc5)c5ccc([nH]5)c(-c5ccc(S(=O)(=O)[O-])cc5)c5nc(c(-c6ccc(S(=O)(=O)[O-])cc6)c6ccc3[nH]6)C=C5)C=C4)cc2)[C@H]2CC[C@@H]1O2
REMARK SMILES IDX 18 1 17 2 16 3 15 4 13 5 14 6 12 8 11 9 85 10 82 11 84 12
REMARK SMILES IDX 86 13 83 14 9 15 1 16 2 17 3 18 8 19 4 20 6 21 5 22 7 23
REMARK SMILES IDX 10 24 19 25 20 26 21 28 22 29 23 30 81 31 24 32 80 33 25 34
REMARK SMILES IDX 26 35 27 36 74 37 28 38 79 39 73 40 75 41 29 42 78 43 72 44
REMARK SMILES IDX 71 45 30 47 60 48 41 49 59 50 42 51 45 52 58 53 76 54 43 55
REMARK SMILES IDX 44 56 57 58 77 59 46 60 31 61 32 62 40 63 33 64 39 65 34 66
REMARK SMILES IDX 35 67 36 68 37 69 38 70 61 71 62 72 70 73 63 74 69 75 64 76
REMARK SMILES IDX 65 77 66 78 67 79 68 80 47 81 48 82 56 83 49 84 55 85 50 86
REMARK SMILES IDX 51 87 52 88 53 89 54 90
REMARK H PARENT 15 7 19 27 75 46 45 57
REMARK Flexibility Score: inf
ROOT
ATOM      1  C   UNL A   1      38.462  24.207  26.509  1.00  0.00     0.118 C 
ENDROOT
BRANCH   1   2
ATOM      2  C   UNL A   1      37.546  23.426  25.575  1.00  0.00     0.042 C 
BRANCH   2   3
ATOM      3  C   UNL A   1      36.122  23.965  25.567  1.00  0.00     0.117 C 
BRANCH   3   4
ATOM      4  N   UNL A   1      35.589  23.984  24.219  1.00  0.00    -0.356 N 
ATOM      5  C   UNL A   1      34.510  23.443  23.624  1.00  0.00     0.226 C 
ATOM      6  O   UNL A   1      34.348  23.775  22.441  1.00  0.00    -0.275 OA
ATOM      7  H   UNL A   1      36.141  24.512  23.599  1.00  0.00     0.163 HD
BRANCH   5   8
ATOM      8  C   UNL A   1      33.479  22.539  24.265  1.00  0.00     0.122 C 
ATOM      9  C   UNL A   1      32.375  23.134  25.148  1.00  0.00     0.122 C 
ATOM     10  C   UNL A   1      32.305  22.084  26.273  1.00  0.00     0.132 C 
ATOM     11  C   UNL A   1      33.863  21.244  24.987  1.00  0.00     0.132 C 
ATOM     12  C   UNL A   1      33.499  21.983  27.216  1.00  0.00     0.035 C 
ATOM     13  O   UNL A   1      32.534  20.870  25.481  1.00  0.00    -0.373 OA
ATOM     14  C   UNL A   1      34.565  21.337  26.331  1.00  0.00     0.035 C 
BRANCH   9  15
ATOM     15  C   UNL A   1      32.498  24.602  25.520  1.00  0.00     0.229 C 
ATOM     16  C   UNL A   1      30.310  24.303  23.216  1.00  0.00     0.031 C 
ATOM     17  C   UNL A   1      31.105  25.576  23.502  1.00  0.00     0.082 C 
ATOM     18  C   UNL A   1      30.040  26.686  23.693  1.00  0.00     0.025 C 
ATOM     19  N   UNL A   1      32.097  25.613  24.632  1.00  0.00    -0.337 N 
ATOM     20  C   UNL A   1      30.634  28.066  23.929  1.00  0.00     0.004 C 
ATOM     21  C   UNL A   1      32.688  26.963  24.875  1.00  0.00     0.082 C 
ATOM     22  C   UNL A   1      31.597  28.013  25.103  1.00  0.00     0.025 C 
ATOM     23  C   UNL A   1      33.642  27.408  23.753  1.00  0.00     0.031 C 
ATOM     24  O   UNL A   1      33.012  24.890  26.606  1.00  0.00    -0.274 OA
ENDBRANCH   9  15
ENDBRANCH   5   8
ENDBRANCH   3   4
ENDBRANCH   2   3
ENDBRANCH   1   2
BRANCH   1  25
ATOM     25  N   UNL A   1      39.867  24.065  26.151  1.00  0.00    -0.352 N 
ATOM     26  C   UNL A   1      40.926  24.860  26.523  1.00  0.00     0.251 C 
ATOM     27  H   UNL A   1      40.086  23.302  25.570  1.00  0.00     0.163 HD
ATOM     28  O   UNL A   1      42.023  24.715  26.001  1.00  0.00    -0.269 OA
BRANCH  26  29
ATOM     29  C   UNL A   1      40.710  25.912  27.539  1.00  0.00     0.039 A 
ATOM     30  C   UNL A   1      39.768  25.698  28.547  1.00  0.00     0.014 A 
ATOM     31  C   UNL A   1      41.465  27.088  27.511  1.00  0.00     0.014 A 
ATOM     32  C   UNL A   1      39.623  26.644  29.563  1.00  0.00     0.010 A 
ATOM     33  C   UNL A   1      41.372  27.992  28.564  1.00  0.00     0.010 A 
ATOM     34  C   UNL A   1      40.444  27.784  29.596  1.00  0.00    -0.014 A 
BRANCH  34  35
ATOM     35  C   UNL A   1      40.340  28.771  30.699  1.00  0.00     0.031 A 
ATOM     36  C   UNL A   1      41.216  28.640  31.915  1.00  0.00     0.074 A 
ATOM     37  C   UNL A   1      39.414  29.748  30.636  1.00  0.00     0.049 A 
ATOM     38  N   UNL A   1      41.248  29.381  32.992  1.00  0.00    -0.248 NA
ATOM     39  C   UNL A   1      42.156  27.507  31.936  1.00  0.00     0.031 C 
ATOM     40  C   UNL A   1      38.460  29.941  29.540  1.00  0.00     0.029 A 
ATOM     41  N   UNL A   1      39.118  30.758  31.516  1.00  0.00    -0.354 N 
ATOM     42  C   UNL A   1      42.197  28.797  33.825  1.00  0.00     0.074 A 
ATOM     43  C   UNL A   1      42.672  27.608  33.152  1.00  0.00     0.031 C 
ATOM     44  C   UNL A   1      37.701  31.017  29.805  1.00  0.00     0.029 A 
ATOM     45  C   UNL A   1      38.093  31.572  31.097  1.00  0.00     0.049 A 
ATOM     46  H   UNL A   1      39.596  30.888  32.367  1.00  0.00     0.167 HD
ATOM     47  C   UNL A   1      42.651  29.224  35.028  1.00  0.00     0.031 A 
ATOM     48  C   UNL A   1      37.529  32.644  31.686  1.00  0.00     0.031 A 
ATOM     49  C   UNL A   1      42.181  30.411  35.690  1.00  0.00     0.049 A 
ATOM     50  C   UNL A   1      38.067  33.121  33.006  1.00  0.00     0.074 A 
ATOM     51  C   UNL A   1      42.614  30.963  36.882  1.00  0.00     0.029 A 
ATOM     52  N   UNL A   1      41.167  31.232  35.214  1.00  0.00    -0.354 N 
ATOM     53  N   UNL A   1      39.019  32.600  33.741  1.00  0.00    -0.248 NA
ATOM     54  C   UNL A   1      37.469  34.340  33.564  1.00  0.00     0.031 C 
ATOM     55  C   UNL A   1      41.833  32.095  37.148  1.00  0.00     0.029 A 
ATOM     56  C   UNL A   1      40.949  32.276  36.095  1.00  0.00     0.049 A 
ATOM     57  H   UNL A   1      40.676  31.091  34.372  1.00  0.00     0.167 HD
ATOM     58  C   UNL A   1      39.146  33.436  34.845  1.00  0.00     0.074 A 
ATOM     59  C   UNL A   1      38.187  34.509  34.666  1.00  0.00     0.031 C 
ATOM     60  C   UNL A   1      39.980  33.327  35.909  1.00  0.00     0.031 A 
BRANCH  47  61
ATOM     61  C   UNL A   1      43.707  28.385  35.698  1.00  0.00    -0.014 A 
ATOM     62  C   UNL A   1      45.074  28.597  35.438  1.00  0.00     0.010 A 
ATOM     63  C   UNL A   1      43.334  27.366  36.592  1.00  0.00     0.010 A 
ATOM     64  C   UNL A   1      46.043  27.766  36.006  1.00  0.00     0.020 A 
ATOM     65  C   UNL A   1      44.301  26.551  37.187  1.00  0.00     0.020 A 
ATOM     66  C   UNL A   1      45.648  26.739  36.869  1.00  0.00     0.054 A 
BRANCH  66  67
ATOM     67  S   UNL A   1      46.923  25.663  37.582  1.00  0.00     0.124 S 
ATOM     68  O   UNL A   1      46.999  24.592  36.590  1.00  0.00    -0.237 OA
ATOM     69  O   UNL A   1      48.088  26.542  37.646  1.00  0.00    -0.237 OA
ATOM     70  O   UNL A   1      46.366  25.276  38.874  1.00  0.00    -0.744 OA
ENDBRANCH  66  67
ENDBRANCH  47  61
BRANCH  48  71
ATOM     71  C   UNL A   1      36.408  33.348  31.007  1.00  0.00    -0.014 A 
ATOM     72  C   UNL A   1      35.181  33.542  31.666  1.00  0.00     0.010 A 
ATOM     73  C   UNL A   1      36.580  33.873  29.713  1.00  0.00     0.010 A 
ATOM     74  C   UNL A   1      34.146  34.244  31.042  1.00  0.00     0.020 A 
ATOM     75  C   UNL A   1      35.556  34.598  29.097  1.00  0.00     0.020 A 
ATOM     76  C   UNL A   1      34.342  34.773  29.763  1.00  0.00     0.054 A 
BRANCH  76  77
ATOM     77  S   UNL A   1      33.015  35.753  29.007  1.00  0.00     0.124 S 
ATOM     78  O   UNL A   1      32.359  34.769  28.153  1.00  0.00    -0.237 OA
ATOM     79  O   UNL A   1      32.248  36.197  30.168  1.00  0.00    -0.237 OA
ATOM     80  O   UNL A   1      33.734  36.815  28.304  1.00  0.00    -0.744 OA
ENDBRANCH  76  77
ENDBRANCH  48  71
BRANCH  60  81
ATOM     81  C   UNL A   1      39.901  34.404  36.956  1.00  0.00    -0.014 A 
ATOM     82  C   UNL A   1      40.626  35.602  36.823  1.00  0.00     0.010 A 
ATOM     83  C   UNL A   1      39.059  34.230  38.069  1.00  0.00     0.010 A 
ATOM     84  C   UNL A   1      40.536  36.593  37.805  1.00  0.00     0.020 A 
ATOM     85  C   UNL A   1      38.947  35.230  39.040  1.00  0.00     0.020 A 
ATOM     86  C   UNL A   1      39.701  36.398  38.909  1.00  0.00     0.054 A 
BRANCH  86  87
ATOM     87  S   UNL A   1      39.578  37.711  40.154  1.00  0.00     0.124 S 
ATOM     88  O   UNL A   1      40.762  38.514  39.865  1.00  0.00    -0.237 OA
ATOM     89  O   UNL A   1      38.297  38.339  39.836  1.00  0.00    -0.237 OA
ATOM     90  O   UNL A   1      39.609  36.987  41.424  1.00  0.00    -0.744 OA
ENDBRANCH  86  87
ENDBRANCH  60  81
ENDBRANCH  34  35
ENDBRANCH  26  29
ENDBRANCH   1  25
TORSDOF 14
ENDMDL
MODEL 3
REMARK VINA RESULT:     -11.4      2.483      9.178
REMARK SMILES C[C@H]1CCC[C@H](C)N1C(=O)[C@H]1[C@@H](C(=O)NCCCNC(=O)c2ccc(-c3c4nc(c(-c5ccc(S(=O)(=O)[O-])cc5)c5ccc([nH]5)c(-c5ccc(S(=O)(=O)[O-])cc5)c5nc(c(-c6ccc(S(=O)(=O)[O-])cc6)c6ccc3[nH]6)C=C5)C=C4)cc2)[C@H]2CC[C@@H]1O2
REMARK SMILES IDX 18 1 17 2 16 3 15 4 13 5 14 6 12 8 11 9 85 10 82 11 84 12
REMARK SMILES IDX 86 13 83 14 9 15 1 16 2 17 3 18 8 19 4 20 6 21 5 22 7 23
REMARK SMILES IDX 10 24 19 25 20 26 21 28 22 29 23 30 81 31 24 32 80 33 25 34
REMARK SMILES IDX 26 35 27 36 74 37 28 38 79 39 73 40 75 41 29 42 78 43 72 44
REMARK SMILES IDX 71 45 30 47 60 48 41 49 59 50 42 51 45 52 58 53 76 54 43 55
REMARK SMILES IDX 44 56 57 58 77 59 46 60 31 61 32 62 40 63 33 64 39 65 34 66
REMARK SMILES IDX 35 67 36 68 37 69 38 70 61 71 62 72 70 73 63 74 69 75 64 76
REMARK SMILES IDX 65 77 66 78 67 79 68 80 47 81 48 82 56 83 49 84 55 85 50 86
REMARK SMILES IDX 51 87 52 88 53 89 54 90
REMARK H PARENT 15 7 19 27 75 46 45 57
REMARK Flexibility Score: inf
ROOT
ATOM      1  C   UNL A   1      36.557  23.410  26.049  1.00  0.00     0.118 C 
ENDROOT
BRANCH   1   2
ATOM      2  C   UNL A   1      36.008  23.684  24.653  1.00  0.00     0.042 C 
BRANCH   2   3
ATOM      3  C   UNL A   1      35.070  22.587  24.168  1.00  0.00     0.117 C 
BRANCH   3   4
ATOM      4  N   UNL A   1      34.142  23.106  23.183  1.00  0.00    -0.356 N 
ATOM      5  C   UNL A   1      32.821  23.360  23.172  1.00  0.00     0.226 C 
ATOM      6  O   UNL A   1      32.403  23.902  22.139  1.00  0.00    -0.275 OA
ATOM      7  H   UNL A   1      34.577  23.322  22.326  1.00  0.00     0.163 HD
BRANCH   5   8
ATOM      8  C   UNL A   1      31.841  23.104  24.298  1.00  0.00     0.122 C 
ATOM      9  C   UNL A   1      31.531  24.207  25.317  1.00  0.00     0.122 C 
ATOM     10  C   UNL A   1      31.463  23.388  26.620  1.00  0.00     0.132 C 
ATOM     11  C   UNL A   1      31.885  21.829  25.144  1.00  0.00     0.132 C 
ATOM     12  C   UNL A   1      32.762  22.781  27.138  1.00  0.00     0.035 C 
ATOM     13  O   UNL A   1      30.829  22.169  26.103  1.00  0.00    -0.373 OA
ATOM     14  C   UNL A   1      33.018  21.651  26.140  1.00  0.00     0.035 C 
BRANCH   9  15
ATOM     15  C   UNL A   1      32.397  25.454  25.276  1.00  0.00     0.229 C 
ATOM     16  C   UNL A   1      29.534  26.151  24.053  1.00  0.00     0.031 C 
ATOM     17  C   UNL A   1      30.825  26.906  23.736  1.00  0.00     0.082 C 
ATOM     18  C   UNL A   1      30.511  28.393  24.043  1.00  0.00     0.025 C 
ATOM     19  N   UNL A   1      32.118  26.506  24.390  1.00  0.00    -0.337 N 
ATOM     20  C   UNL A   1      31.662  29.336  23.730  1.00  0.00     0.004 C 
ATOM     21  C   UNL A   1      33.257  27.424  24.091  1.00  0.00     0.082 C 
ATOM     22  C   UNL A   1      32.914  28.872  24.455  1.00  0.00     0.025 C 
ATOM     23  C   UNL A   1      33.731  27.331  22.630  1.00  0.00     0.031 C 
ATOM     24  O   UNL A   1      33.392  25.499  26.008  1.00  0.00    -0.274 OA
ENDBRANCH   9  15
ENDBRANCH   5   8
ENDBRANCH   3   4
ENDBRANCH   2   3
ENDBRANCH   1   2
BRANCH   1  25
ATOM     25  N   UNL A   1      37.728  22.544  26.021  1.00  0.00    -0.352 N 
ATOM     26  C   UNL A   1      39.031  22.862  26.324  1.00  0.00     0.251 C 
ATOM     27  H   UNL A   1      37.565  21.611  25.752  1.00  0.00     0.163 HD
ATOM     28  O   UNL A   1      39.934  22.072  26.087  1.00  0.00    -0.269 OA
BRANCH  26  29
ATOM     29  C   UNL A   1      39.326  24.187  26.911  1.00  0.00     0.039 A 
ATOM     30  C   UNL A   1      38.953  24.443  28.231  1.00  0.00     0.014 A 
ATOM     31  C   UNL A   1      40.003  25.156  26.164  1.00  0.00     0.014 A 
ATOM     32  C   UNL A   1      39.309  25.655  28.823  1.00  0.00     0.010 A 
ATOM     33  C   UNL A   1      40.422  26.331  26.779  1.00  0.00     0.010 A 
ATOM     34  C   UNL A   1      40.072  26.597  28.111  1.00  0.00    -0.014 A 
BRANCH  34  35
ATOM     35  C   UNL A   1      40.506  27.867  28.744  1.00  0.00     0.031 A 
ATOM     36  C   UNL A   1      41.888  27.987  29.327  1.00  0.00     0.074 A 
ATOM     37  C   UNL A   1      39.637  28.891  28.852  1.00  0.00     0.049 A 
ATOM     38  N   UNL A   1      42.436  28.999  29.948  1.00  0.00    -0.248 NA
ATOM     39  C   UNL A   1      42.755  26.802  29.227  1.00  0.00     0.031 C 
ATOM     40  C   UNL A   1      38.247  28.874  28.386  1.00  0.00     0.029 A 
ATOM     41  N   UNL A   1      39.790  30.142  29.394  1.00  0.00    -0.354 N 
ATOM     42  C   UNL A   1      43.703  28.569  30.327  1.00  0.00     0.074 A 
ATOM     43  C   UNL A   1      43.817  27.187  29.918  1.00  0.00     0.031 C 
ATOM     44  C   UNL A   1      37.684  30.066  28.643  1.00  0.00     0.029 A 
ATOM     45  C   UNL A   1      38.659  30.919  29.315  1.00  0.00     0.049 A 
ATOM     46  H   UNL A   1      40.631  30.453  29.800  1.00  0.00     0.167 HD
ATOM     47  C   UNL A   1      44.691  29.267  30.936  1.00  0.00     0.031 A 
ATOM     48  C   UNL A   1      38.431  32.178  29.737  1.00  0.00     0.031 A 
ATOM     49  C   UNL A   1      44.576  30.644  31.334  1.00  0.00     0.049 A 
ATOM     50  C   UNL A   1      39.549  32.947  30.383  1.00  0.00     0.074 A 
ATOM     51  C   UNL A   1      45.535  31.461  31.906  1.00  0.00     0.029 A 
ATOM     52  N   UNL A   1      43.426  31.411  31.201  1.00  0.00    -0.354 N 
ATOM     53  N   UNL A   1      40.767  32.548  30.662  1.00  0.00    -0.248 NA
ATOM     54  C   UNL A   1      39.269  34.340  30.752  1.00  0.00     0.031 C 
ATOM     55  C   UNL A   1      44.952  32.709  32.157  1.00  0.00     0.029 A 
ATOM     56  C   UNL A   1      43.645  32.685  31.695  1.00  0.00     0.049 A 
ATOM     57  H   UNL A   1      42.579  31.093  30.812  1.00  0.00     0.167 HD
ATOM     58  C   UNL A   1      41.405  33.647  31.228  1.00  0.00     0.074 A 
ATOM     59  C   UNL A   1      40.444  34.731  31.228  1.00  0.00     0.031 C 
ATOM     60  C   UNL A   1      42.672  33.748  31.701  1.00  0.00     0.031 A 
BRANCH  47  61
ATOM     61  C   UNL A   1      45.979  28.534  31.209  1.00  0.00    -0.014 A 
ATOM     62  C   UNL A   1      47.019  28.518  30.261  1.00  0.00     0.010 A 
ATOM     63  C   UNL A   1      46.152  27.846  32.423  1.00  0.00     0.010 A 
ATOM     64  C   UNL A   1      48.179  27.775  30.492  1.00  0.00     0.020 A 
ATOM     65  C   UNL A   1      47.324  27.126  32.672  1.00  0.00     0.020 A 
ATOM     66  C   UNL A   1      48.319  27.073  31.693  1.00  0.00     0.054 A 
BRANCH  66  67
ATOM     67  S   UNL A   1      49.827  26.101  31.963  1.00  0.00     0.124 S 
ATOM     68  O   UNL A   1      50.850  27.144  32.008  1.00  0.00    -0.237 OA
ATOM     69  O   UNL A   1      49.557  25.432  33.233  1.00  0.00    -0.237 OA
ATOM     70  O   UNL A   1      49.885  25.222  30.798  1.00  0.00    -0.744 OA
ENDBRANCH  66  67
ENDBRANCH  47  61
BRANCH  48  71
ATOM     71  C   UNL A   1      37.090  32.788  29.532  1.00  0.00    -0.014 A 
ATOM     72  C   UNL A   1      36.118  32.738  30.546  1.00  0.00     0.010 A 
ATOM     73  C   UNL A   1      36.796  33.468  28.335  1.00  0.00     0.010 A 
ATOM     74  C   UNL A   1      34.876  33.353  30.366  1.00  0.00     0.020 A 
ATOM     75  C   UNL A   1      35.564  34.105  28.162  1.00  0.00     0.020 A 
ATOM     76  C   UNL A   1      34.608  34.038  29.178  1.00  0.00     0.054 A 
BRANCH  76  77
ATOM     77  S   UNL A   1      33.021  34.900  29.000  1.00  0.00     0.124 S 
ATOM     78  O   UNL A   1      32.490  34.842  30.357  1.00  0.00    -0.237 OA
ATOM     79  O   UNL A   1      33.430  36.223  28.534  1.00  0.00    -0.237 OA
ATOM     80  O   UNL A   1      32.306  34.096  28.011  1.00  0.00    -0.744 OA
ENDBRANCH  76  77
ENDBRANCH  48  71
BRANCH  60  81
ATOM     81  C   UNL A   1      43.095  35.084  32.249  1.00  0.00    -0.014 A 
ATOM     82  C   UNL A   1      43.772  36.018  31.445  1.00  0.00     0.010 A 
ATOM     83  C   UNL A   1      42.773  35.425  33.575  1.00  0.00     0.010 A 
ATOM     84  C   UNL A   1      44.153  37.256  31.970  1.00  0.00     0.020 A 
ATOM     85  C   UNL A   1      43.130  36.672  34.096  1.00  0.00     0.020 A 
ATOM     86  C   UNL A   1      43.833  37.573  33.294  1.00  0.00     0.054 A 
BRANCH  86  87
ATOM     87  S   UNL A   1      44.311  39.197  33.944  1.00  0.00     0.124 S 
ATOM     88  O   UNL A   1      45.328  39.619  32.986  1.00  0.00    -0.237 OA
ATOM     89  O   UNL A   1      43.056  39.945  33.899  1.00  0.00    -0.237 OA
ATOM     90  O   UNL A   1      44.803  38.900  35.288  1.00  0.00    -0.744 OA
ENDBRANCH  86  87
ENDBRANCH  60  81
ENDBRANCH  34  35
ENDBRANCH  26  29
ENDBRANCH   1  25
TORSDOF 14
ENDMDL
