MODEL 1
REMARK VINA RESULT:     -12.9      0.000      0.000
REMARK SMILES Cc1oc2c(c1C(=O)NCCCNC(=O)c1ccc(-c3c4nc(c(-c5ccc(S(=O)(=O)[O-])cc5)c5ccc([nH]5)c(-c5ccc(S(=O)(=O)[O-])cc5)c5nc(c(-c6ccc(S(=O)(=O)[O-])cc6)c6ccc3[nH]6)C=C5)C=C4)cc1)C(=O)C[C@H](c1ccco1)C2
REMARK SMILES IDX 12 1 11 2 10 3 9 4 7 5 8 6 6 8 1 9 2 10 3 11 4 12 5 13 85 14
REMARK SMILES IDX 76 15 79 16 77 17 78 18 80 19 81 20 84 21 82 22 83 23 13 24
REMARK SMILES IDX 14 25 15 27 16 28 17 29 75 30 18 31 74 32 19 33 20 34 21 35
REMARK SMILES IDX 68 36 22 37 73 38 67 39 69 40 23 41 72 42 66 43 65 44 24 46
REMARK SMILES IDX 54 47 35 48 53 49 36 50 39 51 52 52 70 53 37 54 38 55 51 57
REMARK SMILES IDX 71 58 40 59 25 60 26 61 34 62 27 63 33 64 28 65 29 66 30 67
REMARK SMILES IDX 31 68 32 69 55 70 56 71 64 72 57 73 63 74 58 75 59 76 60 77
REMARK SMILES IDX 61 78 62 79 41 80 42 81 50 82 43 83 49 84 44 85 45 86 46 87
REMARK SMILES IDX 47 88 48 89
REMARK H PARENT 9 7 13 26 69 45 39 56
REMARK Flexibility Score: inf
ROOT
ATOM      1  C   UNL A   1      37.663  22.917  25.402  1.00  0.00     0.118 C 
ENDROOT
BRANCH   1   2
ATOM      2  C   UNL A   1      36.696  22.211  24.471  1.00  0.00     0.042 C 
BRANCH   2   3
ATOM      3  C   UNL A   1      36.012  23.168  23.489  1.00  0.00     0.118 C 
BRANCH   3   4
ATOM      4  N   UNL A   1      34.697  22.697  23.128  1.00  0.00    -0.352 N 
ATOM      5  C   UNL A   1      33.498  23.295  22.852  1.00  0.00     0.255 C 
ATOM      6  O   UNL A   1      32.596  22.491  22.614  1.00  0.00    -0.269 OA
ATOM      7  H   UNL A   1      34.651  21.714  23.068  1.00  0.00     0.163 HD
BRANCH   5   8
ATOM      8  C   UNL A   1      33.249  24.742  22.812  1.00  0.00     0.092 A 
ATOM      9  C   UNL A   1      32.674  25.584  20.309  1.00  0.00     0.088 C 
ATOM     10  C   UNL A   1      32.913  25.615  21.766  1.00  0.00     0.114 A 
ATOM     11  O   UNL A   1      32.829  26.898  22.215  1.00  0.00    -0.465 OA
ATOM     12  C   UNL A   1      33.143  26.890  23.509  1.00  0.00     0.116 A 
ATOM     13  C   UNL A   1      33.396  25.622  23.965  1.00  0.00     0.072 A 
ATOM     14  C   UNL A   1      33.176  28.173  24.227  1.00  0.00     0.088 C 
ATOM     15  C   UNL A   1      33.732  25.458  25.380  1.00  0.00     0.167 C 
ATOM     16  C   UNL A   1      34.039  28.007  25.492  1.00  0.00     0.071 C 
ATOM     17  O   UNL A   1      33.972  24.379  25.912  1.00  0.00    -0.294 OA
ATOM     18  C   UNL A   1      33.652  26.721  26.251  1.00  0.00     0.093 C 
BRANCH  16  19
ATOM     19  C   UNL A   1      33.954  29.219  26.370  1.00  0.00     0.107 A 
ATOM     20  C   UNL A   1      34.809  29.787  27.291  1.00  0.00     0.046 A 
ATOM     21  O   UNL A   1      32.830  29.988  26.257  1.00  0.00    -0.469 OA
ATOM     22  C   UNL A   1      34.173  30.962  27.761  1.00  0.00     0.042 A 
ATOM     23  C   UNL A   1      32.972  31.041  27.098  1.00  0.00     0.195 A 
ENDBRANCH  16  19
ENDBRANCH   5   8
ENDBRANCH   3   4
ENDBRANCH   2   3
ENDBRANCH   1   2
BRANCH   1  24
ATOM     24  N   UNL A   1      38.532  21.980  26.104  1.00  0.00    -0.352 N 
ATOM     25  C   UNL A   1      39.711  22.246  26.773  1.00  0.00     0.251 C 
ATOM     26  H   UNL A   1      38.243  21.038  26.099  1.00  0.00     0.163 HD
ATOM     27  O   UNL A   1      40.498  21.343  27.009  1.00  0.00    -0.269 OA
BRANCH  25  28
ATOM     28  C   UNL A   1      40.009  23.637  27.166  1.00  0.00     0.039 A 
ATOM     29  C   UNL A   1      39.065  24.643  26.958  1.00  0.00     0.014 A 
ATOM     30  C   UNL A   1      41.226  23.927  27.778  1.00  0.00     0.014 A 
ATOM     31  C   UNL A   1      39.321  25.916  27.458  1.00  0.00     0.010 A 
ATOM     32  C   UNL A   1      41.415  25.142  28.397  1.00  0.00     0.010 A 
ATOM     33  C   UNL A   1      40.483  26.156  28.213  1.00  0.00    -0.014 A 
BRANCH  33  34
ATOM     34  C   UNL A   1      40.648  27.431  28.911  1.00  0.00     0.031 A 
ATOM     35  C   UNL A   1      41.698  28.318  28.337  1.00  0.00     0.074 A 
ATOM     36  C   UNL A   1      39.834  27.898  29.882  1.00  0.00     0.049 A 
ATOM     37  N   UNL A   1      42.847  28.604  28.853  1.00  0.00    -0.248 NA
ATOM     38  C   UNL A   1      41.513  28.830  26.970  1.00  0.00     0.031 C 
ATOM     39  C   UNL A   1      38.571  27.342  30.378  1.00  0.00     0.029 A 
ATOM     40  N   UNL A   1      39.932  29.067  30.574  1.00  0.00    -0.354 N 
ATOM     41  C   UNL A   1      43.448  29.505  27.981  1.00  0.00     0.074 A 
ATOM     42  C   UNL A   1      42.667  29.472  26.770  1.00  0.00     0.031 C 
ATOM     43  C   UNL A   1      37.911  28.283  31.090  1.00  0.00     0.029 A 
ATOM     44  C   UNL A   1      38.780  29.433  31.258  1.00  0.00     0.049 A 
ATOM     45  H   UNL A   1      40.754  29.609  30.587  1.00  0.00     0.167 HD
ATOM     46  C   UNL A   1      44.410  30.374  28.403  1.00  0.00     0.031 A 
ATOM     47  C   UNL A   1      38.550  30.610  31.894  1.00  0.00     0.031 A 
ATOM     48  C   UNL A   1      44.932  30.008  29.696  1.00  0.00     0.049 A 
ATOM     49  C   UNL A   1      39.879  31.206  32.185  1.00  0.00     0.074 A 
ATOM     50  C   UNL A   1      45.527  28.872  30.213  1.00  0.00     0.029 A 
ATOM     51  N   UNL A   1      44.489  30.725  30.785  1.00  0.00    -0.354 N 
ATOM     52  N   UNL A   1      40.733  30.683  33.021  1.00  0.00    -0.248 NA
ATOM     53  C   UNL A   1      40.440  32.130  31.213  1.00  0.00     0.031 C 
ATOM     54  C   UNL A   1      44.952  28.720  31.509  1.00  0.00     0.029 A 
ATOM     55  C   UNL A   1      44.115  29.814  31.739  1.00  0.00     0.049 A 
ATOM     56  H   UNL A   1      44.450  31.707  30.864  1.00  0.00     0.167 HD
ATOM     57  C   UNL A   1      41.970  30.859  32.418  1.00  0.00     0.074 A 
ATOM     58  C   UNL A   1      41.735  31.833  31.353  1.00  0.00     0.031 C 
ATOM     59  C   UNL A   1      43.008  30.003  32.654  1.00  0.00     0.031 A 
BRANCH  46  60
ATOM     60  C   UNL A   1      44.598  31.754  27.827  1.00  0.00    -0.014 A 
ATOM     61  C   UNL A   1      45.774  32.041  27.104  1.00  0.00     0.010 A 
ATOM     62  C   UNL A   1      43.792  32.851  28.198  1.00  0.00     0.010 A 
ATOM     63  C   UNL A   1      46.152  33.360  26.823  1.00  0.00     0.020 A 
ATOM     64  C   UNL A   1      44.137  34.167  27.884  1.00  0.00     0.020 A 
ATOM     65  C   UNL A   1      45.333  34.415  27.226  1.00  0.00     0.054 A 
BRANCH  65  66
ATOM     66  S   UNL A   1      45.869  36.119  26.931  1.00  0.00     0.124 S 
ATOM     67  O   UNL A   1      44.594  36.825  26.852  1.00  0.00    -0.237 OA
ATOM     68  O   UNL A   1      46.678  36.396  28.114  1.00  0.00    -0.237 OA
ATOM     69  O   UNL A   1      46.618  36.029  25.679  1.00  0.00    -0.744 OA
ENDBRANCH  65  66
ENDBRANCH  46  60
BRANCH  47  70
ATOM     70  C   UNL A   1      37.287  31.385  31.981  1.00  0.00    -0.014 A 
ATOM     71  C   UNL A   1      36.833  31.878  33.219  1.00  0.00     0.010 A 
ATOM     72  C   UNL A   1      36.685  31.901  30.813  1.00  0.00     0.010 A 
ATOM     73  C   UNL A   1      35.882  32.911  33.285  1.00  0.00     0.020 A 
ATOM     74  C   UNL A   1      35.728  32.923  30.872  1.00  0.00     0.020 A 
ATOM     75  C   UNL A   1      35.356  33.447  32.108  1.00  0.00     0.054 A 
BRANCH  75  76
ATOM     76  S   UNL A   1      34.299  34.925  32.192  1.00  0.00     0.124 S 
ATOM     77  O   UNL A   1      33.108  34.418  32.868  1.00  0.00    -0.237 OA
ATOM     78  O   UNL A   1      35.116  35.856  32.967  1.00  0.00    -0.237 OA
ATOM     79  O   UNL A   1      34.109  35.293  30.791  1.00  0.00    -0.744 OA
ENDBRANCH  75  76
ENDBRANCH  47  70
BRANCH  59  80
ATOM     80  C   UNL A   1      42.913  29.019  33.801  1.00  0.00    -0.014 A 
ATOM     81  C   UNL A   1      43.277  29.313  35.130  1.00  0.00     0.010 A 
ATOM     82  C   UNL A   1      42.272  27.795  33.541  1.00  0.00     0.010 A 
ATOM     83  C   UNL A   1      43.022  28.394  36.163  1.00  0.00     0.020 A 
ATOM     84  C   UNL A   1      41.998  26.886  34.564  1.00  0.00     0.020 A 
ATOM     85  C   UNL A   1      42.381  27.184  35.870  1.00  0.00     0.054 A 
BRANCH  85  86
ATOM     86  S   UNL A   1      42.007  26.018  37.211  1.00  0.00     0.124 S 
ATOM     87  O   UNL A   1      42.270  24.723  36.589  1.00  0.00    -0.237 OA
ATOM     88  O   UNL A   1      42.945  26.415  38.260  1.00  0.00    -0.237 OA
ATOM     89  O   UNL A   1      40.602  26.281  37.520  1.00  0.00    -0.744 OA
ENDBRANCH  85  86
ENDBRANCH  59  80
ENDBRANCH  33  34
ENDBRANCH  25  28
ENDBRANCH   1  24
TORSDOF 14
ENDMDL
MODEL 2
REMARK VINA RESULT:     -12.9      1.567      2.238
REMARK SMILES Cc1oc2c(c1C(=O)NCCCNC(=O)c1ccc(-c3c4nc(c(-c5ccc(S(=O)(=O)[O-])cc5)c5ccc([nH]5)c(-c5ccc(S(=O)(=O)[O-])cc5)c5nc(c(-c6ccc(S(=O)(=O)[O-])cc6)c6ccc3[nH]6)C=C5)C=C4)cc1)C(=O)C[C@H](c1ccco1)C2
REMARK SMILES IDX 12 1 11 2 10 3 9 4 7 5 8 6 6 8 1 9 2 10 3 11 4 12 5 13 85 14
REMARK SMILES IDX 76 15 79 16 77 17 78 18 80 19 81 20 84 21 82 22 83 23 13 24
REMARK SMILES IDX 14 25 15 27 16 28 17 29 75 30 18 31 74 32 19 33 20 34 21 35
REMARK SMILES IDX 68 36 22 37 73 38 67 39 69 40 23 41 72 42 66 43 65 44 24 46
REMARK SMILES IDX 54 47 35 48 53 49 36 50 39 51 52 52 70 53 37 54 38 55 51 57
REMARK SMILES IDX 71 58 40 59 25 60 26 61 34 62 27 63 33 64 28 65 29 66 30 67
REMARK SMILES IDX 31 68 32 69 55 70 56 71 64 72 57 73 63 74 58 75 59 76 60 77
REMARK SMILES IDX 61 78 62 79 41 80 42 81 50 82 43 83 49 84 44 85 45 86 46 87
REMARK SMILES IDX 47 88 48 89
REMARK H PARENT 9 7 13 26 69 45 39 56
REMARK Flexibility Score: inf
ROOT
ATOM      1  C   UNL A   1      37.692  22.961  25.364  1.00  0.00     0.118 C 
ENDROOT
BRANCH   1   2
ATOM      2  C   UNL A   1      36.227  22.869  25.747  1.00  0.00     0.042 C 
BRANCH   2   3
ATOM      3  C   UNL A   1      35.398  24.040  25.208  1.00  0.00     0.118 C 
BRANCH   3   4
ATOM      4  N   UNL A   1      35.020  23.825  23.832  1.00  0.00    -0.352 N 
ATOM      5  C   UNL A   1      33.889  24.042  23.095  1.00  0.00     0.255 C 
ATOM      6  O   UNL A   1      33.992  23.673  21.925  1.00  0.00    -0.269 OA
ATOM      7  H   UNL A   1      35.748  23.429  23.299  1.00  0.00     0.163 HD
BRANCH   5   8
ATOM      8  C   UNL A   1      32.650  24.661  23.585  1.00  0.00     0.092 A 
ATOM      9  C   UNL A   1      31.203  22.941  25.086  1.00  0.00     0.088 C 
ATOM     10  C   UNL A   1      31.606  24.180  24.389  1.00  0.00     0.114 A 
ATOM     11  O   UNL A   1      30.634  25.122  24.536  1.00  0.00    -0.465 OA
ATOM     12  C   UNL A   1      30.995  26.183  23.817  1.00  0.00     0.116 A 
ATOM     13  C   UNL A   1      32.214  26.002  23.216  1.00  0.00     0.072 A 
ATOM     14  C   UNL A   1      30.082  27.336  23.767  1.00  0.00     0.088 C 
ATOM     15  C   UNL A   1      32.749  27.100  22.410  1.00  0.00     0.167 C 
ATOM     16  C   UNL A   1      30.417  28.175  22.520  1.00  0.00     0.071 C 
ATOM     17  O   UNL A   1      33.829  27.068  21.829  1.00  0.00    -0.294 OA
ATOM     18  C   UNL A   1      31.938  28.406  22.412  1.00  0.00     0.093 C 
BRANCH  16  19
ATOM     19  C   UNL A   1      29.656  29.466  22.515  1.00  0.00     0.107 A 
ATOM     20  C   UNL A   1      29.318  30.373  23.499  1.00  0.00     0.046 A 
ATOM     21  O   UNL A   1      29.203  29.915  21.307  1.00  0.00    -0.469 OA
ATOM     22  C   UNL A   1      28.625  31.427  22.854  1.00  0.00     0.042 A 
ATOM     23  C   UNL A   1      28.585  31.102  21.520  1.00  0.00     0.195 A 
ENDBRANCH  16  19
ENDBRANCH   5   8
ENDBRANCH   3   4
ENDBRANCH   2   3
ENDBRANCH   1   2
BRANCH   1  24
ATOM     24  N   UNL A   1      38.516  22.023  26.117  1.00  0.00    -0.352 N 
ATOM     25  C   UNL A   1      39.663  22.285  26.841  1.00  0.00     0.251 C 
ATOM     26  H   UNL A   1      38.218  21.084  26.109  1.00  0.00     0.163 HD
ATOM     27  O   UNL A   1      40.427  21.378  27.126  1.00  0.00    -0.269 OA
BRANCH  25  28
ATOM     28  C   UNL A   1      39.955  23.678  27.233  1.00  0.00     0.039 A 
ATOM     29  C   UNL A   1      38.977  24.664  27.102  1.00  0.00     0.014 A 
ATOM     30  C   UNL A   1      41.202  23.987  27.770  1.00  0.00     0.014 A 
ATOM     31  C   UNL A   1      39.238  25.937  27.602  1.00  0.00     0.010 A 
ATOM     32  C   UNL A   1      41.405  25.198  28.392  1.00  0.00     0.010 A 
ATOM     33  C   UNL A   1      40.441  26.193  28.283  1.00  0.00    -0.014 A 
BRANCH  33  34
ATOM     34  C   UNL A   1      40.623  27.462  28.987  1.00  0.00     0.031 A 
ATOM     35  C   UNL A   1      41.662  28.352  28.396  1.00  0.00     0.074 A 
ATOM     36  C   UNL A   1      39.832  27.923  29.980  1.00  0.00     0.049 A 
ATOM     37  N   UNL A   1      42.822  28.633  28.888  1.00  0.00    -0.248 NA
ATOM     38  C   UNL A   1      41.447  28.875  27.037  1.00  0.00     0.031 C 
ATOM     39  C   UNL A   1      38.580  27.365  30.499  1.00  0.00     0.029 A 
ATOM     40  N   UNL A   1      39.947  29.087  30.678  1.00  0.00    -0.354 N 
ATOM     41  C   UNL A   1      43.405  29.540  28.010  1.00  0.00     0.074 A 
ATOM     42  C   UNL A   1      42.596  29.518  26.816  1.00  0.00     0.031 C 
ATOM     43  C   UNL A   1      37.937  28.301  31.233  1.00  0.00     0.029 A 
ATOM     44  C   UNL A   1      38.812  29.448  31.390  1.00  0.00     0.049 A 
ATOM     45  H   UNL A   1      40.770  29.628  30.677  1.00  0.00     0.167 HD
ATOM     46  C   UNL A   1      44.376  30.405  28.417  1.00  0.00     0.031 A 
ATOM     47  C   UNL A   1      38.597  30.621  32.040  1.00  0.00     0.031 A 
ATOM     48  C   UNL A   1      44.927  30.029  29.695  1.00  0.00     0.049 A 
ATOM     49  C   UNL A   1      39.933  31.214  32.305  1.00  0.00     0.074 A 
ATOM     50  C   UNL A   1      45.532  28.889  30.190  1.00  0.00     0.029 A 
ATOM     51  N   UNL A   1      44.510  30.738  30.799  1.00  0.00    -0.354 N 
ATOM     52  N   UNL A   1      40.805  30.683  33.118  1.00  0.00    -0.248 NA
ATOM     53  C   UNL A   1      40.474  32.144  31.328  1.00  0.00     0.031 C 
ATOM     54  C   UNL A   1      44.987  28.728  31.497  1.00  0.00     0.029 A 
ATOM     55  C   UNL A   1      44.156  29.820  31.754  1.00  0.00     0.049 A 
ATOM     56  H   UNL A   1      44.474  31.719  30.886  1.00  0.00     0.167 HD
ATOM     57  C   UNL A   1      42.028  30.863  32.489  1.00  0.00     0.074 A 
ATOM     58  C   UNL A   1      41.770  31.845  31.437  1.00  0.00     0.031 C 
ATOM     59  C   UNL A   1      43.071  30.004  32.695  1.00  0.00     0.031 A 
BRANCH  46  60
ATOM     60  C   UNL A   1      44.554  31.790  27.847  1.00  0.00    -0.014 A 
ATOM     61  C   UNL A   1      45.675  32.060  27.037  1.00  0.00     0.010 A 
ATOM     62  C   UNL A   1      43.808  32.900  28.296  1.00  0.00     0.010 A 
ATOM     63  C   UNL A   1      46.063  33.374  26.745  1.00  0.00     0.020 A 
ATOM     64  C   UNL A   1      44.160  34.211  27.974  1.00  0.00     0.020 A 
ATOM     65  C   UNL A   1      45.306  34.442  27.227  1.00  0.00     0.054 A 
BRANCH  65  66
ATOM     66  S   UNL A   1      45.860  36.136  26.914  1.00  0.00     0.124 S 
ATOM     67  O   UNL A   1      46.618  35.980  25.676  1.00  0.00    -0.237 OA
ATOM     68  O   UNL A   1      44.596  36.857  26.799  1.00  0.00    -0.237 OA
ATOM     69  O   UNL A   1      46.651  36.461  28.099  1.00  0.00    -0.744 OA
ENDBRANCH  65  66
ENDBRANCH  46  60
BRANCH  47  70
ATOM     70  C   UNL A   1      37.337  31.397  32.161  1.00  0.00    -0.014 A 
ATOM     71  C   UNL A   1      37.042  32.103  33.344  1.00  0.00     0.010 A 
ATOM     72  C   UNL A   1      36.570  31.695  31.015  1.00  0.00     0.010 A 
ATOM     73  C   UNL A   1      36.081  33.130  33.356  1.00  0.00     0.020 A 
ATOM     74  C   UNL A   1      35.603  32.709  31.023  1.00  0.00     0.020 A 
ATOM     75  C   UNL A   1      35.387  33.445  32.185  1.00  0.00     0.054 A 
BRANCH  75  76
ATOM     76  S   UNL A   1      34.313  34.912  32.152  1.00  0.00     0.124 S 
ATOM     77  O   UNL A   1      35.084  35.881  32.924  1.00  0.00    -0.237 OA
ATOM     78  O   UNL A   1      34.201  35.191  30.722  1.00  0.00    -0.237 OA
ATOM     79  O   UNL A   1      33.080  34.451  32.787  1.00  0.00    -0.744 OA
ENDBRANCH  75  76
ENDBRANCH  47  70
BRANCH  59  80
ATOM     80  C   UNL A   1      43.000  29.012  33.836  1.00  0.00    -0.014 A 
ATOM     81  C   UNL A   1      43.467  29.268  35.141  1.00  0.00     0.010 A 
ATOM     82  C   UNL A   1      42.279  27.826  33.608  1.00  0.00     0.010 A 
ATOM     83  C   UNL A   1      43.233  28.350  36.180  1.00  0.00     0.020 A 
ATOM     84  C   UNL A   1      42.026  26.919  34.639  1.00  0.00     0.020 A 
ATOM     85  C   UNL A   1      42.511  27.180  35.919  1.00  0.00     0.054 A 
BRANCH  85  86
ATOM     86  S   UNL A   1      42.165  26.018  37.271  1.00  0.00     0.124 S 
ATOM     87  O   UNL A   1      42.493  24.727  36.672  1.00  0.00    -0.237 OA
ATOM     88  O   UNL A   1      43.069  26.468  38.328  1.00  0.00    -0.237 OA
ATOM     89  O   UNL A   1      40.745  26.224  37.555  1.00  0.00    -0.744 OA
ENDBRANCH  85  86
ENDBRANCH  59  80
ENDBRANCH  33  34
ENDBRANCH  25  28
ENDBRANCH   1  24
TORSDOF 14
ENDMDL
MODEL 3
REMARK VINA RESULT:     -12.6      3.154      9.630
REMARK SMILES Cc1oc2c(c1C(=O)NCCCNC(=O)c1ccc(-c3c4nc(c(-c5ccc(S(=O)(=O)[O-])cc5)c5ccc([nH]5)c(-c5ccc(S(=O)(=O)[O-])cc5)c5nc(c(-c6ccc(S(=O)(=O)[O-])cc6)c6ccc3[nH]6)C=C5)C=C4)cc1)C(=O)C[C@H](c1ccco1)C2
REMARK SMILES IDX 12 1 11 2 10 3 9 4 7 5 8 6 6 8 1 9 2 10 3 11 4 12 5 13 85 14
REMARK SMILES IDX 76 15 79 16 77 17 78 18 80 19 81 20 84 21 82 22 83 23 13 24
REMARK SMILES IDX 14 25 15 27 16 28 17 29 75 30 18 31 74 32 19 33 20 34 21 35
REMARK SMILES IDX 68 36 22 37 73 38 67 39 69 40 23 41 72 42 66 43 65 44 24 46
REMARK SMILES IDX 54 47 35 48 53 49 36 50 39 51 52 52 70 53 37 54 38 55 51 57
REMARK SMILES IDX 71 58 40 59 25 60 26 61 34 62 27 63 33 64 28 65 29 66 30 67
REMARK SMILES IDX 31 68 32 69 55 70 56 71 64 72 57 73 63 74 58 75 59 76 60 77
REMARK SMILES IDX 61 78 62 79 41 80 42 81 50 82 43 83 49 84 44 85 45 86 46 87
REMARK SMILES IDX 47 88 48 89
REMARK H PARENT 9 7 13 26 69 45 39 56
REMARK Flexibility Score: inf
ROOT
ATOM      1  C   UNL A   1      34.026  29.694  26.777  1.00  0.00     0.118 C 
ENDROOT
BRANCH   1   2
ATOM      2  C   UNL A   1      32.802  28.889  27.170  1.00  0.00     0.042 C 
BRANCH   2   3
ATOM      3  C   UNL A   1      32.757  27.512  26.500  1.00  0.00     0.118 C 
BRANCH   3   4
ATOM      4  N   UNL A   1      31.458  26.900  26.648  1.00  0.00    -0.352 N 
ATOM      5  C   UNL A   1      30.817  25.840  26.066  1.00  0.00     0.255 C 
ATOM      6  O   UNL A   1      29.669  25.680  26.480  1.00  0.00    -0.269 OA
ATOM      7  H   UNL A   1      30.903  27.351  27.325  1.00  0.00     0.163 HD
BRANCH   5   8
ATOM      8  C   UNL A   1      31.389  24.938  25.058  1.00  0.00     0.092 A 
ATOM      9  C   UNL A   1      31.412  26.073  22.605  1.00  0.00     0.088 C 
ATOM     10  C   UNL A   1      31.614  25.080  23.681  1.00  0.00     0.114 A 
ATOM     11  O   UNL A   1      32.133  23.936  23.154  1.00  0.00    -0.465 OA
ATOM     12  C   UNL A   1      32.209  23.043  24.139  1.00  0.00     0.116 A 
ATOM     13  C   UNL A   1      31.795  23.566  25.336  1.00  0.00     0.072 A 
ATOM     14  C   UNL A   1      32.697  21.692  23.819  1.00  0.00     0.088 C 
ATOM     15  C   UNL A   1      31.848  22.700  26.515  1.00  0.00     0.167 C 
ATOM     16  C   UNL A   1      32.217  20.723  24.915  1.00  0.00     0.071 C 
ATOM     17  O   UNL A   1      31.515  23.049  27.644  1.00  0.00    -0.294 OA
ATOM     18  C   UNL A   1      32.479  21.314  26.316  1.00  0.00     0.093 C 
BRANCH  16  19
ATOM     19  C   UNL A   1      32.842  19.371  24.755  1.00  0.00     0.107 A 
ATOM     20  C   UNL A   1      34.096  18.944  24.372  1.00  0.00     0.046 A 
ATOM     21  O   UNL A   1      32.070  18.289  25.074  1.00  0.00    -0.469 OA
ATOM     22  C   UNL A   1      34.086  17.530  24.463  1.00  0.00     0.042 A 
ATOM     23  C   UNL A   1      32.830  17.182  24.898  1.00  0.00     0.195 A 
ENDBRANCH  16  19
ENDBRANCH   5   8
ENDBRANCH   3   4
ENDBRANCH   2   3
ENDBRANCH   1   2
BRANCH   1  24
ATOM     24  N   UNL A   1      33.921  31.089  27.187  1.00  0.00    -0.352 N 
ATOM     25  C   UNL A   1      34.641  31.748  28.164  1.00  0.00     0.251 C 
ATOM     26  H   UNL A   1      33.251  31.630  26.708  1.00  0.00     0.163 HD
ATOM     27  O   UNL A   1      34.221  32.793  28.634  1.00  0.00    -0.269 OA
BRANCH  25  28
ATOM     28  C   UNL A   1      35.902  31.150  28.645  1.00  0.00     0.039 A 
ATOM     29  C   UNL A   1      35.996  29.773  28.844  1.00  0.00     0.014 A 
ATOM     30  C   UNL A   1      37.006  31.971  28.861  1.00  0.00     0.014 A 
ATOM     31  C   UNL A   1      37.233  29.225  29.169  1.00  0.00     0.010 A 
ATOM     32  C   UNL A   1      38.254  31.417  29.038  1.00  0.00     0.010 A 
ATOM     33  C   UNL A   1      38.373  30.046  29.229  1.00  0.00    -0.014 A 
BRANCH  33  34
ATOM     34  C   UNL A   1      39.699  29.443  29.362  1.00  0.00     0.031 A 
ATOM     35  C   UNL A   1      40.089  29.114  30.762  1.00  0.00     0.074 A 
ATOM     36  C   UNL A   1      40.474  29.031  28.337  1.00  0.00     0.049 A 
ATOM     37  N   UNL A   1      40.977  29.709  31.486  1.00  0.00    -0.248 NA
ATOM     38  C   UNL A   1      39.306  28.103  31.490  1.00  0.00     0.031 C 
ATOM     39  C   UNL A   1      40.159  28.968  26.906  1.00  0.00     0.029 A 
ATOM     40  N   UNL A   1      41.714  28.470  28.390  1.00  0.00    -0.354 N 
ATOM     41  C   UNL A   1      41.022  29.016  32.691  1.00  0.00     0.074 A 
ATOM     42  C   UNL A   1      39.864  28.157  32.701  1.00  0.00     0.031 C 
ATOM     43  C   UNL A   1      41.062  28.181  26.278  1.00  0.00     0.029 A 
ATOM     44  C   UNL A   1      42.116  27.843  27.217  1.00  0.00     0.049 A 
ATOM     45  H   UNL A   1      42.279  28.504  29.195  1.00  0.00     0.167 HD
ATOM     46  C   UNL A   1      42.129  29.036  33.486  1.00  0.00     0.031 A 
ATOM     47  C   UNL A   1      43.224  27.079  27.041  1.00  0.00     0.031 A 
ATOM     48  C   UNL A   1      43.039  30.089  33.109  1.00  0.00     0.049 A 
ATOM     49  C   UNL A   1      44.176  27.450  28.118  1.00  0.00     0.074 A 
ATOM     50  C   UNL A   1      42.931  31.460  32.977  1.00  0.00     0.029 A 
ATOM     51  N   UNL A   1      44.158  29.732  32.389  1.00  0.00    -0.354 N 
ATOM     52  N   UNL A   1      44.744  28.622  28.202  1.00  0.00    -0.248 NA
ATOM     53  C   UNL A   1      44.147  26.679  29.351  1.00  0.00     0.031 C 
ATOM     54  C   UNL A   1      43.656  31.768  31.788  1.00  0.00     0.029 A 
ATOM     55  C   UNL A   1      44.233  30.586  31.319  1.00  0.00     0.049 A 
ATOM     56  H   UNL A   1      44.784  29.002  32.603  1.00  0.00     0.167 HD
ATOM     57  C   UNL A   1      44.748  28.916  29.557  1.00  0.00     0.074 A 
ATOM     58  C   UNL A   1      44.449  27.647  30.220  1.00  0.00     0.031 C 
ATOM     59  C   UNL A   1      44.719  30.206  30.009  1.00  0.00     0.031 A 
BRANCH  46  60
ATOM     60  C   UNL A   1      42.561  27.875  34.345  1.00  0.00    -0.014 A 
ATOM     61  C   UNL A   1      42.821  28.093  35.713  1.00  0.00     0.010 A 
ATOM     62  C   UNL A   1      42.979  26.641  33.804  1.00  0.00     0.010 A 
ATOM     63  C   UNL A   1      43.519  27.152  36.481  1.00  0.00     0.020 A 
ATOM     64  C   UNL A   1      43.635  25.677  34.571  1.00  0.00     0.020 A 
ATOM     65  C   UNL A   1      43.930  25.953  35.899  1.00  0.00     0.054 A 
BRANCH  65  66
ATOM     66  S   UNL A   1      44.901  24.779  36.875  1.00  0.00     0.124 S 
ATOM     67  O   UNL A   1      46.254  25.302  36.715  1.00  0.00    -0.237 OA
ATOM     68  O   UNL A   1      44.317  24.926  38.205  1.00  0.00    -0.237 OA
ATOM     69  O   UNL A   1      44.641  23.496  36.225  1.00  0.00    -0.744 OA
ENDBRANCH  65  66
ENDBRANCH  46  60
BRANCH  47  70
ATOM     70  C   UNL A   1      43.384  25.854  26.216  1.00  0.00    -0.014 A 
ATOM     71  C   UNL A   1      44.550  25.654  25.451  1.00  0.00     0.010 A 
ATOM     72  C   UNL A   1      42.535  24.746  26.413  1.00  0.00     0.010 A 
ATOM     73  C   UNL A   1      44.899  24.376  24.981  1.00  0.00     0.020 A 
ATOM     74  C   UNL A   1      42.871  23.471  25.938  1.00  0.00     0.020 A 
ATOM     75  C   UNL A   1      44.069  23.286  25.253  1.00  0.00     0.054 A 
BRANCH  75  76
ATOM     76  S   UNL A   1      44.633  21.608  24.836  1.00  0.00     0.124 S 
ATOM     77  O   UNL A   1      44.708  21.657  23.379  1.00  0.00    -0.237 OA
ATOM     78  O   UNL A   1      45.915  21.522  25.531  1.00  0.00    -0.237 OA
ATOM     79  O   UNL A   1      43.582  20.747  25.375  1.00  0.00    -0.744 OA
ENDBRANCH  75  76
ENDBRANCH  47  70
BRANCH  59  80
ATOM     80  C   UNL A   1      44.978  31.338  29.038  1.00  0.00    -0.014 A 
ATOM     81  C   UNL A   1      46.238  31.934  28.832  1.00  0.00     0.010 A 
ATOM     82  C   UNL A   1      43.923  31.698  28.181  1.00  0.00     0.010 A 
ATOM     83  C   UNL A   1      46.426  32.879  27.809  1.00  0.00     0.020 A 
ATOM     84  C   UNL A   1      44.107  32.622  27.149  1.00  0.00     0.020 A 
ATOM     85  C   UNL A   1      45.355  33.215  26.972  1.00  0.00     0.054 A 
BRANCH  85  86
ATOM     86  S   UNL A   1      45.610  34.399  25.619  1.00  0.00     0.124 S 
ATOM     87  O   UNL A   1      45.144  35.654  26.202  1.00  0.00    -0.237 OA
ATOM     88  O   UNL A   1      47.048  34.313  25.376  1.00  0.00    -0.237 OA
ATOM     89  O   UNL A   1      44.777  33.876  24.536  1.00  0.00    -0.744 OA
ENDBRANCH  85  86
ENDBRANCH  59  80
ENDBRANCH  33  34
ENDBRANCH  25  28
ENDBRANCH   1  24
TORSDOF 14
ENDMDL
