MODEL 1
REMARK VINA RESULT:     -11.4      0.000      0.000
REMARK SMILES C[NH2+]CCC(=O)N1Cc2nc[nH]c2C[C@H]1C(=O)NCCCNC(=O)c1ccc(-c2c3nc(c(-c4ccc(S(=O)(=O)[O-])cc4)c4ccc([nH]4)c(-c4ccc(S(=O)(=O)[O-])cc4)c4nc(c(-c5ccc(S(=O)(=O)[O-])cc5)c5ccc2[nH]5)C=C4)C=C3)cc1
REMARK SMILES IDX 19 1 18 2 16 3 17 4 15 6 7 7 8 8 9 9 14 10 10 11 13 12 11 13
REMARK SMILES IDX 12 14 5 16 6 17 4 18 3 19 2 20 1 21 20 24 21 25 22 26 23 27
REMARK SMILES IDX 24 29 25 30 26 31 84 32 27 33 83 34 28 35 29 36 30 37 77 38
REMARK SMILES IDX 31 39 82 40 76 41 78 42 32 43 81 44 75 45 74 46 33 48 63 49
REMARK SMILES IDX 44 50 62 51 45 52 48 53 61 54 79 55 46 56 47 57 60 59 80 60
REMARK SMILES IDX 49 61 34 62 35 63 43 64 36 65 42 66 37 67 38 68 39 69 40 70
REMARK SMILES IDX 41 71 64 72 65 73 73 74 66 75 72 76 67 77 68 78 69 79 70 80
REMARK SMILES IDX 71 81 50 82 51 83 59 84 52 85 58 86 53 87 54 88 55 89 56 90
REMARK SMILES IDX 57 91
REMARK H PARENT 18 5 12 15 2 22 2 23 22 28 78 47 48 58
REMARK Flexibility Score: inf
ROOT
ATOM      1  C   UNL A   1      33.299  28.525  27.323  1.00  0.00     0.117 C 
ENDROOT
BRANCH   1   2
ATOM      2  N   UNL A   1      33.790  27.613  26.305  1.00  0.00    -0.354 N 
ATOM      3  C   UNL A   1      33.217  27.126  25.175  1.00  0.00     0.243 C 
ATOM      4  O   UNL A   1      34.012  26.899  24.251  1.00  0.00    -0.273 OA
ATOM      5  H   UNL A   1      34.706  27.289  26.464  1.00  0.00     0.163 HD
BRANCH   3   6
ATOM      6  C   UNL A   1      31.695  26.965  24.901  1.00  0.00     0.180 C 
ATOM      7  N   UNL A   1      31.188  26.439  23.591  1.00  0.00    -0.324 N 
ATOM      8  C   UNL A   1      31.039  24.986  23.402  1.00  0.00     0.178 C 
ATOM      9  C   UNL A   1      30.784  24.298  24.695  1.00  0.00     0.081 A 
ATOM     10  C   UNL A   1      30.951  26.370  26.133  1.00  0.00     0.091 C 
ATOM     11  N   UNL A   1      30.791  22.937  24.863  1.00  0.00    -0.240 NA
ATOM     12  C   UNL A   1      30.735  24.926  25.916  1.00  0.00     0.042 A 
ATOM     13  C   UNL A   1      30.738  22.749  26.165  1.00  0.00     0.197 A 
ATOM     14  N   UNL A   1      30.648  23.933  26.848  1.00  0.00    -0.348 N 
ATOM     15  H   UNL A   1      30.542  24.046  27.821  1.00  0.00     0.167 HD
BRANCH   7  16
ATOM     16  C   UNL A   1      30.557  27.233  22.640  1.00  0.00     0.229 C 
ATOM     17  O   UNL A   1      30.944  27.255  21.468  1.00  0.00    -0.275 OA
BRANCH  16  18
ATOM     18  C   UNL A   1      29.500  28.231  23.077  1.00  0.00     0.161 C 
BRANCH  18  19
ATOM     19  C   UNL A   1      29.875  29.714  23.072  1.00  0.00     0.270 C 
BRANCH  19  20
ATOM     20  N   UNL A   1      29.954  30.418  21.792  1.00  0.00    -0.348 N 
ATOM     21  C   UNL A   1      28.710  31.039  21.353  1.00  0.00     0.330 C 
ATOM     22  H   UNL A   1      30.660  31.148  21.875  1.00  0.00     0.346 HD
ATOM     23  H   UNL A   1      30.182  29.712  21.091  1.00  0.00     0.346 HD
ENDBRANCH  19  20
ENDBRANCH  18  19
ENDBRANCH  16  18
ENDBRANCH   7  16
ENDBRANCH   3   6
ENDBRANCH   1   2
BRANCH   1  24
ATOM     24  C   UNL A   1      33.253  29.986  26.883  1.00  0.00     0.042 C 
BRANCH  24  25
ATOM     25  C   UNL A   1      33.604  30.947  27.997  1.00  0.00     0.118 C 
BRANCH  25  26
ATOM     26  N   UNL A   1      34.322  32.152  27.540  1.00  0.00    -0.352 N 
ATOM     27  C   UNL A   1      35.627  32.523  27.836  1.00  0.00     0.251 C 
ATOM     28  H   UNL A   1      33.817  32.763  26.957  1.00  0.00     0.163 HD
ATOM     29  O   UNL A   1      36.000  33.694  27.725  1.00  0.00    -0.269 OA
BRANCH  27  30
ATOM     30  C   UNL A   1      36.555  31.468  28.273  1.00  0.00     0.039 A 
ATOM     31  C   UNL A   1      36.670  30.217  27.663  1.00  0.00     0.014 A 
ATOM     32  C   UNL A   1      37.471  31.880  29.224  1.00  0.00     0.014 A 
ATOM     33  C   UNL A   1      37.788  29.441  27.975  1.00  0.00     0.010 A 
ATOM     34  C   UNL A   1      38.709  31.322  29.171  1.00  0.00     0.010 A 
ATOM     35  C   UNL A   1      38.827  30.028  28.716  1.00  0.00    -0.014 A 
BRANCH  35  36
ATOM     36  C   UNL A   1      40.116  29.406  28.969  1.00  0.00     0.031 A 
ATOM     37  C   UNL A   1      40.330  29.063  30.387  1.00  0.00     0.074 A 
ATOM     38  C   UNL A   1      40.943  28.975  27.986  1.00  0.00     0.049 A 
ATOM     39  N   UNL A   1      40.950  29.786  31.255  1.00  0.00    -0.248 NA
ATOM     40  C   UNL A   1      39.596  27.927  30.967  1.00  0.00     0.031 C 
ATOM     41  C   UNL A   1      40.731  28.942  26.528  1.00  0.00     0.029 A 
ATOM     42  N   UNL A   1      42.156  28.379  28.106  1.00  0.00    -0.354 N 
ATOM     43  C   UNL A   1      40.939  29.046  32.426  1.00  0.00     0.074 A 
ATOM     44  C   UNL A   1      39.891  28.069  32.263  1.00  0.00     0.031 C 
ATOM     45  C   UNL A   1      41.669  28.163  25.942  1.00  0.00     0.029 A 
ATOM     46  C   UNL A   1      42.653  27.797  26.943  1.00  0.00     0.049 A 
ATOM     47  H   UNL A   1      42.651  28.359  28.956  1.00  0.00     0.167 HD
ATOM     48  C   UNL A   1      41.992  29.100  33.288  1.00  0.00     0.031 A 
ATOM     49  C   UNL A   1      43.799  27.075  26.818  1.00  0.00     0.031 A 
ATOM     50  C   UNL A   1      42.915  30.151  32.914  1.00  0.00     0.049 A 
ATOM     51  C   UNL A   1      44.660  27.460  27.966  1.00  0.00     0.074 A 
ATOM     52  C   UNL A   1      42.809  31.517  32.738  1.00  0.00     0.029 A 
ATOM     53  N   UNL A   1      44.037  29.761  32.214  1.00  0.00    -0.354 N 
ATOM     54  N   UNL A   1      45.151  28.661  28.110  1.00  0.00    -0.248 NA
ATOM     55  C   UNL A   1      44.550  26.683  29.190  1.00  0.00     0.031 C 
ATOM     56  C   UNL A   1      43.575  31.795  31.567  1.00  0.00     0.029 A 
ATOM     57  C   UNL A   1      44.192  30.612  31.149  1.00  0.00     0.049 A 
ATOM     58  H   UNL A   1      44.625  29.004  32.438  1.00  0.00     0.167 HD
ATOM     59  C   UNL A   1      44.981  28.954  29.457  1.00  0.00     0.074 A 
ATOM     60  C   UNL A   1      44.692  27.664  30.088  1.00  0.00     0.031 C 
ATOM     61  C   UNL A   1      44.799  30.240  29.886  1.00  0.00     0.031 A 
BRANCH  48  62
ATOM     62  C   UNL A   1      42.418  27.960  34.173  1.00  0.00    -0.014 A 
ATOM     63  C   UNL A   1      42.496  28.188  35.562  1.00  0.00     0.010 A 
ATOM     64  C   UNL A   1      42.992  26.768  33.686  1.00  0.00     0.010 A 
ATOM     65  C   UNL A   1      43.182  27.308  36.405  1.00  0.00     0.020 A 
ATOM     66  C   UNL A   1      43.641  25.861  34.524  1.00  0.00     0.020 A 
ATOM     67  C   UNL A   1      43.761  26.155  35.875  1.00  0.00     0.054 A 
BRANCH  67  68
ATOM     68  S   UNL A   1      44.721  25.073  36.958  1.00  0.00     0.124 S 
ATOM     69  O   UNL A   1      46.056  25.651  36.852  1.00  0.00    -0.237 OA
ATOM     70  O   UNL A   1      44.050  25.253  38.243  1.00  0.00    -0.237 OA
ATOM     71  O   UNL A   1      44.558  23.753  36.354  1.00  0.00    -0.744 OA
ENDBRANCH  67  68
ENDBRANCH  48  62
BRANCH  49  72
ATOM     72  C   UNL A   1      44.055  25.873  25.981  1.00  0.00    -0.014 A 
ATOM     73  C   UNL A   1      45.367  25.452  25.685  1.00  0.00     0.010 A 
ATOM     74  C   UNL A   1      43.010  24.963  25.722  1.00  0.00     0.010 A 
ATOM     75  C   UNL A   1      45.628  24.147  25.224  1.00  0.00     0.020 A 
ATOM     76  C   UNL A   1      43.261  23.664  25.260  1.00  0.00     0.020 A 
ATOM     77  C   UNL A   1      44.573  23.251  25.039  1.00  0.00     0.054 A 
BRANCH  77  78
ATOM     78  S   UNL A   1      44.926  21.509  24.640  1.00  0.00     0.124 S 
ATOM     79  O   UNL A   1      44.502  21.416  23.247  1.00  0.00    -0.237 OA
ATOM     80  O   UNL A   1      46.365  21.415  24.871  1.00  0.00    -0.237 OA
ATOM     81  O   UNL A   1      44.101  20.765  25.591  1.00  0.00    -0.744 OA
ENDBRANCH  77  78
ENDBRANCH  49  72
BRANCH  61  82
ATOM     82  C   UNL A   1      45.061  31.372  28.912  1.00  0.00    -0.014 A 
ATOM     83  C   UNL A   1      46.339  31.886  28.613  1.00  0.00     0.010 A 
ATOM     84  C   UNL A   1      43.968  31.825  28.154  1.00  0.00     0.010 A 
ATOM     85  C   UNL A   1      46.508  32.847  27.601  1.00  0.00     0.020 A 
ATOM     86  C   UNL A   1      44.131  32.765  27.135  1.00  0.00     0.020 A 
ATOM     87  C   UNL A   1      45.398  33.282  26.869  1.00  0.00     0.054 A 
BRANCH  87  88
ATOM     88  S   UNL A   1      45.615  34.502  25.542  1.00  0.00     0.124 S 
ATOM     89  O   UNL A   1      44.806  33.945  24.463  1.00  0.00    -0.237 OA
ATOM     90  O   UNL A   1      45.102  35.732  26.142  1.00  0.00    -0.237 OA
ATOM     91  O   UNL A   1      47.058  34.499  25.298  1.00  0.00    -0.744 OA
ENDBRANCH  87  88
ENDBRANCH  61  82
ENDBRANCH  35  36
ENDBRANCH  27  30
ENDBRANCH  25  26
ENDBRANCH  24  25
ENDBRANCH   1  24
TORSDOF 17
ENDMDL
MODEL 2
REMARK VINA RESULT:     -11.2      3.184      9.448
REMARK SMILES C[NH2+]CCC(=O)N1Cc2nc[nH]c2C[C@H]1C(=O)NCCCNC(=O)c1ccc(-c2c3nc(c(-c4ccc(S(=O)(=O)[O-])cc4)c4ccc([nH]4)c(-c4ccc(S(=O)(=O)[O-])cc4)c4nc(c(-c5ccc(S(=O)(=O)[O-])cc5)c5ccc2[nH]5)C=C4)C=C3)cc1
REMARK SMILES IDX 19 1 18 2 16 3 17 4 15 6 7 7 8 8 9 9 14 10 10 11 13 12 11 13
REMARK SMILES IDX 12 14 5 16 6 17 4 18 3 19 2 20 1 21 20 24 21 25 22 26 23 27
REMARK SMILES IDX 24 29 25 30 26 31 84 32 27 33 83 34 28 35 29 36 30 37 77 38
REMARK SMILES IDX 31 39 82 40 76 41 78 42 32 43 81 44 75 45 74 46 33 48 63 49
REMARK SMILES IDX 44 50 62 51 45 52 48 53 61 54 79 55 46 56 47 57 60 59 80 60
REMARK SMILES IDX 49 61 34 62 35 63 43 64 36 65 42 66 37 67 38 68 39 69 40 70
REMARK SMILES IDX 41 71 64 72 65 73 73 74 66 75 72 76 67 77 68 78 69 79 70 80
REMARK SMILES IDX 71 81 50 82 51 83 59 84 52 85 58 86 53 87 54 88 55 89 56 90
REMARK SMILES IDX 57 91
REMARK H PARENT 18 5 12 15 2 22 2 23 22 28 78 47 48 58
REMARK Flexibility Score: inf
ROOT
ATOM      1  C   UNL A   1      35.691  22.986  25.944  1.00  0.00     0.117 C 
ENDROOT
BRANCH   1   2
ATOM      2  N   UNL A   1      34.854  22.882  27.126  1.00  0.00    -0.354 N 
ATOM      3  C   UNL A   1      33.533  23.128  27.324  1.00  0.00     0.243 C 
ATOM      4  O   UNL A   1      32.999  22.412  28.184  1.00  0.00    -0.273 OA
ATOM      5  H   UNL A   1      35.332  22.577  27.931  1.00  0.00     0.163 HD
BRANCH   3   6
ATOM      6  C   UNL A   1      32.636  24.096  26.503  1.00  0.00     0.180 C 
ATOM      7  N   UNL A   1      33.144  25.429  26.038  1.00  0.00    -0.324 N 
ATOM      8  C   UNL A   1      33.855  25.526  24.752  1.00  0.00     0.178 C 
ATOM      9  C   UNL A   1      33.412  24.465  23.811  1.00  0.00     0.081 A 
ATOM     10  C   UNL A   1      31.818  23.336  25.416  1.00  0.00     0.091 C 
ATOM     11  N   UNL A   1      34.023  24.185  22.615  1.00  0.00    -0.240 NA
ATOM     12  C   UNL A   1      32.490  23.491  24.110  1.00  0.00     0.042 A 
ATOM     13  C   UNL A   1      33.471  23.066  22.198  1.00  0.00     0.197 A 
ATOM     14  N   UNL A   1      32.490  22.631  23.050  1.00  0.00    -0.348 N 
ATOM     15  H   UNL A   1      31.902  21.852  22.925  1.00  0.00     0.167 HD
BRANCH   7  16
ATOM     16  C   UNL A   1      32.730  26.638  26.586  1.00  0.00     0.229 C 
ATOM     17  O   UNL A   1      31.582  26.787  27.014  1.00  0.00    -0.275 OA
BRANCH  16  18
ATOM     18  C   UNL A   1      33.635  27.854  26.490  1.00  0.00     0.161 C 
BRANCH  18  19
ATOM     19  C   UNL A   1      33.314  29.053  27.383  1.00  0.00     0.270 C 
BRANCH  19  20
ATOM     20  N   UNL A   1      34.405  29.932  27.805  1.00  0.00    -0.348 N 
ATOM     21  C   UNL A   1      34.087  31.355  27.800  1.00  0.00     0.330 C 
ATOM     22  H   UNL A   1      34.674  29.671  28.752  1.00  0.00     0.346 HD
ATOM     23  H   UNL A   1      35.153  29.806  27.123  1.00  0.00     0.346 HD
ENDBRANCH  19  20
ENDBRANCH  18  19
ENDBRANCH  16  18
ENDBRANCH   7  16
ENDBRANCH   3   6
ENDBRANCH   1   2
BRANCH   1  24
ATOM     24  C   UNL A   1      36.677  21.834  25.774  1.00  0.00     0.042 C 
BRANCH  24  25
ATOM     25  C   UNL A   1      38.111  22.300  25.654  1.00  0.00     0.118 C 
BRANCH  25  26
ATOM     26  N   UNL A   1      39.035  21.632  26.590  1.00  0.00    -0.352 N 
ATOM     27  C   UNL A   1      40.185  22.158  27.166  1.00  0.00     0.251 C 
ATOM     28  H   UNL A   1      38.810  20.706  26.835  1.00  0.00     0.163 HD
ATOM     29  O   UNL A   1      41.067  21.424  27.617  1.00  0.00    -0.269 OA
BRANCH  27  30
ATOM     30  C   UNL A   1      40.307  23.623  27.231  1.00  0.00     0.039 A 
ATOM     31  C   UNL A   1      39.275  24.514  26.929  1.00  0.00     0.014 A 
ATOM     32  C   UNL A   1      41.477  24.066  27.820  1.00  0.00     0.014 A 
ATOM     33  C   UNL A   1      39.428  25.844  27.327  1.00  0.00     0.010 A 
ATOM     34  C   UNL A   1      41.406  25.209  28.551  1.00  0.00     0.010 A 
ATOM     35  C   UNL A   1      40.497  26.173  28.176  1.00  0.00    -0.014 A 
BRANCH  35  36
ATOM     36  C   UNL A   1      40.684  27.469  28.806  1.00  0.00     0.031 A 
ATOM     37  C   UNL A   1      41.728  28.287  28.161  1.00  0.00     0.074 A 
ATOM     38  C   UNL A   1      39.843  27.974  29.740  1.00  0.00     0.049 A 
ATOM     39  N   UNL A   1      42.960  28.369  28.528  1.00  0.00    -0.248 NA
ATOM     40  C   UNL A   1      41.452  28.893  26.849  1.00  0.00     0.031 C 
ATOM     41  C   UNL A   1      38.573  27.429  30.252  1.00  0.00     0.029 A 
ATOM     42  N   UNL A   1      39.916  29.165  30.385  1.00  0.00    -0.354 N 
ATOM     43  C   UNL A   1      43.543  29.279  27.662  1.00  0.00     0.074 A 
ATOM     44  C   UNL A   1      42.664  29.355  26.522  1.00  0.00     0.031 C 
ATOM     45  C   UNL A   1      37.906  28.381  30.943  1.00  0.00     0.029 A 
ATOM     46  C   UNL A   1      38.771  29.536  31.086  1.00  0.00     0.049 A 
ATOM     47  H   UNL A   1      40.722  29.729  30.360  1.00  0.00     0.167 HD
ATOM     48  C   UNL A   1      44.527  30.115  28.097  1.00  0.00     0.031 A 
ATOM     49  C   UNL A   1      38.562  30.709  31.742  1.00  0.00     0.031 A 
ATOM     50  C   UNL A   1      44.973  29.745  29.423  1.00  0.00     0.049 A 
ATOM     51  C   UNL A   1      39.907  31.271  32.028  1.00  0.00     0.074 A 
ATOM     52  C   UNL A   1      45.506  28.601  29.984  1.00  0.00     0.029 A 
ATOM     53  N   UNL A   1      44.454  30.477  30.471  1.00  0.00    -0.354 N 
ATOM     54  N   UNL A   1      40.758  30.696  32.834  1.00  0.00    -0.248 NA
ATOM     55  C   UNL A   1      40.493  32.168  31.044  1.00  0.00     0.031 C 
ATOM     56  C   UNL A   1      44.860  28.478  31.250  1.00  0.00     0.029 A 
ATOM     57  C   UNL A   1      44.049  29.600  31.445  1.00  0.00     0.049 A 
ATOM     58  H   UNL A   1      44.386  31.458  30.513  1.00  0.00     0.167 HD
ATOM     59  C   UNL A   1      41.981  30.790  32.183  1.00  0.00     0.074 A 
ATOM     60  C   UNL A   1      41.772  31.787  31.131  1.00  0.00     0.031 C 
ATOM     61  C   UNL A   1      42.955  29.847  32.364  1.00  0.00     0.031 A 
BRANCH  48  62
ATOM     62  C   UNL A   1      44.770  31.493  27.543  1.00  0.00    -0.014 A 
ATOM     63  C   UNL A   1      45.976  31.731  26.854  1.00  0.00     0.010 A 
ATOM     64  C   UNL A   1      43.997  32.620  27.892  1.00  0.00     0.010 A 
ATOM     65  C   UNL A   1      46.422  33.032  26.599  1.00  0.00     0.020 A 
ATOM     66  C   UNL A   1      44.412  33.920  27.604  1.00  0.00     0.020 A 
ATOM     67  C   UNL A   1      45.639  34.119  26.988  1.00  0.00     0.054 A 
BRANCH  67  68
ATOM     68  S   UNL A   1      46.269  35.793  26.735  1.00  0.00     0.124 S 
ATOM     69  O   UNL A   1      47.112  35.622  25.557  1.00  0.00    -0.237 OA
ATOM     70  O   UNL A   1      45.040  36.556  26.533  1.00  0.00    -0.237 OA
ATOM     71  O   UNL A   1      46.980  36.082  27.979  1.00  0.00    -0.744 OA
ENDBRANCH  67  68
ENDBRANCH  48  62
BRANCH  49  72
ATOM     72  C   UNL A   1      37.311  31.507  31.847  1.00  0.00    -0.014 A 
ATOM     73  C   UNL A   1      36.647  31.670  33.079  1.00  0.00     0.010 A 
ATOM     74  C   UNL A   1      36.934  32.360  30.790  1.00  0.00     0.010 A 
ATOM     75  C   UNL A   1      35.702  32.698  33.268  1.00  0.00     0.020 A 
ATOM     76  C   UNL A   1      35.992  33.382  30.969  1.00  0.00     0.020 A 
ATOM     77  C   UNL A   1      35.399  33.565  32.216  1.00  0.00     0.054 A 
BRANCH  77  78
ATOM     78  S   UNL A   1      34.334  35.011  32.516  1.00  0.00     0.124 S 
ATOM     79  O   UNL A   1      35.156  35.825  33.407  1.00  0.00    -0.237 OA
ATOM     80  O   UNL A   1      34.137  35.547  31.172  1.00  0.00    -0.237 OA
ATOM     81  O   UNL A   1      33.138  34.435  33.130  1.00  0.00    -0.744 OA
ENDBRANCH  77  78
ENDBRANCH  49  72
BRANCH  61  82
ATOM     82  C   UNL A   1      42.794  28.848  33.493  1.00  0.00    -0.014 A 
ATOM     83  C   UNL A   1      43.565  28.848  34.673  1.00  0.00     0.010 A 
ATOM     84  C   UNL A   1      41.703  27.965  33.412  1.00  0.00     0.010 A 
ATOM     85  C   UNL A   1      43.265  27.968  35.728  1.00  0.00     0.020 A 
ATOM     86  C   UNL A   1      41.388  27.103  34.463  1.00  0.00     0.020 A 
ATOM     87  C   UNL A   1      42.176  27.098  35.613  1.00  0.00     0.054 A 
BRANCH  87  88
ATOM     88  S   UNL A   1      41.766  25.980  36.984  1.00  0.00     0.124 S 
ATOM     89  O   UNL A   1      40.406  26.383  37.327  1.00  0.00    -0.237 OA
ATOM     90  O   UNL A   1      41.896  24.657  36.376  1.00  0.00    -0.237 OA
ATOM     91  O   UNL A   1      42.776  26.287  37.997  1.00  0.00    -0.744 OA
ENDBRANCH  87  88
ENDBRANCH  61  82
ENDBRANCH  35  36
ENDBRANCH  27  30
ENDBRANCH  25  26
ENDBRANCH  24  25
ENDBRANCH   1  24
TORSDOF 17
ENDMDL
MODEL 3
REMARK VINA RESULT:     -11.2      5.350     11.924
REMARK SMILES C[NH2+]CCC(=O)N1Cc2nc[nH]c2C[C@H]1C(=O)NCCCNC(=O)c1ccc(-c2c3nc(c(-c4ccc(S(=O)(=O)[O-])cc4)c4ccc([nH]4)c(-c4ccc(S(=O)(=O)[O-])cc4)c4nc(c(-c5ccc(S(=O)(=O)[O-])cc5)c5ccc2[nH]5)C=C4)C=C3)cc1
REMARK SMILES IDX 19 1 18 2 16 3 17 4 15 6 7 7 8 8 9 9 14 10 10 11 13 12 11 13
REMARK SMILES IDX 12 14 5 16 6 17 4 18 3 19 2 20 1 21 20 24 21 25 22 26 23 27
REMARK SMILES IDX 24 29 25 30 26 31 84 32 27 33 83 34 28 35 29 36 30 37 77 38
REMARK SMILES IDX 31 39 82 40 76 41 78 42 32 43 81 44 75 45 74 46 33 48 63 49
REMARK SMILES IDX 44 50 62 51 45 52 48 53 61 54 79 55 46 56 47 57 60 59 80 60
REMARK SMILES IDX 49 61 34 62 35 63 43 64 36 65 42 66 37 67 38 68 39 69 40 70
REMARK SMILES IDX 41 71 64 72 65 73 73 74 66 75 72 76 67 77 68 78 69 79 70 80
REMARK SMILES IDX 71 81 50 82 51 83 59 84 52 85 58 86 53 87 54 88 55 89 56 90
REMARK SMILES IDX 57 91
REMARK H PARENT 18 5 12 15 2 22 2 23 22 28 78 47 48 58
REMARK Flexibility Score: inf
ROOT
ATOM      1  C   UNL A   1      44.121  22.378  24.376  1.00  0.00     0.117 C 
ENDROOT
BRANCH   1   2
ATOM      2  N   UNL A   1      45.433  22.972  24.561  1.00  0.00    -0.354 N 
ATOM      3  C   UNL A   1      45.936  23.768  25.539  1.00  0.00     0.243 C 
ATOM      4  O   UNL A   1      47.147  23.614  25.756  1.00  0.00    -0.273 OA
ATOM      5  H   UNL A   1      46.075  22.759  23.845  1.00  0.00     0.163 HD
BRANCH   3   6
ATOM      6  C   UNL A   1      45.130  24.719  26.468  1.00  0.00     0.180 C 
ATOM      7  N   UNL A   1      45.632  25.090  27.832  1.00  0.00    -0.324 N 
ATOM      8  C   UNL A   1      46.533  26.246  27.983  1.00  0.00     0.178 C 
ATOM      9  C   UNL A   1      46.304  27.251  26.912  1.00  0.00     0.081 A 
ATOM     10  C   UNL A   1      44.539  25.925  25.680  1.00  0.00     0.091 C 
ATOM     11  N   UNL A   1      47.113  28.334  26.680  1.00  0.00    -0.240 NA
ATOM     12  C   UNL A   1      45.401  27.106  25.887  1.00  0.00     0.042 A 
ATOM     13  C   UNL A   1      46.696  28.838  25.538  1.00  0.00     0.197 A 
ATOM     14  N   UNL A   1      45.617  28.156  25.041  1.00  0.00    -0.348 N 
ATOM     15  H   UNL A   1      45.100  28.377  24.233  1.00  0.00     0.167 HD
BRANCH   7  16
ATOM     16  C   UNL A   1      45.072  24.611  29.011  1.00  0.00     0.229 C 
ATOM     17  O   UNL A   1      44.781  23.419  29.142  1.00  0.00    -0.275 OA
BRANCH  16  18
ATOM     18  C   UNL A   1      44.635  25.591  30.086  1.00  0.00     0.161 C 
BRANCH  18  19
ATOM     19  C   UNL A   1      45.223  25.418  31.487  1.00  0.00     0.270 C 
BRANCH  19  20
ATOM     20  N   UNL A   1      44.341  24.998  32.577  1.00  0.00    -0.348 N 
ATOM     21  C   UNL A   1      44.449  23.593  32.949  1.00  0.00     0.330 C 
ATOM     22  H   UNL A   1      44.562  25.561  33.397  1.00  0.00     0.346 HD
ATOM     23  H   UNL A   1      43.387  25.131  32.239  1.00  0.00     0.346 HD
ENDBRANCH  19  20
ENDBRANCH  18  19
ENDBRANCH  16  18
ENDBRANCH   7  16
ENDBRANCH   3   6
ENDBRANCH   1   2
BRANCH   1  24
ATOM     24  C   UNL A   1      43.775  21.298  25.398  1.00  0.00     0.042 C 
BRANCH  24  25
ATOM     25  C   UNL A   1      42.943  21.820  26.547  1.00  0.00     0.118 C 
BRANCH  25  26
ATOM     26  N   UNL A   1      41.488  21.699  26.333  1.00  0.00    -0.352 N 
ATOM     27  C   UNL A   1      40.500  22.608  26.692  1.00  0.00     0.251 C 
ATOM     28  H   UNL A   1      41.182  20.880  25.881  1.00  0.00     0.163 HD
ATOM     29  O   UNL A   1      39.323  22.259  26.811  1.00  0.00    -0.269 OA
BRANCH  27  30
ATOM     30  C   UNL A   1      40.905  24.005  26.912  1.00  0.00     0.039 A 
ATOM     31  C   UNL A   1      40.583  25.063  26.059  1.00  0.00     0.014 A 
ATOM     32  C   UNL A   1      41.467  24.242  28.154  1.00  0.00     0.014 A 
ATOM     33  C   UNL A   1      40.759  26.362  26.539  1.00  0.00     0.010 A 
ATOM     34  C   UNL A   1      41.219  25.450  28.724  1.00  0.00     0.010 A 
ATOM     35  C   UNL A   1      41.050  26.541  27.902  1.00  0.00    -0.014 A 
BRANCH  35  36
ATOM     36  C   UNL A   1      41.091  27.828  28.577  1.00  0.00     0.031 A 
ATOM     37  C   UNL A   1      42.121  28.737  28.040  1.00  0.00     0.074 A 
ATOM     38  C   UNL A   1      40.143  28.243  29.450  1.00  0.00     0.049 A 
ATOM     39  N   UNL A   1      43.311  28.894  28.510  1.00  0.00    -0.248 NA
ATOM     40  C   UNL A   1      41.909  29.362  26.725  1.00  0.00     0.031 C 
ATOM     41  C   UNL A   1      38.879  27.595  29.842  1.00  0.00     0.029 A 
ATOM     42  N   UNL A   1      40.076  29.417  30.128  1.00  0.00    -0.354 N 
ATOM     43  C   UNL A   1      43.894  29.869  27.717  1.00  0.00     0.074 A 
ATOM     44  C   UNL A   1      43.106  29.917  26.511  1.00  0.00     0.031 C 
ATOM     45  C   UNL A   1      38.090  28.477  30.498  1.00  0.00     0.029 A 
ATOM     46  C   UNL A   1      38.855  29.685  30.740  1.00  0.00     0.049 A 
ATOM     47  H   UNL A   1      40.839  30.037  30.183  1.00  0.00     0.167 HD
ATOM     48  C   UNL A   1      44.775  30.759  28.253  1.00  0.00     0.031 A 
ATOM     49  C   UNL A   1      38.509  30.819  31.406  1.00  0.00     0.031 A 
ATOM     50  C   UNL A   1      45.139  30.382  29.602  1.00  0.00     0.049 A 
ATOM     51  C   UNL A   1      39.782  31.466  31.815  1.00  0.00     0.074 A 
ATOM     52  C   UNL A   1      45.707  29.261  30.176  1.00  0.00     0.029 A 
ATOM     53  N   UNL A   1      44.485  31.043  30.620  1.00  0.00    -0.354 N 
ATOM     54  N   UNL A   1      40.604  30.929  32.674  1.00  0.00    -0.248 NA
ATOM     55  C   UNL A   1      40.378  32.432  30.905  1.00  0.00     0.031 C 
ATOM     56  C   UNL A   1      44.972  29.055  31.381  1.00  0.00     0.029 A 
ATOM     57  C   UNL A   1      44.068  30.110  31.536  1.00  0.00     0.049 A 
ATOM     58  H   UNL A   1      44.343  32.015  30.680  1.00  0.00     0.167 HD
ATOM     59  C   UNL A   1      41.866  31.128  32.129  1.00  0.00     0.074 A 
ATOM     60  C   UNL A   1      41.670  32.139  31.088  1.00  0.00     0.031 C 
ATOM     61  C   UNL A   1      42.888  30.251  32.367  1.00  0.00     0.031 A 
BRANCH  48  62
ATOM     62  C   UNL A   1      44.961  32.167  27.754  1.00  0.00    -0.014 A 
ATOM     63  C   UNL A   1      46.248  32.562  27.339  1.00  0.00     0.010 A 
ATOM     64  C   UNL A   1      44.000  33.185  27.921  1.00  0.00     0.010 A 
ATOM     65  C   UNL A   1      46.577  33.912  27.177  1.00  0.00     0.020 A 
ATOM     66  C   UNL A   1      44.305  34.532  27.720  1.00  0.00     0.020 A 
ATOM     67  C   UNL A   1      45.602  34.889  27.381  1.00  0.00     0.054 A 
BRANCH  67  68
ATOM     68  S   UNL A   1      46.062  36.632  27.258  1.00  0.00     0.124 S 
ATOM     69  O   UNL A   1      47.009  36.770  28.358  1.00  0.00    -0.237 OA
ATOM     70  O   UNL A   1      46.631  36.704  25.915  1.00  0.00    -0.237 OA
ATOM     71  O   UNL A   1      44.792  37.333  27.431  1.00  0.00    -0.744 OA
ENDBRANCH  67  68
ENDBRANCH  48  62
BRANCH  49  72
ATOM     72  C   UNL A   1      37.199  31.524  31.426  1.00  0.00    -0.014 A 
ATOM     73  C   UNL A   1      36.386  31.527  32.577  1.00  0.00     0.010 A 
ATOM     74  C   UNL A   1      36.885  32.449  30.409  1.00  0.00     0.010 A 
ATOM     75  C   UNL A   1      35.352  32.470  32.738  1.00  0.00     0.020 A 
ATOM     76  C   UNL A   1      35.855  33.388  30.560  1.00  0.00     0.020 A 
ATOM     77  C   UNL A   1      35.110  33.413  31.736  1.00  0.00     0.054 A 
BRANCH  77  78
ATOM     78  S   UNL A   1      33.913  34.754  32.029  1.00  0.00     0.124 S 
ATOM     79  O   UNL A   1      33.009  34.157  33.008  1.00  0.00    -0.237 OA
ATOM     80  O   UNL A   1      34.760  35.834  32.528  1.00  0.00    -0.237 OA
ATOM     81  O   UNL A   1      33.331  34.989  30.708  1.00  0.00    -0.744 OA
ENDBRANCH  77  78
ENDBRANCH  49  72
BRANCH  61  82
ATOM     82  C   UNL A   1      42.710  29.210  33.454  1.00  0.00    -0.014 A 
ATOM     83  C   UNL A   1      43.040  29.408  34.810  1.00  0.00     0.010 A 
ATOM     84  C   UNL A   1      42.032  28.030  33.101  1.00  0.00     0.010 A 
ATOM     85  C   UNL A   1      42.721  28.439  35.777  1.00  0.00     0.020 A 
ATOM     86  C   UNL A   1      41.696  27.072  34.059  1.00  0.00     0.020 A 
ATOM     87  C   UNL A   1      42.052  27.273  35.391  1.00  0.00     0.054 A 
BRANCH  87  88
ATOM     88  S   UNL A   1      41.613  26.030  36.641  1.00  0.00     0.124 S 
ATOM     89  O   UNL A   1      41.029  24.962  35.835  1.00  0.00    -0.237 OA
ATOM     90  O   UNL A   1      42.901  25.720  37.258  1.00  0.00    -0.237 OA
ATOM     91  O   UNL A   1      40.672  26.731  37.514  1.00  0.00    -0.744 OA
ENDBRANCH  87  88
ENDBRANCH  61  82
ENDBRANCH  35  36
ENDBRANCH  27  30
ENDBRANCH  25  26
ENDBRANCH  24  25
ENDBRANCH   1  24
TORSDOF 17
ENDMDL
