MODEL 1
REMARK VINA RESULT:     -14.4      0.000      0.000
REMARK SMILES Cc1c(C(=O)NCCCNC(=O)c2ccc(-c3c4nc(c(-c5ccc(S(=O)(=O)[O-])cc5)c5ccc([nH]5)c(-c5ccc(S(=O)(=O)[O-])cc5)c5nc(c(-c6ccc(S(=O)(=O)[O-])cc6)c6ccc3[nH]6)C=C5)C=C4)cc2)cccc1-n1c(C)cc(/C=C2/C(=O)NC(=S)N=C2O)c1C
REMARK SMILES IDX 8 1 7 2 6 3 4 4 5 5 3 7 1 8 2 9 76 10 73 11 75 12 74 13
REMARK SMILES IDX 77 14 78 15 92 16 79 17 80 18 81 19 93 20 82 21 83 22 84 23
REMARK SMILES IDX 90 24 85 25 86 26 89 27 87 28 88 30 91 31 9 33 10 34 11 35
REMARK SMILES IDX 12 37 13 38 14 39 72 40 15 41 71 42 16 43 17 44 18 45 65 46
REMARK SMILES IDX 19 47 70 48 64 49 66 50 20 51 69 52 63 53 62 54 21 56 51 57
REMARK SMILES IDX 32 58 50 59 33 60 36 61 49 62 67 63 34 64 35 65 48 67 68 68
REMARK SMILES IDX 37 69 22 70 23 71 31 72 24 73 30 74 25 75 26 76 27 77 28 78
REMARK SMILES IDX 29 79 52 80 53 81 61 82 54 83 60 84 55 85 56 86 57 87 58 88
REMARK SMILES IDX 59 89 38 90 39 91 47 92 40 93 46 94 41 95 42 96 43 97 44 98
REMARK SMILES IDX 45 99
REMARK H PARENT 6 6 86 29 91 32 10 36 66 55 36 66
REMARK Flexibility Score: inf
ROOT
ATOM      1  C   UNL A   1      32.823  30.410  25.913  1.00  0.00     0.042 C 
ENDROOT
BRANCH   1   2
ATOM      2  C   UNL A   1      31.397  30.035  25.491  1.00  0.00     0.118 C 
BRANCH   2   3
ATOM      3  N   UNL A   1      31.349  29.618  24.094  1.00  0.00    -0.352 N 
ATOM      4  C   UNL A   1      31.756  28.513  23.392  1.00  0.00     0.251 C 
ATOM      5  O   UNL A   1      31.497  28.508  22.185  1.00  0.00    -0.269 OA
ATOM      6  H   UNL A   1      30.923  30.292  23.517  1.00  0.00     0.163 HD
BRANCH   4   7
ATOM      7  C   UNL A   1      32.426  27.289  23.946  1.00  0.00     0.044 A 
ATOM      8  C   UNL A   1      30.710  25.559  23.202  1.00  0.00     0.047 C 
ATOM      9  C   UNL A   1      31.968  25.958  23.895  1.00  0.00    -0.014 A 
ATOM     10  C   UNL A   1      32.709  24.959  24.573  1.00  0.00     0.049 A 
ATOM     11  C   UNL A   1      33.546  27.572  24.764  1.00  0.00     0.014 A 
ATOM     12  C   UNL A   1      33.813  25.255  25.373  1.00  0.00     0.027 A 
ATOM     13  C   UNL A   1      34.221  26.576  25.479  1.00  0.00     0.003 A 
BRANCH  10  14
ATOM     14  N   UNL A   1      32.278  23.610  24.533  1.00  0.00    -0.318 N 
ATOM     15  C   UNL A   1      31.503  23.002  25.505  1.00  0.00     0.020 A 
ATOM     16  C   UNL A   1      32.805  22.631  23.690  1.00  0.00     0.027 A 
ATOM     17  C   UNL A   1      30.998  23.704  26.717  1.00  0.00     0.065 C 
ATOM     18  C   UNL A   1      31.367  21.676  25.149  1.00  0.00     0.031 A 
ATOM     19  C   UNL A   1      32.174  21.437  24.003  1.00  0.00    -0.003 A 
ATOM     20  C   UNL A   1      33.921  22.956  22.747  1.00  0.00     0.065 C 
BRANCH  19  21
ATOM     21  C   UNL A   1      32.404  20.124  23.487  1.00  0.00     0.029 C 
ATOM     22  C   UNL A   1      32.690  18.953  24.082  1.00  0.00     0.102 C 
ATOM     23  C   UNL A   1      32.704  17.761  23.195  1.00  0.00     0.262 C 
ATOM     24  C   UNL A   1      32.916  18.633  25.491  1.00  0.00     0.226 C 
ATOM     25  O   UNL A   1      32.791  17.802  21.974  1.00  0.00    -0.269 OA
ATOM     26  N   UNL A   1      32.588  16.572  23.865  1.00  0.00    -0.297 N 
ATOM     27  N   UNL A   1      32.862  17.471  26.034  1.00  0.00    -0.184 NA
ATOM     28  C   UNL A   1      32.595  16.398  25.228  1.00  0.00     0.203 C 
ATOM     29  H   UNL A   1      32.491  15.761  23.316  1.00  0.00     0.172 HD
ATOM     30  S   UNL A   1      32.342  14.848  25.812  1.00  0.00    -0.038 S 
BRANCH  24  31
ATOM     31  O   UNL A   1      33.287  19.643  26.279  1.00  0.00    -0.493 OA
ATOM     32  H   UNL A   1      33.697  20.401  25.909  1.00  0.00     0.295 HD
ENDBRANCH  24  31
ENDBRANCH  19  21
ENDBRANCH  10  14
ENDBRANCH   4   7
ENDBRANCH   2   3
ENDBRANCH   1   2
BRANCH   1  33
ATOM     33  C   UNL A   1      33.191  30.186  27.364  1.00  0.00     0.118 C 
BRANCH  33  34
ATOM     34  N   UNL A   1      33.697  31.423  27.977  1.00  0.00    -0.352 N 
ATOM     35  C   UNL A   1      34.917  31.636  28.600  1.00  0.00     0.251 C 
ATOM     36  H   UNL A   1      33.091  32.199  27.942  1.00  0.00     0.163 HD
ATOM     37  O   UNL A   1      35.232  32.712  29.062  1.00  0.00    -0.269 OA
BRANCH  35  38
ATOM     38  C   UNL A   1      35.821  30.473  28.648  1.00  0.00     0.039 A 
ATOM     39  C   UNL A   1      36.017  29.848  29.882  1.00  0.00     0.014 A 
ATOM     40  C   UNL A   1      36.722  30.332  27.601  1.00  0.00     0.014 A 
ATOM     41  C   UNL A   1      37.240  29.232  30.140  1.00  0.00     0.010 A 
ATOM     42  C   UNL A   1      37.974  29.847  27.910  1.00  0.00     0.010 A 
ATOM     43  C   UNL A   1      38.252  29.327  29.189  1.00  0.00    -0.014 A 
BRANCH  43  44
ATOM     44  C   UNL A   1      39.649  28.960  29.406  1.00  0.00     0.031 A 
ATOM     45  C   UNL A   1      40.102  27.607  28.989  1.00  0.00     0.074 A 
ATOM     46  C   UNL A   1      40.572  29.855  29.831  1.00  0.00     0.049 A 
ATOM     47  N   UNL A   1      41.249  27.099  29.287  1.00  0.00    -0.248 NA
ATOM     48  C   UNL A   1      39.248  26.674  28.255  1.00  0.00     0.031 C 
ATOM     49  C   UNL A   1      42.020  29.758  29.637  1.00  0.00     0.029 A 
ATOM     50  N   UNL A   1      40.434  30.930  30.710  1.00  0.00    -0.354 N 
ATOM     51  C   UNL A   1      41.406  25.955  28.542  1.00  0.00     0.074 A 
ATOM     52  C   UNL A   1      40.099  25.679  28.003  1.00  0.00     0.031 C 
ATOM     53  C   UNL A   1      42.634  30.492  30.573  1.00  0.00     0.029 A 
ATOM     54  C   UNL A   1      41.611  30.960  31.487  1.00  0.00     0.049 A 
ATOM     55  H   UNL A   1      39.668  31.545  30.776  1.00  0.00     0.167 HD
ATOM     56  C   UNL A   1      42.656  25.439  28.375  1.00  0.00     0.031 A 
ATOM     57  C   UNL A   1      41.656  30.844  32.849  1.00  0.00     0.031 A 
ATOM     58  C   UNL A   1      43.635  26.087  29.249  1.00  0.00     0.049 A 
ATOM     59  C   UNL A   1      42.541  29.717  33.352  1.00  0.00     0.074 A 
ATOM     60  C   UNL A   1      44.708  26.943  29.070  1.00  0.00     0.029 A 
ATOM     61  N   UNL A   1      43.417  26.035  30.614  1.00  0.00    -0.354 N 
ATOM     62  N   UNL A   1      43.231  28.919  32.586  1.00  0.00    -0.248 NA
ATOM     63  C   UNL A   1      42.609  29.319  34.762  1.00  0.00     0.031 C 
ATOM     64  C   UNL A   1      45.152  27.374  30.356  1.00  0.00     0.029 A 
ATOM     65  C   UNL A   1      44.355  26.767  31.308  1.00  0.00     0.049 A 
ATOM     66  H   UNL A   1      42.681  25.536  31.038  1.00  0.00     0.167 HD
ATOM     67  C   UNL A   1      43.699  27.866  33.329  1.00  0.00     0.074 A 
ATOM     68  C   UNL A   1      43.320  28.179  34.693  1.00  0.00     0.031 C 
ATOM     69  C   UNL A   1      44.281  26.771  32.760  1.00  0.00     0.031 A 
BRANCH  56  70
ATOM     70  C   UNL A   1      43.046  24.444  27.303  1.00  0.00    -0.014 A 
ATOM     71  C   UNL A   1      43.596  23.201  27.683  1.00  0.00     0.010 A 
ATOM     72  C   UNL A   1      42.976  24.683  25.918  1.00  0.00     0.010 A 
ATOM     73  C   UNL A   1      44.111  22.292  26.745  1.00  0.00     0.020 A 
ATOM     74  C   UNL A   1      43.485  23.787  24.968  1.00  0.00     0.020 A 
ATOM     75  C   UNL A   1      44.070  22.603  25.389  1.00  0.00     0.054 A 
BRANCH  75  76
ATOM     76  S   UNL A   1      44.802  21.465  24.188  1.00  0.00     0.124 S 
ATOM     77  O   UNL A   1      44.440  22.083  22.915  1.00  0.00    -0.237 OA
ATOM     78  O   UNL A   1      46.219  21.509  24.534  1.00  0.00    -0.237 OA
ATOM     79  O   UNL A   1      44.137  20.194  24.466  1.00  0.00    -0.744 OA
ENDBRANCH  75  76
ENDBRANCH  56  70
BRANCH  57  80
ATOM     80  C   UNL A   1      40.417  31.303  33.529  1.00  0.00    -0.014 A 
ATOM     81  C   UNL A   1      40.261  32.692  33.720  1.00  0.00     0.010 A 
ATOM     82  C   UNL A   1      39.281  30.474  33.529  1.00  0.00     0.010 A 
ATOM     83  C   UNL A   1      38.988  33.262  33.690  1.00  0.00     0.020 A 
ATOM     84  C   UNL A   1      38.005  31.045  33.512  1.00  0.00     0.020 A 
ATOM     85  C   UNL A   1      37.878  32.437  33.507  1.00  0.00     0.054 A 
BRANCH  85  86
ATOM     86  S   UNL A   1      36.321  33.219  32.989  1.00  0.00     0.124 S 
ATOM     87  O   UNL A   1      35.475  32.069  32.689  1.00  0.00    -0.237 OA
ATOM     88  O   UNL A   1      35.963  33.975  34.187  1.00  0.00    -0.237 OA
ATOM     89  O   UNL A   1      36.718  34.030  31.842  1.00  0.00    -0.744 OA
ENDBRANCH  85  86
ENDBRANCH  57  80
BRANCH  69  90
ATOM     90  C   UNL A   1      44.754  25.556  33.517  1.00  0.00    -0.014 A 
ATOM     91  C   UNL A   1      46.111  25.252  33.704  1.00  0.00     0.010 A 
ATOM     92  C   UNL A   1      43.812  24.598  33.963  1.00  0.00     0.010 A 
ATOM     93  C   UNL A   1      46.504  24.068  34.350  1.00  0.00     0.020 A 
ATOM     94  C   UNL A   1      44.193  23.409  34.589  1.00  0.00     0.020 A 
ATOM     95  C   UNL A   1      45.541  23.157  34.792  1.00  0.00     0.054 A 
BRANCH  95  96
ATOM     96  S   UNL A   1      46.070  21.613  35.577  1.00  0.00     0.124 S 
ATOM     97  O   UNL A   1      47.502  21.584  35.290  1.00  0.00    -0.237 OA
ATOM     98  O   UNL A   1      45.716  21.849  36.976  1.00  0.00    -0.237 OA
ATOM     99  O   UNL A   1      45.283  20.586  34.901  1.00  0.00    -0.744 OA
ENDBRANCH  95  96
ENDBRANCH  69  90
ENDBRANCH  43  44
ENDBRANCH  35  38
ENDBRANCH  33  34
ENDBRANCH   1  33
TORSDOF 16
ENDMDL
MODEL 2
REMARK VINA RESULT:     -14.4      1.239      2.064
REMARK SMILES Cc1c(C(=O)NCCCNC(=O)c2ccc(-c3c4nc(c(-c5ccc(S(=O)(=O)[O-])cc5)c5ccc([nH]5)c(-c5ccc(S(=O)(=O)[O-])cc5)c5nc(c(-c6ccc(S(=O)(=O)[O-])cc6)c6ccc3[nH]6)C=C5)C=C4)cc2)cccc1-n1c(C)cc(/C=C2/C(=O)NC(=S)N=C2O)c1C
REMARK SMILES IDX 8 1 7 2 6 3 4 4 5 5 3 7 1 8 2 9 76 10 73 11 75 12 74 13
REMARK SMILES IDX 77 14 78 15 92 16 79 17 80 18 81 19 93 20 82 21 83 22 84 23
REMARK SMILES IDX 90 24 85 25 86 26 89 27 87 28 88 30 91 31 9 33 10 34 11 35
REMARK SMILES IDX 12 37 13 38 14 39 72 40 15 41 71 42 16 43 17 44 18 45 65 46
REMARK SMILES IDX 19 47 70 48 64 49 66 50 20 51 69 52 63 53 62 54 21 56 51 57
REMARK SMILES IDX 32 58 50 59 33 60 36 61 49 62 67 63 34 64 35 65 48 67 68 68
REMARK SMILES IDX 37 69 22 70 23 71 31 72 24 73 30 74 25 75 26 76 27 77 28 78
REMARK SMILES IDX 29 79 52 80 53 81 61 82 54 83 60 84 55 85 56 86 57 87 58 88
REMARK SMILES IDX 59 89 38 90 39 91 47 92 40 93 46 94 41 95 42 96 43 97 44 98
REMARK SMILES IDX 45 99
REMARK H PARENT 6 6 86 29 91 32 10 36 66 55 36 66
REMARK Flexibility Score: inf
ROOT
ATOM      1  C   UNL A   1      32.866  30.072  25.900  1.00  0.00     0.042 C 
ENDROOT
BRANCH   1   2
ATOM      2  C   UNL A   1      31.394  30.493  25.970  1.00  0.00     0.118 C 
BRANCH   2   3
ATOM      3  N   UNL A   1      30.813  30.614  24.637  1.00  0.00    -0.352 N 
ATOM      4  C   UNL A   1      30.398  29.735  23.671  1.00  0.00     0.251 C 
ATOM      5  O   UNL A   1      29.907  30.234  22.653  1.00  0.00    -0.269 OA
ATOM      6  H   UNL A   1      30.690  31.553  24.367  1.00  0.00     0.163 HD
BRANCH   4   7
ATOM      7  C   UNL A   1      30.422  28.236  23.745  1.00  0.00     0.044 A 
ATOM      8  C   UNL A   1      32.907  27.883  23.304  1.00  0.00     0.047 C 
ATOM      9  C   UNL A   1      31.527  27.382  23.562  1.00  0.00    -0.014 A 
ATOM     10  C   UNL A   1      31.311  25.981  23.574  1.00  0.00     0.049 A 
ATOM     11  C   UNL A   1      29.138  27.648  23.824  1.00  0.00     0.014 A 
ATOM     12  C   UNL A   1      30.038  25.418  23.656  1.00  0.00     0.027 A 
ATOM     13  C   UNL A   1      28.944  26.262  23.766  1.00  0.00     0.003 A 
BRANCH  10  14
ATOM     14  N   UNL A   1      32.404  25.097  23.401  1.00  0.00    -0.318 N 
ATOM     15  C   UNL A   1      32.928  24.723  22.175  1.00  0.00     0.020 A 
ATOM     16  C   UNL A   1      32.909  24.252  24.390  1.00  0.00     0.027 A 
ATOM     17  C   UNL A   1      32.420  25.230  20.870  1.00  0.00     0.065 C 
ATOM     18  C   UNL A   1      33.918  23.794  22.420  1.00  0.00     0.031 A 
ATOM     19  C   UNL A   1      33.920  23.500  23.811  1.00  0.00    -0.003 A 
ATOM     20  C   UNL A   1      32.287  24.214  25.751  1.00  0.00     0.065 C 
BRANCH  19  21
ATOM     21  C   UNL A   1      34.701  22.442  24.371  1.00  0.00     0.029 C 
ATOM     22  C   UNL A   1      34.440  21.142  24.592  1.00  0.00     0.102 C 
ATOM     23  C   UNL A   1      35.586  20.319  25.058  1.00  0.00     0.262 C 
ATOM     24  C   UNL A   1      33.219  20.366  24.371  1.00  0.00     0.226 C 
ATOM     25  O   UNL A   1      36.615  20.772  25.544  1.00  0.00    -0.269 OA
ATOM     26  N   UNL A   1      35.409  18.973  24.880  1.00  0.00    -0.297 N 
ATOM     27  N   UNL A   1      33.123  19.089  24.290  1.00  0.00    -0.184 NA
ATOM     28  C   UNL A   1      34.263  18.349  24.452  1.00  0.00     0.203 C 
ATOM     29  H   UNL A   1      36.180  18.394  25.080  1.00  0.00     0.172 HD
ATOM     30  S   UNL A   1      34.323  16.690  24.223  1.00  0.00    -0.038 S 
BRANCH  24  31
ATOM     31  O   UNL A   1      32.077  21.055  24.319  1.00  0.00    -0.493 OA
ATOM     32  H   UNL A   1      32.056  21.950  24.599  1.00  0.00     0.295 HD
ENDBRANCH  24  31
ENDBRANCH  19  21
ENDBRANCH  10  14
ENDBRANCH   4   7
ENDBRANCH   2   3
ENDBRANCH   1   2
BRANCH   1  33
ATOM     33  C   UNL A   1      33.571  29.822  27.216  1.00  0.00     0.118 C 
BRANCH  33  34
ATOM     34  N   UNL A   1      34.047  31.081  27.808  1.00  0.00    -0.352 N 
ATOM     35  C   UNL A   1      35.251  31.328  28.450  1.00  0.00     0.251 C 
ATOM     36  H   UNL A   1      33.431  31.847  27.740  1.00  0.00     0.163 HD
ATOM     37  O   UNL A   1      35.541  32.420  28.890  1.00  0.00    -0.269 OA
BRANCH  35  38
ATOM     38  C   UNL A   1      36.169  30.179  28.547  1.00  0.00     0.039 A 
ATOM     39  C   UNL A   1      36.273  29.527  29.778  1.00  0.00     0.014 A 
ATOM     40  C   UNL A   1      37.158  30.081  27.577  1.00  0.00     0.014 A 
ATOM     41  C   UNL A   1      37.481  28.926  30.124  1.00  0.00     0.010 A 
ATOM     42  C   UNL A   1      38.389  29.609  27.979  1.00  0.00     0.010 A 
ATOM     43  C   UNL A   1      38.568  29.062  29.264  1.00  0.00    -0.014 A 
BRANCH  43  44
ATOM     44  C   UNL A   1      39.948  28.714  29.590  1.00  0.00     0.031 A 
ATOM     45  C   UNL A   1      40.483  27.410  29.118  1.00  0.00     0.074 A 
ATOM     46  C   UNL A   1      40.797  29.595  30.171  1.00  0.00     0.049 A 
ATOM     47  N   UNL A   1      41.611  26.908  29.488  1.00  0.00    -0.248 NA
ATOM     48  C   UNL A   1      39.735  26.517  28.234  1.00  0.00     0.031 C 
ATOM     49  C   UNL A   1      42.258  29.549  30.115  1.00  0.00     0.029 A 
ATOM     50  N   UNL A   1      40.539  30.593  31.112  1.00  0.00    -0.354 N 
ATOM     51  C   UNL A   1      41.877  25.831  28.677  1.00  0.00     0.074 A 
ATOM     52  C   UNL A   1      40.638  25.566  27.992  1.00  0.00     0.031 C 
ATOM     53  C   UNL A   1      42.755  30.222  31.160  1.00  0.00     0.029 A 
ATOM     54  C   UNL A   1      41.634  30.591  32.002  1.00  0.00     0.049 A 
ATOM     55  H   UNL A   1      39.751  31.182  31.149  1.00  0.00     0.167 HD
ATOM     56  C   UNL A   1      43.153  25.361  28.596  1.00  0.00     0.031 A 
ATOM     57  C   UNL A   1      41.550  30.369  33.348  1.00  0.00     0.031 A 
ATOM     58  C   UNL A   1      44.022  25.962  29.609  1.00  0.00     0.049 A 
ATOM     59  C   UNL A   1      42.419  29.227  33.849  1.00  0.00     0.074 A 
ATOM     60  C   UNL A   1      45.079  26.856  29.603  1.00  0.00     0.029 A 
ATOM     61  N   UNL A   1      43.674  25.797  30.938  1.00  0.00    -0.354 N 
ATOM     62  N   UNL A   1      43.205  28.510  33.096  1.00  0.00    -0.248 NA
ATOM     63  C   UNL A   1      42.363  28.720  35.224  1.00  0.00     0.031 C 
ATOM     64  C   UNL A   1      45.382  27.194  30.956  1.00  0.00     0.029 A 
ATOM     65  C   UNL A   1      44.517  26.494  31.776  1.00  0.00     0.049 A 
ATOM     66  H   UNL A   1      42.918  25.248  31.248  1.00  0.00     0.167 HD
ATOM     67  C   UNL A   1      43.632  27.413  33.800  1.00  0.00     0.074 A 
ATOM     68  C   UNL A   1      43.113  27.607  35.140  1.00  0.00     0.031 C 
ATOM     69  C   UNL A   1      44.303  26.382  33.209  1.00  0.00     0.031 A 
BRANCH  56  70
ATOM     70  C   UNL A   1      43.677  24.464  27.495  1.00  0.00    -0.014 A 
ATOM     71  C   UNL A   1      42.892  24.259  26.340  1.00  0.00     0.010 A 
ATOM     72  C   UNL A   1      44.879  23.734  27.553  1.00  0.00     0.010 A 
ATOM     73  C   UNL A   1      43.248  23.331  25.348  1.00  0.00     0.020 A 
ATOM     74  C   UNL A   1      45.251  22.805  26.573  1.00  0.00     0.020 A 
ATOM     75  C   UNL A   1      44.420  22.593  25.483  1.00  0.00     0.054 A 
BRANCH  75  76
ATOM     76  S   UNL A   1      44.838  21.344  24.243  1.00  0.00     0.124 S 
ATOM     77  O   UNL A   1      46.277  21.185  24.434  1.00  0.00    -0.237 OA
ATOM     78  O   UNL A   1      44.015  20.208  24.648  1.00  0.00    -0.237 OA
ATOM     79  O   UNL A   1      44.451  21.969  22.979  1.00  0.00    -0.744 OA
ENDBRANCH  75  76
ENDBRANCH  56  70
BRANCH  57  80
ATOM     80  C   UNL A   1      40.237  30.741  33.936  1.00  0.00    -0.014 A 
ATOM     81  C   UNL A   1      40.061  32.086  34.324  1.00  0.00     0.010 A 
ATOM     82  C   UNL A   1      39.109  29.947  33.664  1.00  0.00     0.010 A 
ATOM     83  C   UNL A   1      38.804  32.681  34.230  1.00  0.00     0.020 A 
ATOM     84  C   UNL A   1      37.845  30.542  33.581  1.00  0.00     0.020 A 
ATOM     85  C   UNL A   1      37.723  31.919  33.783  1.00  0.00     0.054 A 
BRANCH  85  86
ATOM     86  S   UNL A   1      36.245  32.807  33.208  1.00  0.00     0.124 S 
ATOM     87  O   UNL A   1      35.546  33.097  34.455  1.00  0.00    -0.237 OA
ATOM     88  O   UNL A   1      36.841  33.958  32.532  1.00  0.00    -0.237 OA
ATOM     89  O   UNL A   1      35.594  31.842  32.327  1.00  0.00    -0.744 OA
ENDBRANCH  85  86
ENDBRANCH  57  80
BRANCH  69  90
ATOM     90  C   UNL A   1      44.739  25.123  33.914  1.00  0.00    -0.014 A 
ATOM     91  C   UNL A   1      46.084  24.812  34.162  1.00  0.00     0.010 A 
ATOM     92  C   UNL A   1      43.780  24.134  34.241  1.00  0.00     0.010 A 
ATOM     93  C   UNL A   1      46.447  23.591  34.754  1.00  0.00     0.020 A 
ATOM     94  C   UNL A   1      44.131  22.909  34.813  1.00  0.00     0.020 A 
ATOM     95  C   UNL A   1      45.468  22.649  35.079  1.00  0.00     0.054 A 
BRANCH  95  96
ATOM     96  S   UNL A   1      45.961  21.061  35.795  1.00  0.00     0.124 S 
ATOM     97  O   UNL A   1      47.388  21.002  35.486  1.00  0.00    -0.237 OA
ATOM     98  O   UNL A   1      45.632  21.251  37.206  1.00  0.00    -0.237 OA
ATOM     99  O   UNL A   1      45.134  20.085  35.090  1.00  0.00    -0.744 OA
ENDBRANCH  95  96
ENDBRANCH  69  90
ENDBRANCH  43  44
ENDBRANCH  35  38
ENDBRANCH  33  34
ENDBRANCH   1  33
TORSDOF 16
ENDMDL
MODEL 3
REMARK VINA RESULT:     -14.2      3.979     10.923
REMARK SMILES Cc1c(C(=O)NCCCNC(=O)c2ccc(-c3c4nc(c(-c5ccc(S(=O)(=O)[O-])cc5)c5ccc([nH]5)c(-c5ccc(S(=O)(=O)[O-])cc5)c5nc(c(-c6ccc(S(=O)(=O)[O-])cc6)c6ccc3[nH]6)C=C5)C=C4)cc2)cccc1-n1c(C)cc(/C=C2/C(=O)NC(=S)N=C2O)c1C
REMARK SMILES IDX 8 1 7 2 6 3 4 4 5 5 3 7 1 8 2 9 76 10 73 11 75 12 74 13
REMARK SMILES IDX 77 14 78 15 92 16 79 17 80 18 81 19 93 20 82 21 83 22 84 23
REMARK SMILES IDX 90 24 85 25 86 26 89 27 87 28 88 30 91 31 9 33 10 34 11 35
REMARK SMILES IDX 12 37 13 38 14 39 72 40 15 41 71 42 16 43 17 44 18 45 65 46
REMARK SMILES IDX 19 47 70 48 64 49 66 50 20 51 69 52 63 53 62 54 21 56 51 57
REMARK SMILES IDX 32 58 50 59 33 60 36 61 49 62 67 63 34 64 35 65 48 67 68 68
REMARK SMILES IDX 37 69 22 70 23 71 31 72 24 73 30 74 25 75 26 76 27 77 28 78
REMARK SMILES IDX 29 79 52 80 53 81 61 82 54 83 60 84 55 85 56 86 57 87 58 88
REMARK SMILES IDX 59 89 38 90 39 91 47 92 40 93 46 94 41 95 42 96 43 97 44 98
REMARK SMILES IDX 45 99
REMARK H PARENT 6 6 86 29 91 32 10 36 66 55 36 66
REMARK Flexibility Score: inf
ROOT
ATOM      1  C   UNL A   1      37.302  21.930  24.374  1.00  0.00     0.042 C 
ENDROOT
BRANCH   1   2
ATOM      2  C   UNL A   1      35.832  22.113  23.979  1.00  0.00     0.118 C 
BRANCH   2   3
ATOM      3  N   UNL A   1      34.941  21.821  25.096  1.00  0.00    -0.352 N 
ATOM      4  C   UNL A   1      33.709  22.265  25.502  1.00  0.00     0.251 C 
ATOM      5  O   UNL A   1      33.246  21.736  26.517  1.00  0.00    -0.269 OA
ATOM      6  H   UNL A   1      35.316  21.145  25.707  1.00  0.00     0.163 HD
BRANCH   4   7
ATOM      7  C   UNL A   1      32.843  23.278  24.811  1.00  0.00     0.044 A 
ATOM      8  C   UNL A   1      34.053  25.385  25.579  1.00  0.00     0.047 C 
ATOM      9  C   UNL A   1      32.961  24.681  24.848  1.00  0.00    -0.014 A 
ATOM     10  C   UNL A   1      31.970  25.462  24.202  1.00  0.00     0.049 A 
ATOM     11  C   UNL A   1      31.680  22.727  24.222  1.00  0.00     0.014 A 
ATOM     12  C   UNL A   1      30.832  24.902  23.623  1.00  0.00     0.027 A 
ATOM     13  C   UNL A   1      30.682  23.524  23.649  1.00  0.00     0.003 A 
BRANCH  10  14
ATOM     14  N   UNL A   1      32.066  26.876  24.215  1.00  0.00    -0.318 N 
ATOM     15  C   UNL A   1      32.811  27.623  23.320  1.00  0.00     0.020 A 
ATOM     16  C   UNL A   1      31.685  27.688  25.283  1.00  0.00     0.027 A 
ATOM     17  C   UNL A   1      33.595  27.030  22.201  1.00  0.00     0.065 C 
ATOM     18  C   UNL A   1      32.717  28.942  23.711  1.00  0.00     0.031 A 
ATOM     19  C   UNL A   1      32.002  28.994  24.939  1.00  0.00    -0.003 A 
ATOM     20  C   UNL A   1      31.145  27.089  26.544  1.00  0.00     0.065 C 
BRANCH  19  21
ATOM     21  C   UNL A   1      31.885  30.192  25.710  1.00  0.00     0.029 C 
ATOM     22  C   UNL A   1      32.706  30.783  26.596  1.00  0.00     0.102 C 
ATOM     23  C   UNL A   1      32.284  32.124  27.077  1.00  0.00     0.262 C 
ATOM     24  C   UNL A   1      34.006  30.360  27.117  1.00  0.00     0.226 C 
ATOM     25  O   UNL A   1      31.147  32.571  26.984  1.00  0.00    -0.269 OA
ATOM     26  N   UNL A   1      33.300  32.857  27.631  1.00  0.00    -0.297 N 
ATOM     27  N   UNL A   1      34.879  31.100  27.697  1.00  0.00    -0.184 NA
ATOM     28  C   UNL A   1      34.577  32.421  27.886  1.00  0.00     0.203 C 
ATOM     29  H   UNL A   1      33.093  33.788  27.873  1.00  0.00     0.172 HD
ATOM     30  S   UNL A   1      35.671  33.539  28.487  1.00  0.00    -0.038 S 
BRANCH  24  31
ATOM     31  O   UNL A   1      34.281  29.056  27.045  1.00  0.00    -0.493 OA
ATOM     32  H   UNL A   1      35.100  28.731  27.364  1.00  0.00     0.295 HD
ENDBRANCH  24  31
ENDBRANCH  19  21
ENDBRANCH  10  14
ENDBRANCH   4   7
ENDBRANCH   2   3
ENDBRANCH   1   2
BRANCH   1  33
ATOM     33  C   UNL A   1      37.759  22.607  25.649  1.00  0.00     0.118 C 
BRANCH  33  34
ATOM     34  N   UNL A   1      39.103  22.153  26.035  1.00  0.00    -0.352 N 
ATOM     35  C   UNL A   1      40.129  22.891  26.605  1.00  0.00     0.251 C 
ATOM     36  H   UNL A   1      39.300  21.202  25.867  1.00  0.00     0.163 HD
ATOM     37  O   UNL A   1      41.200  22.402  26.894  1.00  0.00    -0.269 OA
BRANCH  35  38
ATOM     38  C   UNL A   1      39.828  24.312  26.857  1.00  0.00     0.039 A 
ATOM     39  C   UNL A   1      40.441  25.266  26.042  1.00  0.00     0.014 A 
ATOM     40  C   UNL A   1      39.314  24.634  28.107  1.00  0.00     0.014 A 
ATOM     41  C   UNL A   1      40.726  26.523  26.570  1.00  0.00     0.010 A 
ATOM     42  C   UNL A   1      39.722  25.826  28.666  1.00  0.00     0.010 A 
ATOM     43  C   UNL A   1      40.459  26.761  27.915  1.00  0.00    -0.014 A 
BRANCH  43  44
ATOM     44  C   UNL A   1      40.921  27.921  28.673  1.00  0.00     0.031 A 
ATOM     45  C   UNL A   1      39.974  29.043  28.904  1.00  0.00     0.074 A 
ATOM     46  C   UNL A   1      42.124  27.944  29.296  1.00  0.00     0.049 A 
ATOM     47  N   UNL A   1      40.306  30.188  29.394  1.00  0.00    -0.248 NA
ATOM     48  C   UNL A   1      38.564  28.984  28.522  1.00  0.00     0.031 C 
ATOM     49  C   UNL A   1      42.492  28.794  30.428  1.00  0.00     0.029 A 
ATOM     50  N   UNL A   1      43.337  27.367  28.915  1.00  0.00    -0.354 N 
ATOM     51  C   UNL A   1      39.150  30.872  29.683  1.00  0.00     0.074 A 
ATOM     52  C   UNL A   1      38.105  30.130  29.026  1.00  0.00     0.031 C 
ATOM     53  C   UNL A   1      43.824  28.928  30.457  1.00  0.00     0.029 A 
ATOM     54  C   UNL A   1      44.342  28.295  29.260  1.00  0.00     0.049 A 
ATOM     55  H   UNL A   1      43.466  26.489  28.490  1.00  0.00     0.167 HD
ATOM     56  C   UNL A   1      39.201  31.926  30.545  1.00  0.00     0.031 A 
ATOM     57  C   UNL A   1      45.216  28.868  28.379  1.00  0.00     0.031 A 
ATOM     58  C   UNL A   1      40.579  32.315  30.851  1.00  0.00     0.049 A 
ATOM     59  C   UNL A   1      45.204  30.387  28.383  1.00  0.00     0.074 A 
ATOM     60  C   UNL A   1      41.403  32.249  31.962  1.00  0.00     0.029 A 
ATOM     61  N   UNL A   1      41.394  32.688  29.798  1.00  0.00    -0.354 N 
ATOM     62  N   UNL A   1      44.454  31.119  29.158  1.00  0.00    -0.248 NA
ATOM     63  C   UNL A   1      45.946  31.197  27.412  1.00  0.00     0.031 C 
ATOM     64  C   UNL A   1      42.719  32.625  31.560  1.00  0.00     0.029 A 
ATOM     65  C   UNL A   1      42.685  32.931  30.212  1.00  0.00     0.049 A 
ATOM     66  H   UNL A   1      41.089  32.770  28.865  1.00  0.00     0.167 HD
ATOM     67  C   UNL A   1      44.491  32.421  28.729  1.00  0.00     0.074 A 
ATOM     68  C   UNL A   1      45.469  32.430  27.659  1.00  0.00     0.031 C 
ATOM     69  C   UNL A   1      43.649  33.376  29.221  1.00  0.00     0.031 A 
BRANCH  56  70
ATOM     70  C   UNL A   1      38.004  32.525  31.252  1.00  0.00    -0.014 A 
ATOM     71  C   UNL A   1      36.911  31.695  31.581  1.00  0.00     0.010 A 
ATOM     72  C   UNL A   1      37.846  33.891  31.552  1.00  0.00     0.010 A 
ATOM     73  C   UNL A   1      35.713  32.208  32.105  1.00  0.00     0.020 A 
ATOM     74  C   UNL A   1      36.658  34.420  32.075  1.00  0.00     0.020 A 
ATOM     75  C   UNL A   1      35.588  33.575  32.329  1.00  0.00     0.054 A 
BRANCH  75  76
ATOM     76  S   UNL A   1      34.018  34.243  32.932  1.00  0.00     0.124 S 
ATOM     77  O   UNL A   1      33.301  33.036  33.333  1.00  0.00    -0.237 OA
ATOM     78  O   UNL A   1      34.444  35.119  34.019  1.00  0.00    -0.237 OA
ATOM     79  O   UNL A   1      33.464  34.929  31.766  1.00  0.00    -0.744 OA
ENDBRANCH  75  76
ENDBRANCH  56  70
BRANCH  57  80
ATOM     80  C   UNL A   1      45.485  28.036  27.176  1.00  0.00    -0.014 A 
ATOM     81  C   UNL A   1      46.432  26.999  27.307  1.00  0.00     0.010 A 
ATOM     82  C   UNL A   1      44.522  27.968  26.154  1.00  0.00     0.010 A 
ATOM     83  C   UNL A   1      46.281  25.820  26.576  1.00  0.00     0.020 A 
ATOM     84  C   UNL A   1      44.378  26.791  25.413  1.00  0.00     0.020 A 
ATOM     85  C   UNL A   1      45.207  25.701  25.693  1.00  0.00     0.054 A 
BRANCH  85  86
ATOM     86  S   UNL A   1      44.754  24.031  25.137  1.00  0.00     0.124 S 
ATOM     87  O   UNL A   1      44.850  23.253  26.366  1.00  0.00    -0.237 OA
ATOM     88  O   UNL A   1      43.401  24.252  24.630  1.00  0.00    -0.237 OA
ATOM     89  O   UNL A   1      45.754  23.733  24.117  1.00  0.00    -0.744 OA
ENDBRANCH  85  86
ENDBRANCH  57  80
BRANCH  69  90
ATOM     90  C   UNL A   1      43.596  34.805  28.743  1.00  0.00    -0.014 A 
ATOM     91  C   UNL A   1      42.945  35.193  27.563  1.00  0.00     0.010 A 
ATOM     92  C   UNL A   1      44.332  35.801  29.429  1.00  0.00     0.010 A 
ATOM     93  C   UNL A   1      42.988  36.524  27.117  1.00  0.00     0.020 A 
ATOM     94  C   UNL A   1      44.397  37.124  28.985  1.00  0.00     0.020 A 
ATOM     95  C   UNL A   1      43.710  37.482  27.834  1.00  0.00     0.054 A 
BRANCH  95  96
ATOM     96  S   UNL A   1      43.795  39.182  27.216  1.00  0.00     0.124 S 
ATOM     97  O   UNL A   1      44.968  39.146  26.346  1.00  0.00    -0.237 OA
ATOM     98  O   UNL A   1      42.511  39.318  26.531  1.00  0.00    -0.237 OA
ATOM     99  O   UNL A   1      43.945  39.989  28.423  1.00  0.00    -0.744 OA
ENDBRANCH  95  96
ENDBRANCH  69  90
ENDBRANCH  43  44
ENDBRANCH  35  38
ENDBRANCH  33  34
ENDBRANCH   1  33
TORSDOF 16
ENDMDL
