MODEL 1
REMARK VINA RESULT:     -10.0      0.000      0.000
REMARK SMILES Cc1cc(CNC(=O)C[C@H](C)CC(=O)NCCCNC(=O)c2ccc(-c3c4nc(c(-c5ccc(S(=O)(=O)[O-])cc5)c5ccc([nH]5)c(-c5ccc(S(=O)(=O)[O-])cc5)c5nc(c(-c6ccc(S(=O)(=O)[O-])cc6)c6ccc3[nH]6)C=C5)C=C4)cc2)cc(C)c1F
REMARK SMILES IDX 16 1 15 2 13 3 14 4 12 6 10 7 11 8 9 9 7 10 6 11 8 13 5 14
REMARK SMILES IDX 4 15 1 16 2 17 3 18 85 19 83 20 86 21 82 22 84 23 17 24
REMARK SMILES IDX 18 25 19 26 20 27 21 29 22 30 23 31 81 32 24 33 80 34 25 35
REMARK SMILES IDX 26 36 27 37 74 38 28 39 79 40 73 41 75 42 29 43 78 44 72 45
REMARK SMILES IDX 71 46 30 48 60 49 41 50 59 51 42 52 45 53 58 54 76 55 43 56
REMARK SMILES IDX 44 57 57 59 77 60 46 61 31 62 32 63 40 64 33 65 39 66 34 67
REMARK SMILES IDX 35 68 36 69 37 70 38 71 61 72 62 73 70 74 63 75 69 76 64 77
REMARK SMILES IDX 65 78 66 79 67 80 68 81 47 82 48 83 56 84 49 85 55 86 50 87
REMARK SMILES IDX 51 88 52 89 53 90 54 91
REMARK H PARENT 15 5 6 12 19 28 75 47 45 58
REMARK Flexibility Score: inf
ROOT
ATOM      1  C   UNL A   1      42.364  21.253  26.967  1.00  0.00     0.117 C 
ENDROOT
BRANCH   1   2
ATOM      2  N   UNL A   1      42.423  19.806  26.826  1.00  0.00    -0.356 N 
ATOM      3  C   UNL A   1      42.987  19.029  25.861  1.00  0.00     0.220 C 
ATOM      4  O   UNL A   1      42.835  17.808  25.940  1.00  0.00    -0.275 OA
ATOM      5  H   UNL A   1      41.980  19.305  27.549  1.00  0.00     0.163 HD
BRANCH   3   6
ATOM      6  C   UNL A   1      43.787  19.634  24.718  1.00  0.00     0.103 C 
BRANCH   6   7
ATOM      7  C   UNL A   1      45.119  20.259  25.178  1.00  0.00     0.004 C 
ATOM      8  C   UNL A   1      46.201  19.188  25.354  1.00  0.00     0.009 C 
BRANCH   7   9
ATOM      9  C   UNL A   1      45.611  21.346  24.201  1.00  0.00     0.103 C 
BRANCH   9  10
ATOM     10  C   UNL A   1      44.765  22.612  24.265  1.00  0.00     0.220 C 
ATOM     11  N   UNL A   1      45.255  23.732  24.867  1.00  0.00    -0.352 N 
ATOM     12  H   UNL A   1      44.839  24.582  24.598  1.00  0.00     0.163 HD
ATOM     13  O   UNL A   1      43.665  22.656  23.715  1.00  0.00    -0.275 OA
BRANCH  11  14
ATOM     14  C   UNL A   1      46.311  23.830  25.850  1.00  0.00     0.151 C 
BRANCH  14  15
ATOM     15  C   UNL A   1      45.850  24.281  27.217  1.00  0.00    -0.028 A 
ATOM     16  C   UNL A   1      46.876  26.734  29.956  1.00  0.00     0.047 C 
ATOM     17  C   UNL A   1      46.140  25.654  29.222  1.00  0.00    -0.015 A 
ATOM     18  C   UNL A   1      46.455  25.355  27.888  1.00  0.00     0.012 A 
ATOM     19  C   UNL A   1      45.188  24.874  29.878  1.00  0.00     0.129 A 
ATOM     20  C   UNL A   1      44.530  23.829  29.226  1.00  0.00    -0.015 A 
ATOM     21  F   UNL A   1      44.913  25.123  31.167  1.00  0.00    -0.206 F 
ATOM     22  C   UNL A   1      44.874  23.536  27.897  1.00  0.00     0.012 A 
ATOM     23  C   UNL A   1      43.483  23.019  29.927  1.00  0.00     0.047 C 
ENDBRANCH  14  15
ENDBRANCH  11  14
ENDBRANCH   9  10
ENDBRANCH   7   9
ENDBRANCH   6   7
ENDBRANCH   3   6
ENDBRANCH   1   2
BRANCH   1  24
ATOM     24  C   UNL A   1      40.952  21.776  26.702  1.00  0.00     0.042 C 
BRANCH  24  25
ATOM     25  C   UNL A   1      40.829  23.291  26.795  1.00  0.00     0.118 C 
BRANCH  25  26
ATOM     26  N   UNL A   1      41.789  23.967  25.943  1.00  0.00    -0.352 N 
ATOM     27  C   UNL A   1      42.331  25.226  26.053  1.00  0.00     0.251 C 
ATOM     28  H   UNL A   1      42.098  23.445  25.168  1.00  0.00     0.163 HD
ATOM     29  O   UNL A   1      42.940  25.698  25.090  1.00  0.00    -0.269 OA
BRANCH  27  30
ATOM     30  C   UNL A   1      42.191  26.026  27.294  1.00  0.00     0.039 A 
ATOM     31  C   UNL A   1      41.130  25.744  28.161  1.00  0.00     0.014 A 
ATOM     32  C   UNL A   1      43.036  27.105  27.569  1.00  0.00     0.014 A 
ATOM     33  C   UNL A   1      40.934  26.518  29.310  1.00  0.00     0.010 A 
ATOM     34  C   UNL A   1      42.881  27.837  28.748  1.00  0.00     0.010 A 
ATOM     35  C   UNL A   1      41.814  27.568  29.616  1.00  0.00    -0.014 A 
BRANCH  35  36
ATOM     36  C   UNL A   1      41.578  28.446  30.791  1.00  0.00     0.031 A 
ATOM     37  C   UNL A   1      40.451  29.446  30.759  1.00  0.00     0.074 A 
ATOM     38  C   UNL A   1      42.372  28.364  31.876  1.00  0.00     0.049 A 
ATOM     39  N   UNL A   1      40.100  30.320  31.668  1.00  0.00    -0.248 NA
ATOM     40  C   UNL A   1      39.617  29.475  29.545  1.00  0.00     0.031 C 
ATOM     41  C   UNL A   1      43.499  27.443  32.033  1.00  0.00     0.029 A 
ATOM     42  N   UNL A   1      42.348  29.067  33.055  1.00  0.00    -0.354 N 
ATOM     43  C   UNL A   1      39.014  31.005  31.135  1.00  0.00     0.074 A 
ATOM     44  C   UNL A   1      38.788  30.476  29.808  1.00  0.00     0.031 C 
ATOM     45  C   UNL A   1      44.043  27.621  33.248  1.00  0.00     0.029 A 
ATOM     46  C   UNL A   1      43.328  28.688  33.943  1.00  0.00     0.049 A 
ATOM     47  H   UNL A   1      41.692  29.775  33.247  1.00  0.00     0.167 HD
ATOM     48  C   UNL A   1      38.258  31.971  31.704  1.00  0.00     0.031 A 
ATOM     49  C   UNL A   1      43.619  29.147  35.178  1.00  0.00     0.031 A 
ATOM     50  C   UNL A   1      38.466  32.488  33.028  1.00  0.00     0.049 A 
ATOM     51  C   UNL A   1      42.786  30.246  35.778  1.00  0.00     0.074 A 
ATOM     52  C   UNL A   1      37.724  33.442  33.702  1.00  0.00     0.029 A 
ATOM     53  N   UNL A   1      39.485  32.094  33.881  1.00  0.00    -0.354 N 
ATOM     54  N   UNL A   1      41.748  30.862  35.265  1.00  0.00    -0.248 NA
ATOM     55  C   UNL A   1      43.159  30.708  37.123  1.00  0.00     0.031 C 
ATOM     56  C   UNL A   1      38.319  33.657  34.948  1.00  0.00     0.029 A 
ATOM     57  C   UNL A   1      39.403  32.801  35.067  1.00  0.00     0.049 A 
ATOM     58  H   UNL A   1      40.166  31.414  33.674  1.00  0.00     0.167 HD
ATOM     59  C   UNL A   1      41.332  31.772  36.232  1.00  0.00     0.074 A 
ATOM     60  C   UNL A   1      42.226  31.623  37.362  1.00  0.00     0.031 C 
ATOM     61  C   UNL A   1      40.299  32.647  36.185  1.00  0.00     0.031 A 
BRANCH  48  62
ATOM     62  C   UNL A   1      37.118  32.535  30.900  1.00  0.00    -0.014 A 
ATOM     63  C   UNL A   1      35.799  32.105  31.126  1.00  0.00     0.010 A 
ATOM     64  C   UNL A   1      37.359  33.559  29.968  1.00  0.00     0.010 A 
ATOM     65  C   UNL A   1      34.739  32.679  30.420  1.00  0.00     0.020 A 
ATOM     66  C   UNL A   1      36.299  34.152  29.276  1.00  0.00     0.020 A 
ATOM     67  C   UNL A   1      34.996  33.705  29.505  1.00  0.00     0.054 A 
BRANCH  67  68
ATOM     68  S   UNL A   1      33.593  34.454  28.634  1.00  0.00     0.124 S 
ATOM     69  O   UNL A   1      34.217  35.600  27.977  1.00  0.00    -0.237 OA
ATOM     70  O   UNL A   1      33.165  33.377  27.746  1.00  0.00    -0.237 OA
ATOM     71  O   UNL A   1      32.657  34.791  29.705  1.00  0.00    -0.744 OA
ENDBRANCH  67  68
ENDBRANCH  48  62
BRANCH  49  72
ATOM     72  C   UNL A   1      44.749  28.543  35.934  1.00  0.00    -0.014 A 
ATOM     73  C   UNL A   1      46.033  29.108  35.862  1.00  0.00     0.010 A 
ATOM     74  C   UNL A   1      44.533  27.430  36.766  1.00  0.00     0.010 A 
ATOM     75  C   UNL A   1      47.082  28.576  36.618  1.00  0.00     0.020 A 
ATOM     76  C   UNL A   1      45.575  26.906  37.537  1.00  0.00     0.020 A 
ATOM     77  C   UNL A   1      46.843  27.486  37.461  1.00  0.00     0.054 A 
BRANCH  77  78
ATOM     78  S   UNL A   1      48.208  26.860  38.480  1.00  0.00     0.124 S 
ATOM     79  O   UNL A   1      47.513  26.001  39.434  1.00  0.00    -0.237 OA
ATOM     80  O   UNL A   1      49.034  26.170  37.492  1.00  0.00    -0.237 OA
ATOM     81  O   UNL A   1      48.800  28.070  39.045  1.00  0.00    -0.744 OA
ENDBRANCH  77  78
ENDBRANCH  49  72
BRANCH  61  82
ATOM     82  C   UNL A   1      40.049  33.513  37.388  1.00  0.00    -0.014 A 
ATOM     83  C   UNL A   1      40.589  34.807  37.469  1.00  0.00     0.010 A 
ATOM     84  C   UNL A   1      39.166  33.069  38.390  1.00  0.00     0.010 A 
ATOM     85  C   UNL A   1      40.251  35.645  38.536  1.00  0.00     0.020 A 
ATOM     86  C   UNL A   1      38.810  33.911  39.446  1.00  0.00     0.020 A 
ATOM     87  C   UNL A   1      39.355  35.195  39.512  1.00  0.00     0.054 A 
BRANCH  87  88
ATOM     88  S   UNL A   1      38.887  36.329  40.848  1.00  0.00     0.124 S 
ATOM     89  O   UNL A   1      37.795  35.608  41.496  1.00  0.00    -0.237 OA
ATOM     90  O   UNL A   1      40.121  36.427  41.622  1.00  0.00    -0.237 OA
ATOM     91  O   UNL A   1      38.494  37.550  40.149  1.00  0.00    -0.744 OA
ENDBRANCH  87  88
ENDBRANCH  61  82
ENDBRANCH  35  36
ENDBRANCH  27  30
ENDBRANCH  25  26
ENDBRANCH  24  25
ENDBRANCH   1  24
TORSDOF 18
ENDMDL
MODEL 2
REMARK VINA RESULT:      -9.5      3.933     12.232
REMARK SMILES Cc1cc(CNC(=O)C[C@H](C)CC(=O)NCCCNC(=O)c2ccc(-c3c4nc(c(-c5ccc(S(=O)(=O)[O-])cc5)c5ccc([nH]5)c(-c5ccc(S(=O)(=O)[O-])cc5)c5nc(c(-c6ccc(S(=O)(=O)[O-])cc6)c6ccc3[nH]6)C=C5)C=C4)cc2)cc(C)c1F
REMARK SMILES IDX 16 1 15 2 13 3 14 4 12 6 10 7 11 8 9 9 7 10 6 11 8 13 5 14
REMARK SMILES IDX 4 15 1 16 2 17 3 18 85 19 83 20 86 21 82 22 84 23 17 24
REMARK SMILES IDX 18 25 19 26 20 27 21 29 22 30 23 31 81 32 24 33 80 34 25 35
REMARK SMILES IDX 26 36 27 37 74 38 28 39 79 40 73 41 75 42 29 43 78 44 72 45
REMARK SMILES IDX 71 46 30 48 60 49 41 50 59 51 42 52 45 53 58 54 76 55 43 56
REMARK SMILES IDX 44 57 57 59 77 60 46 61 31 62 32 63 40 64 33 65 39 66 34 67
REMARK SMILES IDX 35 68 36 69 37 70 38 71 61 72 62 73 70 74 63 75 69 76 64 77
REMARK SMILES IDX 65 78 66 79 67 80 68 81 47 82 48 83 56 84 49 85 55 86 50 87
REMARK SMILES IDX 51 88 52 89 53 90 54 91
REMARK H PARENT 15 5 6 12 19 28 75 47 45 58
REMARK Flexibility Score: inf
ROOT
ATOM      1  C   UNL A   1      35.731  34.401  28.912  1.00  0.00     0.117 C 
ENDROOT
BRANCH   1   2
ATOM      2  N   UNL A   1      34.744  35.423  28.596  1.00  0.00    -0.356 N 
ATOM      3  C   UNL A   1      33.688  35.891  29.316  1.00  0.00     0.220 C 
ATOM      4  O   UNL A   1      32.951  36.725  28.785  1.00  0.00    -0.275 OA
ATOM      5  H   UNL A   1      34.858  35.844  27.714  1.00  0.00     0.163 HD
BRANCH   3   6
ATOM      6  C   UNL A   1      33.416  35.414  30.734  1.00  0.00     0.103 C 
BRANCH   6   7
ATOM      7  C   UNL A   1      34.271  36.143  31.791  1.00  0.00     0.004 C 
ATOM      8  C   UNL A   1      33.450  37.208  32.526  1.00  0.00     0.009 C 
BRANCH   7   9
ATOM      9  C   UNL A   1      34.888  35.161  32.807  1.00  0.00     0.103 C 
BRANCH   9  10
ATOM     10  C   UNL A   1      34.077  33.878  32.944  1.00  0.00     0.220 C 
ATOM     11  N   UNL A   1      34.709  32.672  32.986  1.00  0.00    -0.352 N 
ATOM     12  H   UNL A   1      34.203  31.935  33.400  1.00  0.00     0.163 HD
ATOM     13  O   UNL A   1      32.855  33.924  33.087  1.00  0.00    -0.275 OA
BRANCH  11  14
ATOM     14  C   UNL A   1      36.029  32.335  32.503  1.00  0.00     0.151 C 
BRANCH  14  15
ATOM     15  C   UNL A   1      37.046  32.079  33.591  1.00  0.00    -0.028 A 
ATOM     16  C   UNL A   1      38.437  33.780  36.713  1.00  0.00     0.047 C 
ATOM     17  C   UNL A   1      38.242  32.790  35.605  1.00  0.00    -0.015 A 
ATOM     18  C   UNL A   1      37.185  32.936  34.695  1.00  0.00     0.012 A 
ATOM     19  C   UNL A   1      39.155  31.754  35.412  1.00  0.00     0.129 A 
ATOM     20  C   UNL A   1      39.019  30.853  34.354  1.00  0.00    -0.015 A 
ATOM     21  F   UNL A   1      40.195  31.633  36.251  1.00  0.00    -0.206 F 
ATOM     22  C   UNL A   1      37.965  31.028  33.445  1.00  0.00     0.012 A 
ATOM     23  C   UNL A   1      39.985  29.721  34.175  1.00  0.00     0.047 C 
ENDBRANCH  14  15
ENDBRANCH  11  14
ENDBRANCH   9  10
ENDBRANCH   7   9
ENDBRANCH   6   7
ENDBRANCH   3   6
ENDBRANCH   1   2
BRANCH   1  24
ATOM     24  C   UNL A   1      35.392  33.076  28.227  1.00  0.00     0.042 C 
BRANCH  24  25
ATOM     25  C   UNL A   1      34.131  32.411  28.764  1.00  0.00     0.118 C 
BRANCH  25  26
ATOM     26  N   UNL A   1      33.697  31.311  27.924  1.00  0.00    -0.352 N 
ATOM     27  C   UNL A   1      34.412  30.245  27.429  1.00  0.00     0.251 C 
ATOM     28  H   UNL A   1      32.747  31.331  27.669  1.00  0.00     0.163 HD
ATOM     29  O   UNL A   1      33.913  29.558  26.535  1.00  0.00    -0.269 OA
BRANCH  27  30
ATOM     30  C   UNL A   1      35.765  29.915  27.938  1.00  0.00     0.039 A 
ATOM     31  C   UNL A   1      36.855  30.016  27.066  1.00  0.00     0.014 A 
ATOM     32  C   UNL A   1      35.962  29.423  29.231  1.00  0.00     0.014 A 
ATOM     33  C   UNL A   1      38.137  29.656  27.496  1.00  0.00     0.010 A 
ATOM     34  C   UNL A   1      37.250  29.125  29.682  1.00  0.00     0.010 A 
ATOM     35  C   UNL A   1      38.345  29.213  28.812  1.00  0.00    -0.014 A 
BRANCH  35  36
ATOM     36  C   UNL A   1      39.685  28.756  29.262  1.00  0.00     0.031 A 
ATOM     37  C   UNL A   1      40.529  29.658  30.125  1.00  0.00     0.074 A 
ATOM     38  C   UNL A   1      40.154  27.549  28.893  1.00  0.00     0.049 A 
ATOM     39  N   UNL A   1      41.733  29.456  30.597  1.00  0.00    -0.248 NA
ATOM     40  C   UNL A   1      39.949  30.960  30.498  1.00  0.00     0.031 C 
ATOM     41  C   UNL A   1      39.441  26.582  28.057  1.00  0.00     0.029 A 
ATOM     42  N   UNL A   1      41.346  26.928  29.178  1.00  0.00    -0.354 N 
ATOM     43  C   UNL A   1      42.056  30.603  31.312  1.00  0.00     0.074 A 
ATOM     44  C   UNL A   1      40.941  31.515  31.181  1.00  0.00     0.031 C 
ATOM     45  C   UNL A   1      40.200  25.481  27.917  1.00  0.00     0.029 A 
ATOM     46  C   UNL A   1      41.463  25.675  28.624  1.00  0.00     0.049 A 
ATOM     47  H   UNL A   1      42.050  27.341  29.728  1.00  0.00     0.167 HD
ATOM     48  C   UNL A   1      43.169  30.867  32.033  1.00  0.00     0.031 A 
ATOM     49  C   UNL A   1      42.472  24.782  28.677  1.00  0.00     0.031 A 
ATOM     50  C   UNL A   1      44.272  29.959  32.184  1.00  0.00     0.049 A 
ATOM     51  C   UNL A   1      43.716  25.111  29.456  1.00  0.00     0.074 A 
ATOM     52  C   UNL A   1      45.427  30.128  32.927  1.00  0.00     0.029 A 
ATOM     53  N   UNL A   1      44.359  28.713  31.583  1.00  0.00    -0.354 N 
ATOM     54  N   UNL A   1      43.990  26.192  30.146  1.00  0.00    -0.248 NA
ATOM     55  C   UNL A   1      44.783  24.100  29.469  1.00  0.00     0.031 C 
ATOM     56  C   UNL A   1      46.233  29.001  32.744  1.00  0.00     0.029 A 
ATOM     57  C   UNL A   1      45.557  28.110  31.924  1.00  0.00     0.049 A 
ATOM     58  H   UNL A   1      43.671  28.316  31.001  1.00  0.00     0.167 HD
ATOM     59  C   UNL A   1      45.253  25.984  30.691  1.00  0.00     0.074 A 
ATOM     60  C   UNL A   1      45.688  24.673  30.256  1.00  0.00     0.031 C 
ATOM     61  C   UNL A   1      45.981  26.807  31.484  1.00  0.00     0.031 A 
BRANCH  48  62
ATOM     62  C   UNL A   1      43.253  32.197  32.732  1.00  0.00    -0.014 A 
ATOM     63  C   UNL A   1      43.882  33.293  32.116  1.00  0.00     0.010 A 
ATOM     64  C   UNL A   1      42.629  32.373  33.980  1.00  0.00     0.010 A 
ATOM     65  C   UNL A   1      43.900  34.540  32.744  1.00  0.00     0.020 A 
ATOM     66  C   UNL A   1      42.625  33.625  34.601  1.00  0.00     0.020 A 
ATOM     67  C   UNL A   1      43.264  34.700  33.979  1.00  0.00     0.054 A 
BRANCH  67  68
ATOM     68  S   UNL A   1      43.274  36.342  34.748  1.00  0.00     0.124 S 
ATOM     69  O   UNL A   1      44.671  36.481  35.154  1.00  0.00    -0.237 OA
ATOM     70  O   UNL A   1      42.851  37.204  33.649  1.00  0.00    -0.237 OA
ATOM     71  O   UNL A   1      42.320  36.219  35.849  1.00  0.00    -0.744 OA
ENDBRANCH  67  68
ENDBRANCH  48  62
BRANCH  49  72
ATOM     72  C   UNL A   1      42.329  23.476  27.979  1.00  0.00    -0.014 A 
ATOM     73  C   UNL A   1      43.101  23.192  26.840  1.00  0.00     0.010 A 
ATOM     74  C   UNL A   1      41.456  22.494  28.480  1.00  0.00     0.010 A 
ATOM     75  C   UNL A   1      43.010  21.944  26.218  1.00  0.00     0.020 A 
ATOM     76  C   UNL A   1      41.375  21.238  27.871  1.00  0.00     0.020 A 
ATOM     77  C   UNL A   1      42.157  20.969  26.746  1.00  0.00     0.054 A 
BRANCH  77  78
ATOM     78  S   UNL A   1      42.110  19.336  25.957  1.00  0.00     0.124 S 
ATOM     79  O   UNL A   1      40.683  19.152  25.711  1.00  0.00    -0.237 OA
ATOM     80  O   UNL A   1      42.935  19.547  24.770  1.00  0.00    -0.237 OA
ATOM     81  O   UNL A   1      42.690  18.450  26.963  1.00  0.00    -0.744 OA
ENDBRANCH  77  78
ENDBRANCH  49  72
BRANCH  61  82
ATOM     82  C   UNL A   1      47.324  26.325  31.959  1.00  0.00    -0.014 A 
ATOM     83  C   UNL A   1      47.453  25.639  33.178  1.00  0.00     0.010 A 
ATOM     84  C   UNL A   1      48.444  26.456  31.118  1.00  0.00     0.010 A 
ATOM     85  C   UNL A   1      48.685  25.093  33.551  1.00  0.00     0.020 A 
ATOM     86  C   UNL A   1      49.671  25.893  31.478  1.00  0.00     0.020 A 
ATOM     87  C   UNL A   1      49.783  25.214  32.692  1.00  0.00     0.054 A 
BRANCH  87  88
ATOM     88  S   UNL A   1      51.350  24.438  33.176  1.00  0.00     0.124 S 
ATOM     89  O   UNL A   1      52.250  25.585  33.253  1.00  0.00    -0.237 OA
ATOM     90  O   UNL A   1      51.012  23.818  34.454  1.00  0.00    -0.237 OA
ATOM     91  O   UNL A   1      51.629  23.504  32.087  1.00  0.00    -0.744 OA
ENDBRANCH  87  88
ENDBRANCH  61  82
ENDBRANCH  35  36
ENDBRANCH  27  30
ENDBRANCH  25  26
ENDBRANCH  24  25
ENDBRANCH   1  24
TORSDOF 18
ENDMDL
MODEL 3
REMARK VINA RESULT:      -9.3      1.341      8.310
REMARK SMILES Cc1cc(CNC(=O)C[C@H](C)CC(=O)NCCCNC(=O)c2ccc(-c3c4nc(c(-c5ccc(S(=O)(=O)[O-])cc5)c5ccc([nH]5)c(-c5ccc(S(=O)(=O)[O-])cc5)c5nc(c(-c6ccc(S(=O)(=O)[O-])cc6)c6ccc3[nH]6)C=C5)C=C4)cc2)cc(C)c1F
REMARK SMILES IDX 16 1 15 2 13 3 14 4 12 6 10 7 11 8 9 9 7 10 6 11 8 13 5 14
REMARK SMILES IDX 4 15 1 16 2 17 3 18 85 19 83 20 86 21 82 22 84 23 17 24
REMARK SMILES IDX 18 25 19 26 20 27 21 29 22 30 23 31 81 32 24 33 80 34 25 35
REMARK SMILES IDX 26 36 27 37 74 38 28 39 79 40 73 41 75 42 29 43 78 44 72 45
REMARK SMILES IDX 71 46 30 48 60 49 41 50 59 51 42 52 45 53 58 54 76 55 43 56
REMARK SMILES IDX 44 57 57 59 77 60 46 61 31 62 32 63 40 64 33 65 39 66 34 67
REMARK SMILES IDX 35 68 36 69 37 70 38 71 61 72 62 73 70 74 63 75 69 76 64 77
REMARK SMILES IDX 65 78 66 79 67 80 68 81 47 82 48 83 56 84 49 85 55 86 50 87
REMARK SMILES IDX 51 88 52 89 53 90 54 91
REMARK H PARENT 15 5 6 12 19 28 75 47 45 58
REMARK Flexibility Score: inf
ROOT
ATOM      1  C   UNL A   1      42.135  21.841  27.678  1.00  0.00     0.117 C 
ENDROOT
BRANCH   1   2
ATOM      2  N   UNL A   1      42.841  20.966  26.753  1.00  0.00    -0.356 N 
ATOM      3  C   UNL A   1      43.413  21.226  25.546  1.00  0.00     0.220 C 
ATOM      4  O   UNL A   1      43.897  20.280  24.920  1.00  0.00    -0.275 OA
ATOM      5  H   UNL A   1      42.916  20.031  27.050  1.00  0.00     0.163 HD
BRANCH   3   6
ATOM      6  C   UNL A   1      43.467  22.636  24.977  1.00  0.00     0.103 C 
BRANCH   6   7
ATOM      7  C   UNL A   1      44.413  23.568  25.760  1.00  0.00     0.004 C 
ATOM      8  C   UNL A   1      45.812  22.954  25.888  1.00  0.00     0.009 C 
BRANCH   7   9
ATOM      9  C   UNL A   1      44.510  24.964  25.112  1.00  0.00     0.103 C 
BRANCH   9  10
ATOM     10  C   UNL A   1      45.845  25.643  25.389  1.00  0.00     0.220 C 
ATOM     11  N   UNL A   1      46.025  26.353  26.539  1.00  0.00    -0.352 N 
ATOM     12  H   UNL A   1      46.958  26.479  26.826  1.00  0.00     0.163 HD
ATOM     13  O   UNL A   1      46.792  25.500  24.616  1.00  0.00    -0.275 OA
BRANCH  11  14
ATOM     14  C   UNL A   1      45.018  26.944  27.393  1.00  0.00     0.151 C 
BRANCH  14  15
ATOM     15  C   UNL A   1      44.994  26.395  28.800  1.00  0.00    -0.028 A 
ATOM     16  C   UNL A   1      46.679  26.995  32.173  1.00  0.00     0.047 C 
ATOM     17  C   UNL A   1      45.821  26.389  31.104  1.00  0.00    -0.015 A 
ATOM     18  C   UNL A   1      45.708  27.000  29.847  1.00  0.00     0.012 A 
ATOM     19  C   UNL A   1      45.187  25.165  31.314  1.00  0.00     0.129 A 
ATOM     20  C   UNL A   1      44.427  24.559  30.312  1.00  0.00    -0.015 A 
ATOM     21  F   UNL A   1      45.326  24.550  32.499  1.00  0.00    -0.206 F 
ATOM     22  C   UNL A   1      44.342  25.178  29.056  1.00  0.00     0.012 A 
ATOM     23  C   UNL A   1      43.719  23.261  30.559  1.00  0.00     0.047 C 
ENDBRANCH  14  15
ENDBRANCH  11  14
ENDBRANCH   9  10
ENDBRANCH   7   9
ENDBRANCH   6   7
ENDBRANCH   3   6
ENDBRANCH   1   2
BRANCH   1  24
ATOM     24  C   UNL A   1      40.637  21.869  27.374  1.00  0.00     0.042 C 
BRANCH  24  25
ATOM     25  C   UNL A   1      40.047  23.273  27.318  1.00  0.00     0.118 C 
BRANCH  25  26
ATOM     26  N   UNL A   1      40.616  24.058  26.239  1.00  0.00    -0.352 N 
ATOM     27  C   UNL A   1      40.864  25.409  26.168  1.00  0.00     0.251 C 
ATOM     28  H   UNL A   1      40.860  23.545  25.435  1.00  0.00     0.163 HD
ATOM     29  O   UNL A   1      41.123  25.909  25.070  1.00  0.00    -0.269 OA
BRANCH  27  30
ATOM     30  C   UNL A   1      40.818  26.271  27.373  1.00  0.00     0.039 A 
ATOM     31  C   UNL A   1      39.795  26.070  28.306  1.00  0.00     0.014 A 
ATOM     32  C   UNL A   1      41.713  27.329  27.551  1.00  0.00     0.014 A 
ATOM     33  C   UNL A   1      39.687  26.904  29.424  1.00  0.00     0.010 A 
ATOM     34  C   UNL A   1      41.647  28.121  28.700  1.00  0.00     0.010 A 
ATOM     35  C   UNL A   1      40.618  27.934  29.633  1.00  0.00    -0.014 A 
BRANCH  35  36
ATOM     36  C   UNL A   1      40.475  28.874  30.774  1.00  0.00     0.031 A 
ATOM     37  C   UNL A   1      41.368  28.726  31.978  1.00  0.00     0.074 A 
ATOM     38  C   UNL A   1      39.545  29.848  30.744  1.00  0.00     0.049 A 
ATOM     39  N   UNL A   1      41.382  29.425  33.085  1.00  0.00    -0.248 NA
ATOM     40  C   UNL A   1      42.369  27.646  31.939  1.00  0.00     0.031 C 
ATOM     41  C   UNL A   1      38.615  30.098  29.642  1.00  0.00     0.029 A 
ATOM     42  N   UNL A   1      39.231  30.813  31.670  1.00  0.00    -0.354 N 
ATOM     43  C   UNL A   1      42.381  28.867  33.873  1.00  0.00     0.074 A 
ATOM     44  C   UNL A   1      42.926  27.746  33.139  1.00  0.00     0.031 C 
ATOM     45  C   UNL A   1      37.852  31.161  29.945  1.00  0.00     0.029 A 
ATOM     46  C   UNL A   1      38.214  31.649  31.273  1.00  0.00     0.049 A 
ATOM     47  H   UNL A   1      39.691  30.898  32.536  1.00  0.00     0.167 HD
ATOM     48  C   UNL A   1      42.824  29.263  35.088  1.00  0.00     0.031 A 
ATOM     49  C   UNL A   1      37.636  32.690  31.906  1.00  0.00     0.031 A 
ATOM     50  C   UNL A   1      42.300  30.386  35.814  1.00  0.00     0.049 A 
ATOM     51  C   UNL A   1      38.121  33.092  33.272  1.00  0.00     0.074 A 
ATOM     52  C   UNL A   1      42.714  30.884  37.038  1.00  0.00     0.029 A 
ATOM     53  N   UNL A   1      41.253  31.187  35.387  1.00  0.00    -0.354 N 
ATOM     54  N   UNL A   1      39.085  32.565  33.989  1.00  0.00    -0.248 NA
ATOM     55  C   UNL A   1      37.445  34.230  33.913  1.00  0.00     0.031 C 
ATOM     56  C   UNL A   1      41.889  31.962  37.371  1.00  0.00     0.029 A 
ATOM     57  C   UNL A   1      40.994  32.164  36.332  1.00  0.00     0.049 A 
ATOM     58  H   UNL A   1      40.767  31.078  34.538  1.00  0.00     0.167 HD
ATOM     59  C   UNL A   1      39.144  33.319  35.156  1.00  0.00     0.074 A 
ATOM     60  C   UNL A   1      38.124  34.341  35.050  1.00  0.00     0.031 C 
ATOM     61  C   UNL A   1      39.975  33.175  36.217  1.00  0.00     0.031 A 
BRANCH  48  62
ATOM     62  C   UNL A   1      43.945  28.481  35.715  1.00  0.00    -0.014 A 
ATOM     63  C   UNL A   1      43.677  27.339  36.490  1.00  0.00     0.010 A 
ATOM     64  C   UNL A   1      45.280  28.844  35.462  1.00  0.00     0.010 A 
ATOM     65  C   UNL A   1      44.726  26.581  37.017  1.00  0.00     0.020 A 
ATOM     66  C   UNL A   1      46.332  28.076  35.968  1.00  0.00     0.020 A 
ATOM     67  C   UNL A   1      46.048  26.951  36.745  1.00  0.00     0.054 A 
BRANCH  67  68
ATOM     68  S   UNL A   1      47.385  25.923  37.412  1.00  0.00     0.124 S 
ATOM     69  O   UNL A   1      46.658  24.747  37.886  1.00  0.00    -0.237 OA
ATOM     70  O   UNL A   1      48.230  25.711  36.242  1.00  0.00    -0.237 OA
ATOM     71  O   UNL A   1      47.970  26.752  38.464  1.00  0.00    -0.744 OA
ENDBRANCH  67  68
ENDBRANCH  48  62
BRANCH  49  72
ATOM     72  C   UNL A   1      36.541  33.438  31.232  1.00  0.00    -0.014 A 
ATOM     73  C   UNL A   1      36.765  34.063  29.994  1.00  0.00     0.010 A 
ATOM     74  C   UNL A   1      35.257  33.486  31.804  1.00  0.00     0.010 A 
ATOM     75  C   UNL A   1      35.721  34.716  29.333  1.00  0.00     0.020 A 
ATOM     76  C   UNL A   1      34.205  34.123  31.137  1.00  0.00     0.020 A 
ATOM     77  C   UNL A   1      34.444  34.730  29.903  1.00  0.00     0.054 A 
BRANCH  77  78
ATOM     78  S   UNL A   1      33.094  35.528  28.989  1.00  0.00     0.124 S 
ATOM     79  O   UNL A   1      32.528  34.412  28.236  1.00  0.00    -0.237 OA
ATOM     80  O   UNL A   1      32.261  36.049  30.070  1.00  0.00    -0.237 OA
ATOM     81  O   UNL A   1      33.773  36.542  28.187  1.00  0.00    -0.744 OA
ENDBRANCH  77  78
ENDBRANCH  49  72
BRANCH  61  82
ATOM     82  C   UNL A   1      39.843  34.148  37.355  1.00  0.00    -0.014 A 
ATOM     83  C   UNL A   1      38.996  33.876  38.442  1.00  0.00     0.010 A 
ATOM     84  C   UNL A   1      40.668  35.288  37.392  1.00  0.00     0.010 A 
ATOM     85  C   UNL A   1      38.974  34.730  39.549  1.00  0.00     0.020 A 
ATOM     86  C   UNL A   1      40.664  36.132  38.505  1.00  0.00     0.020 A 
ATOM     87  C   UNL A   1      39.817  35.846  39.577  1.00  0.00     0.054 A 
BRANCH  87  88
ATOM     88  S   UNL A   1      39.811  36.899  41.055  1.00  0.00     0.124 S 
ATOM     89  O   UNL A   1      41.196  37.357  41.112  1.00  0.00    -0.237 OA
ATOM     90  O   UNL A   1      38.826  37.920  40.709  1.00  0.00    -0.237 OA
ATOM     91  O   UNL A   1      39.414  35.992  42.129  1.00  0.00    -0.744 OA
ENDBRANCH  87  88
ENDBRANCH  61  82
ENDBRANCH  35  36
ENDBRANCH  27  30
ENDBRANCH  25  26
ENDBRANCH  24  25
ENDBRANCH   1  24
TORSDOF 18
ENDMDL
