MODEL 1
REMARK VINA RESULT:     -11.3      0.000      0.000
REMARK SMILES COC(=O)C1=C(C)N(c2ccccc2)C(=S)N[C@@H]1c1ccc(C(=O)NCCCNC(=O)c2ccc(-c3c4nc(c(-c5ccc(S(=O)(=O)[O-])cc5)c5ccc([nH]5)c(-c5ccc(S(=O)(=O)[O-])cc5)c5nc(c(-c6ccc(S(=O)(=O)[O-])cc6)c6ccc3[nH]6)C=C5)C=C4)cc2)cc1
REMARK SMILES IDX 27 1 26 2 25 3 23 4 24 5 22 7 19 8 20 9 93 10 21 11 92 12
REMARK SMILES IDX 18 13 5 14 6 15 7 16 8 17 17 18 15 19 16 21 3 22 4 23 2 24
REMARK SMILES IDX 1 25 9 26 10 27 14 28 11 29 13 30 12 31 28 32 29 33 30 34
REMARK SMILES IDX 31 36 32 37 33 38 91 39 34 40 90 41 35 42 36 43 37 44 84 45
REMARK SMILES IDX 38 46 89 47 83 48 85 49 39 50 88 51 82 52 81 53 40 55 70 56
REMARK SMILES IDX 51 57 69 58 52 59 55 60 68 61 86 62 53 63 54 64 67 66 87 67
REMARK SMILES IDX 56 68 41 69 42 70 50 71 43 72 49 73 44 74 45 75 46 76 47 77
REMARK SMILES IDX 48 78 71 79 72 80 80 81 73 82 79 83 74 84 75 85 76 86 77 87
REMARK SMILES IDX 78 88 57 89 58 90 66 91 59 92 65 93 60 94 61 95 62 96 63 97
REMARK SMILES IDX 64 98
REMARK H PARENT 25 6 17 20 29 35 85 54 55 65
REMARK Flexibility Score: inf
ROOT
ATOM      1  C   UNL A   1      37.932  23.272  26.466  1.00  0.00     0.042 C 
ENDROOT
BRANCH   1   2
ATOM      2  C   UNL A   1      37.531  22.519  25.200  1.00  0.00     0.118 C 
BRANCH   2   3
ATOM      3  N   UNL A   1      36.607  21.437  25.486  1.00  0.00    -0.352 N 
ATOM      4  C   UNL A   1      35.237  21.384  25.445  1.00  0.00     0.251 C 
ATOM      5  O   UNL A   1      34.685  20.297  25.605  1.00  0.00    -0.269 OA
ATOM      6  H   UNL A   1      37.038  20.595  25.759  1.00  0.00     0.163 HD
BRANCH   4   7
ATOM      7  C   UNL A   1      34.407  22.578  25.158  1.00  0.00     0.039 A 
ATOM      8  C   UNL A   1      32.716  24.753  24.509  1.00  0.00    -0.021 A 
ATOM      9  C   UNL A   1      32.769  23.609  23.694  1.00  0.00     0.007 A 
ATOM     10  C   UNL A   1      33.522  24.781  25.660  1.00  0.00     0.007 A 
ATOM     11  C   UNL A   1      33.595  22.530  24.022  1.00  0.00     0.014 A 
ATOM     12  C   UNL A   1      34.346  23.698  25.990  1.00  0.00     0.014 A 
BRANCH   8  13
ATOM     13  C   UNL A   1      31.858  25.970  24.167  1.00  0.00     0.151 C 
ATOM     14  C   UNL A   1      32.582  27.069  23.458  1.00  0.00     0.083 C 
ATOM     15  C   UNL A   1      33.065  28.151  24.112  1.00  0.00     0.035 C 
ATOM     16  C   UNL A   1      33.937  29.189  23.440  1.00  0.00     0.065 C 
ATOM     17  N   UNL A   1      32.806  28.280  25.502  1.00  0.00    -0.291 N 
ATOM     18  N   UNL A   1      31.270  26.493  25.374  1.00  0.00    -0.351 N 
ATOM     19  C   UNL A   1      31.810  27.496  26.127  1.00  0.00     0.178 C 
ATOM     20  H   UNL A   1      30.420  26.100  25.679  1.00  0.00     0.163 HD
ATOM     21  S   UNL A   1      31.139  27.699  27.655  1.00  0.00    -0.040 S 
BRANCH  14  22
ATOM     22  C   UNL A   1      32.888  26.779  22.039  1.00  0.00     0.337 C 
ATOM     23  O   UNL A   1      34.007  26.808  21.553  1.00  0.00    -0.246 OA
BRANCH  22  24
ATOM     24  O   UNL A   1      31.745  26.451  21.388  1.00  0.00    -0.466 OA
ATOM     25  C   UNL A   1      31.945  25.587  20.267  1.00  0.00     0.282 C 
ENDBRANCH  22  24
ENDBRANCH  14  22
BRANCH  17  26
ATOM     26  C   UNL A   1      33.593  29.153  26.329  1.00  0.00     0.048 A 
ATOM     27  C   UNL A   1      33.162  30.440  26.664  1.00  0.00     0.027 A 
ATOM     28  C   UNL A   1      34.834  28.698  26.803  1.00  0.00     0.027 A 
ATOM     29  C   UNL A   1      33.973  31.268  27.445  1.00  0.00     0.002 A 
ATOM     30  C   UNL A   1      35.636  29.524  27.591  1.00  0.00     0.002 A 
ATOM     31  C   UNL A   1      35.207  30.811  27.906  1.00  0.00     0.000 A 
ENDBRANCH  17  26
ENDBRANCH   8  13
ENDBRANCH   4   7
ENDBRANCH   2   3
ENDBRANCH   1   2
BRANCH   1  32
ATOM     32  C   UNL A   1      38.789  24.509  26.209  1.00  0.00     0.118 C 
BRANCH  32  33
ATOM     33  N   UNL A   1      40.204  24.189  26.110  1.00  0.00    -0.352 N 
ATOM     34  C   UNL A   1      41.283  24.790  26.710  1.00  0.00     0.251 C 
ATOM     35  H   UNL A   1      40.420  23.427  25.525  1.00  0.00     0.163 HD
ATOM     36  O   UNL A   1      42.415  24.486  26.343  1.00  0.00    -0.269 OA
BRANCH  34  37
ATOM     37  C   UNL A   1      41.101  25.803  27.776  1.00  0.00     0.039 A 
ATOM     38  C   UNL A   1      42.077  26.793  27.929  1.00  0.00     0.014 A 
ATOM     39  C   UNL A   1      40.021  25.751  28.663  1.00  0.00     0.014 A 
ATOM     40  C   UNL A   1      41.957  27.746  28.945  1.00  0.00     0.010 A 
ATOM     41  C   UNL A   1      39.874  26.734  29.644  1.00  0.00     0.010 A 
ATOM     42  C   UNL A   1      40.847  27.732  29.803  1.00  0.00    -0.014 A 
BRANCH  42  43
ATOM     43  C   UNL A   1      40.709  28.735  30.890  1.00  0.00     0.031 A 
ATOM     44  C   UNL A   1      41.603  28.666  32.099  1.00  0.00     0.074 A 
ATOM     45  C   UNL A   1      39.756  29.684  30.811  1.00  0.00     0.049 A 
ATOM     46  N   UNL A   1      41.605  29.422  33.168  1.00  0.00    -0.248 NA
ATOM     47  C   UNL A   1      42.613  27.596  32.117  1.00  0.00     0.031 C 
ATOM     48  C   UNL A   1      38.807  29.843  29.708  1.00  0.00     0.029 A 
ATOM     49  N   UNL A   1      39.428  30.694  31.680  1.00  0.00    -0.354 N 
ATOM     50  C   UNL A   1      42.597  28.907  33.994  1.00  0.00     0.074 A 
ATOM     51  C   UNL A   1      43.154  27.755  33.317  1.00  0.00     0.031 C 
ATOM     52  C   UNL A   1      38.017  30.900  29.957  1.00  0.00     0.029 A 
ATOM     53  C   UNL A   1      38.385  31.476  31.247  1.00  0.00     0.049 A 
ATOM     54  H   UNL A   1      39.896  30.842  32.534  1.00  0.00     0.167 HD
ATOM     55  C   UNL A   1      43.018  29.358  35.201  1.00  0.00     0.031 A 
ATOM     56  C   UNL A   1      37.792  32.540  31.822  1.00  0.00     0.031 A 
ATOM     57  C   UNL A   1      42.481  30.513  35.867  1.00  0.00     0.049 A 
ATOM     58  C   UNL A   1      38.291  33.037  33.149  1.00  0.00     0.074 A 
ATOM     59  C   UNL A   1      42.868  31.072  37.074  1.00  0.00     0.029 A 
ATOM     60  N   UNL A   1      41.443  31.293  35.381  1.00  0.00    -0.354 N 
ATOM     61  N   UNL A   1      39.256  32.558  33.897  1.00  0.00    -0.248 NA
ATOM     62  C   UNL A   1      37.629  34.227  33.703  1.00  0.00     0.031 C 
ATOM     63  C   UNL A   1      42.047  32.176  37.328  1.00  0.00     0.029 A 
ATOM     64  C   UNL A   1      41.173  32.324  36.264  1.00  0.00     0.049 A 
ATOM     65  H   UNL A   1      40.968  31.138  34.533  1.00  0.00     0.167 HD
ATOM     66  C   UNL A   1      39.332  33.402  34.999  1.00  0.00     0.074 A 
ATOM     67  C   UNL A   1      38.323  34.425  34.816  1.00  0.00     0.031 C 
ATOM     68  C   UNL A   1      40.166  33.335  36.066  1.00  0.00     0.031 A 
BRANCH  55  69
ATOM     69  C   UNL A   1      44.115  28.583  35.878  1.00  0.00    -0.014 A 
ATOM     70  C   UNL A   1      45.467  28.901  35.657  1.00  0.00     0.010 A 
ATOM     71  C   UNL A   1      43.791  27.531  36.753  1.00  0.00     0.010 A 
ATOM     72  C   UNL A   1      46.477  28.150  36.263  1.00  0.00     0.020 A 
ATOM     73  C   UNL A   1      44.799  26.791  37.379  1.00  0.00     0.020 A 
ATOM     74  C   UNL A   1      46.137  27.092  37.111  1.00  0.00     0.054 A 
BRANCH  74  75
ATOM     75  S   UNL A   1      47.464  26.128  37.886  1.00  0.00     0.124 S 
ATOM     76  O   UNL A   1      47.874  27.007  38.977  1.00  0.00    -0.237 OA
ATOM     77  O   UNL A   1      46.782  24.902  38.292  1.00  0.00    -0.237 OA
ATOM     78  O   UNL A   1      48.443  25.965  36.814  1.00  0.00    -0.744 OA
ENDBRANCH  74  75
ENDBRANCH  55  69
BRANCH  56  79
ATOM     79  C   UNL A   1      36.672  33.225  31.125  1.00  0.00    -0.014 A 
ATOM     80  C   UNL A   1      35.400  33.287  31.719  1.00  0.00     0.010 A 
ATOM     81  C   UNL A   1      36.879  33.839  29.877  1.00  0.00     0.010 A 
ATOM     82  C   UNL A   1      34.349  33.944  31.074  1.00  0.00     0.020 A 
ATOM     83  C   UNL A   1      35.835  34.514  29.237  1.00  0.00     0.020 A 
ATOM     84  C   UNL A   1      34.574  34.554  29.836  1.00  0.00     0.054 A 
BRANCH  84  85
ATOM     85  S   UNL A   1      33.219  35.464  29.043  1.00  0.00     0.124 S 
ATOM     86  O   UNL A   1      33.935  36.518  28.334  1.00  0.00    -0.237 OA
ATOM     87  O   UNL A   1      32.598  34.443  28.201  1.00  0.00    -0.237 OA
ATOM     88  O   UNL A   1      32.403  35.906  30.172  1.00  0.00    -0.744 OA
ENDBRANCH  84  85
ENDBRANCH  56  79
BRANCH  68  89
ATOM     89  C   UNL A   1      40.041  34.417  37.102  1.00  0.00    -0.014 A 
ATOM     90  C   UNL A   1      39.071  34.341  38.117  1.00  0.00     0.010 A 
ATOM     91  C   UNL A   1      40.934  35.503  37.082  1.00  0.00     0.010 A 
ATOM     92  C   UNL A   1      38.977  35.351  39.077  1.00  0.00     0.020 A 
ATOM     93  C   UNL A   1      40.855  36.505  38.052  1.00  0.00     0.020 A 
ATOM     94  C   UNL A   1      39.866  36.430  39.036  1.00  0.00     0.054 A 
BRANCH  94  95
ATOM     95  S   UNL A   1      39.752  37.714  40.312  1.00  0.00     0.124 S 
ATOM     96  O   UNL A   1      38.313  37.952  40.375  1.00  0.00    -0.237 OA
ATOM     97  O   UNL A   1      40.332  37.060  41.484  1.00  0.00    -0.237 OA
ATOM     98  O   UNL A   1      40.545  38.813  39.765  1.00  0.00    -0.744 OA
ENDBRANCH  94  95
ENDBRANCH  68  89
ENDBRANCH  42  43
ENDBRANCH  34  37
ENDBRANCH  32  33
ENDBRANCH   1  32
TORSDOF 17
ENDMDL
MODEL 2
REMARK VINA RESULT:     -10.7      0.450      7.862
REMARK SMILES COC(=O)C1=C(C)N(c2ccccc2)C(=S)N[C@@H]1c1ccc(C(=O)NCCCNC(=O)c2ccc(-c3c4nc(c(-c5ccc(S(=O)(=O)[O-])cc5)c5ccc([nH]5)c(-c5ccc(S(=O)(=O)[O-])cc5)c5nc(c(-c6ccc(S(=O)(=O)[O-])cc6)c6ccc3[nH]6)C=C5)C=C4)cc2)cc1
REMARK SMILES IDX 27 1 26 2 25 3 23 4 24 5 22 7 19 8 20 9 93 10 21 11 92 12
REMARK SMILES IDX 18 13 5 14 6 15 7 16 8 17 17 18 15 19 16 21 3 22 4 23 2 24
REMARK SMILES IDX 1 25 9 26 10 27 14 28 11 29 13 30 12 31 28 32 29 33 30 34
REMARK SMILES IDX 31 36 32 37 33 38 91 39 34 40 90 41 35 42 36 43 37 44 84 45
REMARK SMILES IDX 38 46 89 47 83 48 85 49 39 50 88 51 82 52 81 53 40 55 70 56
REMARK SMILES IDX 51 57 69 58 52 59 55 60 68 61 86 62 53 63 54 64 67 66 87 67
REMARK SMILES IDX 56 68 41 69 42 70 50 71 43 72 49 73 44 74 45 75 46 76 47 77
REMARK SMILES IDX 48 78 71 79 72 80 80 81 73 82 79 83 74 84 75 85 76 86 77 87
REMARK SMILES IDX 78 88 57 89 58 90 66 91 59 92 65 93 60 94 61 95 62 96 63 97
REMARK SMILES IDX 64 98
REMARK H PARENT 25 6 17 20 29 35 85 54 55 65
REMARK Flexibility Score: inf
ROOT
ATOM      1  C   UNL A   1      37.864  23.368  26.366  1.00  0.00     0.042 C 
ENDROOT
BRANCH   1   2
ATOM      2  C   UNL A   1      37.714  22.482  25.132  1.00  0.00     0.118 C 
BRANCH   2   3
ATOM      3  N   UNL A   1      36.840  21.351  25.383  1.00  0.00    -0.352 N 
ATOM      4  C   UNL A   1      35.475  21.233  25.321  1.00  0.00     0.251 C 
ATOM      5  O   UNL A   1      34.974  20.118  25.451  1.00  0.00    -0.269 OA
ATOM      6  H   UNL A   1      37.307  20.525  25.646  1.00  0.00     0.163 HD
BRANCH   4   7
ATOM      7  C   UNL A   1      34.592  22.392  25.045  1.00  0.00     0.039 A 
ATOM      8  C   UNL A   1      32.802  24.493  24.422  1.00  0.00    -0.021 A 
ATOM      9  C   UNL A   1      32.871  23.339  23.621  1.00  0.00     0.007 A 
ATOM     10  C   UNL A   1      33.642  24.568  25.546  1.00  0.00     0.007 A 
ATOM     11  C   UNL A   1      33.746  22.297  23.937  1.00  0.00     0.014 A 
ATOM     12  C   UNL A   1      34.516  23.521  25.863  1.00  0.00     0.014 A 
BRANCH   8  13
ATOM     13  C   UNL A   1      31.888  25.672  24.091  1.00  0.00     0.151 C 
ATOM     14  C   UNL A   1      32.555  26.800  23.371  1.00  0.00     0.083 C 
ATOM     15  C   UNL A   1      33.001  27.902  24.017  1.00  0.00     0.035 C 
ATOM     16  C   UNL A   1      33.819  28.975  23.331  1.00  0.00     0.065 C 
ATOM     17  N   UNL A   1      32.758  28.022  25.411  1.00  0.00    -0.291 N 
ATOM     18  N   UNL A   1      31.296  26.172  25.307  1.00  0.00    -0.351 N 
ATOM     19  C   UNL A   1      31.805  27.198  26.051  1.00  0.00     0.178 C 
ATOM     20  H   UNL A   1      30.469  25.744  25.625  1.00  0.00     0.163 HD
ATOM     21  S   UNL A   1      31.149  27.375  27.589  1.00  0.00    -0.040 S 
BRANCH  14  22
ATOM     22  C   UNL A   1      32.851  26.521  21.948  1.00  0.00     0.337 C 
ATOM     23  O   UNL A   1      33.975  26.403  21.486  1.00  0.00    -0.246 OA
BRANCH  22  24
ATOM     24  O   UNL A   1      31.690  26.388  21.262  1.00  0.00    -0.466 OA
ATOM     25  C   UNL A   1      31.835  25.732  20.001  1.00  0.00     0.282 C 
ENDBRANCH  22  24
ENDBRANCH  14  22
BRANCH  17  26
ATOM     26  C   UNL A   1      33.520  28.929  26.225  1.00  0.00     0.048 A 
ATOM     27  C   UNL A   1      34.749  28.567  26.782  1.00  0.00     0.027 A 
ATOM     28  C   UNL A   1      33.002  30.210  26.474  1.00  0.00     0.027 A 
ATOM     29  C   UNL A   1      35.443  29.468  27.594  1.00  0.00     0.002 A 
ATOM     30  C   UNL A   1      33.702  31.112  27.277  1.00  0.00     0.002 A 
ATOM     31  C   UNL A   1      34.919  30.737  27.841  1.00  0.00     0.000 A 
ENDBRANCH  17  26
ENDBRANCH   8  13
ENDBRANCH   4   7
ENDBRANCH   2   3
ENDBRANCH   1   2
BRANCH   1  32
ATOM     32  C   UNL A   1      38.643  24.657  26.116  1.00  0.00     0.118 C 
BRANCH  32  33
ATOM     33  N   UNL A   1      40.062  24.412  25.912  1.00  0.00    -0.352 N 
ATOM     34  C   UNL A   1      41.148  25.033  26.477  1.00  0.00     0.251 C 
ATOM     35  H   UNL A   1      40.275  23.693  25.274  1.00  0.00     0.163 HD
ATOM     36  O   UNL A   1      42.267  24.804  26.025  1.00  0.00    -0.269 OA
BRANCH  34  37
ATOM     37  C   UNL A   1      40.989  25.978  27.608  1.00  0.00     0.039 A 
ATOM     38  C   UNL A   1      41.941  26.991  27.769  1.00  0.00     0.014 A 
ATOM     39  C   UNL A   1      39.958  25.840  28.542  1.00  0.00     0.014 A 
ATOM     40  C   UNL A   1      41.842  27.881  28.843  1.00  0.00     0.010 A 
ATOM     41  C   UNL A   1      39.830  26.761  29.583  1.00  0.00     0.010 A 
ATOM     42  C   UNL A   1      40.778  27.781  29.751  1.00  0.00    -0.014 A 
BRANCH  42  43
ATOM     43  C   UNL A   1      40.664  28.716  30.900  1.00  0.00     0.031 A 
ATOM     44  C   UNL A   1      39.624  29.804  30.888  1.00  0.00     0.074 A 
ATOM     45  C   UNL A   1      41.518  28.614  31.936  1.00  0.00     0.049 A 
ATOM     46  N   UNL A   1      39.400  30.741  31.775  1.00  0.00    -0.248 NA
ATOM     47  C   UNL A   1      38.733  29.858  29.718  1.00  0.00     0.031 C 
ATOM     48  C   UNL A   1      42.589  27.623  32.057  1.00  0.00     0.029 A 
ATOM     49  N   UNL A   1      41.622  29.357  33.085  1.00  0.00    -0.354 N 
ATOM     50  C   UNL A   1      38.360  31.508  31.261  1.00  0.00     0.074 A 
ATOM     51  C   UNL A   1      38.020  30.947  29.971  1.00  0.00     0.031 C 
ATOM     52  C   UNL A   1      43.227  27.807  33.224  1.00  0.00     0.029 A 
ATOM     53  C   UNL A   1      42.630  28.943  33.921  1.00  0.00     0.049 A 
ATOM     54  H   UNL A   1      41.028  30.116  33.290  1.00  0.00     0.167 HD
ATOM     55  C   UNL A   1      37.735  32.574  31.816  1.00  0.00     0.031 A 
ATOM     56  C   UNL A   1      43.029  29.421  35.114  1.00  0.00     0.031 A 
ATOM     57  C   UNL A   1      38.057  33.122  33.106  1.00  0.00     0.049 A 
ATOM     58  C   UNL A   1      42.306  30.589  35.722  1.00  0.00     0.074 A 
ATOM     59  C   UNL A   1      37.454  34.177  33.771  1.00  0.00     0.029 A 
ATOM     60  N   UNL A   1      39.068  32.656  33.932  1.00  0.00    -0.354 N 
ATOM     61  N   UNL A   1      41.301  31.277  35.237  1.00  0.00    -0.248 NA
ATOM     62  C   UNL A   1      42.762  31.037  37.046  1.00  0.00     0.031 C 
ATOM     63  C   UNL A   1      38.118  34.362  34.989  1.00  0.00     0.029 A 
ATOM     64  C   UNL A   1      39.110  33.402  35.096  1.00  0.00     0.049 A 
ATOM     65  H   UNL A   1      39.668  31.904  33.721  1.00  0.00     0.167 HD
ATOM     66  C   UNL A   1      40.990  32.224  36.205  1.00  0.00     0.074 A 
ATOM     67  C   UNL A   1      41.907  32.015  37.308  1.00  0.00     0.031 C 
ATOM     68  C   UNL A   1      40.028  33.180  36.184  1.00  0.00     0.031 A 
BRANCH  55  69
ATOM     69  C   UNL A   1      36.639  33.221  31.014  1.00  0.00    -0.014 A 
ATOM     70  C   UNL A   1      36.938  34.119  29.974  1.00  0.00     0.010 A 
ATOM     71  C   UNL A   1      35.295  32.920  31.296  1.00  0.00     0.010 A 
ATOM     72  C   UNL A   1      35.910  34.742  29.261  1.00  0.00     0.020 A 
ATOM     73  C   UNL A   1      34.264  33.524  30.570  1.00  0.00     0.020 A 
ATOM     74  C   UNL A   1      34.579  34.449  29.572  1.00  0.00     0.054 A 
BRANCH  74  75
ATOM     75  S   UNL A   1      33.259  35.270  28.636  1.00  0.00     0.124 S 
ATOM     76  O   UNL A   1      32.556  34.131  28.050  1.00  0.00    -0.237 OA
ATOM     77  O   UNL A   1      32.526  35.993  29.671  1.00  0.00    -0.237 OA
ATOM     78  O   UNL A   1      33.982  36.112  27.687  1.00  0.00    -0.744 OA
ENDBRANCH  74  75
ENDBRANCH  55  69
BRANCH  56  79
ATOM     79  C   UNL A   1      44.160  28.771  35.828  1.00  0.00    -0.014 A 
ATOM     80  C   UNL A   1      43.921  27.696  36.702  1.00  0.00     0.010 A 
ATOM     81  C   UNL A   1      45.480  29.207  35.618  1.00  0.00     0.010 A 
ATOM     82  C   UNL A   1      44.983  27.072  37.361  1.00  0.00     0.020 A 
ATOM     83  C   UNL A   1      46.546  28.573  36.263  1.00  0.00     0.020 A 
ATOM     84  C   UNL A   1      46.290  27.515  37.137  1.00  0.00     0.054 A 
BRANCH  84  85
ATOM     85  S   UNL A   1      47.664  26.649  37.948  1.00  0.00     0.124 S 
ATOM     86  O   UNL A   1      47.784  27.381  39.204  1.00  0.00    -0.237 OA
ATOM     87  O   UNL A   1      47.162  25.281  38.056  1.00  0.00    -0.237 OA
ATOM     88  O   UNL A   1      48.771  26.823  37.010  1.00  0.00    -0.744 OA
ENDBRANCH  84  85
ENDBRANCH  56  79
BRANCH  68  89
ATOM     89  C   UNL A   1      39.900  34.052  37.401  1.00  0.00    -0.014 A 
ATOM     90  C   UNL A   1      39.035  33.706  38.454  1.00  0.00     0.010 A 
ATOM     91  C   UNL A   1      40.687  35.212  37.509  1.00  0.00     0.010 A 
ATOM     92  C   UNL A   1      38.936  34.524  39.582  1.00  0.00     0.020 A 
ATOM     93  C   UNL A   1      40.605  36.023  38.644  1.00  0.00     0.020 A 
ATOM     94  C   UNL A   1      39.719  35.681  39.668  1.00  0.00     0.054 A 
BRANCH  94  95
ATOM     95  S   UNL A   1      39.604  36.712  41.156  1.00  0.00     0.124 S 
ATOM     96  O   UNL A   1      38.447  37.549  40.856  1.00  0.00    -0.237 OA
ATOM     97  O   UNL A   1      39.408  35.728  42.219  1.00  0.00    -0.237 OA
ATOM     98  O   UNL A   1      40.888  37.408  41.191  1.00  0.00    -0.744 OA
ENDBRANCH  94  95
ENDBRANCH  68  89
ENDBRANCH  42  43
ENDBRANCH  34  37
ENDBRANCH  32  33
ENDBRANCH   1  32
TORSDOF 17
ENDMDL
MODEL 3
REMARK VINA RESULT:     -10.6      4.292      8.376
REMARK SMILES COC(=O)C1=C(C)N(c2ccccc2)C(=S)N[C@@H]1c1ccc(C(=O)NCCCNC(=O)c2ccc(-c3c4nc(c(-c5ccc(S(=O)(=O)[O-])cc5)c5ccc([nH]5)c(-c5ccc(S(=O)(=O)[O-])cc5)c5nc(c(-c6ccc(S(=O)(=O)[O-])cc6)c6ccc3[nH]6)C=C5)C=C4)cc2)cc1
REMARK SMILES IDX 27 1 26 2 25 3 23 4 24 5 22 7 19 8 20 9 93 10 21 11 92 12
REMARK SMILES IDX 18 13 5 14 6 15 7 16 8 17 17 18 15 19 16 21 3 22 4 23 2 24
REMARK SMILES IDX 1 25 9 26 10 27 14 28 11 29 13 30 12 31 28 32 29 33 30 34
REMARK SMILES IDX 31 36 32 37 33 38 91 39 34 40 90 41 35 42 36 43 37 44 84 45
REMARK SMILES IDX 38 46 89 47 83 48 85 49 39 50 88 51 82 52 81 53 40 55 70 56
REMARK SMILES IDX 51 57 69 58 52 59 55 60 68 61 86 62 53 63 54 64 67 66 87 67
REMARK SMILES IDX 56 68 41 69 42 70 50 71 43 72 49 73 44 74 45 75 46 76 47 77
REMARK SMILES IDX 48 78 71 79 72 80 80 81 73 82 79 83 74 84 75 85 76 86 77 87
REMARK SMILES IDX 78 88 57 89 58 90 66 91 59 92 65 93 60 94 61 95 62 96 63 97
REMARK SMILES IDX 64 98
REMARK H PARENT 25 6 17 20 29 35 85 54 55 65
REMARK Flexibility Score: inf
ROOT
ATOM      1  C   UNL A   1      39.695  23.561  26.989  1.00  0.00     0.042 C 
ENDROOT
BRANCH   1   2
ATOM      2  C   UNL A   1      40.804  22.992  27.872  1.00  0.00     0.118 C 
BRANCH   2   3
ATOM      3  N   UNL A   1      42.040  22.810  27.133  1.00  0.00    -0.352 N 
ATOM      4  C   UNL A   1      43.345  23.041  27.486  1.00  0.00     0.251 C 
ATOM      5  O   UNL A   1      44.235  22.675  26.721  1.00  0.00    -0.269 OA
ATOM      6  H   UNL A   1      41.922  22.462  26.220  1.00  0.00     0.163 HD
BRANCH   4   7
ATOM      7  C   UNL A   1      43.718  23.660  28.781  1.00  0.00     0.039 A 
ATOM      8  C   UNL A   1      44.349  24.995  31.195  1.00  0.00    -0.021 A 
ATOM      9  C   UNL A   1      44.068  25.716  30.021  1.00  0.00     0.007 A 
ATOM     10  C   UNL A   1      44.299  23.592  31.135  1.00  0.00     0.007 A 
ATOM     11  C   UNL A   1      43.744  25.057  28.833  1.00  0.00     0.014 A 
ATOM     12  C   UNL A   1      43.970  22.933  29.945  1.00  0.00     0.014 A 
BRANCH   8  13
ATOM     13  C   UNL A   1      44.745  25.675  32.505  1.00  0.00     0.151 C 
ATOM     14  C   UNL A   1      46.143  25.397  32.958  1.00  0.00     0.083 C 
ATOM     15  C   UNL A   1      46.425  24.449  33.882  1.00  0.00     0.035 C 
ATOM     16  C   UNL A   1      47.840  24.046  34.231  1.00  0.00     0.065 C 
ATOM     17  N   UNL A   1      45.350  23.752  34.494  1.00  0.00    -0.291 N 
ATOM     18  N   UNL A   1      43.825  25.282  33.543  1.00  0.00    -0.351 N 
ATOM     19  C   UNL A   1      44.027  24.241  34.403  1.00  0.00     0.178 C 
ATOM     20  H   UNL A   1      42.992  25.799  33.638  1.00  0.00     0.163 HD
ATOM     21  S   UNL A   1      42.682  23.759  35.288  1.00  0.00    -0.040 S 
BRANCH  14  22
ATOM     22  C   UNL A   1      47.185  26.102  32.178  1.00  0.00     0.337 C 
ATOM     23  O   UNL A   1      47.632  25.713  31.111  1.00  0.00    -0.246 OA
BRANCH  22  24
ATOM     24  O   UNL A   1      47.531  27.247  32.817  1.00  0.00    -0.466 OA
ATOM     25  C   UNL A   1      47.235  28.433  32.077  1.00  0.00     0.282 C 
ENDBRANCH  22  24
ENDBRANCH  14  22
BRANCH  17  26
ATOM     26  C   UNL A   1      45.560  22.497  35.162  1.00  0.00     0.048 A 
ATOM     27  C   UNL A   1      45.498  21.279  34.480  1.00  0.00     0.027 A 
ATOM     28  C   UNL A   1      45.823  22.501  36.541  1.00  0.00     0.027 A 
ATOM     29  C   UNL A   1      45.677  20.078  35.173  1.00  0.00     0.002 A 
ATOM     30  C   UNL A   1      46.012  21.301  37.228  1.00  0.00     0.002 A 
ATOM     31  C   UNL A   1      45.932  20.091  36.544  1.00  0.00     0.000 A 
ENDBRANCH  17  26
ENDBRANCH   8  13
ENDBRANCH   4   7
ENDBRANCH   2   3
ENDBRANCH   1   2
BRANCH   1  32
ATOM     32  C   UNL A   1      39.543  25.077  27.081  1.00  0.00     0.118 C 
BRANCH  32  33
ATOM     33  N   UNL A   1      40.436  25.777  26.173  1.00  0.00    -0.352 N 
ATOM     34  C   UNL A   1      41.048  26.998  26.312  1.00  0.00     0.251 C 
ATOM     35  H   UNL A   1      40.632  25.304  25.332  1.00  0.00     0.163 HD
ATOM     36  O   UNL A   1      41.615  27.495  25.342  1.00  0.00    -0.269 OA
BRANCH  34  37
ATOM     37  C   UNL A   1      41.024  27.724  27.604  1.00  0.00     0.039 A 
ATOM     38  C   UNL A   1      40.449  27.094  28.712  1.00  0.00     0.014 A 
ATOM     39  C   UNL A   1      41.497  29.035  27.720  1.00  0.00     0.014 A 
ATOM     40  C   UNL A   1      40.378  27.761  29.940  1.00  0.00     0.010 A 
ATOM     41  C   UNL A   1      41.474  29.680  28.958  1.00  0.00     0.010 A 
ATOM     42  C   UNL A   1      40.902  29.055  30.076  1.00  0.00    -0.014 A 
BRANCH  42  43
ATOM     43  C   UNL A   1      40.828  29.776  31.372  1.00  0.00     0.031 A 
ATOM     44  C   UNL A   1      41.894  29.569  32.414  1.00  0.00     0.074 A 
ATOM     45  C   UNL A   1      39.785  30.589  31.629  1.00  0.00     0.049 A 
ATOM     46  N   UNL A   1      41.980  30.074  33.619  1.00  0.00    -0.248 NA
ATOM     47  C   UNL A   1      42.997  28.660  32.064  1.00  0.00     0.031 C 
ATOM     48  C   UNL A   1      38.672  30.854  30.716  1.00  0.00     0.029 A 
ATOM     49  N   UNL A   1      39.491  31.339  32.739  1.00  0.00    -0.354 N 
ATOM     50  C   UNL A   1      43.129  29.528  34.177  1.00  0.00     0.074 A 
ATOM     51  C   UNL A   1      43.691  28.629  33.192  1.00  0.00     0.031 C 
ATOM     52  C   UNL A   1      37.827  31.722  31.295  1.00  0.00     0.029 A 
ATOM     53  C   UNL A   1      38.323  32.054  32.628  1.00  0.00     0.049 A 
ATOM     54  H   UNL A   1      40.063  31.362  33.540  1.00  0.00     0.167 HD
ATOM     55  C   UNL A   1      43.678  29.762  35.395  1.00  0.00     0.031 A 
ATOM     56  C   UNL A   1      37.719  32.885  33.498  1.00  0.00     0.031 A 
ATOM     57  C   UNL A   1      43.133  30.670  36.368  1.00  0.00     0.049 A 
ATOM     58  C   UNL A   1      38.357  33.149  34.832  1.00  0.00     0.074 A 
ATOM     59  C   UNL A   1      43.637  31.005  37.613  1.00  0.00     0.029 A 
ATOM     60  N   UNL A   1      41.963  31.394  36.204  1.00  0.00    -0.354 N 
ATOM     61  N   UNL A   1      39.465  32.651  35.327  1.00  0.00    -0.248 NA
ATOM     62  C   UNL A   1      37.670  34.098  35.721  1.00  0.00     0.031 C 
ATOM     63  C   UNL A   1      42.758  31.914  38.212  1.00  0.00     0.029 A 
ATOM     64  C   UNL A   1      41.725  32.170  37.325  1.00  0.00     0.049 A 
ATOM     65  H   UNL A   1      41.385  31.363  35.407  1.00  0.00     0.167 HD
ATOM     66  C   UNL A   1      39.619  33.244  36.575  1.00  0.00     0.074 A 
ATOM     67  C   UNL A   1      38.498  34.143  36.755  1.00  0.00     0.031 C 
ATOM     68  C   UNL A   1      40.605  33.061  37.488  1.00  0.00     0.031 A 
BRANCH  55  69
ATOM     69  C   UNL A   1      44.934  29.010  35.738  1.00  0.00    -0.014 A 
ATOM     70  C   UNL A   1      44.877  27.694  36.231  1.00  0.00     0.010 A 
ATOM     71  C   UNL A   1      46.187  29.621  35.554  1.00  0.00     0.010 A 
ATOM     72  C   UNL A   1      46.049  27.020  36.582  1.00  0.00     0.020 A 
ATOM     73  C   UNL A   1      47.364  28.941  35.882  1.00  0.00     0.020 A 
ATOM     74  C   UNL A   1      47.285  27.652  36.416  1.00  0.00     0.054 A 
BRANCH  74  75
ATOM     75  S   UNL A   1      48.795  26.760  36.878  1.00  0.00     0.124 S 
ATOM     76  O   UNL A   1      48.257  25.484  37.346  1.00  0.00    -0.237 OA
ATOM     77  O   UNL A   1      49.539  26.703  35.623  1.00  0.00    -0.237 OA
ATOM     78  O   UNL A   1      49.390  27.602  37.912  1.00  0.00    -0.744 OA
ENDBRANCH  74  75
ENDBRANCH  55  69
BRANCH  56  79
ATOM     79  C   UNL A   1      36.446  33.551  33.118  1.00  0.00    -0.014 A 
ATOM     80  C   UNL A   1      36.441  34.906  32.742  1.00  0.00     0.010 A 
ATOM     81  C   UNL A   1      35.239  32.830  33.107  1.00  0.00     0.010 A 
ATOM     82  C   UNL A   1      35.248  35.531  32.368  1.00  0.00     0.020 A 
ATOM     83  C   UNL A   1      34.047  33.448  32.716  1.00  0.00     0.020 A 
ATOM     84  C   UNL A   1      34.058  34.797  32.358  1.00  0.00     0.054 A 
BRANCH  84  85
ATOM     85  S   UNL A   1      32.530  35.605  31.804  1.00  0.00     0.124 S 
ATOM     86  O   UNL A   1      32.424  35.139  30.426  1.00  0.00    -0.237 OA
ATOM     87  O   UNL A   1      31.533  35.073  32.731  1.00  0.00    -0.237 OA
ATOM     88  O   UNL A   1      32.822  37.027  31.967  1.00  0.00    -0.744 OA
ENDBRANCH  84  85
ENDBRANCH  56  79
BRANCH  68  89
ATOM     89  C   UNL A   1      40.529  33.871  38.751  1.00  0.00    -0.014 A 
ATOM     90  C   UNL A   1      39.803  33.413  39.865  1.00  0.00     0.010 A 
ATOM     91  C   UNL A   1      41.226  35.090  38.837  1.00  0.00     0.010 A 
ATOM     92  C   UNL A   1      39.752  34.176  41.034  1.00  0.00     0.020 A 
ATOM     93  C   UNL A   1      41.192  35.846  40.011  1.00  0.00     0.020 A 
ATOM     94  C   UNL A   1      40.442  35.391  41.098  1.00  0.00     0.054 A 
BRANCH  94  95
ATOM     95  S   UNL A   1      40.393  36.351  42.637  1.00  0.00     0.124 S 
ATOM     96  O   UNL A   1      41.746  36.896  42.697  1.00  0.00    -0.237 OA
ATOM     97  O   UNL A   1      39.335  37.325  42.378  1.00  0.00    -0.237 OA
ATOM     98  O   UNL A   1      40.074  35.352  43.654  1.00  0.00    -0.744 OA
ENDBRANCH  94  95
ENDBRANCH  68  89
ENDBRANCH  42  43
ENDBRANCH  34  37
ENDBRANCH  32  33
ENDBRANCH   1  32
TORSDOF 17
ENDMDL
