MODEL 1
REMARK VINA RESULT:     -11.2      0.000      0.000
REMARK SMILES O=C(NCCCNC(=O)[C@@H]1C=C[C@@H](Nc2ccc3ccccc3n2)C1)c1ccc(-c2c3nc(c(-c4ccc(S(=O)(=O)[O-])cc4)c4ccc([nH]4)c(-c4ccc(S(=O)(=O)[O-])cc4)c4nc(c(-c5ccc(S(=O)(=O)[O-])cc5)c5ccc2[nH]5)C=C4)C=C3)cc1
REMARK SMILES IDX 4 1 3 2 1 3 2 4 26 6 27 7 85 8 28 9 84 10 29 11 30 12 31 13
REMARK SMILES IDX 78 14 32 15 83 16 77 17 79 18 33 19 82 20 76 21 75 22 34 24
REMARK SMILES IDX 64 25 45 26 63 27 46 28 49 29 62 30 80 31 47 32 48 33 61 35
REMARK SMILES IDX 81 36 50 37 35 38 36 39 44 40 37 41 43 42 38 43 39 44 40 45
REMARK SMILES IDX 41 46 42 47 65 48 66 49 74 50 67 51 73 52 68 53 69 54 70 55
REMARK SMILES IDX 71 56 72 57 51 58 52 59 60 60 53 61 59 62 54 63 55 64 56 65
REMARK SMILES IDX 57 66 58 67 5 68 6 69 7 70 8 71 9 73 10 74 11 75 25 76 12 77
REMARK SMILES IDX 13 78 14 79 15 81 16 82 24 83 17 84 23 85 18 86 22 87 19 88
REMARK SMILES IDX 21 89 20 90
REMARK H PARENT 3 5 79 23 49 34 7 72 14 80
REMARK Flexibility Score: inf
ROOT
ATOM      1  C   UNL A   1      34.901  32.392  29.032  1.00  0.00     0.118 C 
ENDROOT
BRANCH   1   2
ATOM      2  N   UNL A   1      34.228  31.198  28.538  1.00  0.00    -0.352 N 
ATOM      3  O   UNL A   1      34.039  29.194  27.532  1.00  0.00    -0.269 OA
ATOM      4  C   UNL A   1      34.759  30.004  28.114  1.00  0.00     0.251 C 
ATOM      5  H   UNL A   1      33.245  31.255  28.502  1.00  0.00     0.163 HD
BRANCH   4   6
ATOM      6  C   UNL A   1      36.188  29.695  28.347  1.00  0.00     0.039 A 
ATOM      7  C   UNL A   1      36.611  29.176  29.571  1.00  0.00     0.014 A 
ATOM      8  C   UNL A   1      37.117  29.893  27.319  1.00  0.00     0.014 A 
ATOM      9  C   UNL A   1      37.965  29.006  29.820  1.00  0.00     0.010 A 
ATOM     10  C   UNL A   1      38.472  29.614  27.536  1.00  0.00     0.010 A 
ATOM     11  C   UNL A   1      38.911  29.189  28.797  1.00  0.00    -0.014 A 
BRANCH  11  12
ATOM     12  C   UNL A   1      40.327  28.833  29.076  1.00  0.00     0.031 A 
ATOM     13  C   UNL A   1      40.897  27.496  28.691  1.00  0.00     0.074 A 
ATOM     14  C   UNL A   1      41.119  29.778  29.621  1.00  0.00     0.049 A 
ATOM     15  N   UNL A   1      42.137  27.081  28.780  1.00  0.00    -0.248 NA
ATOM     16  C   UNL A   1      39.969  26.495  28.145  1.00  0.00     0.031 C 
ATOM     17  C   UNL A   1      40.668  31.104  30.060  1.00  0.00     0.029 A 
ATOM     18  N   UNL A   1      42.468  29.796  29.861  1.00  0.00    -0.354 N 
ATOM     19  C   UNL A   1      42.138  25.773  28.310  1.00  0.00     0.074 A 
ATOM     20  C   UNL A   1      40.769  25.450  27.966  1.00  0.00     0.031 C 
ATOM     21  C   UNL A   1      41.728  31.828  30.441  1.00  0.00     0.029 A 
ATOM     22  C   UNL A   1      42.923  31.001  30.345  1.00  0.00     0.049 A 
ATOM     23  H   UNL A   1      43.056  29.021  29.703  1.00  0.00     0.167 HD
ATOM     24  C   UNL A   1      43.186  24.925  28.169  1.00  0.00     0.031 A 
ATOM     25  C   UNL A   1      44.162  31.399  30.686  1.00  0.00     0.031 A 
ATOM     26  C   UNL A   1      44.545  25.252  28.521  1.00  0.00     0.049 A 
ATOM     27  C   UNL A   1      45.300  30.437  30.524  1.00  0.00     0.074 A 
ATOM     28  C   UNL A   1      45.676  24.460  28.417  1.00  0.00     0.029 A 
ATOM     29  N   UNL A   1      44.960  26.468  29.042  1.00  0.00    -0.354 N 
ATOM     30  N   UNL A   1      45.278  29.209  30.061  1.00  0.00    -0.248 NA
ATOM     31  C   UNL A   1      46.629  30.911  30.928  1.00  0.00     0.031 C 
ATOM     32  C   UNL A   1      46.766  25.183  28.914  1.00  0.00     0.029 A 
ATOM     33  C   UNL A   1      46.325  26.444  29.277  1.00  0.00     0.049 A 
ATOM     34  H   UNL A   1      44.370  27.236  29.220  1.00  0.00     0.167 HD
ATOM     35  C   UNL A   1      46.591  28.764  30.118  1.00  0.00     0.074 A 
ATOM     36  C   UNL A   1      47.386  29.867  30.621  1.00  0.00     0.031 C 
ATOM     37  C   UNL A   1      47.095  27.546  29.796  1.00  0.00     0.031 A 
BRANCH  24  38
ATOM     38  C   UNL A   1      42.906  23.550  27.617  1.00  0.00    -0.014 A 
ATOM     39  C   UNL A   1      43.207  23.233  26.281  1.00  0.00     0.010 A 
ATOM     40  C   UNL A   1      42.396  22.545  28.459  1.00  0.00     0.010 A 
ATOM     41  C   UNL A   1      42.976  21.946  25.789  1.00  0.00     0.020 A 
ATOM     42  C   UNL A   1      42.185  21.249  27.977  1.00  0.00     0.020 A 
ATOM     43  C   UNL A   1      42.464  20.962  26.640  1.00  0.00     0.054 A 
BRANCH  43  44
ATOM     44  S   UNL A   1      42.200  19.293  25.979  1.00  0.00     0.124 S 
ATOM     45  O   UNL A   1      42.999  19.326  24.755  1.00  0.00    -0.237 OA
ATOM     46  O   UNL A   1      42.721  18.439  27.043  1.00  0.00    -0.237 OA
ATOM     47  O   UNL A   1      40.755  19.222  25.777  1.00  0.00    -0.744 OA
ENDBRANCH  43  44
ENDBRANCH  24  38
BRANCH  25  48
ATOM     48  C   UNL A   1      44.372  32.763  31.244  1.00  0.00    -0.014 A 
ATOM     49  C   UNL A   1      44.269  33.007  32.624  1.00  0.00     0.010 A 
ATOM     50  C   UNL A   1      44.700  33.827  30.383  1.00  0.00     0.010 A 
ATOM     51  C   UNL A   1      44.464  34.297  33.129  1.00  0.00     0.020 A 
ATOM     52  C   UNL A   1      44.929  35.108  30.887  1.00  0.00     0.020 A 
ATOM     53  C   UNL A   1      44.794  35.339  32.256  1.00  0.00     0.054 A 
BRANCH  53  54
ATOM     54  S   UNL A   1      45.086  36.996  32.932  1.00  0.00     0.124 S 
ATOM     55  O   UNL A   1      43.822  37.667  32.643  1.00  0.00    -0.237 OA
ATOM     56  O   UNL A   1      45.352  36.723  34.342  1.00  0.00    -0.237 OA
ATOM     57  O   UNL A   1      46.239  37.475  32.172  1.00  0.00    -0.744 OA
ENDBRANCH  53  54
ENDBRANCH  25  48
BRANCH  37  58
ATOM     58  C   UNL A   1      48.578  27.361  29.972  1.00  0.00    -0.014 A 
ATOM     59  C   UNL A   1      49.482  27.775  28.977  1.00  0.00     0.010 A 
ATOM     60  C   UNL A   1      49.072  26.768  31.147  1.00  0.00     0.010 A 
ATOM     61  C   UNL A   1      50.852  27.552  29.132  1.00  0.00     0.020 A 
ATOM     62  C   UNL A   1      50.444  26.570  31.319  1.00  0.00     0.020 A 
ATOM     63  C   UNL A   1      51.324  26.944  30.300  1.00  0.00     0.054 A 
BRANCH  63  64
ATOM     64  S   UNL A   1      53.106  26.669  30.483  1.00  0.00     0.124 S 
ATOM     65  O   UNL A   1      53.494  26.280  29.130  1.00  0.00    -0.237 OA
ATOM     66  O   UNL A   1      53.590  27.975  30.925  1.00  0.00    -0.237 OA
ATOM     67  O   UNL A   1      53.191  25.610  31.486  1.00  0.00    -0.744 OA
ENDBRANCH  63  64
ENDBRANCH  37  58
ENDBRANCH  11  12
ENDBRANCH   4   6
ENDBRANCH   1   2
BRANCH   1  68
ATOM     68  C   UNL A   1      34.688  33.591  28.120  1.00  0.00     0.042 C 
BRANCH  68  69
ATOM     69  C   UNL A   1      33.276  34.160  28.191  1.00  0.00     0.117 C 
BRANCH  69  70
ATOM     70  N   UNL A   1      33.266  35.591  28.428  1.00  0.00    -0.356 N 
ATOM     71  C   UNL A   1      33.161  36.325  29.567  1.00  0.00     0.227 C 
ATOM     72  H   UNL A   1      33.352  36.133  27.610  1.00  0.00     0.163 HD
ATOM     73  O   UNL A   1      33.293  37.549  29.442  1.00  0.00    -0.274 OA
BRANCH  71  74
ATOM     74  C   UNL A   1      32.887  35.734  30.956  1.00  0.00     0.103 C 
ATOM     75  C   UNL A   1      32.483  36.703  32.024  1.00  0.00    -0.016 C 
ATOM     76  C   UNL A   1      34.039  34.954  31.595  1.00  0.00     0.046 C 
ATOM     77  C   UNL A   1      33.337  36.685  33.055  1.00  0.00    -0.006 C 
ATOM     78  C   UNL A   1      34.503  35.788  32.799  1.00  0.00     0.104 C 
BRANCH  78  79
ATOM     79  N   UNL A   1      34.768  34.947  33.930  1.00  0.00    -0.364 N 
ATOM     80  H   UNL A   1      34.135  34.893  34.683  1.00  0.00     0.162 HD
BRANCH  79  81
ATOM     81  C   UNL A   1      35.941  34.214  33.932  1.00  0.00     0.127 A 
ATOM     82  C   UNL A   1      35.876  32.841  33.745  1.00  0.00     0.047 A 
ATOM     83  N   UNL A   1      37.119  34.870  34.004  1.00  0.00    -0.231 NA
ATOM     84  C   UNL A   1      37.057  32.116  33.615  1.00  0.00     0.014 A 
ATOM     85  C   UNL A   1      38.266  34.167  33.922  1.00  0.00     0.073 A 
ATOM     86  C   UNL A   1      38.284  32.776  33.706  1.00  0.00     0.000 A 
ATOM     87  C   UNL A   1      39.485  34.823  34.045  1.00  0.00     0.029 A 
ATOM     88  C   UNL A   1      39.505  32.087  33.590  1.00  0.00     0.010 A 
ATOM     89  C   UNL A   1      40.703  34.142  33.949  1.00  0.00     0.002 A 
ATOM     90  C   UNL A   1      40.711  32.772  33.712  1.00  0.00     0.001 A 
ENDBRANCH  79  81
ENDBRANCH  78  79
ENDBRANCH  71  74
ENDBRANCH  69  70
ENDBRANCH  68  69
ENDBRANCH   1  68
TORSDOF 15
ENDMDL
MODEL 2
REMARK VINA RESULT:     -11.0      3.658     10.427
REMARK SMILES O=C(NCCCNC(=O)[C@@H]1C=C[C@@H](Nc2ccc3ccccc3n2)C1)c1ccc(-c2c3nc(c(-c4ccc(S(=O)(=O)[O-])cc4)c4ccc([nH]4)c(-c4ccc(S(=O)(=O)[O-])cc4)c4nc(c(-c5ccc(S(=O)(=O)[O-])cc5)c5ccc2[nH]5)C=C4)C=C3)cc1
REMARK SMILES IDX 4 1 3 2 1 3 2 4 26 6 27 7 85 8 28 9 84 10 29 11 30 12 31 13
REMARK SMILES IDX 78 14 32 15 83 16 77 17 79 18 33 19 82 20 76 21 75 22 34 24
REMARK SMILES IDX 64 25 45 26 63 27 46 28 49 29 62 30 80 31 47 32 48 33 61 35
REMARK SMILES IDX 81 36 50 37 35 38 36 39 44 40 37 41 43 42 38 43 39 44 40 45
REMARK SMILES IDX 41 46 42 47 65 48 66 49 74 50 67 51 73 52 68 53 69 54 70 55
REMARK SMILES IDX 71 56 72 57 51 58 52 59 60 60 53 61 59 62 54 63 55 64 56 65
REMARK SMILES IDX 57 66 58 67 5 68 6 69 7 70 8 71 9 73 10 74 11 75 25 76 12 77
REMARK SMILES IDX 13 78 14 79 15 81 16 82 24 83 17 84 23 85 18 86 22 87 19 88
REMARK SMILES IDX 21 89 20 90
REMARK H PARENT 3 5 79 23 49 34 7 72 14 80
REMARK Flexibility Score: inf
ROOT
ATOM      1  C   UNL A   1      35.707  30.811  27.823  1.00  0.00     0.118 C 
ENDROOT
BRANCH   1   2
ATOM      2  N   UNL A   1      35.601  30.631  29.265  1.00  0.00    -0.352 N 
ATOM      3  O   UNL A   1      36.116  29.799  31.291  1.00  0.00    -0.269 OA
ATOM      4  C   UNL A   1      36.481  30.046  30.143  1.00  0.00     0.251 C 
ATOM      5  H   UNL A   1      34.774  30.980  29.671  1.00  0.00     0.163 HD
BRANCH   4   6
ATOM      6  C   UNL A   1      37.856  29.707  29.712  1.00  0.00     0.039 A 
ATOM      7  C   UNL A   1      38.224  29.812  28.370  1.00  0.00     0.014 A 
ATOM      8  C   UNL A   1      38.803  29.310  30.662  1.00  0.00     0.014 A 
ATOM      9  C   UNL A   1      39.476  29.376  27.959  1.00  0.00     0.010 A 
ATOM     10  C   UNL A   1      40.103  28.976  30.259  1.00  0.00     0.010 A 
ATOM     11  C   UNL A   1      40.443  28.984  28.900  1.00  0.00    -0.014 A 
BRANCH  11  12
ATOM     12  C   UNL A   1      41.816  28.687  28.415  1.00  0.00     0.031 A 
ATOM     13  C   UNL A   1      42.904  29.724  28.430  1.00  0.00     0.074 A 
ATOM     14  C   UNL A   1      42.088  27.424  28.028  1.00  0.00     0.049 A 
ATOM     15  N   UNL A   1      44.171  29.583  28.132  1.00  0.00    -0.248 NA
ATOM     16  C   UNL A   1      42.529  31.093  28.817  1.00  0.00     0.031 C 
ATOM     17  C   UNL A   1      41.103  26.338  27.948  1.00  0.00     0.029 A 
ATOM     18  N   UNL A   1      43.267  26.823  27.672  1.00  0.00    -0.354 N 
ATOM     19  C   UNL A   1      44.745  30.839  28.288  1.00  0.00     0.074 A 
ATOM     20  C   UNL A   1      43.680  31.740  28.677  1.00  0.00     0.031 C 
ATOM     21  C   UNL A   1      41.730  25.194  27.643  1.00  0.00     0.029 A 
ATOM     22  C   UNL A   1      43.144  25.473  27.435  1.00  0.00     0.049 A 
ATOM     23  H   UNL A   1      44.119  27.310  27.593  1.00  0.00     0.167 HD
ATOM     24  C   UNL A   1      46.042  31.204  28.132  1.00  0.00     0.031 A 
ATOM     25  C   UNL A   1      44.063  24.557  27.078  1.00  0.00     0.031 A 
ATOM     26  C   UNL A   1      47.094  30.302  27.737  1.00  0.00     0.049 A 
ATOM     27  C   UNL A   1      45.488  24.991  26.908  1.00  0.00     0.074 A 
ATOM     28  C   UNL A   1      48.439  30.576  27.551  1.00  0.00     0.029 A 
ATOM     29  N   UNL A   1      46.925  28.951  27.471  1.00  0.00    -0.354 N 
ATOM     30  N   UNL A   1      46.009  26.184  27.079  1.00  0.00    -0.248 NA
ATOM     31  C   UNL A   1      46.448  23.960  26.500  1.00  0.00     0.031 C 
ATOM     32  C   UNL A   1      49.073  29.401  27.131  1.00  0.00     0.029 A 
ATOM     33  C   UNL A   1      48.135  28.382  27.109  1.00  0.00     0.049 A 
ATOM     34  H   UNL A   1      46.068  28.468  27.529  1.00  0.00     0.167 HD
ATOM     35  C   UNL A   1      47.361  26.045  26.798  1.00  0.00     0.074 A 
ATOM     36  C   UNL A   1      47.583  24.647  26.488  1.00  0.00     0.031 C 
ATOM     37  C   UNL A   1      48.332  26.992  26.785  1.00  0.00     0.031 A 
BRANCH  24  38
ATOM     38  C   UNL A   1      46.398  32.647  28.379  1.00  0.00    -0.014 A 
ATOM     39  C   UNL A   1      46.471  33.566  27.317  1.00  0.00     0.010 A 
ATOM     40  C   UNL A   1      46.601  33.107  29.693  1.00  0.00     0.010 A 
ATOM     41  C   UNL A   1      46.769  34.909  27.560  1.00  0.00     0.020 A 
ATOM     42  C   UNL A   1      46.876  34.456  29.944  1.00  0.00     0.020 A 
ATOM     43  C   UNL A   1      46.971  35.345  28.873  1.00  0.00     0.054 A 
BRANCH  43  44
ATOM     44  S   UNL A   1      47.329  37.101  29.158  1.00  0.00     0.124 S 
ATOM     45  O   UNL A   1      46.814  37.296  30.512  1.00  0.00    -0.237 OA
ATOM     46  O   UNL A   1      48.783  37.157  29.029  1.00  0.00    -0.237 OA
ATOM     47  O   UNL A   1      46.585  37.785  28.104  1.00  0.00    -0.744 OA
ENDBRANCH  43  44
ENDBRANCH  24  38
BRANCH  25  48
ATOM     48  C   UNL A   1      43.646  23.150  26.830  1.00  0.00    -0.014 A 
ATOM     49  C   UNL A   1      43.948  22.506  25.617  1.00  0.00     0.010 A 
ATOM     50  C   UNL A   1      42.952  22.440  27.827  1.00  0.00     0.010 A 
ATOM     51  C   UNL A   1      43.543  21.185  25.400  1.00  0.00     0.020 A 
ATOM     52  C   UNL A   1      42.576  21.111  27.627  1.00  0.00     0.020 A 
ATOM     53  C   UNL A   1      42.860  20.497  26.406  1.00  0.00     0.054 A 
BRANCH  53  54
ATOM     54  S   UNL A   1      42.379  18.771  26.124  1.00  0.00     0.124 S 
ATOM     55  O   UNL A   1      42.598  18.178  27.440  1.00  0.00    -0.237 OA
ATOM     56  O   UNL A   1      40.984  18.893  25.708  1.00  0.00    -0.237 OA
ATOM     57  O   UNL A   1      43.296  18.329  25.075  1.00  0.00    -0.744 OA
ENDBRANCH  53  54
ENDBRANCH  25  48
BRANCH  37  58
ATOM     58  C   UNL A   1      49.720  26.531  26.433  1.00  0.00    -0.014 A 
ATOM     59  C   UNL A   1      50.203  26.632  25.115  1.00  0.00     0.010 A 
ATOM     60  C   UNL A   1      50.552  25.995  27.431  1.00  0.00     0.010 A 
ATOM     61  C   UNL A   1      51.476  26.155  24.792  1.00  0.00     0.020 A 
ATOM     62  C   UNL A   1      51.836  25.544  27.118  1.00  0.00     0.020 A 
ATOM     63  C   UNL A   1      52.282  25.607  25.795  1.00  0.00     0.054 A 
BRANCH  63  64
ATOM     64  S   UNL A   1      53.932  24.999  25.355  1.00  0.00     0.124 S 
ATOM     65  O   UNL A   1      54.650  25.128  26.620  1.00  0.00    -0.237 OA
ATOM     66  O   UNL A   1      53.665  23.630  24.921  1.00  0.00    -0.237 OA
ATOM     67  O   UNL A   1      54.364  25.908  24.296  1.00  0.00    -0.744 OA
ENDBRANCH  63  64
ENDBRANCH  37  58
ENDBRANCH  11  12
ENDBRANCH   4   6
ENDBRANCH   1   2
BRANCH   1  68
ATOM     68  C   UNL A   1      34.756  29.904  27.058  1.00  0.00     0.042 C 
BRANCH  68  69
ATOM     69  C   UNL A   1      33.318  30.407  27.050  1.00  0.00     0.117 C 
BRANCH  69  70
ATOM     70  N   UNL A   1      32.398  29.466  27.661  1.00  0.00    -0.356 N 
ATOM     71  C   UNL A   1      31.880  28.287  27.228  1.00  0.00     0.227 C 
ATOM     72  H   UNL A   1      32.092  29.732  28.558  1.00  0.00     0.163 HD
ATOM     73  O   UNL A   1      31.191  27.661  28.043  1.00  0.00    -0.274 OA
BRANCH  71  74
ATOM     74  C   UNL A   1      32.091  27.712  25.821  1.00  0.00     0.103 C 
ATOM     75  C   UNL A   1      31.047  26.758  25.328  1.00  0.00    -0.016 C 
ATOM     76  C   UNL A   1      33.404  26.961  25.590  1.00  0.00     0.046 C 
ATOM     77  C   UNL A   1      31.573  25.561  25.036  1.00  0.00    -0.006 C 
ATOM     78  C   UNL A   1      33.023  25.487  25.388  1.00  0.00     0.104 C 
BRANCH  78  79
ATOM     79  N   UNL A   1      33.785  24.905  24.321  1.00  0.00    -0.364 N 
ATOM     80  H   UNL A   1      33.604  25.138  23.381  1.00  0.00     0.162 HD
BRANCH  79  81
ATOM     81  C   UNL A   1      34.781  24.005  24.652  1.00  0.00     0.127 A 
ATOM     82  C   UNL A   1      34.686  22.698  24.194  1.00  0.00     0.047 A 
ATOM     83  N   UNL A   1      35.869  24.451  25.315  1.00  0.00    -0.231 NA
ATOM     84  C   UNL A   1      35.746  21.823  24.412  1.00  0.00     0.014 A 
ATOM     85  C   UNL A   1      36.880  23.596  25.566  1.00  0.00     0.073 A 
ATOM     86  C   UNL A   1      36.870  22.263  25.113  1.00  0.00     0.000 A 
ATOM     87  C   UNL A   1      37.982  24.029  26.292  1.00  0.00     0.029 A 
ATOM     88  C   UNL A   1      37.963  21.415  25.366  1.00  0.00     0.010 A 
ATOM     89  C   UNL A   1      39.065  23.185  26.563  1.00  0.00     0.002 A 
ATOM     90  C   UNL A   1      39.058  21.878  26.091  1.00  0.00     0.001 A 
ENDBRANCH  79  81
ENDBRANCH  78  79
ENDBRANCH  71  74
ENDBRANCH  69  70
ENDBRANCH  68  69
ENDBRANCH   1  68
TORSDOF 15
ENDMDL
MODEL 3
REMARK VINA RESULT:     -11.0      0.874      8.368
REMARK SMILES O=C(NCCCNC(=O)[C@@H]1C=C[C@@H](Nc2ccc3ccccc3n2)C1)c1ccc(-c2c3nc(c(-c4ccc(S(=O)(=O)[O-])cc4)c4ccc([nH]4)c(-c4ccc(S(=O)(=O)[O-])cc4)c4nc(c(-c5ccc(S(=O)(=O)[O-])cc5)c5ccc2[nH]5)C=C4)C=C3)cc1
REMARK SMILES IDX 4 1 3 2 1 3 2 4 26 6 27 7 85 8 28 9 84 10 29 11 30 12 31 13
REMARK SMILES IDX 78 14 32 15 83 16 77 17 79 18 33 19 82 20 76 21 75 22 34 24
REMARK SMILES IDX 64 25 45 26 63 27 46 28 49 29 62 30 80 31 47 32 48 33 61 35
REMARK SMILES IDX 81 36 50 37 35 38 36 39 44 40 37 41 43 42 38 43 39 44 40 45
REMARK SMILES IDX 41 46 42 47 65 48 66 49 74 50 67 51 73 52 68 53 69 54 70 55
REMARK SMILES IDX 71 56 72 57 51 58 52 59 60 60 53 61 59 62 54 63 55 64 56 65
REMARK SMILES IDX 57 66 58 67 5 68 6 69 7 70 8 71 9 73 10 74 11 75 25 76 12 77
REMARK SMILES IDX 13 78 14 79 15 81 16 82 24 83 17 84 23 85 18 86 22 87 19 88
REMARK SMILES IDX 21 89 20 90
REMARK H PARENT 3 5 79 23 49 34 7 72 14 80
REMARK Flexibility Score: inf
ROOT
ATOM      1  C   UNL A   1      34.610  32.469  28.971  1.00  0.00     0.118 C 
ENDROOT
BRANCH   1   2
ATOM      2  N   UNL A   1      33.977  31.294  28.387  1.00  0.00    -0.352 N 
ATOM      3  O   UNL A   1      33.865  29.341  27.274  1.00  0.00    -0.269 OA
ATOM      4  C   UNL A   1      34.545  30.129  27.929  1.00  0.00     0.251 C 
ATOM      5  H   UNL A   1      32.997  31.341  28.307  1.00  0.00     0.163 HD
BRANCH   4   6
ATOM      6  C   UNL A   1      35.966  29.825  28.214  1.00  0.00     0.039 A 
ATOM      7  C   UNL A   1      36.949  30.068  27.254  1.00  0.00     0.014 A 
ATOM      8  C   UNL A   1      36.329  29.322  29.468  1.00  0.00     0.014 A 
ATOM      9  C   UNL A   1      38.257  29.667  27.486  1.00  0.00     0.010 A 
ATOM     10  C   UNL A   1      37.670  29.022  29.741  1.00  0.00     0.010 A 
ATOM     11  C   UNL A   1      38.643  29.170  28.742  1.00  0.00    -0.014 A 
BRANCH  11  12
ATOM     12  C   UNL A   1      40.086  28.913  28.984  1.00  0.00     0.031 A 
ATOM     13  C   UNL A   1      40.958  29.906  29.701  1.00  0.00     0.074 A 
ATOM     14  C   UNL A   1      40.586  27.719  28.607  1.00  0.00     0.049 A 
ATOM     15  N   UNL A   1      42.208  29.778  30.071  1.00  0.00    -0.248 NA
ATOM     16  C   UNL A   1      40.364  31.208  30.041  1.00  0.00     0.031 C 
ATOM     17  C   UNL A   1      39.838  26.686  27.880  1.00  0.00     0.029 A 
ATOM     18  N   UNL A   1      41.814  27.148  28.815  1.00  0.00    -0.354 N 
ATOM     19  C   UNL A   1      42.553  30.978  30.681  1.00  0.00     0.074 A 
ATOM     20  C   UNL A   1      41.390  31.837  30.602  1.00  0.00     0.031 C 
ATOM     21  C   UNL A   1      40.595  25.586  27.771  1.00  0.00     0.029 A 
ATOM     22  C   UNL A   1      41.903  25.855  28.353  1.00  0.00     0.049 A 
ATOM     23  H   UNL A   1      42.561  27.617  29.253  1.00  0.00     0.167 HD
ATOM     24  C   UNL A   1      43.728  31.327  31.260  1.00  0.00     0.031 A 
ATOM     25  C   UNL A   1      42.925  24.980  28.382  1.00  0.00     0.031 A 
ATOM     26  C   UNL A   1      44.884  30.468  31.326  1.00  0.00     0.049 A 
ATOM     27  C   UNL A   1      44.213  25.396  29.026  1.00  0.00     0.074 A 
ATOM     28  C   UNL A   1      46.121  30.731  31.892  1.00  0.00     0.029 A 
ATOM     29  N   UNL A   1      44.948  29.180  30.815  1.00  0.00    -0.354 N 
ATOM     30  N   UNL A   1      44.510  26.533  29.611  1.00  0.00    -0.248 NA
ATOM     31  C   UNL A   1      45.304  24.415  29.015  1.00  0.00     0.031 C 
ATOM     32  C   UNL A   1      46.944  29.618  31.684  1.00  0.00     0.029 A 
ATOM     33  C   UNL A   1      46.204  28.641  31.040  1.00  0.00     0.049 A 
ATOM     34  H   UNL A   1      44.207  28.718  30.359  1.00  0.00     0.167 HD
ATOM     35  C   UNL A   1      45.824  26.403  30.038  1.00  0.00     0.074 A 
ATOM     36  C   UNL A   1      46.249  25.063  29.682  1.00  0.00     0.031 C 
ATOM     37  C   UNL A   1      46.614  27.313  30.660  1.00  0.00     0.031 A 
BRANCH  24  38
ATOM     38  C   UNL A   1      43.831  32.704  31.864  1.00  0.00    -0.014 A 
ATOM     39  C   UNL A   1      43.507  32.928  33.214  1.00  0.00     0.010 A 
ATOM     40  C   UNL A   1      44.316  33.776  31.092  1.00  0.00     0.010 A 
ATOM     41  C   UNL A   1      43.638  34.202  33.773  1.00  0.00     0.020 A 
ATOM     42  C   UNL A   1      44.472  35.048  31.654  1.00  0.00     0.020 A 
ATOM     43  C   UNL A   1      44.119  35.254  32.988  1.00  0.00     0.054 A 
BRANCH  43  44
ATOM     44  S   UNL A   1      44.304  36.890  33.750  1.00  0.00     0.124 S 
ATOM     45  O   UNL A   1      44.365  36.554  35.171  1.00  0.00    -0.237 OA
ATOM     46  O   UNL A   1      45.552  37.377  33.168  1.00  0.00    -0.237 OA
ATOM     47  O   UNL A   1      43.102  37.608  33.331  1.00  0.00    -0.744 OA
ENDBRANCH  43  44
ENDBRANCH  24  38
BRANCH  25  48
ATOM     48  C   UNL A   1      42.769  23.641  27.752  1.00  0.00    -0.014 A 
ATOM     49  C   UNL A   1      42.998  23.454  26.378  1.00  0.00     0.010 A 
ATOM     50  C   UNL A   1      42.405  22.535  28.543  1.00  0.00     0.010 A 
ATOM     51  C   UNL A   1      42.841  22.188  25.803  1.00  0.00     0.020 A 
ATOM     52  C   UNL A   1      42.281  21.264  27.978  1.00  0.00     0.020 A 
ATOM     53  C   UNL A   1      42.484  21.102  26.607  1.00  0.00     0.054 A 
BRANCH  53  54
ATOM     54  S   UNL A   1      42.326  19.460  25.853  1.00  0.00     0.124 S 
ATOM     55  O   UNL A   1      40.930  19.455  25.429  1.00  0.00    -0.237 OA
ATOM     56  O   UNL A   1      43.315  19.507  24.779  1.00  0.00    -0.237 OA
ATOM     57  O   UNL A   1      42.653  18.550  26.949  1.00  0.00    -0.744 OA
ENDBRANCH  53  54
ENDBRANCH  25  48
BRANCH  37  58
ATOM     58  C   UNL A   1      48.013  26.874  30.998  1.00  0.00    -0.014 A 
ATOM     59  C   UNL A   1      48.315  26.324  32.257  1.00  0.00     0.010 A 
ATOM     60  C   UNL A   1      49.036  27.010  30.043  1.00  0.00     0.010 A 
ATOM     61  C   UNL A   1      49.628  25.967  32.574  1.00  0.00     0.020 A 
ATOM     62  C   UNL A   1      50.345  26.626  30.346  1.00  0.00     0.020 A 
ATOM     63  C   UNL A   1      50.636  26.127  31.618  1.00  0.00     0.054 A 
BRANCH  63  64
ATOM     64  S   UNL A   1      52.332  25.651  32.049  1.00  0.00     0.124 S 
ATOM     65  O   UNL A   1      53.059  25.986  30.828  1.00  0.00    -0.237 OA
ATOM     66  O   UNL A   1      52.620  26.498  33.205  1.00  0.00    -0.237 OA
ATOM     67  O   UNL A   1      52.226  24.224  32.342  1.00  0.00    -0.744 OA
ENDBRANCH  63  64
ENDBRANCH  37  58
ENDBRANCH  11  12
ENDBRANCH   4   6
ENDBRANCH   1   2
BRANCH   1  68
ATOM     68  C   UNL A   1      34.422  33.711  28.112  1.00  0.00     0.042 C 
BRANCH  68  69
ATOM     69  C   UNL A   1      33.057  34.364  28.286  1.00  0.00     0.117 C 
BRANCH  69  70
ATOM     70  N   UNL A   1      33.154  35.771  28.625  1.00  0.00    -0.356 N 
ATOM     71  C   UNL A   1      33.201  36.419  29.818  1.00  0.00     0.227 C 
ATOM     72  H   UNL A   1      33.195  36.369  27.843  1.00  0.00     0.163 HD
ATOM     73  O   UNL A   1      33.394  37.641  29.769  1.00  0.00    -0.274 OA
BRANCH  71  74
ATOM     74  C   UNL A   1      33.025  35.738  31.182  1.00  0.00     0.103 C 
ATOM     75  C   UNL A   1      32.801  36.644  32.354  1.00  0.00    -0.016 C 
ATOM     76  C   UNL A   1      34.175  34.837  31.637  1.00  0.00     0.046 C 
ATOM     77  C   UNL A   1      33.751  36.487  33.285  1.00  0.00    -0.006 C 
ATOM     78  C   UNL A   1      34.817  35.540  32.843  1.00  0.00     0.104 C 
BRANCH  78  79
ATOM     79  N   UNL A   1      35.132  34.596  33.876  1.00  0.00    -0.364 N 
ATOM     80  H   UNL A   1      34.517  34.445  34.631  1.00  0.00     0.162 HD
BRANCH  79  81
ATOM     81  C   UNL A   1      36.324  33.903  33.779  1.00  0.00     0.127 A 
ATOM     82  C   UNL A   1      37.511  34.565  34.061  1.00  0.00     0.047 A 
ATOM     83  N   UNL A   1      36.291  32.578  33.524  1.00  0.00    -0.231 NA
ATOM     84  C   UNL A   1      38.701  33.845  34.094  1.00  0.00     0.014 A 
ATOM     85  C   UNL A   1      37.445  31.883  33.513  1.00  0.00     0.073 A 
ATOM     86  C   UNL A   1      38.685  32.477  33.813  1.00  0.00     0.000 A 
ATOM     87  C   UNL A   1      37.430  30.529  33.201  1.00  0.00     0.029 A 
ATOM     88  C   UNL A   1      39.862  31.706  33.825  1.00  0.00     0.010 A 
ATOM     89  C   UNL A   1      38.599  29.760  33.193  1.00  0.00     0.002 A 
ATOM     90  C   UNL A   1      39.816  30.349  33.515  1.00  0.00     0.001 A 
ENDBRANCH  79  81
ENDBRANCH  78  79
ENDBRANCH  71  74
ENDBRANCH  69  70
ENDBRANCH  68  69
ENDBRANCH   1  68
TORSDOF 15
ENDMDL
