MODEL 1
REMARK VINA RESULT:     -10.5      0.000      0.000
REMARK SMILES COc1ccccc1-c1nnc(SCCC(=O)NCCCNC(=O)c2ccc(-c3c4nc(c(-c5ccc(S(=O)(=O)[O-])cc5)c5ccc([nH]5)c(-c5ccc(S(=O)(=O)[O-])cc5)c5nc(c(-c6ccc(S(=O)(=O)[O-])cc6)c6ccc3[nH]6)C=C5)C=C4)cc2)o1
REMARK SMILES IDX 19 1 18 2 16 3 17 4 15 6 14 7 13 8 12 9 9 10 10 11 85 12
REMARK SMILES IDX 11 13 8 14 3 15 4 16 5 17 7 18 6 19 2 20 1 21 20 22 21 23
REMARK SMILES IDX 22 24 23 25 24 27 25 28 26 29 84 30 27 31 83 32 28 33 29 34
REMARK SMILES IDX 30 35 77 36 31 37 82 38 76 39 78 40 32 41 81 42 75 43 74 44
REMARK SMILES IDX 33 46 63 47 44 48 62 49 45 50 48 51 61 52 79 53 46 54 47 55
REMARK SMILES IDX 60 57 80 58 49 59 34 60 35 61 43 62 36 63 42 64 37 65 38 66
REMARK SMILES IDX 39 67 40 68 41 69 64 70 65 71 73 72 66 73 72 74 67 75 68 76
REMARK SMILES IDX 69 77 70 78 71 79 50 80 51 81 59 82 52 83 58 84 53 85 54 86
REMARK SMILES IDX 55 87 56 88 57 89
REMARK H PARENT 18 5 22 26 78 45 48 56
REMARK Flexibility Score: inf
ROOT
ATOM      1  C   UNL A   1      31.792  29.286  25.739  1.00  0.00     0.117 C 
ENDROOT
BRANCH   1   2
ATOM      2  N   UNL A   1      31.498  29.685  24.372  1.00  0.00    -0.356 N 
ATOM      3  C   UNL A   1      30.648  29.155  23.453  1.00  0.00     0.220 C 
ATOM      4  O   UNL A   1      30.254  29.852  22.517  1.00  0.00    -0.275 OA
ATOM      5  H   UNL A   1      32.000  30.472  24.060  1.00  0.00     0.163 HD
BRANCH   3   6
ATOM      6  C   UNL A   1      30.270  27.707  23.518  1.00  0.00     0.111 C 
BRANCH   6   7
ATOM      7  C   UNL A   1      30.952  26.956  22.375  1.00  0.00     0.090 C 
BRANCH   7   8
ATOM      8  S   UNL A   1      32.753  27.107  22.330  1.00  0.00    -0.065 SA
BRANCH   8   9
ATOM      9  C   UNL A   1      33.385  25.484  22.404  1.00  0.00     0.276 A 
ATOM     10  C   UNL A   1      34.270  23.617  22.963  1.00  0.00     0.252 A 
ATOM     11  N   UNL A   1      33.743  23.443  21.768  1.00  0.00    -0.107 NA
ATOM     12  O   UNL A   1      34.100  24.903  23.428  1.00  0.00    -0.411 OA
ATOM     13  N   UNL A   1      33.159  24.636  21.420  1.00  0.00    -0.101 NA
BRANCH  10  14
ATOM     14  C   UNL A   1      35.039  22.651  23.741  1.00  0.00     0.081 A 
ATOM     15  C   UNL A   1      34.487  21.663  24.570  1.00  0.00     0.131 A 
ATOM     16  C   UNL A   1      35.322  20.833  25.335  1.00  0.00     0.047 A 
ATOM     17  C   UNL A   1      36.705  20.880  25.179  1.00  0.00     0.004 A 
ATOM     18  C   UNL A   1      36.438  22.657  23.573  1.00  0.00     0.018 A 
ATOM     19  C   UNL A   1      37.262  21.771  24.272  1.00  0.00     0.001 A 
BRANCH  15  20
ATOM     20  O   UNL A   1      33.128  21.492  24.633  1.00  0.00    -0.496 OA
ATOM     21  C   UNL A   1      32.701  20.280  23.998  1.00  0.00     0.278 C 
ENDBRANCH  15  20
ENDBRANCH  10  14
ENDBRANCH   8   9
ENDBRANCH   7   8
ENDBRANCH   6   7
ENDBRANCH   3   6
ENDBRANCH   1   2
BRANCH   1  22
ATOM     22  C   UNL A   1      32.967  28.324  25.899  1.00  0.00     0.042 C 
BRANCH  22  23
ATOM     23  C   UNL A   1      33.921  28.617  27.057  1.00  0.00     0.118 C 
BRANCH  23  24
ATOM     24  N   UNL A   1      33.705  29.908  27.687  1.00  0.00    -0.352 N 
ATOM     25  C   UNL A   1      34.590  30.685  28.396  1.00  0.00     0.251 C 
ATOM     26  H   UNL A   1      32.798  30.279  27.591  1.00  0.00     0.163 HD
ATOM     27  O   UNL A   1      34.191  31.742  28.888  1.00  0.00    -0.269 OA
BRANCH  25  28
ATOM     28  C   UNL A   1      35.992  30.256  28.622  1.00  0.00     0.039 A 
ATOM     29  C   UNL A   1      36.891  30.365  27.555  1.00  0.00     0.014 A 
ATOM     30  C   UNL A   1      36.429  29.723  29.839  1.00  0.00     0.014 A 
ATOM     31  C   UNL A   1      38.229  29.993  27.721  1.00  0.00     0.010 A 
ATOM     32  C   UNL A   1      37.780  29.394  30.017  1.00  0.00     0.010 A 
ATOM     33  C   UNL A   1      38.697  29.528  28.961  1.00  0.00    -0.014 A 
BRANCH  33  34
ATOM     34  C   UNL A   1      40.142  29.212  29.148  1.00  0.00     0.031 A 
ATOM     35  C   UNL A   1      40.697  27.859  28.784  1.00  0.00     0.074 A 
ATOM     36  C   UNL A   1      40.970  30.151  29.651  1.00  0.00     0.049 A 
ATOM     37  N   UNL A   1      41.934  27.433  28.841  1.00  0.00    -0.248 NA
ATOM     38  C   UNL A   1      39.739  26.854  28.301  1.00  0.00     0.031 C 
ATOM     39  C   UNL A   1      40.566  31.495  30.067  1.00  0.00     0.029 A 
ATOM     40  N   UNL A   1      42.323  30.123  29.893  1.00  0.00    -0.354 N 
ATOM     41  C   UNL A   1      41.906  26.113  28.404  1.00  0.00     0.074 A 
ATOM     42  C   UNL A   1      40.520  25.796  28.126  1.00  0.00     0.031 C 
ATOM     43  C   UNL A   1      41.649  32.171  30.485  1.00  0.00     0.029 A 
ATOM     44  C   UNL A   1      42.819  31.301  30.405  1.00  0.00     0.049 A 
ATOM     45  H   UNL A   1      42.886  29.335  29.716  1.00  0.00     0.167 HD
ATOM     46  C   UNL A   1      42.936  25.247  28.235  1.00  0.00     0.031 A 
ATOM     47  C   UNL A   1      44.068  31.645  30.777  1.00  0.00     0.031 A 
ATOM     48  C   UNL A   1      44.315  25.555  28.523  1.00  0.00     0.049 A 
ATOM     49  C   UNL A   1      45.188  30.653  30.619  1.00  0.00     0.074 A 
ATOM     50  C   UNL A   1      45.430  24.753  28.342  1.00  0.00     0.029 A 
ATOM     51  N   UNL A   1      44.768  26.749  29.065  1.00  0.00    -0.354 N 
ATOM     52  N   UNL A   1      45.150  29.434  30.134  1.00  0.00    -0.248 NA
ATOM     53  C   UNL A   1      46.527  31.087  31.046  1.00  0.00     0.031 C 
ATOM     54  C   UNL A   1      46.547  25.436  28.833  1.00  0.00     0.029 A 
ATOM     55  C   UNL A   1      46.141  26.692  29.253  1.00  0.00     0.049 A 
ATOM     56  H   UNL A   1      44.200  27.522  29.282  1.00  0.00     0.167 HD
ATOM     57  C   UNL A   1      46.460  28.969  30.173  1.00  0.00     0.074 A 
ATOM     58  C   UNL A   1      47.270  30.041  30.711  1.00  0.00     0.031 C 
ATOM     59  C   UNL A   1      46.946  27.760  29.793  1.00  0.00     0.031 A 
BRANCH  46  60
ATOM     60  C   UNL A   1      42.612  23.865  27.725  1.00  0.00    -0.014 A 
ATOM     61  C   UNL A   1      42.733  23.545  26.361  1.00  0.00     0.010 A 
ATOM     62  C   UNL A   1      42.237  22.856  28.632  1.00  0.00     0.010 A 
ATOM     63  C   UNL A   1      42.443  22.254  25.907  1.00  0.00     0.020 A 
ATOM     64  C   UNL A   1      41.974  21.556  28.186  1.00  0.00     0.020 A 
ATOM     65  C   UNL A   1      42.062  21.268  26.823  1.00  0.00     0.054 A 
BRANCH  65  66
ATOM     66  S   UNL A   1      41.708  19.599  26.207  1.00  0.00     0.124 S 
ATOM     67  O   UNL A   1      40.262  19.651  26.011  1.00  0.00    -0.237 OA
ATOM     68  O   UNL A   1      42.506  19.534  24.985  1.00  0.00    -0.237 OA
ATOM     69  O   UNL A   1      42.158  18.726  27.288  1.00  0.00    -0.744 OA
ENDBRANCH  65  66
ENDBRANCH  46  60
BRANCH  47  70
ATOM     70  C   UNL A   1      44.329  33.002  31.336  1.00  0.00    -0.014 A 
ATOM     71  C   UNL A   1      44.676  34.073  30.494  1.00  0.00     0.010 A 
ATOM     72  C   UNL A   1      44.230  33.229  32.722  1.00  0.00     0.010 A 
ATOM     73  C   UNL A   1      44.935  35.340  31.027  1.00  0.00     0.020 A 
ATOM     74  C   UNL A   1      44.457  34.501  33.255  1.00  0.00     0.020 A 
ATOM     75  C   UNL A   1      44.821  35.546  32.405  1.00  0.00     0.054 A 
BRANCH  75  76
ATOM     76  S   UNL A   1      45.111  37.209  33.068  1.00  0.00     0.124 S 
ATOM     77  O   UNL A   1      45.962  36.933  34.222  1.00  0.00    -0.237 OA
ATOM     78  O   UNL A   1      45.763  37.885  31.949  1.00  0.00    -0.237 OA
ATOM     79  O   UNL A   1      43.769  37.694  33.382  1.00  0.00    -0.744 OA
ENDBRANCH  75  76
ENDBRANCH  47  70
BRANCH  59  80
ATOM     80  C   UNL A   1      48.432  27.536  29.909  1.00  0.00    -0.014 A 
ATOM     81  C   UNL A   1      48.992  26.885  31.024  1.00  0.00     0.010 A 
ATOM     82  C   UNL A   1      49.279  27.938  28.858  1.00  0.00     0.010 A 
ATOM     83  C   UNL A   1      50.371  26.669  31.099  1.00  0.00     0.020 A 
ATOM     84  C   UNL A   1      50.654  27.696  28.916  1.00  0.00     0.020 A 
ATOM     85  C   UNL A   1      51.194  27.075  30.043  1.00  0.00     0.054 A 
BRANCH  85  86
ATOM     86  S   UNL A   1      52.975  26.743  30.145  1.00  0.00     0.124 S 
ATOM     87  O   UNL A   1      53.270  26.247  28.803  1.00  0.00    -0.237 OA
ATOM     88  O   UNL A   1      53.528  28.056  30.465  1.00  0.00    -0.237 OA
ATOM     89  O   UNL A   1      53.084  25.751  31.212  1.00  0.00    -0.744 OA
ENDBRANCH  85  86
ENDBRANCH  59  80
ENDBRANCH  33  34
ENDBRANCH  25  28
ENDBRANCH  23  24
ENDBRANCH  22  23
ENDBRANCH   1  22
TORSDOF 18
ENDMDL
MODEL 2
REMARK VINA RESULT:     -10.4      1.629      8.762
REMARK SMILES COc1ccccc1-c1nnc(SCCC(=O)NCCCNC(=O)c2ccc(-c3c4nc(c(-c5ccc(S(=O)(=O)[O-])cc5)c5ccc([nH]5)c(-c5ccc(S(=O)(=O)[O-])cc5)c5nc(c(-c6ccc(S(=O)(=O)[O-])cc6)c6ccc3[nH]6)C=C5)C=C4)cc2)o1
REMARK SMILES IDX 19 1 18 2 16 3 17 4 15 6 14 7 13 8 12 9 9 10 10 11 85 12
REMARK SMILES IDX 11 13 8 14 3 15 4 16 5 17 7 18 6 19 2 20 1 21 20 22 21 23
REMARK SMILES IDX 22 24 23 25 24 27 25 28 26 29 84 30 27 31 83 32 28 33 29 34
REMARK SMILES IDX 30 35 77 36 31 37 82 38 76 39 78 40 32 41 81 42 75 43 74 44
REMARK SMILES IDX 33 46 63 47 44 48 62 49 45 50 48 51 61 52 79 53 46 54 47 55
REMARK SMILES IDX 60 57 80 58 49 59 34 60 35 61 43 62 36 63 42 64 37 65 38 66
REMARK SMILES IDX 39 67 40 68 41 69 64 70 65 71 73 72 66 73 72 74 67 75 68 76
REMARK SMILES IDX 69 77 70 78 71 79 50 80 51 81 59 82 52 83 58 84 53 85 54 86
REMARK SMILES IDX 55 87 56 88 57 89
REMARK H PARENT 18 5 22 26 78 45 48 56
REMARK Flexibility Score: inf
ROOT
ATOM      1  C   UNL A   1      32.747  25.893  26.453  1.00  0.00     0.117 C 
ENDROOT
BRANCH   1   2
ATOM      2  N   UNL A   1      31.540  25.091  26.555  1.00  0.00    -0.356 N 
ATOM      3  C   UNL A   1      31.364  23.782  26.874  1.00  0.00     0.220 C 
ATOM      4  O   UNL A   1      30.269  23.398  27.286  1.00  0.00    -0.275 OA
ATOM      5  H   UNL A   1      30.707  25.579  26.357  1.00  0.00     0.163 HD
BRANCH   3   6
ATOM      6  C   UNL A   1      32.462  22.790  26.634  1.00  0.00     0.111 C 
BRANCH   6   7
ATOM      7  C   UNL A   1      32.012  21.786  25.576  1.00  0.00     0.090 C 
BRANCH   7   8
ATOM      8  S   UNL A   1      33.083  21.677  24.123  1.00  0.00    -0.065 SA
BRANCH   8   9
ATOM      9  C   UNL A   1      33.137  23.276  23.431  1.00  0.00     0.276 A 
ATOM     10  C   UNL A   1      32.843  25.332  22.913  1.00  0.00     0.252 A 
ATOM     11  N   UNL A   1      33.903  24.922  22.247  1.00  0.00    -0.107 NA
ATOM     12  O   UNL A   1      32.285  24.330  23.677  1.00  0.00    -0.411 OA
ATOM     13  N   UNL A   1      34.101  23.609  22.596  1.00  0.00    -0.101 NA
BRANCH  10  14
ATOM     14  C   UNL A   1      32.208  26.644  22.845  1.00  0.00     0.081 A 
ATOM     15  C   UNL A   1      30.879  26.915  23.199  1.00  0.00     0.131 A 
ATOM     16  C   UNL A   1      30.347  28.203  23.021  1.00  0.00     0.047 A 
ATOM     17  C   UNL A   1      31.163  29.260  22.627  1.00  0.00     0.004 A 
ATOM     18  C   UNL A   1      33.023  27.735  22.481  1.00  0.00     0.018 A 
ATOM     19  C   UNL A   1      32.511  29.032  22.387  1.00  0.00     0.001 A 
BRANCH  15  20
ATOM     20  O   UNL A   1      30.089  25.929  23.731  1.00  0.00    -0.496 OA
ATOM     21  C   UNL A   1      28.747  26.373  23.969  1.00  0.00     0.278 C 
ENDBRANCH  15  20
ENDBRANCH  10  14
ENDBRANCH   8   9
ENDBRANCH   7   8
ENDBRANCH   6   7
ENDBRANCH   3   6
ENDBRANCH   1   2
BRANCH   1  22
ATOM     22  C   UNL A   1      32.529  27.406  26.465  1.00  0.00     0.042 C 
BRANCH  22  23
ATOM     23  C   UNL A   1      33.791  28.264  26.547  1.00  0.00     0.118 C 
BRANCH  23  24
ATOM     24  N   UNL A   1      33.566  29.595  27.085  1.00  0.00    -0.352 N 
ATOM     25  C   UNL A   1      34.421  30.394  27.805  1.00  0.00     0.251 C 
ATOM     26  H   UNL A   1      32.676  29.977  26.907  1.00  0.00     0.163 HD
ATOM     27  O   UNL A   1      34.017  31.486  28.207  1.00  0.00    -0.269 OA
BRANCH  25  28
ATOM     28  C   UNL A   1      35.795  29.950  28.148  1.00  0.00     0.039 A 
ATOM     29  C   UNL A   1      36.788  30.078  27.171  1.00  0.00     0.014 A 
ATOM     30  C   UNL A   1      36.116  29.387  29.388  1.00  0.00     0.014 A 
ATOM     31  C   UNL A   1      38.104  29.693  27.451  1.00  0.00     0.010 A 
ATOM     32  C   UNL A   1      37.444  29.045  29.681  1.00  0.00     0.010 A 
ATOM     33  C   UNL A   1      38.454  29.197  28.717  1.00  0.00    -0.014 A 
BRANCH  33  34
ATOM     34  C   UNL A   1      39.874  28.867  29.028  1.00  0.00     0.031 A 
ATOM     35  C   UNL A   1      40.777  29.868  29.699  1.00  0.00     0.074 A 
ATOM     36  C   UNL A   1      40.362  27.651  28.703  1.00  0.00     0.049 A 
ATOM     37  N   UNL A   1      42.023  29.730  30.081  1.00  0.00    -0.248 NA
ATOM     38  C   UNL A   1      40.213  31.198  29.972  1.00  0.00     0.031 C 
ATOM     39  C   UNL A   1      39.608  26.592  28.030  1.00  0.00     0.029 A 
ATOM     40  N   UNL A   1      41.605  27.098  28.900  1.00  0.00    -0.354 N 
ATOM     41  C   UNL A   1      42.392  30.950  30.636  1.00  0.00     0.074 A 
ATOM     42  C   UNL A   1      41.250  31.831  30.502  1.00  0.00     0.031 C 
ATOM     43  C   UNL A   1      40.392  25.510  27.896  1.00  0.00     0.029 A 
ATOM     44  C   UNL A   1      41.716  25.806  28.436  1.00  0.00     0.049 A 
ATOM     45  H   UNL A   1      42.347  27.579  29.333  1.00  0.00     0.167 HD
ATOM     46  C   UNL A   1      43.567  31.303  31.216  1.00  0.00     0.031 A 
ATOM     47  C   UNL A   1      42.762  24.955  28.436  1.00  0.00     0.031 A 
ATOM     48  C   UNL A   1      44.709  30.433  31.339  1.00  0.00     0.049 A 
ATOM     49  C   UNL A   1      44.068  25.385  29.048  1.00  0.00     0.074 A 
ATOM     50  C   UNL A   1      45.925  30.693  31.950  1.00  0.00     0.029 A 
ATOM     51  N   UNL A   1      44.788  29.144  30.832  1.00  0.00    -0.354 N 
ATOM     52  N   UNL A   1      44.371  26.519  29.633  1.00  0.00    -0.248 NA
ATOM     53  C   UNL A   1      45.171  24.413  29.013  1.00  0.00     0.031 C 
ATOM     54  C   UNL A   1      46.760  29.588  31.756  1.00  0.00     0.029 A 
ATOM     55  C   UNL A   1      46.041  28.609  31.089  1.00  0.00     0.049 A 
ATOM     56  H   UNL A   1      44.060  28.678  30.361  1.00  0.00     0.167 HD
ATOM     57  C   UNL A   1      45.689  26.386  30.059  1.00  0.00     0.074 A 
ATOM     58  C   UNL A   1      46.119  25.057  29.680  1.00  0.00     0.031 C 
ATOM     59  C   UNL A   1      46.469  27.286  30.708  1.00  0.00     0.031 A 
BRANCH  46  60
ATOM     60  C   UNL A   1      43.686  32.707  31.755  1.00  0.00    -0.014 A 
ATOM     61  C   UNL A   1      44.313  33.723  31.010  1.00  0.00     0.010 A 
ATOM     62  C   UNL A   1      43.111  33.029  32.999  1.00  0.00     0.010 A 
ATOM     63  C   UNL A   1      44.401  35.022  31.518  1.00  0.00     0.020 A 
ATOM     64  C   UNL A   1      43.171  34.335  33.497  1.00  0.00     0.020 A 
ATOM     65  C   UNL A   1      43.832  35.320  32.761  1.00  0.00     0.054 A 
BRANCH  65  66
ATOM     66  S   UNL A   1      43.948  37.019  33.385  1.00  0.00     0.124 S 
ATOM     67  O   UNL A   1      45.306  37.050  33.922  1.00  0.00    -0.237 OA
ATOM     68  O   UNL A   1      43.730  37.818  32.182  1.00  0.00    -0.237 OA
ATOM     69  O   UNL A   1      42.884  37.097  34.382  1.00  0.00    -0.744 OA
ENDBRANCH  65  66
ENDBRANCH  46  60
BRANCH  47  70
ATOM     70  C   UNL A   1      42.616  23.600  27.833  1.00  0.00    -0.014 A 
ATOM     71  C   UNL A   1      42.965  23.366  26.492  1.00  0.00     0.010 A 
ATOM     72  C   UNL A   1      42.126  22.530  28.605  1.00  0.00     0.010 A 
ATOM     73  C   UNL A   1      42.811  22.096  25.928  1.00  0.00     0.020 A 
ATOM     74  C   UNL A   1      41.999  21.251  28.055  1.00  0.00     0.020 A 
ATOM     75  C   UNL A   1      42.332  21.044  26.715  1.00  0.00     0.054 A 
BRANCH  75  76
ATOM     76  S   UNL A   1      42.187  19.394  25.978  1.00  0.00     0.124 S 
ATOM     77  O   UNL A   1      43.053  19.506  24.808  1.00  0.00    -0.237 OA
ATOM     78  O   UNL A   1      42.678  18.528  27.048  1.00  0.00    -0.237 OA
ATOM     79  O   UNL A   1      40.760  19.269  25.691  1.00  0.00    -0.744 OA
ENDBRANCH  75  76
ENDBRANCH  47  70
BRANCH  59  80
ATOM     80  C   UNL A   1      47.864  26.858  31.088  1.00  0.00    -0.014 A 
ATOM     81  C   UNL A   1      48.117  26.151  32.277  1.00  0.00     0.010 A 
ATOM     82  C   UNL A   1      48.934  27.123  30.212  1.00  0.00     0.010 A 
ATOM     83  C   UNL A   1      49.416  25.745  32.598  1.00  0.00     0.020 A 
ATOM     84  C   UNL A   1      50.229  26.693  30.514  1.00  0.00     0.020 A 
ATOM     85  C   UNL A   1      50.465  26.018  31.713  1.00  0.00     0.054 A 
BRANCH  85  86
ATOM     86  S   UNL A   1      52.133  25.442  32.131  1.00  0.00     0.124 S 
ATOM     87  O   UNL A   1      52.420  26.194  33.350  1.00  0.00    -0.237 OA
ATOM     88  O   UNL A   1      51.941  24.006  32.309  1.00  0.00    -0.237 OA
ATOM     89  O   UNL A   1      52.933  25.819  30.967  1.00  0.00    -0.744 OA
ENDBRANCH  85  86
ENDBRANCH  59  80
ENDBRANCH  33  34
ENDBRANCH  25  28
ENDBRANCH  23  24
ENDBRANCH  22  23
ENDBRANCH   1  22
TORSDOF 18
ENDMDL
MODEL 3
REMARK VINA RESULT:     -10.2      3.178      8.524
REMARK SMILES COc1ccccc1-c1nnc(SCCC(=O)NCCCNC(=O)c2ccc(-c3c4nc(c(-c5ccc(S(=O)(=O)[O-])cc5)c5ccc([nH]5)c(-c5ccc(S(=O)(=O)[O-])cc5)c5nc(c(-c6ccc(S(=O)(=O)[O-])cc6)c6ccc3[nH]6)C=C5)C=C4)cc2)o1
REMARK SMILES IDX 19 1 18 2 16 3 17 4 15 6 14 7 13 8 12 9 9 10 10 11 85 12
REMARK SMILES IDX 11 13 8 14 3 15 4 16 5 17 7 18 6 19 2 20 1 21 20 22 21 23
REMARK SMILES IDX 22 24 23 25 24 27 25 28 26 29 84 30 27 31 83 32 28 33 29 34
REMARK SMILES IDX 30 35 77 36 31 37 82 38 76 39 78 40 32 41 81 42 75 43 74 44
REMARK SMILES IDX 33 46 63 47 44 48 62 49 45 50 48 51 61 52 79 53 46 54 47 55
REMARK SMILES IDX 60 57 80 58 49 59 34 60 35 61 43 62 36 63 42 64 37 65 38 66
REMARK SMILES IDX 39 67 40 68 41 69 64 70 65 71 73 72 66 73 72 74 67 75 68 76
REMARK SMILES IDX 69 77 70 78 71 79 50 80 51 81 59 82 52 83 58 84 53 85 54 86
REMARK SMILES IDX 55 87 56 88 57 89
REMARK H PARENT 18 5 22 26 78 45 48 56
REMARK Flexibility Score: inf
ROOT
ATOM      1  C   UNL A   1      36.828  21.150  24.963  1.00  0.00     0.117 C 
ENDROOT
BRANCH   1   2
ATOM      2  N   UNL A   1      36.186  21.494  26.221  1.00  0.00    -0.356 N 
ATOM      3  C   UNL A   1      34.945  21.980  26.484  1.00  0.00     0.220 C 
ATOM      4  O   UNL A   1      34.460  21.833  27.607  1.00  0.00    -0.275 OA
ATOM      5  H   UNL A   1      36.748  21.351  27.017  1.00  0.00     0.163 HD
BRANCH   3   6
ATOM      6  C   UNL A   1      34.209  22.777  25.451  1.00  0.00     0.111 C 
BRANCH   6   7
ATOM      7  C   UNL A   1      33.233  21.865  24.711  1.00  0.00     0.090 C 
BRANCH   7   8
ATOM      8  S   UNL A   1      31.548  21.857  25.369  1.00  0.00    -0.065 SA
BRANCH   8   9
ATOM      9  C   UNL A   1      31.071  23.527  25.519  1.00  0.00     0.276 A 
ATOM     10  C   UNL A   1      30.475  25.559  25.205  1.00  0.00     0.252 A 
ATOM     11  N   UNL A   1      30.399  25.338  26.502  1.00  0.00    -0.107 NA
ATOM     12  O   UNL A   1      30.916  24.453  24.510  1.00  0.00    -0.411 OA
ATOM     13  N   UNL A   1      30.763  24.030  26.698  1.00  0.00    -0.101 NA
BRANCH  10  14
ATOM     14  C   UNL A   1      30.226  26.815  24.504  1.00  0.00     0.081 A 
ATOM     15  C   UNL A   1      31.149  27.863  24.378  1.00  0.00     0.131 A 
ATOM     16  C   UNL A   1      30.778  29.062  23.748  1.00  0.00     0.047 A 
ATOM     17  C   UNL A   1      29.542  29.178  23.116  1.00  0.00     0.004 A 
ATOM     18  C   UNL A   1      28.996  26.942  23.829  1.00  0.00     0.018 A 
ATOM     19  C   UNL A   1      28.662  28.104  23.129  1.00  0.00     0.001 A 
BRANCH  15  20
ATOM     20  O   UNL A   1      32.425  27.724  24.860  1.00  0.00    -0.496 OA
ATOM     21  C   UNL A   1      33.355  27.340  23.839  1.00  0.00     0.278 C 
ENDBRANCH  15  20
ENDBRANCH  10  14
ENDBRANCH   8   9
ENDBRANCH   7   8
ENDBRANCH   6   7
ENDBRANCH   3   6
ENDBRANCH   1   2
BRANCH   1  22
ATOM     22  C   UNL A   1      37.925  20.091  25.057  1.00  0.00     0.042 C 
BRANCH  22  23
ATOM     23  C   UNL A   1      39.149  20.467  25.892  1.00  0.00     0.118 C 
BRANCH  23  24
ATOM     24  N   UNL A   1      40.175  19.440  25.930  1.00  0.00    -0.352 N 
ATOM     25  C   UNL A   1      41.519  19.566  26.192  1.00  0.00     0.251 C 
ATOM     26  H   UNL A   1      39.864  18.525  25.743  1.00  0.00     0.163 HD
ATOM     27  O   UNL A   1      42.233  18.564  26.135  1.00  0.00    -0.269 OA
BRANCH  25  28
ATOM     28  C   UNL A   1      42.131  20.884  26.491  1.00  0.00     0.039 A 
ATOM     29  C   UNL A   1      42.491  21.700  25.412  1.00  0.00     0.014 A 
ATOM     30  C   UNL A   1      42.384  21.318  27.796  1.00  0.00     0.014 A 
ATOM     31  C   UNL A   1      43.052  22.961  25.639  1.00  0.00     0.010 A 
ATOM     32  C   UNL A   1      42.904  22.601  28.022  1.00  0.00     0.010 A 
ATOM     33  C   UNL A   1      43.241  23.438  26.946  1.00  0.00    -0.014 A 
BRANCH  33  34
ATOM     34  C   UNL A   1      43.765  24.816  27.174  1.00  0.00     0.031 A 
ATOM     35  C   UNL A   1      45.221  25.139  26.969  1.00  0.00     0.074 A 
ATOM     36  C   UNL A   1      42.921  25.791  27.570  1.00  0.00     0.049 A 
ATOM     37  N   UNL A   1      45.834  26.292  27.079  1.00  0.00    -0.248 NA
ATOM     38  C   UNL A   1      46.106  24.025  26.599  1.00  0.00     0.031 C 
ATOM     39  C   UNL A   1      41.491  25.616  27.829  1.00  0.00     0.029 A 
ATOM     40  N   UNL A   1      43.141  27.125  27.820  1.00  0.00    -0.354 N 
ATOM     41  C   UNL A   1      47.172  26.044  26.795  1.00  0.00     0.074 A 
ATOM     42  C   UNL A   1      47.289  24.622  26.549  1.00  0.00     0.031 C 
ATOM     43  C   UNL A   1      40.957  26.800  28.172  1.00  0.00     0.029 A 
ATOM     44  C   UNL A   1      42.009  27.812  28.197  1.00  0.00     0.049 A 
ATOM     45  H   UNL A   1      44.025  27.551  27.736  1.00  0.00     0.167 HD
ATOM     46  C   UNL A   1      48.207  26.919  26.730  1.00  0.00     0.031 A 
ATOM     47  C   UNL A   1      41.832  29.106  28.533  1.00  0.00     0.031 A 
ATOM     48  C   UNL A   1      48.097  28.333  26.988  1.00  0.00     0.049 A 
ATOM     49  C   UNL A   1      43.005  30.049  28.494  1.00  0.00     0.074 A 
ATOM     50  C   UNL A   1      49.084  29.301  26.904  1.00  0.00     0.029 A 
ATOM     51  N   UNL A   1      46.939  28.981  27.392  1.00  0.00    -0.354 N 
ATOM     52  N   UNL A   1      44.247  29.807  28.151  1.00  0.00    -0.248 NA
ATOM     53  C   UNL A   1      42.748  31.446  28.875  1.00  0.00     0.031 C 
ATOM     54  C   UNL A   1      48.540  30.521  27.319  1.00  0.00     0.029 A 
ATOM     55  C   UNL A   1      47.196  30.329  27.591  1.00  0.00     0.049 A 
ATOM     56  H   UNL A   1      46.064  28.548  27.517  1.00  0.00     0.167 HD
ATOM     57  C   UNL A   1      44.912  31.025  28.248  1.00  0.00     0.074 A 
ATOM     58  C   UNL A   1      43.932  32.005  28.664  1.00  0.00     0.031 C 
ATOM     59  C   UNL A   1      46.218  31.304  28.010  1.00  0.00     0.031 A 
BRANCH  46  60
ATOM     60  C   UNL A   1      49.567  26.368  26.380  1.00  0.00    -0.014 A 
ATOM     61  C   UNL A   1      50.079  26.469  25.074  1.00  0.00     0.010 A 
ATOM     62  C   UNL A   1      50.369  25.793  27.384  1.00  0.00     0.010 A 
ATOM     63  C   UNL A   1      51.348  25.967  24.769  1.00  0.00     0.020 A 
ATOM     64  C   UNL A   1      51.650  25.316  27.089  1.00  0.00     0.020 A 
ATOM     65  C   UNL A   1      52.125  25.390  25.779  1.00  0.00     0.054 A 
BRANCH  65  66
ATOM     66  S   UNL A   1      53.774  24.763  25.356  1.00  0.00     0.124 S 
ATOM     67  O   UNL A   1      53.490  23.369  25.025  1.00  0.00    -0.237 OA
ATOM     68  O   UNL A   1      54.160  25.610  24.231  1.00  0.00    -0.237 OA
ATOM     69  O   UNL A   1      54.547  24.966  26.579  1.00  0.00    -0.744 OA
ENDBRANCH  65  66
ENDBRANCH  46  60
BRANCH  47  70
ATOM     70  C   UNL A   1      40.482  29.591  28.935  1.00  0.00    -0.014 A 
ATOM     71  C   UNL A   1      40.233  30.022  30.251  1.00  0.00     0.010 A 
ATOM     72  C   UNL A   1      39.432  29.626  27.998  1.00  0.00     0.010 A 
ATOM     73  C   UNL A   1      38.959  30.460  30.626  1.00  0.00     0.020 A 
ATOM     74  C   UNL A   1      38.165  30.093  28.361  1.00  0.00     0.020 A 
ATOM     75  C   UNL A   1      37.934  30.496  29.677  1.00  0.00     0.054 A 
BRANCH  75  76
ATOM     76  S   UNL A   1      36.303  31.117  30.173  1.00  0.00     0.124 S 
ATOM     77  O   UNL A   1      36.532  32.557  30.235  1.00  0.00    -0.237 OA
ATOM     78  O   UNL A   1      35.447  30.658  29.081  1.00  0.00    -0.237 OA
ATOM     79  O   UNL A   1      36.064  30.464  31.458  1.00  0.00    -0.744 OA
ENDBRANCH  75  76
ENDBRANCH  47  70
BRANCH  59  80
ATOM     80  C   UNL A   1      46.666  32.736  28.158  1.00  0.00    -0.014 A 
ATOM     81  C   UNL A   1      47.162  33.229  29.379  1.00  0.00     0.010 A 
ATOM     82  C   UNL A   1      46.640  33.590  27.038  1.00  0.00     0.010 A 
ATOM     83  C   UNL A   1      47.591  34.555  29.485  1.00  0.00     0.020 A 
ATOM     84  C   UNL A   1      47.098  34.907  27.133  1.00  0.00     0.020 A 
ATOM     85  C   UNL A   1      47.558  35.386  28.361  1.00  0.00     0.054 A 
BRANCH  85  86
ATOM     86  S   UNL A   1      48.163  37.089  28.514  1.00  0.00     0.124 S 
ATOM     87  O   UNL A   1      48.061  37.575  27.140  1.00  0.00    -0.237 OA
ATOM     88  O   UNL A   1      47.221  37.680  29.461  1.00  0.00    -0.237 OA
ATOM     89  O   UNL A   1      49.526  36.931  29.017  1.00  0.00    -0.744 OA
ENDBRANCH  85  86
ENDBRANCH  59  80
ENDBRANCH  33  34
ENDBRANCH  25  28
ENDBRANCH  23  24
ENDBRANCH  22  23
ENDBRANCH   1  22
TORSDOF 18
ENDMDL
