MODEL 1
REMARK VINA RESULT:     -10.5      0.000      0.000
REMARK SMILES N#C/C(=C/c1cccc(OC2CCCC2)c1)C(=O)NCCCNC(=O)c1ccc(-c2c3nc(c(-c4ccc(S(=O)(=O)[O-])cc4)c4ccc([nH]4)c(-c4ccc(S(=O)(=O)[O-])cc4)c4nc(c(-c5ccc(S(=O)(=O)[O-])cc5)c5ccc2[nH]5)C=C4)C=C3)cc1
REMARK SMILES IDX 21 1 20 2 19 3 17 4 18 5 3 7 4 8 2 9 1 10 5 11 6 12 16 13
REMARK SMILES IDX 7 14 9 15 8 16 10 17 11 18 12 19 15 20 13 21 14 22 22 23
REMARK SMILES IDX 23 24 24 25 25 27 26 28 27 29 85 30 28 31 84 32 29 33 30 34
REMARK SMILES IDX 31 35 78 36 32 37 83 38 77 39 79 40 33 41 82 42 76 43 75 44
REMARK SMILES IDX 34 46 64 47 45 48 63 49 46 50 49 51 62 52 80 53 47 54 48 55
REMARK SMILES IDX 61 57 81 58 50 59 35 60 36 61 44 62 37 63 43 64 38 65 39 66
REMARK SMILES IDX 40 67 41 68 42 69 65 70 66 71 74 72 67 73 73 74 68 75 69 76
REMARK SMILES IDX 70 77 71 78 72 79 51 80 52 81 60 82 53 83 59 84 54 85 55 86
REMARK SMILES IDX 56 87 57 88 58 89
REMARK H PARENT 19 6 23 26 79 45 49 56
REMARK Flexibility Score: inf
ROOT
ATOM      1  C   UNL A   1      36.152  23.485  25.573  1.00  0.00     0.042 C 
ENDROOT
BRANCH   1   2
ATOM      2  C   UNL A   1      35.049  24.185  24.806  1.00  0.00     0.118 C 
BRANCH   2   3
ATOM      3  N   UNL A   1      34.555  23.489  23.635  1.00  0.00    -0.351 N 
ATOM      4  C   UNL A   1      33.395  22.792  23.463  1.00  0.00     0.261 C 
ATOM      5  O   UNL A   1      33.136  22.377  22.333  1.00  0.00    -0.268 OA
ATOM      6  H   UNL A   1      35.144  23.525  22.847  1.00  0.00     0.163 HD
BRANCH   4   7
ATOM      7  C   UNL A   1      32.487  22.457  24.594  1.00  0.00     0.117 C 
ATOM      8  C   UNL A   1      31.687  23.228  25.371  1.00  0.00     0.033 C 
BRANCH   7   9
ATOM      9  C   UNL A   1      32.271  20.974  24.850  1.00  0.00     0.105 C 
ATOM     10  N   UNL A   1      32.091  19.745  25.062  1.00  0.00    -0.192 NA
ENDBRANCH   7   9
BRANCH   8  11
ATOM     11  C   UNL A   1      31.417  24.660  25.286  1.00  0.00    -0.020 A 
ATOM     12  C   UNL A   1      30.411  25.154  24.449  1.00  0.00     0.008 A 
ATOM     13  C   UNL A   1      32.126  25.532  26.115  1.00  0.00     0.054 A 
ATOM     14  C   UNL A   1      30.047  26.497  24.535  1.00  0.00     0.004 A 
ATOM     15  C   UNL A   1      31.724  26.852  26.260  1.00  0.00     0.120 A 
ATOM     16  C   UNL A   1      30.687  27.334  25.455  1.00  0.00     0.046 A 
BRANCH  15  17
ATOM     17  O   UNL A   1      32.214  27.737  27.171  1.00  0.00    -0.490 OA
BRANCH  17  18
ATOM     18  C   UNL A   1      32.918  28.918  26.797  1.00  0.00     0.173 C 
ATOM     19  C   UNL A   1      32.252  30.271  27.073  1.00  0.00     0.045 C 
ATOM     20  C   UNL A   1      34.352  28.998  27.332  1.00  0.00     0.045 C 
ATOM     21  C   UNL A   1      33.423  31.238  27.175  1.00  0.00     0.004 C 
ATOM     22  C   UNL A   1      34.533  30.430  27.833  1.00  0.00     0.004 C 
ENDBRANCH  17  18
ENDBRANCH  15  17
ENDBRANCH   8  11
ENDBRANCH   4   7
ENDBRANCH   2   3
ENDBRANCH   1   2
BRANCH   1  23
ATOM     23  C   UNL A   1      37.394  23.178  24.741  1.00  0.00     0.118 C 
BRANCH  23  24
ATOM     24  N   UNL A   1      38.445  22.436  25.432  1.00  0.00    -0.352 N 
ATOM     25  C   UNL A   1      39.352  22.772  26.412  1.00  0.00     0.251 C 
ATOM     26  H   UNL A   1      38.522  21.500  25.136  1.00  0.00     0.163 HD
ATOM     27  O   UNL A   1      40.113  21.901  26.833  1.00  0.00    -0.269 OA
BRANCH  25  28
ATOM     28  C   UNL A   1      39.496  24.157  26.917  1.00  0.00     0.039 A 
ATOM     29  C   UNL A   1      39.016  24.453  28.198  1.00  0.00     0.014 A 
ATOM     30  C   UNL A   1      40.106  25.165  26.178  1.00  0.00     0.014 A 
ATOM     31  C   UNL A   1      39.269  25.702  28.773  1.00  0.00     0.010 A 
ATOM     32  C   UNL A   1      40.486  26.351  26.799  1.00  0.00     0.010 A 
ATOM     33  C   UNL A   1      40.081  26.635  28.110  1.00  0.00    -0.014 A 
BRANCH  33  34
ATOM     34  C   UNL A   1      40.534  27.893  28.765  1.00  0.00     0.031 A 
ATOM     35  C   UNL A   1      41.922  27.995  29.350  1.00  0.00     0.074 A 
ATOM     36  C   UNL A   1      39.666  28.915  28.920  1.00  0.00     0.049 A 
ATOM     37  N   UNL A   1      42.442  28.950  30.076  1.00  0.00    -0.248 NA
ATOM     38  C   UNL A   1      42.828  26.854  29.129  1.00  0.00     0.031 C 
ATOM     39  C   UNL A   1      38.270  28.927  28.468  1.00  0.00     0.029 A 
ATOM     40  N   UNL A   1      39.825  30.145  29.508  1.00  0.00    -0.354 N 
ATOM     41  C   UNL A   1      43.714  28.511  30.429  1.00  0.00     0.074 A 
ATOM     42  C   UNL A   1      43.867  27.180  29.885  1.00  0.00     0.031 C 
ATOM     43  C   UNL A   1      37.720  30.117  28.755  1.00  0.00     0.029 A 
ATOM     44  C   UNL A   1      38.701  30.937  29.455  1.00  0.00     0.049 A 
ATOM     45  H   UNL A   1      40.667  30.435  29.930  1.00  0.00     0.167 HD
ATOM     46  C   UNL A   1      44.682  29.164  31.117  1.00  0.00     0.031 A 
ATOM     47  C   UNL A   1      38.480  32.181  29.919  1.00  0.00     0.031 A 
ATOM     48  C   UNL A   1      44.554  30.508  31.610  1.00  0.00     0.049 A 
ATOM     49  C   UNL A   1      39.589  32.905  30.628  1.00  0.00     0.074 A 
ATOM     50  C   UNL A   1      45.499  31.280  32.263  1.00  0.00     0.029 A 
ATOM     51  N   UNL A   1      43.417  31.291  31.482  1.00  0.00    -0.354 N 
ATOM     52  N   UNL A   1      40.798  32.481  30.913  1.00  0.00    -0.248 NA
ATOM     53  C   UNL A   1      39.310  34.278  31.069  1.00  0.00     0.031 C 
ATOM     54  C   UNL A   1      44.926  32.523  32.552  1.00  0.00     0.029 A 
ATOM     55  C   UNL A   1      43.638  32.537  32.044  1.00  0.00     0.049 A 
ATOM     56  H   UNL A   1      42.577  31.004  31.056  1.00  0.00     0.167 HD
ATOM     57  C   UNL A   1      41.428  33.545  31.550  1.00  0.00     0.074 A 
ATOM     58  C   UNL A   1      40.476  34.637  31.583  1.00  0.00     0.031 C 
ATOM     59  C   UNL A   1      42.679  33.611  32.065  1.00  0.00     0.031 A 
BRANCH  46  60
ATOM     60  C   UNL A   1      45.981  28.439  31.350  1.00  0.00    -0.014 A 
ATOM     61  C   UNL A   1      47.046  28.561  30.440  1.00  0.00     0.010 A 
ATOM     62  C   UNL A   1      46.159  27.668  32.513  1.00  0.00     0.010 A 
ATOM     63  C   UNL A   1      48.253  27.896  30.668  1.00  0.00     0.020 A 
ATOM     64  C   UNL A   1      47.376  27.024  32.759  1.00  0.00     0.020 A 
ATOM     65  C   UNL A   1      48.410  27.131  31.826  1.00  0.00     0.054 A 
BRANCH  65  66
ATOM     66  S   UNL A   1      50.002  26.312  32.117  1.00  0.00     0.124 S 
ATOM     67  O   UNL A   1      50.128  26.407  33.569  1.00  0.00    -0.237 OA
ATOM     68  O   UNL A   1      49.773  24.967  31.593  1.00  0.00    -0.237 OA
ATOM     69  O   UNL A   1      50.952  27.120  31.355  1.00  0.00    -0.744 OA
ENDBRANCH  65  66
ENDBRANCH  46  60
BRANCH  47  70
ATOM     70  C   UNL A   1      37.158  32.837  29.715  1.00  0.00    -0.014 A 
ATOM     71  C   UNL A   1      36.857  33.462  28.492  1.00  0.00     0.010 A 
ATOM     72  C   UNL A   1      36.204  32.857  30.748  1.00  0.00     0.010 A 
ATOM     73  C   UNL A   1      35.639  34.126  28.317  1.00  0.00     0.020 A 
ATOM     74  C   UNL A   1      34.974  33.496  30.566  1.00  0.00     0.020 A 
ATOM     75  C   UNL A   1      34.707  34.143  29.357  1.00  0.00     0.054 A 
BRANCH  75  76
ATOM     76  S   UNL A   1      33.121  34.989  29.104  1.00  0.00     0.124 S 
ATOM     77  O   UNL A   1      32.528  34.922  30.435  1.00  0.00    -0.237 OA
ATOM     78  O   UNL A   1      33.536  36.316  28.659  1.00  0.00    -0.237 OA
ATOM     79  O   UNL A   1      32.465  34.177  28.082  1.00  0.00    -0.744 OA
ENDBRANCH  75  76
ENDBRANCH  47  70
BRANCH  59  80
ATOM     80  C   UNL A   1      43.095  34.917  32.681  1.00  0.00    -0.014 A 
ATOM     81  C   UNL A   1      42.812  35.207  34.028  1.00  0.00     0.010 A 
ATOM     82  C   UNL A   1      43.797  35.858  31.907  1.00  0.00     0.010 A 
ATOM     83  C   UNL A   1      43.184  36.436  34.576  1.00  0.00     0.020 A 
ATOM     84  C   UNL A   1      44.193  37.078  32.459  1.00  0.00     0.020 A 
ATOM     85  C   UNL A   1      43.866  37.366  33.786  1.00  0.00     0.054 A 
BRANCH  85  86
ATOM     86  S   UNL A   1      44.355  38.950  34.524  1.00  0.00     0.124 S 
ATOM     87  O   UNL A   1      44.273  38.656  35.952  1.00  0.00    -0.237 OA
ATOM     88  O   UNL A   1      45.704  39.148  33.999  1.00  0.00    -0.237 OA
ATOM     89  O   UNL A   1      43.354  39.887  34.020  1.00  0.00    -0.744 OA
ENDBRANCH  85  86
ENDBRANCH  59  80
ENDBRANCH  33  34
ENDBRANCH  25  28
ENDBRANCH  23  24
ENDBRANCH   1  23
TORSDOF 17
ENDMDL
MODEL 2
REMARK VINA RESULT:     -10.0      2.758      8.311
REMARK SMILES N#C/C(=C/c1cccc(OC2CCCC2)c1)C(=O)NCCCNC(=O)c1ccc(-c2c3nc(c(-c4ccc(S(=O)(=O)[O-])cc4)c4ccc([nH]4)c(-c4ccc(S(=O)(=O)[O-])cc4)c4nc(c(-c5ccc(S(=O)(=O)[O-])cc5)c5ccc2[nH]5)C=C4)C=C3)cc1
REMARK SMILES IDX 21 1 20 2 19 3 17 4 18 5 3 7 4 8 2 9 1 10 5 11 6 12 16 13
REMARK SMILES IDX 7 14 9 15 8 16 10 17 11 18 12 19 15 20 13 21 14 22 22 23
REMARK SMILES IDX 23 24 24 25 25 27 26 28 27 29 85 30 28 31 84 32 29 33 30 34
REMARK SMILES IDX 31 35 78 36 32 37 83 38 77 39 79 40 33 41 82 42 76 43 75 44
REMARK SMILES IDX 34 46 64 47 45 48 63 49 46 50 49 51 62 52 80 53 47 54 48 55
REMARK SMILES IDX 61 57 81 58 50 59 35 60 36 61 44 62 37 63 43 64 38 65 39 66
REMARK SMILES IDX 40 67 41 68 42 69 65 70 66 71 74 72 67 73 73 74 68 75 69 76
REMARK SMILES IDX 70 77 71 78 72 79 51 80 52 81 60 82 53 83 59 84 54 85 55 86
REMARK SMILES IDX 56 87 57 88 58 89
REMARK H PARENT 19 6 23 26 79 45 49 56
REMARK Flexibility Score: inf
ROOT
ATOM      1  C   UNL A   1      32.000  28.023  27.295  1.00  0.00     0.042 C 
ENDROOT
BRANCH   1   2
ATOM      2  C   UNL A   1      31.884  26.671  26.622  1.00  0.00     0.118 C 
BRANCH   2   3
ATOM      3  N   UNL A   1      30.558  26.302  26.173  1.00  0.00    -0.351 N 
ATOM      4  C   UNL A   1      30.134  25.926  24.931  1.00  0.00     0.261 C 
ATOM      5  O   UNL A   1      28.968  25.546  24.813  1.00  0.00    -0.268 OA
ATOM      6  H   UNL A   1      29.859  26.324  26.866  1.00  0.00     0.163 HD
BRANCH   4   7
ATOM      7  C   UNL A   1      30.996  26.035  23.724  1.00  0.00     0.117 C 
ATOM      8  C   UNL A   1      31.904  25.186  23.181  1.00  0.00     0.033 C 
BRANCH   7   9
ATOM      9  C   UNL A   1      30.724  27.228  22.822  1.00  0.00     0.105 C 
ATOM     10  N   UNL A   1      30.498  28.217  22.075  1.00  0.00    -0.192 NA
ENDBRANCH   7   9
BRANCH   8  11
ATOM     11  C   UNL A   1      32.272  23.837  23.598  1.00  0.00    -0.020 A 
ATOM     12  C   UNL A   1      31.692  22.714  22.998  1.00  0.00     0.008 A 
ATOM     13  C   UNL A   1      33.277  23.675  24.555  1.00  0.00     0.054 A 
ATOM     14  C   UNL A   1      32.203  21.448  23.277  1.00  0.00     0.004 A 
ATOM     15  C   UNL A   1      33.840  22.427  24.784  1.00  0.00     0.120 A 
ATOM     16  C   UNL A   1      33.288  21.311  24.148  1.00  0.00     0.046 A 
BRANCH  15  17
ATOM     17  O   UNL A   1      34.941  22.180  25.546  1.00  0.00    -0.490 OA
BRANCH  17  18
ATOM     18  C   UNL A   1      36.225  22.717  25.240  1.00  0.00     0.173 C 
ATOM     19  C   UNL A   1      36.711  23.924  26.051  1.00  0.00     0.045 C 
ATOM     20  C   UNL A   1      37.359  21.685  25.234  1.00  0.00     0.045 C 
ATOM     21  C   UNL A   1      38.228  23.836  25.959  1.00  0.00     0.004 C 
ATOM     22  C   UNL A   1      38.528  22.343  25.965  1.00  0.00     0.004 C 
ENDBRANCH  17  18
ENDBRANCH  15  17
ENDBRANCH   8  11
ENDBRANCH   4   7
ENDBRANCH   2   3
ENDBRANCH   1   2
BRANCH   1  23
ATOM     23  C   UNL A   1      33.377  28.669  27.169  1.00  0.00     0.118 C 
BRANCH  23  24
ATOM     24  N   UNL A   1      33.502  30.001  27.754  1.00  0.00    -0.352 N 
ATOM     25  C   UNL A   1      34.561  30.710  28.273  1.00  0.00     0.251 C 
ATOM     26  H   UNL A   1      32.651  30.495  27.785  1.00  0.00     0.163 HD
ATOM     27  O   UNL A   1      34.362  31.858  28.673  1.00  0.00    -0.269 OA
BRANCH  25  28
ATOM     28  C   UNL A   1      35.908  30.115  28.439  1.00  0.00     0.039 A 
ATOM     29  C   UNL A   1      36.786  30.139  27.348  1.00  0.00     0.014 A 
ATOM     30  C   UNL A   1      36.338  29.556  29.637  1.00  0.00     0.014 A 
ATOM     31  C   UNL A   1      38.114  29.730  27.506  1.00  0.00     0.010 A 
ATOM     32  C   UNL A   1      37.689  29.288  29.835  1.00  0.00     0.010 A 
ATOM     33  C   UNL A   1      38.601  29.381  28.775  1.00  0.00    -0.014 A 
BRANCH  33  34
ATOM     34  C   UNL A   1      40.048  29.128  29.023  1.00  0.00     0.031 A 
ATOM     35  C   UNL A   1      40.662  27.796  28.669  1.00  0.00     0.074 A 
ATOM     36  C   UNL A   1      40.790  30.061  29.654  1.00  0.00     0.049 A 
ATOM     37  N   UNL A   1      41.861  27.344  28.936  1.00  0.00    -0.248 NA
ATOM     38  C   UNL A   1      39.805  26.828  27.963  1.00  0.00     0.031 C 
ATOM     39  C   UNL A   1      40.307  31.366  30.120  1.00  0.00     0.029 A 
ATOM     40  N   UNL A   1      42.113  30.056  30.023  1.00  0.00    -0.354 N 
ATOM     41  C   UNL A   1      41.888  26.035  28.468  1.00  0.00     0.074 A 
ATOM     42  C   UNL A   1      40.569  25.744  27.951  1.00  0.00     0.031 C 
ATOM     43  C   UNL A   1      41.326  32.048  30.668  1.00  0.00     0.029 A 
ATOM     44  C   UNL A   1      42.522  31.215  30.641  1.00  0.00     0.049 A 
ATOM     45  H   UNL A   1      42.713  29.292  29.861  1.00  0.00     0.167 HD
ATOM     46  C   UNL A   1      42.921  25.159  28.441  1.00  0.00     0.031 A 
ATOM     47  C   UNL A   1      43.723  31.570  31.135  1.00  0.00     0.031 A 
ATOM     48  C   UNL A   1      44.248  25.463  28.903  1.00  0.00     0.049 A 
ATOM     49  C   UNL A   1      44.868  30.601  31.041  1.00  0.00     0.074 A 
ATOM     50  C   UNL A   1      45.379  24.666  28.860  1.00  0.00     0.029 A 
ATOM     51  N   UNL A   1      44.630  26.670  29.469  1.00  0.00    -0.354 N 
ATOM     52  N   UNL A   1      44.876  29.382  30.556  1.00  0.00    -0.248 NA
ATOM     53  C   UNL A   1      46.168  31.059  31.550  1.00  0.00     0.031 C 
ATOM     54  C   UNL A   1      46.441  25.382  29.423  1.00  0.00     0.029 A 
ATOM     55  C   UNL A   1      45.979  26.638  29.779  1.00  0.00     0.049 A 
ATOM     56  H   UNL A   1      44.031  27.435  29.627  1.00  0.00     0.167 HD
ATOM     57  C   UNL A   1      46.187  28.936  30.685  1.00  0.00     0.074 A 
ATOM     58  C   UNL A   1      46.945  30.024  31.268  1.00  0.00     0.031 C 
ATOM     59  C   UNL A   1      46.715  27.732  30.357  1.00  0.00     0.031 A 
BRANCH  46  60
ATOM     60  C   UNL A   1      42.662  23.792  27.863  1.00  0.00    -0.014 A 
ATOM     61  C   UNL A   1      42.854  23.543  26.493  1.00  0.00     0.010 A 
ATOM     62  C   UNL A   1      42.272  22.734  28.704  1.00  0.00     0.010 A 
ATOM     63  C   UNL A   1      42.625  22.270  25.965  1.00  0.00     0.020 A 
ATOM     64  C   UNL A   1      42.069  21.452  28.184  1.00  0.00     0.020 A 
ATOM     65  C   UNL A   1      42.232  21.232  26.814  1.00  0.00     0.054 A 
BRANCH  65  66
ATOM     66  S   UNL A   1      41.982  19.580  26.108  1.00  0.00     0.124 S 
ATOM     67  O   UNL A   1      42.441  18.717  27.193  1.00  0.00    -0.237 OA
ATOM     68  O   UNL A   1      40.543  19.555  25.853  1.00  0.00    -0.237 OA
ATOM     69  O   UNL A   1      42.823  19.582  24.914  1.00  0.00    -0.744 OA
ENDBRANCH  65  66
ENDBRANCH  46  60
BRANCH  47  70
ATOM     70  C   UNL A   1      43.918  32.912  31.751  1.00  0.00    -0.014 A 
ATOM     71  C   UNL A   1      44.200  34.029  30.944  1.00  0.00     0.010 A 
ATOM     72  C   UNL A   1      43.840  33.077  33.145  1.00  0.00     0.010 A 
ATOM     73  C   UNL A   1      44.438  35.279  31.523  1.00  0.00     0.020 A 
ATOM     74  C   UNL A   1      44.049  34.332  33.725  1.00  0.00     0.020 A 
ATOM     75  C   UNL A   1      44.365  35.421  32.910  1.00  0.00     0.054 A 
BRANCH  75  76
ATOM     76  S   UNL A   1      44.652  37.057  33.643  1.00  0.00     0.124 S 
ATOM     77  O   UNL A   1      46.083  37.237  33.428  1.00  0.00    -0.237 OA
ATOM     78  O   UNL A   1      43.777  37.918  32.852  1.00  0.00    -0.237 OA
ATOM     79  O   UNL A   1      44.243  36.880  35.035  1.00  0.00    -0.744 OA
ENDBRANCH  75  76
ENDBRANCH  47  70
BRANCH  59  80
ATOM     80  C   UNL A   1      48.187  27.546  30.594  1.00  0.00    -0.014 A 
ATOM     81  C   UNL A   1      48.664  26.993  31.796  1.00  0.00     0.010 A 
ATOM     82  C   UNL A   1      49.105  27.909  29.592  1.00  0.00     0.010 A 
ATOM     83  C   UNL A   1      50.036  26.849  32.009  1.00  0.00     0.020 A 
ATOM     84  C   UNL A   1      50.477  27.744  29.792  1.00  0.00     0.020 A 
ATOM     85  C   UNL A   1      50.934  27.233  31.009  1.00  0.00     0.054 A 
BRANCH  85  86
ATOM     86  S   UNL A   1      52.712  27.022  31.300  1.00  0.00     0.124 S 
ATOM     87  O   UNL A   1      53.029  25.891  30.433  1.00  0.00    -0.237 OA
ATOM     88  O   UNL A   1      53.262  28.310  30.882  1.00  0.00    -0.237 OA
ATOM     89  O   UNL A   1      52.796  26.753  32.733  1.00  0.00    -0.744 OA
ENDBRANCH  85  86
ENDBRANCH  59  80
ENDBRANCH  33  34
ENDBRANCH  25  28
ENDBRANCH  23  24
ENDBRANCH   1  23
TORSDOF 17
ENDMDL
MODEL 3
REMARK VINA RESULT:      -9.9      2.569      9.099
REMARK SMILES N#C/C(=C/c1cccc(OC2CCCC2)c1)C(=O)NCCCNC(=O)c1ccc(-c2c3nc(c(-c4ccc(S(=O)(=O)[O-])cc4)c4ccc([nH]4)c(-c4ccc(S(=O)(=O)[O-])cc4)c4nc(c(-c5ccc(S(=O)(=O)[O-])cc5)c5ccc2[nH]5)C=C4)C=C3)cc1
REMARK SMILES IDX 21 1 20 2 19 3 17 4 18 5 3 7 4 8 2 9 1 10 5 11 6 12 16 13
REMARK SMILES IDX 7 14 9 15 8 16 10 17 11 18 12 19 15 20 13 21 14 22 22 23
REMARK SMILES IDX 23 24 24 25 25 27 26 28 27 29 85 30 28 31 84 32 29 33 30 34
REMARK SMILES IDX 31 35 78 36 32 37 83 38 77 39 79 40 33 41 82 42 76 43 75 44
REMARK SMILES IDX 34 46 64 47 45 48 63 49 46 50 49 51 62 52 80 53 47 54 48 55
REMARK SMILES IDX 61 57 81 58 50 59 35 60 36 61 44 62 37 63 43 64 38 65 39 66
REMARK SMILES IDX 40 67 41 68 42 69 65 70 66 71 74 72 67 73 73 74 68 75 69 76
REMARK SMILES IDX 70 77 71 78 72 79 51 80 52 81 60 82 53 83 59 84 54 85 55 86
REMARK SMILES IDX 56 87 57 88 58 89
REMARK H PARENT 19 6 23 26 79 45 49 56
REMARK Flexibility Score: inf
ROOT
ATOM      1  C   UNL A   1      35.550  23.250  25.092  1.00  0.00     0.042 C 
ENDROOT
BRANCH   1   2
ATOM      2  C   UNL A   1      34.890  24.528  25.569  1.00  0.00     0.118 C 
BRANCH   2   3
ATOM      3  N   UNL A   1      34.336  25.376  24.534  1.00  0.00    -0.351 N 
ATOM      4  C   UNL A   1      33.073  25.875  24.403  1.00  0.00     0.261 C 
ATOM      5  O   UNL A   1      32.862  26.674  23.490  1.00  0.00    -0.268 OA
ATOM      6  H   UNL A   1      34.964  25.630  23.819  1.00  0.00     0.163 HD
BRANCH   4   7
ATOM      7  C   UNL A   1      31.944  25.433  25.266  1.00  0.00     0.117 C 
ATOM      8  C   UNL A   1      31.290  24.248  25.362  1.00  0.00     0.033 C 
BRANCH   7   9
ATOM      9  C   UNL A   1      31.526  26.404  26.358  1.00  0.00     0.105 C 
ATOM     10  N   UNL A   1      31.180  27.209  27.263  1.00  0.00    -0.192 NA
ENDBRANCH   7   9
BRANCH   8  11
ATOM     11  C   UNL A   1      31.550  22.990  24.671  1.00  0.00    -0.020 A 
ATOM     12  C   UNL A   1      31.611  22.934  23.275  1.00  0.00     0.008 A 
ATOM     13  C   UNL A   1      31.820  21.847  25.427  1.00  0.00     0.054 A 
ATOM     14  C   UNL A   1      32.053  21.767  22.654  1.00  0.00     0.004 A 
ATOM     15  C   UNL A   1      32.329  20.705  24.824  1.00  0.00     0.120 A 
ATOM     16  C   UNL A   1      32.432  20.667  23.430  1.00  0.00     0.046 A 
BRANCH  15  17
ATOM     17  O   UNL A   1      32.802  19.606  25.474  1.00  0.00    -0.490 OA
BRANCH  17  18
ATOM     18  C   UNL A   1      33.037  18.364  24.818  1.00  0.00     0.173 C 
ATOM     19  C   UNL A   1      34.475  18.031  24.403  1.00  0.00     0.045 C 
ATOM     20  C   UNL A   1      32.480  17.141  25.555  1.00  0.00     0.045 C 
ATOM     21  C   UNL A   1      34.495  16.510  24.351  1.00  0.00     0.004 C 
ATOM     22  C   UNL A   1      33.571  16.074  25.480  1.00  0.00     0.004 C 
ENDBRANCH  17  18
ENDBRANCH  15  17
ENDBRANCH   8  11
ENDBRANCH   4   7
ENDBRANCH   2   3
ENDBRANCH   1   2
BRANCH   1  23
ATOM     23  C   UNL A   1      37.011  23.417  24.681  1.00  0.00     0.118 C 
BRANCH  23  24
ATOM     24  N   UNL A   1      37.949  22.490  25.308  1.00  0.00    -0.352 N 
ATOM     25  C   UNL A   1      38.974  22.649  26.212  1.00  0.00     0.251 C 
ATOM     26  H   UNL A   1      37.822  21.555  25.025  1.00  0.00     0.163 HD
ATOM     27  O   UNL A   1      39.584  21.650  26.593  1.00  0.00    -0.269 OA
BRANCH  25  28
ATOM     28  C   UNL A   1      39.419  23.983  26.678  1.00  0.00     0.039 A 
ATOM     29  C   UNL A   1      39.274  24.298  28.035  1.00  0.00     0.014 A 
ATOM     30  C   UNL A   1      39.993  24.922  25.828  1.00  0.00     0.014 A 
ATOM     31  C   UNL A   1      39.819  25.480  28.545  1.00  0.00     0.010 A 
ATOM     32  C   UNL A   1      40.662  26.022  26.355  1.00  0.00     0.010 A 
ATOM     33  C   UNL A   1      40.594  26.314  27.723  1.00  0.00    -0.014 A 
BRANCH  33  34
ATOM     34  C   UNL A   1      41.352  27.475  28.268  1.00  0.00     0.031 A 
ATOM     35  C   UNL A   1      40.621  28.651  28.869  1.00  0.00     0.074 A 
ATOM     36  C   UNL A   1      42.694  27.517  28.137  1.00  0.00     0.049 A 
ATOM     37  N   UNL A   1      41.097  29.804  29.263  1.00  0.00    -0.248 NA
ATOM     38  C   UNL A   1      39.158  28.535  29.002  1.00  0.00     0.031 C 
ATOM     39  C   UNL A   1      43.525  26.482  27.511  1.00  0.00     0.029 A 
ATOM     40  N   UNL A   1      43.603  28.473  28.518  1.00  0.00    -0.354 N 
ATOM     41  C   UNL A   1      39.996  30.558  29.652  1.00  0.00     0.074 A 
ATOM     42  C   UNL A   1      38.822  29.755  29.394  1.00  0.00     0.031 C 
ATOM     43  C   UNL A   1      44.816  26.839  27.592  1.00  0.00     0.029 A 
ATOM     44  C   UNL A   1      44.908  28.147  28.228  1.00  0.00     0.049 A 
ATOM     45  H   UNL A   1      43.344  29.316  28.959  1.00  0.00     0.167 HD
ATOM     46  C   UNL A   1      39.961  31.796  30.202  1.00  0.00     0.031 A 
ATOM     47  C   UNL A   1      46.051  28.824  28.446  1.00  0.00     0.031 A 
ATOM     48  C   UNL A   1      41.130  32.574  30.512  1.00  0.00     0.049 A 
ATOM     49  C   UNL A   1      45.988  30.171  29.110  1.00  0.00     0.074 A 
ATOM     50  C   UNL A   1      41.202  33.812  31.128  1.00  0.00     0.029 A 
ATOM     51  N   UNL A   1      42.433  32.179  30.253  1.00  0.00    -0.354 N 
ATOM     52  N   UNL A   1      44.935  30.845  29.505  1.00  0.00    -0.248 NA
ATOM     53  C   UNL A   1      47.270  30.843  29.368  1.00  0.00     0.031 C 
ATOM     54  C   UNL A   1      42.549  34.177  31.220  1.00  0.00     0.029 A 
ATOM     55  C   UNL A   1      43.316  33.149  30.697  1.00  0.00     0.049 A 
ATOM     56  H   UNL A   1      42.692  31.336  29.817  1.00  0.00     0.167 HD
ATOM     57  C   UNL A   1      45.430  32.013  30.076  1.00  0.00     0.074 A 
ATOM     58  C   UNL A   1      46.874  31.939  29.997  1.00  0.00     0.031 C 
ATOM     59  C   UNL A   1      44.750  33.055  30.611  1.00  0.00     0.031 A 
BRANCH  46  60
ATOM     60  C   UNL A   1      38.610  32.374  30.534  1.00  0.00    -0.014 A 
ATOM     61  C   UNL A   1      37.908  33.147  29.593  1.00  0.00     0.010 A 
ATOM     62  C   UNL A   1      38.015  32.102  31.779  1.00  0.00     0.010 A 
ATOM     63  C   UNL A   1      36.650  33.669  29.903  1.00  0.00     0.020 A 
ATOM     64  C   UNL A   1      36.743  32.599  32.082  1.00  0.00     0.020 A 
ATOM     65  C   UNL A   1      36.076  33.393  31.147  1.00  0.00     0.054 A 
BRANCH  65  66
ATOM     66  S   UNL A   1      34.424  34.050  31.506  1.00  0.00     0.124 S 
ATOM     67  O   UNL A   1      33.882  33.030  32.399  1.00  0.00    -0.237 OA
ATOM     68  O   UNL A   1      34.719  35.338  32.130  1.00  0.00    -0.237 OA
ATOM     69  O   UNL A   1      33.789  34.130  30.192  1.00  0.00    -0.744 OA
ENDBRANCH  65  66
ENDBRANCH  46  60
BRANCH  47  70
ATOM     70  C   UNL A   1      47.361  28.238  28.048  1.00  0.00    -0.014 A 
ATOM     71  C   UNL A   1      47.910  28.520  26.784  1.00  0.00     0.010 A 
ATOM     72  C   UNL A   1      48.055  27.382  28.921  1.00  0.00     0.010 A 
ATOM     73  C   UNL A   1      49.112  27.927  26.387  1.00  0.00     0.020 A 
ATOM     74  C   UNL A   1      49.272  26.810  28.537  1.00  0.00     0.020 A 
ATOM     75  C   UNL A   1      49.783  27.072  27.264  1.00  0.00     0.054 A 
BRANCH  75  76
ATOM     76  S   UNL A   1      51.355  26.331  26.741  1.00  0.00     0.124 S 
ATOM     77  O   UNL A   1      51.122  24.915  26.999  1.00  0.00    -0.237 OA
ATOM     78  O   UNL A   1      51.436  26.715  25.334  1.00  0.00    -0.237 OA
ATOM     79  O   UNL A   1      52.338  26.976  27.609  1.00  0.00    -0.744 OA
ENDBRANCH  75  76
ENDBRANCH  47  70
BRANCH  59  80
ATOM     80  C   UNL A   1      45.566  34.182  31.180  1.00  0.00    -0.014 A 
ATOM     81  C   UNL A   1      45.989  34.166  32.521  1.00  0.00     0.010 A 
ATOM     82  C   UNL A   1      45.932  35.261  30.356  1.00  0.00     0.010 A 
ATOM     83  C   UNL A   1      46.727  35.232  33.040  1.00  0.00     0.020 A 
ATOM     84  C   UNL A   1      46.690  36.317  30.864  1.00  0.00     0.020 A 
ATOM     85  C   UNL A   1      47.066  36.304  32.209  1.00  0.00     0.054 A 
BRANCH  85  86
ATOM     86  S   UNL A   1      48.039  37.672  32.899  1.00  0.00     0.124 S 
ATOM     87  O   UNL A   1      48.441  38.393  31.695  1.00  0.00    -0.237 OA
ATOM     88  O   UNL A   1      47.071  38.359  33.751  1.00  0.00    -0.237 OA
ATOM     89  O   UNL A   1      49.120  36.998  33.614  1.00  0.00    -0.744 OA
ENDBRANCH  85  86
ENDBRANCH  59  80
ENDBRANCH  33  34
ENDBRANCH  25  28
ENDBRANCH  23  24
ENDBRANCH   1  23
TORSDOF 17
ENDMDL
