MODEL 1
REMARK VINA RESULT:     -12.8      0.000      0.000
REMARK SMILES CNC(=O)c1ccc(Cl)cc1NC(=O)[C@H]1[C@@H](C(=O)NCCCNC(=O)c2ccc(-c3c4nc(c(-c5ccc(S(=O)(=O)[O-])cc5)c5ccc([nH]5)c(-c5ccc(S(=O)(=O)[O-])cc5)c5nc(c(-c6ccc(S(=O)(=O)[O-])cc6)c6ccc3[nH]6)C=C5)C=C4)cc2)[C@H]2C=C[C@@H]1C2
REMARK SMILES IDX 21 1 20 2 19 3 17 4 18 5 16 7 15 8 89 9 86 10 88 11 90 12
REMARK SMILES IDX 87 13 13 14 12 15 14 17 11 18 5 19 6 20 7 21 10 22 8 23 9 24
REMARK SMILES IDX 3 25 1 26 2 27 4 29 22 30 23 31 24 32 25 34 26 35 27 36
REMARK SMILES IDX 85 37 28 38 84 39 29 40 30 41 31 42 78 43 32 44 83 45 77 46
REMARK SMILES IDX 79 47 33 48 82 49 76 50 75 51 34 53 64 54 45 55 63 56 46 57
REMARK SMILES IDX 49 58 62 59 80 60 47 61 48 62 61 64 81 65 50 66 35 67 36 68
REMARK SMILES IDX 44 69 37 70 43 71 38 72 39 73 40 74 41 75 42 76 65 77 66 78
REMARK SMILES IDX 74 79 67 80 73 81 68 82 69 83 70 84 71 85 72 86 51 87 52 88
REMARK SMILES IDX 60 89 53 90 59 91 54 92 55 93 56 94 57 95 58 96
REMARK H PARENT 19 6 12 16 2 28 23 33 79 52 49 63
REMARK Flexibility Score: inf
ROOT
ATOM      1  C   UNL A   1      34.293  30.568  27.253  1.00  0.00     0.042 C 
ENDROOT
BRANCH   1   2
ATOM      2  C   UNL A   1      34.241  29.136  26.705  1.00  0.00     0.117 C 
BRANCH   2   3
ATOM      3  N   UNL A   1      34.025  28.925  25.276  1.00  0.00    -0.356 N 
ATOM      4  C   UNL A   1      32.904  28.428  24.657  1.00  0.00     0.224 C 
ATOM      5  O   UNL A   1      32.494  28.984  23.639  1.00  0.00    -0.275 OA
ATOM      6  H   UNL A   1      34.774  29.168  24.684  1.00  0.00     0.163 HD
BRANCH   4   7
ATOM      7  C   UNL A   1      32.156  27.292  25.294  1.00  0.00     0.098 C 
ATOM      8  C   UNL A   1      32.685  25.868  25.133  1.00  0.00     0.099 C 
ATOM      9  C   UNL A   1      31.395  25.000  25.293  1.00  0.00     0.025 C 
ATOM     10  C   UNL A   1      30.628  27.088  25.051  1.00  0.00     0.025 C 
ATOM     11  C   UNL A   1      30.697  25.030  23.968  1.00  0.00    -0.027 C 
ATOM     12  C   UNL A   1      30.429  25.927  26.048  1.00  0.00     0.017 C 
ATOM     13  C   UNL A   1      30.282  26.293  23.793  1.00  0.00    -0.027 C 
BRANCH   8  14
ATOM     14  C   UNL A   1      33.561  25.325  23.999  1.00  0.00     0.228 C 
ATOM     15  N   UNL A   1      34.037  24.109  23.665  1.00  0.00    -0.325 N 
ATOM     16  H   UNL A   1      34.438  24.196  22.771  1.00  0.00     0.169 HD
ATOM     17  O   UNL A   1      33.869  26.189  23.150  1.00  0.00    -0.274 OA
BRANCH  15  18
ATOM     18  C   UNL A   1      34.203  22.758  24.059  1.00  0.00     0.055 A 
ATOM     19  C   UNL A   1      35.537  22.282  24.221  1.00  0.00     0.063 A 
ATOM     20  C   UNL A   1      35.826  21.018  24.762  1.00  0.00     0.017 A 
ATOM     21  C   UNL A   1      34.797  20.125  24.998  1.00  0.00     0.021 A 
ATOM     22  C   UNL A   1      33.190  21.854  24.357  1.00  0.00     0.047 A 
ATOM     23  C   UNL A   1      33.488  20.534  24.759  1.00  0.00     0.043 A 
ATOM     24  Cl  UNL A   1      32.224  19.380  24.959  1.00  0.00    -0.084 Cl
BRANCH  19  25
ATOM     25  C   UNL A   1      36.692  23.082  23.741  1.00  0.00     0.253 C 
ATOM     26  C   UNL A   1      37.405  23.715  26.105  1.00  0.00     0.143 C 
ATOM     27  N   UNL A   1      37.452  23.777  24.658  1.00  0.00    -0.355 N 
ATOM     28  H   UNL A   1      38.116  24.397  24.280  1.00  0.00     0.163 HD
ATOM     29  O   UNL A   1      36.989  23.065  22.559  1.00  0.00    -0.269 OA
ENDBRANCH  19  25
ENDBRANCH  15  18
ENDBRANCH   8  14
ENDBRANCH   4   7
ENDBRANCH   2   3
ENDBRANCH   1   2
BRANCH   1  30
ATOM     30  C   UNL A   1      35.499  30.987  28.084  1.00  0.00     0.118 C 
BRANCH  30  31
ATOM     31  N   UNL A   1      35.490  30.484  29.440  1.00  0.00    -0.352 N 
ATOM     32  C   UNL A   1      36.484  29.896  30.183  1.00  0.00     0.251 C 
ATOM     33  H   UNL A   1      34.629  30.579  29.908  1.00  0.00     0.163 HD
ATOM     34  O   UNL A   1      36.228  29.577  31.343  1.00  0.00    -0.269 OA
BRANCH  32  35
ATOM     35  C   UNL A   1      37.830  29.593  29.630  1.00  0.00     0.039 A 
ATOM     36  C   UNL A   1      38.870  29.408  30.548  1.00  0.00     0.014 A 
ATOM     37  C   UNL A   1      38.118  29.568  28.261  1.00  0.00     0.014 A 
ATOM     38  C   UNL A   1      40.175  29.159  30.105  1.00  0.00     0.010 A 
ATOM     39  C   UNL A   1      39.423  29.282  27.818  1.00  0.00     0.010 A 
ATOM     40  C   UNL A   1      40.466  29.070  28.734  1.00  0.00    -0.014 A 
BRANCH  40  41
ATOM     41  C   UNL A   1      41.845  28.705  28.293  1.00  0.00     0.031 A 
ATOM     42  C   UNL A   1      42.960  29.721  28.250  1.00  0.00     0.074 A 
ATOM     43  C   UNL A   1      42.109  27.430  27.938  1.00  0.00     0.049 A 
ATOM     44  N   UNL A   1      44.230  29.538  27.979  1.00  0.00    -0.248 NA
ATOM     45  C   UNL A   1      42.608  31.119  28.540  1.00  0.00     0.031 C 
ATOM     46  C   UNL A   1      41.124  26.346  27.894  1.00  0.00     0.029 A 
ATOM     47  N   UNL A   1      43.283  26.824  27.556  1.00  0.00    -0.354 N 
ATOM     48  C   UNL A   1      44.827  30.792  28.059  1.00  0.00     0.074 A 
ATOM     49  C   UNL A   1      43.773  31.733  28.376  1.00  0.00     0.031 C 
ATOM     50  C   UNL A   1      41.738  25.207  27.535  1.00  0.00     0.029 A 
ATOM     51  C   UNL A   1      43.154  25.478  27.298  1.00  0.00     0.049 A 
ATOM     52  H   UNL A   1      44.136  27.308  27.475  1.00  0.00     0.167 HD
ATOM     53  C   UNL A   1      46.131  31.129  27.897  1.00  0.00     0.031 A 
ATOM     54  C   UNL A   1      44.064  24.560  26.918  1.00  0.00     0.031 A 
ATOM     55  C   UNL A   1      47.189  30.199  27.586  1.00  0.00     0.049 A 
ATOM     56  C   UNL A   1      45.503  24.965  26.745  1.00  0.00     0.074 A 
ATOM     57  C   UNL A   1      48.547  30.450  27.473  1.00  0.00     0.029 A 
ATOM     58  N   UNL A   1      47.014  28.849  27.326  1.00  0.00    -0.354 N 
ATOM     59  N   UNL A   1      46.059  26.140  26.924  1.00  0.00    -0.248 NA
ATOM     60  C   UNL A   1      46.444  23.910  26.337  1.00  0.00     0.031 C 
ATOM     61  C   UNL A   1      49.186  29.264  27.094  1.00  0.00     0.029 A 
ATOM     62  C   UNL A   1      48.234  28.262  27.026  1.00  0.00     0.049 A 
ATOM     63  H   UNL A   1      46.151  28.376  27.352  1.00  0.00     0.167 HD
ATOM     64  C   UNL A   1      47.416  25.956  26.675  1.00  0.00     0.074 A 
ATOM     65  C   UNL A   1      47.601  24.556  26.359  1.00  0.00     0.031 C 
ATOM     66  C   UNL A   1      48.418  26.870  26.707  1.00  0.00     0.031 A 
BRANCH  53  67
ATOM     67  C   UNL A   1      46.512  32.580  28.050  1.00  0.00    -0.014 A 
ATOM     68  C   UNL A   1      46.482  33.457  26.952  1.00  0.00     0.010 A 
ATOM     69  C   UNL A   1      46.798  33.096  29.329  1.00  0.00     0.010 A 
ATOM     70  C   UNL A   1      46.752  34.818  27.125  1.00  0.00     0.020 A 
ATOM     71  C   UNL A   1      47.045  34.460  29.510  1.00  0.00     0.020 A 
ATOM     72  C   UNL A   1      47.030  35.312  28.404  1.00  0.00     0.054 A 
BRANCH  72  73
ATOM     73  S   UNL A   1      47.320  37.092  28.606  1.00  0.00     0.124 S 
ATOM     74  O   UNL A   1      48.061  37.136  29.864  1.00  0.00    -0.237 OA
ATOM     75  O   UNL A   1      48.091  37.429  27.411  1.00  0.00    -0.237 OA
ATOM     76  O   UNL A   1      45.975  37.660  28.656  1.00  0.00    -0.744 OA
ENDBRANCH  72  73
ENDBRANCH  53  67
BRANCH  54  77
ATOM     77  C   UNL A   1      43.652  23.150  26.676  1.00  0.00    -0.014 A 
ATOM     78  C   UNL A   1      42.812  22.481  27.585  1.00  0.00     0.010 A 
ATOM     79  C   UNL A   1      44.131  22.456  25.550  1.00  0.00     0.010 A 
ATOM     80  C   UNL A   1      42.490  21.134  27.393  1.00  0.00     0.020 A 
ATOM     81  C   UNL A   1      43.787  21.118  25.339  1.00  0.00     0.020 A 
ATOM     82  C   UNL A   1      42.984  20.461  26.273  1.00  0.00     0.054 A 
BRANCH  82  83
ATOM     83  S   UNL A   1      42.541  18.718  26.030  1.00  0.00     0.124 S 
ATOM     84  O   UNL A   1      41.122  18.809  25.701  1.00  0.00    -0.237 OA
ATOM     85  O   UNL A   1      43.421  18.315  24.936  1.00  0.00    -0.237 OA
ATOM     86  O   UNL A   1      42.848  18.106  27.322  1.00  0.00    -0.744 OA
ENDBRANCH  82  83
ENDBRANCH  54  77
BRANCH  66  87
ATOM     87  C   UNL A   1      49.813  26.374  26.423  1.00  0.00    -0.014 A 
ATOM     88  C   UNL A   1      50.655  25.927  27.457  1.00  0.00     0.010 A 
ATOM     89  C   UNL A   1      50.285  26.347  25.098  1.00  0.00     0.010 A 
ATOM     90  C   UNL A   1      51.962  25.514  27.178  1.00  0.00     0.020 A 
ATOM     91  C   UNL A   1      51.582  25.909  24.811  1.00  0.00     0.020 A 
ATOM     92  C   UNL A   1      52.420  25.516  25.856  1.00  0.00     0.054 A 
BRANCH  92  93
ATOM     93  S   UNL A   1      54.117  24.974  25.515  1.00  0.00     0.124 S 
ATOM     94  O   UNL A   1      53.907  23.627  24.991  1.00  0.00    -0.237 OA
ATOM     95  O   UNL A   1      54.583  25.960  24.542  1.00  0.00    -0.237 OA
ATOM     96  O   UNL A   1      54.770  25.040  26.820  1.00  0.00    -0.744 OA
ENDBRANCH  92  93
ENDBRANCH  66  87
ENDBRANCH  40  41
ENDBRANCH  32  35
ENDBRANCH  30  31
ENDBRANCH   1  30
TORSDOF 16
ENDMDL
MODEL 2
REMARK VINA RESULT:     -12.8      0.612      7.985
REMARK SMILES CNC(=O)c1ccc(Cl)cc1NC(=O)[C@H]1[C@@H](C(=O)NCCCNC(=O)c2ccc(-c3c4nc(c(-c5ccc(S(=O)(=O)[O-])cc5)c5ccc([nH]5)c(-c5ccc(S(=O)(=O)[O-])cc5)c5nc(c(-c6ccc(S(=O)(=O)[O-])cc6)c6ccc3[nH]6)C=C5)C=C4)cc2)[C@H]2C=C[C@@H]1C2
REMARK SMILES IDX 21 1 20 2 19 3 17 4 18 5 16 7 15 8 89 9 86 10 88 11 90 12
REMARK SMILES IDX 87 13 13 14 12 15 14 17 11 18 5 19 6 20 7 21 10 22 8 23 9 24
REMARK SMILES IDX 3 25 1 26 2 27 4 29 22 30 23 31 24 32 25 34 26 35 27 36
REMARK SMILES IDX 85 37 28 38 84 39 29 40 30 41 31 42 78 43 32 44 83 45 77 46
REMARK SMILES IDX 79 47 33 48 82 49 76 50 75 51 34 53 64 54 45 55 63 56 46 57
REMARK SMILES IDX 49 58 62 59 80 60 47 61 48 62 61 64 81 65 50 66 35 67 36 68
REMARK SMILES IDX 44 69 37 70 43 71 38 72 39 73 40 74 41 75 42 76 65 77 66 78
REMARK SMILES IDX 74 79 67 80 73 81 68 82 69 83 70 84 71 85 72 86 51 87 52 88
REMARK SMILES IDX 60 89 53 90 59 91 54 92 55 93 56 94 57 95 58 96
REMARK H PARENT 19 6 12 16 2 28 23 33 79 52 49 63
REMARK Flexibility Score: inf
ROOT
ATOM      1  C   UNL A   1      34.188  30.133  27.091  1.00  0.00     0.042 C 
ENDROOT
BRANCH   1   2
ATOM      2  C   UNL A   1      34.293  28.778  26.380  1.00  0.00     0.117 C 
BRANCH   2   3
ATOM      3  N   UNL A   1      33.908  28.677  24.975  1.00  0.00    -0.356 N 
ATOM      4  C   UNL A   1      32.698  28.279  24.459  1.00  0.00     0.224 C 
ATOM      5  O   UNL A   1      32.209  28.923  23.532  1.00  0.00    -0.275 OA
ATOM      6  H   UNL A   1      34.598  28.924  24.318  1.00  0.00     0.163 HD
BRANCH   4   7
ATOM      7  C   UNL A   1      31.964  27.139  25.105  1.00  0.00     0.098 C 
ATOM      8  C   UNL A   1      32.520  25.722  24.972  1.00  0.00     0.099 C 
ATOM      9  C   UNL A   1      31.244  24.834  25.131  1.00  0.00     0.025 C 
ATOM     10  C   UNL A   1      30.443  26.903  24.848  1.00  0.00     0.025 C 
ATOM     11  C   UNL A   1      30.561  24.831  23.797  1.00  0.00    -0.027 C 
ATOM     12  C   UNL A   1      30.253  25.755  25.860  1.00  0.00     0.017 C 
ATOM     13  C   UNL A   1      30.125  26.084  23.598  1.00  0.00    -0.027 C 
BRANCH   8  14
ATOM     14  C   UNL A   1      33.418  25.178  23.856  1.00  0.00     0.228 C 
ATOM     15  N   UNL A   1      33.939  23.972  23.560  1.00  0.00    -0.325 N 
ATOM     16  H   UNL A   1      34.340  24.047  22.664  1.00  0.00     0.169 HD
ATOM     17  O   UNL A   1      33.698  26.028  22.983  1.00  0.00    -0.274 OA
BRANCH  15  18
ATOM     18  C   UNL A   1      34.153  22.639  23.993  1.00  0.00     0.055 A 
ATOM     19  C   UNL A   1      35.502  22.223  24.190  1.00  0.00     0.063 A 
ATOM     20  C   UNL A   1      35.833  20.987  24.771  1.00  0.00     0.017 A 
ATOM     21  C   UNL A   1      34.836  20.059  25.016  1.00  0.00     0.021 A 
ATOM     22  C   UNL A   1      33.173  21.703  24.300  1.00  0.00     0.047 A 
ATOM     23  C   UNL A   1      33.517  20.408  24.743  1.00  0.00     0.043 A 
ATOM     24  Cl  UNL A   1      32.297  19.209  24.954  1.00  0.00    -0.084 Cl
BRANCH  19  25
ATOM     25  C   UNL A   1      36.632  23.057  23.708  1.00  0.00     0.253 C 
ATOM     26  C   UNL A   1      37.374  23.654  26.072  1.00  0.00     0.143 C 
ATOM     27  N   UNL A   1      37.394  23.747  24.626  1.00  0.00    -0.355 N 
ATOM     28  H   UNL A   1      38.039  24.389  24.249  1.00  0.00     0.163 HD
ATOM     29  O   UNL A   1      36.908  23.070  22.521  1.00  0.00    -0.269 OA
ENDBRANCH  19  25
ENDBRANCH  15  18
ENDBRANCH   8  14
ENDBRANCH   4   7
ENDBRANCH   2   3
ENDBRANCH   1   2
BRANCH   1  30
ATOM     30  C   UNL A   1      35.398  30.648  27.859  1.00  0.00     0.118 C 
BRANCH  30  31
ATOM     31  N   UNL A   1      35.376  30.351  29.275  1.00  0.00    -0.352 N 
ATOM     32  C   UNL A   1      36.377  29.936  30.118  1.00  0.00     0.251 C 
ATOM     33  H   UNL A   1      34.497  30.464  29.705  1.00  0.00     0.163 HD
ATOM     34  O   UNL A   1      36.104  29.777  31.307  1.00  0.00    -0.269 OA
BRANCH  32  35
ATOM     35  C   UNL A   1      37.753  29.633  29.646  1.00  0.00     0.039 A 
ATOM     36  C   UNL A   1      38.718  29.363  30.623  1.00  0.00     0.014 A 
ATOM     37  C   UNL A   1      38.142  29.687  28.303  1.00  0.00     0.014 A 
ATOM     38  C   UNL A   1      40.046  29.108  30.261  1.00  0.00     0.010 A 
ATOM     39  C   UNL A   1      39.469  29.394  27.938  1.00  0.00     0.010 A 
ATOM     40  C   UNL A   1      40.436  29.097  28.912  1.00  0.00    -0.014 A 
BRANCH  40  41
ATOM     41  C   UNL A   1      41.836  28.724  28.549  1.00  0.00     0.031 A 
ATOM     42  C   UNL A   1      42.195  27.331  28.097  1.00  0.00     0.074 A 
ATOM     43  C   UNL A   1      42.805  29.662  28.612  1.00  0.00     0.049 A 
ATOM     44  N   UNL A   1      43.346  26.879  27.660  1.00  0.00    -0.248 NA
ATOM     45  C   UNL A   1      41.135  26.313  28.145  1.00  0.00     0.031 C 
ATOM     46  C   UNL A   1      42.616  31.041  29.068  1.00  0.00     0.029 A 
ATOM     47  N   UNL A   1      44.140  29.602  28.285  1.00  0.00    -0.354 N 
ATOM     48  C   UNL A   1      43.153  25.528  27.387  1.00  0.00     0.074 A 
ATOM     49  C   UNL A   1      41.780  25.228  27.736  1.00  0.00     0.031 C 
ATOM     50  C   UNL A   1      43.781  31.703  28.965  1.00  0.00     0.029 A 
ATOM     51  C   UNL A   1      44.807  30.794  28.461  1.00  0.00     0.049 A 
ATOM     52  H   UNL A   1      44.577  28.785  27.956  1.00  0.00     0.167 HD
ATOM     53  C   UNL A   1      44.031  24.625  26.883  1.00  0.00     0.031 A 
ATOM     54  C   UNL A   1      46.095  31.126  28.243  1.00  0.00     0.031 A 
ATOM     55  C   UNL A   1      45.398  24.915  26.529  1.00  0.00     0.049 A 
ATOM     56  C   UNL A   1      47.044  30.101  27.684  1.00  0.00     0.074 A 
ATOM     57  C   UNL A   1      46.332  24.071  25.948  1.00  0.00     0.029 A 
ATOM     58  N   UNL A   1      46.034  26.129  26.730  1.00  0.00    -0.354 N 
ATOM     59  N   UNL A   1      46.810  28.856  27.342  1.00  0.00    -0.248 NA
ATOM     60  C   UNL A   1      48.432  30.535  27.463  1.00  0.00     0.031 C 
ATOM     61  C   UNL A   1      47.546  24.759  25.845  1.00  0.00     0.029 A 
ATOM     62  C   UNL A   1      47.354  26.048  26.310  1.00  0.00     0.049 A 
ATOM     63  H   UNL A   1      45.612  26.932  27.112  1.00  0.00     0.167 HD
ATOM     64  C   UNL A   1      48.014  28.370  26.841  1.00  0.00     0.074 A 
ATOM     65  C   UNL A   1      48.965  29.459  26.902  1.00  0.00     0.031 C 
ATOM     66  C   UNL A   1      48.302  27.130  26.374  1.00  0.00     0.031 A 
BRANCH  53  67
ATOM     67  C   UNL A   1      43.549  23.210  26.676  1.00  0.00    -0.014 A 
ATOM     68  C   UNL A   1      43.692  22.571  25.431  1.00  0.00     0.010 A 
ATOM     69  C   UNL A   1      43.045  22.477  27.767  1.00  0.00     0.010 A 
ATOM     70  C   UNL A   1      43.321  21.233  25.277  1.00  0.00     0.020 A 
ATOM     71  C   UNL A   1      42.696  21.131  27.622  1.00  0.00     0.020 A 
ATOM     72  C   UNL A   1      42.827  20.519  26.374  1.00  0.00     0.054 A 
BRANCH  72  73
ATOM     73  S   UNL A   1      42.408  18.767  26.156  1.00  0.00     0.124 S 
ATOM     74  O   UNL A   1      41.007  18.840  25.749  1.00  0.00    -0.237 OA
ATOM     75  O   UNL A   1      43.342  18.341  25.116  1.00  0.00    -0.237 OA
ATOM     76  O   UNL A   1      42.644  18.186  27.475  1.00  0.00    -0.744 OA
ENDBRANCH  72  73
ENDBRANCH  53  67
BRANCH  54  77
ATOM     77  C   UNL A   1      46.576  32.502  28.546  1.00  0.00    -0.014 A 
ATOM     78  C   UNL A   1      46.581  33.497  27.551  1.00  0.00     0.010 A 
ATOM     79  C   UNL A   1      47.069  32.813  29.826  1.00  0.00     0.010 A 
ATOM     80  C   UNL A   1      47.105  34.765  27.819  1.00  0.00     0.020 A 
ATOM     81  C   UNL A   1      47.566  34.089  30.106  1.00  0.00     0.020 A 
ATOM     82  C   UNL A   1      47.599  35.051  29.095  1.00  0.00     0.054 A 
BRANCH  82  83
ATOM     83  S   UNL A   1      48.259  36.707  29.430  1.00  0.00     0.124 S 
ATOM     84  O   UNL A   1      49.651  36.417  29.758  1.00  0.00    -0.237 OA
ATOM     85  O   UNL A   1      48.038  37.401  28.163  1.00  0.00    -0.237 OA
ATOM     86  O   UNL A   1      47.437  37.182  30.542  1.00  0.00    -0.744 OA
ENDBRANCH  82  83
ENDBRANCH  54  77
BRANCH  66  87
ATOM     87  C   UNL A   1      49.699  26.895  25.859  1.00  0.00    -0.014 A 
ATOM     88  C   UNL A   1      50.739  26.496  26.717  1.00  0.00     0.010 A 
ATOM     89  C   UNL A   1      49.974  27.069  24.490  1.00  0.00     0.010 A 
ATOM     90  C   UNL A   1      52.038  26.327  26.228  1.00  0.00     0.020 A 
ATOM     91  C   UNL A   1      51.265  26.874  23.990  1.00  0.00     0.020 A 
ATOM     92  C   UNL A   1      52.294  26.526  24.867  1.00  0.00     0.054 A 
BRANCH  92  93
ATOM     93  S   UNL A   1      53.986  26.301  24.251  1.00  0.00     0.124 S 
ATOM     94  O   UNL A   1      53.809  26.469  22.811  1.00  0.00    -0.237 OA
ATOM     95  O   UNL A   1      54.721  27.370  24.923  1.00  0.00    -0.237 OA
ATOM     96  O   UNL A   1      54.334  24.949  24.682  1.00  0.00    -0.744 OA
ENDBRANCH  92  93
ENDBRANCH  66  87
ENDBRANCH  40  41
ENDBRANCH  32  35
ENDBRANCH  30  31
ENDBRANCH   1  30
TORSDOF 16
ENDMDL
MODEL 3
REMARK VINA RESULT:     -12.7      6.559     12.210
REMARK SMILES CNC(=O)c1ccc(Cl)cc1NC(=O)[C@H]1[C@@H](C(=O)NCCCNC(=O)c2ccc(-c3c4nc(c(-c5ccc(S(=O)(=O)[O-])cc5)c5ccc([nH]5)c(-c5ccc(S(=O)(=O)[O-])cc5)c5nc(c(-c6ccc(S(=O)(=O)[O-])cc6)c6ccc3[nH]6)C=C5)C=C4)cc2)[C@H]2C=C[C@@H]1C2
REMARK SMILES IDX 21 1 20 2 19 3 17 4 18 5 16 7 15 8 89 9 86 10 88 11 90 12
REMARK SMILES IDX 87 13 13 14 12 15 14 17 11 18 5 19 6 20 7 21 10 22 8 23 9 24
REMARK SMILES IDX 3 25 1 26 2 27 4 29 22 30 23 31 24 32 25 34 26 35 27 36
REMARK SMILES IDX 85 37 28 38 84 39 29 40 30 41 31 42 78 43 32 44 83 45 77 46
REMARK SMILES IDX 79 47 33 48 82 49 76 50 75 51 34 53 64 54 45 55 63 56 46 57
REMARK SMILES IDX 49 58 62 59 80 60 47 61 48 62 61 64 81 65 50 66 35 67 36 68
REMARK SMILES IDX 44 69 37 70 43 71 38 72 39 73 40 74 41 75 42 76 65 77 66 78
REMARK SMILES IDX 74 79 67 80 73 81 68 82 69 83 70 84 71 85 72 86 51 87 52 88
REMARK SMILES IDX 60 89 53 90 59 91 54 92 55 93 56 94 57 95 58 96
REMARK H PARENT 19 6 12 16 2 28 23 33 79 52 49 63
REMARK Flexibility Score: inf
ROOT
ATOM      1  C   UNL A   1      38.995  22.195  26.286  1.00  0.00     0.042 C 
ENDROOT
BRANCH   1   2
ATOM      2  C   UNL A   1      37.642  22.523  25.642  1.00  0.00     0.117 C 
BRANCH   2   3
ATOM      3  N   UNL A   1      36.428  22.440  26.449  1.00  0.00    -0.356 N 
ATOM      4  C   UNL A   1      35.140  22.241  26.015  1.00  0.00     0.224 C 
ATOM      5  O   UNL A   1      34.426  21.446  26.625  1.00  0.00    -0.275 OA
ATOM      6  H   UNL A   1      36.546  22.538  27.422  1.00  0.00     0.163 HD
BRANCH   4   7
ATOM      7  C   UNL A   1      34.676  22.915  24.756  1.00  0.00     0.098 C 
ATOM      8  C   UNL A   1      33.875  24.213  24.857  1.00  0.00     0.099 C 
ATOM      9  C   UNL A   1      33.048  24.212  23.530  1.00  0.00     0.025 C 
ATOM     10  C   UNL A   1      33.876  22.138  23.665  1.00  0.00     0.025 C 
ATOM     11  C   UNL A   1      31.871  23.315  23.766  1.00  0.00    -0.027 C 
ATOM     12  C   UNL A   1      33.840  23.266  22.613  1.00  0.00     0.017 C 
ATOM     13  C   UNL A   1      32.368  22.076  23.901  1.00  0.00    -0.027 C 
BRANCH   8  14
ATOM     14  C   UNL A   1      33.009  24.681  26.030  1.00  0.00     0.228 C 
ATOM     15  N   UNL A   1      32.555  25.874  26.459  1.00  0.00    -0.325 N 
ATOM     16  H   UNL A   1      31.906  25.691  27.176  1.00  0.00     0.169 HD
ATOM     17  O   UNL A   1      32.572  23.743  26.732  1.00  0.00    -0.274 OA
BRANCH  15  18
ATOM     18  C   UNL A   1      32.616  27.283  26.312  1.00  0.00     0.055 A 
ATOM     19  C   UNL A   1      31.648  27.897  25.465  1.00  0.00     0.063 A 
ATOM     20  C   UNL A   1      31.506  29.291  25.370  1.00  0.00     0.017 A 
ATOM     21  C   UNL A   1      32.433  30.116  25.981  1.00  0.00     0.021 A 
ATOM     22  C   UNL A   1      33.500  28.142  26.956  1.00  0.00     0.047 A 
ATOM     23  C   UNL A   1      33.446  29.536  26.740  1.00  0.00     0.043 A 
ATOM     24  Cl  UNL A   1      34.653  30.567  27.411  1.00  0.00    -0.084 Cl
BRANCH  19  25
ATOM     25  C   UNL A   1      30.791  27.076  24.573  1.00  0.00     0.253 C 
ATOM     26  C   UNL A   1      32.160  27.655  22.503  1.00  0.00     0.143 C 
ATOM     27  N   UNL A   1      31.038  27.081  23.217  1.00  0.00    -0.355 N 
ATOM     28  H   UNL A   1      30.361  26.633  22.658  1.00  0.00     0.163 HD
ATOM     29  O   UNL A   1      29.926  26.365  25.055  1.00  0.00    -0.269 OA
ENDBRANCH  19  25
ENDBRANCH  15  18
ENDBRANCH   8  14
ENDBRANCH   4   7
ENDBRANCH   2   3
ENDBRANCH   1   2
BRANCH   1  30
ATOM     30  C   UNL A   1      39.784  23.322  26.940  1.00  0.00     0.118 C 
BRANCH  30  31
ATOM     31  N   UNL A   1      40.488  24.175  26.007  1.00  0.00    -0.352 N 
ATOM     32  C   UNL A   1      40.963  25.455  26.149  1.00  0.00     0.251 C 
ATOM     33  H   UNL A   1      40.653  23.771  25.125  1.00  0.00     0.163 HD
ATOM     34  O   UNL A   1      41.563  25.959  25.200  1.00  0.00    -0.269 OA
BRANCH  32  35
ATOM     35  C   UNL A   1      40.744  26.264  27.377  1.00  0.00     0.039 A 
ATOM     36  C   UNL A   1      41.658  27.292  27.636  1.00  0.00     0.014 A 
ATOM     37  C   UNL A   1      39.737  25.998  28.311  1.00  0.00     0.014 A 
ATOM     38  C   UNL A   1      41.543  28.072  28.792  1.00  0.00     0.010 A 
ATOM     39  C   UNL A   1      39.601  26.806  29.455  1.00  0.00     0.010 A 
ATOM     40  C   UNL A   1      40.499  27.856  29.707  1.00  0.00    -0.014 A 
BRANCH  40  41
ATOM     41  C   UNL A   1      40.344  28.767  30.880  1.00  0.00     0.031 A 
ATOM     42  C   UNL A   1      41.196  28.622  32.117  1.00  0.00     0.074 A 
ATOM     43  C   UNL A   1      39.427  29.757  30.829  1.00  0.00     0.049 A 
ATOM     44  N   UNL A   1      41.243  29.391  33.178  1.00  0.00    -0.248 NA
ATOM     45  C   UNL A   1      42.105  27.468  32.177  1.00  0.00     0.031 C 
ATOM     46  C   UNL A   1      38.506  29.997  29.716  1.00  0.00     0.029 A 
ATOM     47  N   UNL A   1      39.124  30.752  31.729  1.00  0.00    -0.354 N 
ATOM     48  C   UNL A   1      42.177  28.815  34.033  1.00  0.00     0.074 A 
ATOM     49  C   UNL A   1      42.652  27.613  33.377  1.00  0.00     0.031 C 
ATOM     50  C   UNL A   1      37.763  31.083  29.985  1.00  0.00     0.029 A 
ATOM     51  C   UNL A   1      38.132  31.604  31.299  1.00  0.00     0.049 A 
ATOM     52  H   UNL A   1      39.574  30.846  32.599  1.00  0.00     0.167 HD
ATOM     53  C   UNL A   1      42.609  29.248  35.243  1.00  0.00     0.031 A 
ATOM     54  C   UNL A   1      37.580  32.685  31.885  1.00  0.00     0.031 A 
ATOM     55  C   UNL A   1      42.146  30.444  35.902  1.00  0.00     0.049 A 
ATOM     56  C   UNL A   1      38.081  33.141  33.229  1.00  0.00     0.074 A 
ATOM     57  C   UNL A   1      42.585  30.990  37.098  1.00  0.00     0.029 A 
ATOM     58  N   UNL A   1      41.138  31.274  35.436  1.00  0.00    -0.354 N 
ATOM     59  N   UNL A   1      39.036  32.633  33.971  1.00  0.00    -0.248 NA
ATOM     60  C   UNL A   1      37.439  34.332  33.806  1.00  0.00     0.031 C 
ATOM     61  C   UNL A   1      41.807  32.119  37.381  1.00  0.00     0.029 A 
ATOM     62  C   UNL A   1      40.922  32.308  36.334  1.00  0.00     0.049 A 
ATOM     63  H   UNL A   1      40.649  31.147  34.592  1.00  0.00     0.167 HD
ATOM     64  C   UNL A   1      39.125  33.460  35.088  1.00  0.00     0.074 A 
ATOM     65  C   UNL A   1      38.147  34.511  34.912  1.00  0.00     0.031 C 
ATOM     66  C   UNL A   1      39.946  33.353  36.162  1.00  0.00     0.031 A 
BRANCH  53  67
ATOM     67  C   UNL A   1      43.650  28.424  35.959  1.00  0.00    -0.014 A 
ATOM     68  C   UNL A   1      43.280  27.356  36.795  1.00  0.00     0.010 A 
ATOM     69  C   UNL A   1      45.017  28.654  35.709  1.00  0.00     0.010 A 
ATOM     70  C   UNL A   1      44.255  26.546  37.383  1.00  0.00     0.020 A 
ATOM     71  C   UNL A   1      45.994  27.832  36.276  1.00  0.00     0.020 A 
ATOM     72  C   UNL A   1      45.608  26.788  37.119  1.00  0.00     0.054 A 
BRANCH  72  73
ATOM     73  S   UNL A   1      46.849  25.684  37.851  1.00  0.00     0.124 S 
ATOM     74  O   UNL A   1      47.693  25.375  36.699  1.00  0.00    -0.237 OA
ATOM     75  O   UNL A   1      47.465  26.527  38.873  1.00  0.00    -0.237 OA
ATOM     76  O   UNL A   1      46.061  24.565  38.363  1.00  0.00    -0.744 OA
ENDBRANCH  72  73
ENDBRANCH  53  67
BRANCH  54  77
ATOM     77  C   UNL A   1      36.485  33.430  31.205  1.00  0.00    -0.014 A 
ATOM     78  C   UNL A   1      35.255  33.648  31.852  1.00  0.00     0.010 A 
ATOM     79  C   UNL A   1      36.656  33.893  29.888  1.00  0.00     0.010 A 
ATOM     80  C   UNL A   1      34.204  34.281  31.183  1.00  0.00     0.020 A 
ATOM     81  C   UNL A   1      35.618  34.553  29.225  1.00  0.00     0.020 A 
ATOM     82  C   UNL A   1      34.392  34.725  29.871  1.00  0.00     0.054 A 
BRANCH  82  83
ATOM     83  S   UNL A   1      33.023  35.561  29.022  1.00  0.00     0.124 S 
ATOM     84  O   UNL A   1      32.176  35.966  30.140  1.00  0.00    -0.237 OA
ATOM     85  O   UNL A   1      33.700  36.645  28.314  1.00  0.00    -0.237 OA
ATOM     86  O   UNL A   1      32.469  34.517  28.161  1.00  0.00    -0.744 OA
ENDBRANCH  82  83
ENDBRANCH  54  77
BRANCH  66  87
ATOM     87  C   UNL A   1      39.843  34.424  37.218  1.00  0.00    -0.014 A 
ATOM     88  C   UNL A   1      39.008  34.269  38.339  1.00  0.00     0.010 A 
ATOM     89  C   UNL A   1      40.602  35.602  37.089  1.00  0.00     0.010 A 
ATOM     90  C   UNL A   1      38.892  35.294  39.283  1.00  0.00     0.020 A 
ATOM     91  C   UNL A   1      40.510  36.618  38.046  1.00  0.00     0.020 A 
ATOM     92  C   UNL A   1      39.638  36.466  39.125  1.00  0.00     0.054 A 
BRANCH  92  93
ATOM     93  S   UNL A   1      39.475  37.783  40.363  1.00  0.00     0.124 S 
ATOM     94  O   UNL A   1      39.377  37.021  41.606  1.00  0.00    -0.237 OA
ATOM     95  O   UNL A   1      40.709  38.545  40.190  1.00  0.00    -0.237 OA
ATOM     96  O   UNL A   1      38.256  38.483  39.964  1.00  0.00    -0.744 OA
ENDBRANCH  92  93
ENDBRANCH  66  87
ENDBRANCH  40  41
ENDBRANCH  32  35
ENDBRANCH  30  31
ENDBRANCH   1  30
TORSDOF 16
ENDMDL
