MODEL 1
REMARK VINA RESULT:     -10.9      0.000      0.000
REMARK SMILES O=C(C[C@H]1C[C@H]2CC[C@@H](C1)N2C(=O)[C@H]1CCCCO1)NCCCNC(=O)c1ccc(-c2c3nc(c(-c4ccc(S(=O)(=O)[O-])cc4)c4ccc([nH]4)c(-c4ccc(S(=O)(=O)[O-])cc4)c4nc(c(-c5ccc(S(=O)(=O)[O-])cc5)c5ccc2[nH]5)C=C4)C=C3)cc1
REMARK SMILES IDX 22 1 21 2 20 3 1 4 2 5 3 7 4 8 5 9 10 10 6 11 9 12 7 13
REMARK SMILES IDX 11 14 8 15 12 16 13 17 14 18 15 19 19 20 16 21 18 22 17 23
REMARK SMILES IDX 23 24 24 25 25 26 26 28 27 29 28 30 86 31 29 32 85 33 30 34
REMARK SMILES IDX 31 35 32 36 79 37 33 38 84 39 78 40 80 41 34 42 83 43 77 44
REMARK SMILES IDX 76 45 35 47 65 48 46 49 64 50 47 51 50 52 63 53 81 54 48 55
REMARK SMILES IDX 49 56 62 58 82 59 51 60 36 61 37 62 45 63 38 64 44 65 39 66
REMARK SMILES IDX 40 67 41 68 42 69 43 70 66 71 67 72 75 73 68 74 74 75 69 76
REMARK SMILES IDX 70 77 71 78 72 79 73 80 52 81 53 82 61 83 54 84 60 85 55 86
REMARK SMILES IDX 56 87 57 88 58 89 59 90
REMARK H PARENT 20 6 24 27 80 46 50 57
REMARK Flexibility Score: inf
ROOT
ATOM      1  C   UNL A   1      31.882  28.752  26.585  1.00  0.00     0.042 C 
ENDROOT
BRANCH   1   2
ATOM      2  C   UNL A   1      31.452  29.378  25.271  1.00  0.00     0.117 C 
BRANCH   2   3
ATOM      3  N   UNL A   1      31.467  28.468  24.139  1.00  0.00    -0.356 N 
ATOM      4  O   UNL A   1      33.449  29.203  23.228  1.00  0.00    -0.275 OA
ATOM      5  C   UNL A   1      32.569  28.355  23.315  1.00  0.00     0.220 C 
ATOM      6  H   UNL A   1      30.672  27.918  23.955  1.00  0.00     0.163 HD
BRANCH   5   7
ATOM      7  C   UNL A   1      32.654  27.029  22.583  1.00  0.00     0.103 C 
BRANCH   7   8
ATOM      8  C   UNL A   1      33.628  25.974  23.173  1.00  0.00     0.002 C 
ATOM      9  C   UNL A   1      33.957  26.142  24.685  1.00  0.00     0.029 C 
ATOM     10  C   UNL A   1      33.355  24.503  22.786  1.00  0.00     0.029 C 
ATOM     11  C   UNL A   1      33.398  25.045  25.614  1.00  0.00     0.085 C 
ATOM     12  C   UNL A   1      32.758  23.623  23.899  1.00  0.00     0.085 C 
ATOM     13  C   UNL A   1      31.870  25.089  25.636  1.00  0.00     0.027 C 
ATOM     14  N   UNL A   1      33.654  23.736  25.029  1.00  0.00    -0.334 N 
ATOM     15  C   UNL A   1      31.452  24.095  24.544  1.00  0.00     0.027 C 
BRANCH  14  16
ATOM     16  C   UNL A   1      34.387  22.741  25.650  1.00  0.00     0.252 C 
ATOM     17  O   UNL A   1      33.844  21.941  26.415  1.00  0.00    -0.272 OA
BRANCH  16  18
ATOM     18  C   UNL A   1      35.908  22.672  25.325  1.00  0.00     0.207 C 
ATOM     19  C   UNL A   1      36.666  23.738  26.127  1.00  0.00     0.042 C 
ATOM     20  O   UNL A   1      36.452  21.378  25.611  1.00  0.00    -0.368 OA
ATOM     21  C   UNL A   1      38.170  23.657  25.893  1.00  0.00     0.006 C 
ATOM     22  C   UNL A   1      37.829  21.271  25.257  1.00  0.00     0.161 C 
ATOM     23  C   UNL A   1      38.664  22.233  26.089  1.00  0.00     0.029 C 
ENDBRANCH  16  18
ENDBRANCH  14  16
ENDBRANCH   7   8
ENDBRANCH   5   7
ENDBRANCH   2   3
ENDBRANCH   1   2
BRANCH   1  24
ATOM     24  C   UNL A   1      33.283  29.127  27.059  1.00  0.00     0.118 C 
BRANCH  24  25
ATOM     25  N   UNL A   1      33.402  30.468  27.623  1.00  0.00    -0.352 N 
ATOM     26  C   UNL A   1      34.477  31.062  28.257  1.00  0.00     0.251 C 
ATOM     27  H   UNL A   1      32.599  31.031  27.541  1.00  0.00     0.163 HD
ATOM     28  O   UNL A   1      34.374  32.195  28.705  1.00  0.00    -0.269 OA
BRANCH  26  29
ATOM     29  C   UNL A   1      35.733  30.296  28.436  1.00  0.00     0.039 A 
ATOM     30  C   UNL A   1      36.670  30.281  27.399  1.00  0.00     0.014 A 
ATOM     31  C   UNL A   1      36.023  29.677  29.652  1.00  0.00     0.014 A 
ATOM     32  C   UNL A   1      37.949  29.766  27.633  1.00  0.00     0.010 A 
ATOM     33  C   UNL A   1      37.322  29.249  29.911  1.00  0.00     0.010 A 
ATOM     34  C   UNL A   1      38.308  29.315  28.913  1.00  0.00    -0.014 A 
BRANCH  34  35
ATOM     35  C   UNL A   1      39.713  28.968  29.259  1.00  0.00     0.031 A 
ATOM     36  C   UNL A   1      40.622  29.998  29.873  1.00  0.00     0.074 A 
ATOM     37  C   UNL A   1      40.207  27.760  28.913  1.00  0.00     0.049 A 
ATOM     38  N   UNL A   1      41.906  29.925  30.114  1.00  0.00    -0.248 NA
ATOM     39  C   UNL A   1      40.013  31.288  30.236  1.00  0.00     0.031 C 
ATOM     40  C   UNL A   1      39.454  26.685  28.260  1.00  0.00     0.029 A 
ATOM     41  N   UNL A   1      41.471  27.238  29.048  1.00  0.00    -0.354 N 
ATOM     42  C   UNL A   1      42.265  31.168  30.623  1.00  0.00     0.074 A 
ATOM     43  C   UNL A   1      41.071  31.986  30.620  1.00  0.00     0.031 C 
ATOM     44  C   UNL A   1      40.261  25.627  28.076  1.00  0.00     0.029 A 
ATOM     45  C   UNL A   1      41.598  25.960  28.554  1.00  0.00     0.049 A 
ATOM     46  H   UNL A   1      42.216  27.731  29.462  1.00  0.00     0.167 HD
ATOM     47  C   UNL A   1      43.474  31.587  31.068  1.00  0.00     0.031 A 
ATOM     48  C   UNL A   1      42.670  25.148  28.479  1.00  0.00     0.031 A 
ATOM     49  C   UNL A   1      44.654  30.767  31.101  1.00  0.00     0.049 A 
ATOM     50  C   UNL A   1      43.997  25.629  28.995  1.00  0.00     0.074 A 
ATOM     51  C   UNL A   1      45.907  31.082  31.601  1.00  0.00     0.029 A 
ATOM     52  N   UNL A   1      44.731  29.470  30.619  1.00  0.00    -0.354 N 
ATOM     53  N   UNL A   1      44.301  26.790  29.525  1.00  0.00    -0.248 NA
ATOM     54  C   UNL A   1      45.125  24.691  28.905  1.00  0.00     0.031 C 
ATOM     55  C   UNL A   1      46.751  29.987  31.387  1.00  0.00     0.029 A 
ATOM     56  C   UNL A   1      46.013  28.976  30.792  1.00  0.00     0.049 A 
ATOM     57  H   UNL A   1      43.984  28.973  30.213  1.00  0.00     0.167 HD
ATOM     58  C   UNL A   1      45.651  26.715  29.847  1.00  0.00     0.074 A 
ATOM     59  C   UNL A   1      46.102  25.390  29.467  1.00  0.00     0.031 C 
ATOM     60  C   UNL A   1      46.447  27.658  30.405  1.00  0.00     0.031 A 
BRANCH  47  61
ATOM     61  C   UNL A   1      43.573  33.006  31.560  1.00  0.00    -0.014 A 
ATOM     62  C   UNL A   1      43.926  34.051  30.688  1.00  0.00     0.010 A 
ATOM     63  C   UNL A   1      43.291  33.300  32.906  1.00  0.00     0.010 A 
ATOM     64  C   UNL A   1      44.043  35.359  31.165  1.00  0.00     0.020 A 
ATOM     65  C   UNL A   1      43.382  34.612  33.381  1.00  0.00     0.020 A 
ATOM     66  C   UNL A   1      43.779  35.629  32.510  1.00  0.00     0.054 A 
BRANCH  66  67
ATOM     67  S   UNL A   1      43.935  37.337  33.103  1.00  0.00     0.124 S 
ATOM     68  O   UNL A   1      45.223  37.296  33.793  1.00  0.00    -0.237 OA
ATOM     69  O   UNL A   1      43.911  38.112  31.866  1.00  0.00    -0.237 OA
ATOM     70  O   UNL A   1      42.771  37.511  33.967  1.00  0.00    -0.744 OA
ENDBRANCH  66  67
ENDBRANCH  47  61
BRANCH  48  71
ATOM     71  C   UNL A   1      42.531  23.784  27.901  1.00  0.00    -0.014 A 
ATOM     72  C   UNL A   1      42.709  23.578  26.522  1.00  0.00     0.010 A 
ATOM     73  C   UNL A   1      42.236  22.684  28.726  1.00  0.00     0.010 A 
ATOM     74  C   UNL A   1      42.580  22.298  25.975  1.00  0.00     0.020 A 
ATOM     75  C   UNL A   1      42.131  21.399  28.186  1.00  0.00     0.020 A 
ATOM     76  C   UNL A   1      42.293  21.216  26.811  1.00  0.00     0.054 A 
BRANCH  76  77
ATOM     77  S   UNL A   1      42.190  19.554  26.091  1.00  0.00     0.124 S 
ATOM     78  O   UNL A   1      40.768  19.447  25.779  1.00  0.00    -0.237 OA
ATOM     79  O   UNL A   1      43.086  19.651  24.940  1.00  0.00    -0.237 OA
ATOM     80  O   UNL A   1      42.665  18.688  27.168  1.00  0.00    -0.744 OA
ENDBRANCH  76  77
ENDBRANCH  48  71
BRANCH  60  81
ATOM     81  C   UNL A   1      47.883  27.290  30.659  1.00  0.00    -0.014 A 
ATOM     82  C   UNL A   1      48.252  26.565  31.805  1.00  0.00     0.010 A 
ATOM     83  C   UNL A   1      48.865  27.627  29.710  1.00  0.00     0.010 A 
ATOM     84  C   UNL A   1      49.585  26.204  32.011  1.00  0.00     0.020 A 
ATOM     85  C   UNL A   1      50.196  27.247  29.903  1.00  0.00     0.020 A 
ATOM     86  C   UNL A   1      50.550  26.548  31.058  1.00  0.00     0.054 A 
BRANCH  86  87
ATOM     87  S   UNL A   1      52.266  26.025  31.321  1.00  0.00     0.124 S 
ATOM     88  O   UNL A   1      52.093  24.691  31.890  1.00  0.00    -0.237 OA
ATOM     89  O   UNL A   1      52.827  26.065  29.972  1.00  0.00    -0.237 OA
ATOM     90  O   UNL A   1      52.797  27.031  32.239  1.00  0.00    -0.744 OA
ENDBRANCH  86  87
ENDBRANCH  60  81
ENDBRANCH  34  35
ENDBRANCH  26  29
ENDBRANCH  24  25
ENDBRANCH   1  24
TORSDOF 16
ENDMDL
MODEL 2
REMARK VINA RESULT:     -10.6      1.157      2.040
REMARK SMILES O=C(C[C@H]1C[C@H]2CC[C@@H](C1)N2C(=O)[C@H]1CCCCO1)NCCCNC(=O)c1ccc(-c2c3nc(c(-c4ccc(S(=O)(=O)[O-])cc4)c4ccc([nH]4)c(-c4ccc(S(=O)(=O)[O-])cc4)c4nc(c(-c5ccc(S(=O)(=O)[O-])cc5)c5ccc2[nH]5)C=C4)C=C3)cc1
REMARK SMILES IDX 22 1 21 2 20 3 1 4 2 5 3 7 4 8 5 9 10 10 6 11 9 12 7 13
REMARK SMILES IDX 11 14 8 15 12 16 13 17 14 18 15 19 19 20 16 21 18 22 17 23
REMARK SMILES IDX 23 24 24 25 25 26 26 28 27 29 28 30 86 31 29 32 85 33 30 34
REMARK SMILES IDX 31 35 32 36 79 37 33 38 84 39 78 40 80 41 34 42 83 43 77 44
REMARK SMILES IDX 76 45 35 47 65 48 46 49 64 50 47 51 50 52 63 53 81 54 48 55
REMARK SMILES IDX 49 56 62 58 82 59 51 60 36 61 37 62 45 63 38 64 44 65 39 66
REMARK SMILES IDX 40 67 41 68 42 69 43 70 66 71 67 72 75 73 68 74 74 75 69 76
REMARK SMILES IDX 70 77 71 78 72 79 73 80 52 81 53 82 61 83 54 84 60 85 55 86
REMARK SMILES IDX 56 87 57 88 58 89 59 90
REMARK H PARENT 20 6 24 27 80 46 50 57
REMARK Flexibility Score: inf
ROOT
ATOM      1  C   UNL A   1      33.213  29.069  25.709  1.00  0.00     0.042 C 
ENDROOT
BRANCH   1   2
ATOM      2  C   UNL A   1      31.891  29.650  25.241  1.00  0.00     0.117 C 
BRANCH   2   3
ATOM      3  N   UNL A   1      30.975  28.677  24.674  1.00  0.00    -0.356 N 
ATOM      4  O   UNL A   1      31.771  28.780  22.517  1.00  0.00    -0.275 OA
ATOM      5  C   UNL A   1      31.123  28.206  23.385  1.00  0.00     0.220 C 
ATOM      6  H   UNL A   1      30.229  28.344  25.223  1.00  0.00     0.163 HD
BRANCH   5   7
ATOM      7  C   UNL A   1      30.489  26.848  23.150  1.00  0.00     0.103 C 
BRANCH   7   8
ATOM      8  C   UNL A   1      31.441  25.623  23.197  1.00  0.00     0.002 C 
ATOM      9  C   UNL A   1      32.756  25.829  24.003  1.00  0.00     0.029 C 
ATOM     10  C   UNL A   1      30.779  24.257  23.486  1.00  0.00     0.029 C 
ATOM     11  C   UNL A   1      32.870  25.020  25.311  1.00  0.00     0.085 C 
ATOM     12  C   UNL A   1      31.024  23.682  24.892  1.00  0.00     0.085 C 
ATOM     13  C   UNL A   1      31.824  25.489  26.324  1.00  0.00     0.027 C 
ATOM     14  N   UNL A   1      32.460  23.644  25.069  1.00  0.00    -0.334 N 
ATOM     15  C   UNL A   1      30.630  24.554  26.086  1.00  0.00     0.027 C 
BRANCH  14  16
ATOM     16  C   UNL A   1      33.273  22.546  25.281  1.00  0.00     0.252 C 
ATOM     17  O   UNL A   1      34.425  22.685  25.697  1.00  0.00    -0.272 OA
BRANCH  16  18
ATOM     18  C   UNL A   1      32.664  21.143  24.988  1.00  0.00     0.207 C 
ATOM     19  C   UNL A   1      32.728  20.846  23.484  1.00  0.00     0.042 C 
ATOM     20  O   UNL A   1      33.341  20.110  25.712  1.00  0.00    -0.368 OA
ATOM     21  C   UNL A   1      32.206  19.450  23.161  1.00  0.00     0.006 C 
ATOM     22  C   UNL A   1      32.755  18.825  25.511  1.00  0.00     0.161 C 
ATOM     23  C   UNL A   1      32.873  18.413  24.051  1.00  0.00     0.029 C 
ENDBRANCH  16  18
ENDBRANCH  14  16
ENDBRANCH   7   8
ENDBRANCH   5   7
ENDBRANCH   2   3
ENDBRANCH   1   2
BRANCH   1  24
ATOM     24  C   UNL A   1      33.419  29.055  27.221  1.00  0.00     0.118 C 
BRANCH  24  25
ATOM     25  N   UNL A   1      33.539  30.372  27.837  1.00  0.00    -0.352 N 
ATOM     26  C   UNL A   1      34.622  30.950  28.472  1.00  0.00     0.251 C 
ATOM     27  H   UNL A   1      32.729  30.931  27.796  1.00  0.00     0.163 HD
ATOM     28  O   UNL A   1      34.519  32.063  28.969  1.00  0.00    -0.269 OA
BRANCH  26  29
ATOM     29  C   UNL A   1      35.888  30.190  28.593  1.00  0.00     0.039 A 
ATOM     30  C   UNL A   1      36.773  30.171  27.511  1.00  0.00     0.014 A 
ATOM     31  C   UNL A   1      36.242  29.580  29.797  1.00  0.00     0.014 A 
ATOM     32  C   UNL A   1      38.063  29.662  27.683  1.00  0.00     0.010 A 
ATOM     33  C   UNL A   1      37.554  29.158  29.993  1.00  0.00     0.010 A 
ATOM     34  C   UNL A   1      38.488  29.221  28.947  1.00  0.00    -0.014 A 
BRANCH  34  35
ATOM     35  C   UNL A   1      39.910  28.881  29.223  1.00  0.00     0.031 A 
ATOM     36  C   UNL A   1      40.844  29.917  29.785  1.00  0.00     0.074 A 
ATOM     37  C   UNL A   1      40.390  27.672  28.861  1.00  0.00     0.049 A 
ATOM     38  N   UNL A   1      42.139  29.851  29.961  1.00  0.00    -0.248 NA
ATOM     39  C   UNL A   1      40.250  31.207  30.169  1.00  0.00     0.031 C 
ATOM     40  C   UNL A   1      39.609  26.591  28.252  1.00  0.00     0.029 A 
ATOM     41  N   UNL A   1      41.661  27.155  28.935  1.00  0.00    -0.354 N 
ATOM     42  C   UNL A   1      42.518  31.098  30.443  1.00  0.00     0.074 A 
ATOM     43  C   UNL A   1      41.323  31.912  30.495  1.00  0.00     0.031 C 
ATOM     44  C   UNL A   1      40.410  25.534  28.035  1.00  0.00     0.029 A 
ATOM     45  C   UNL A   1      41.768  25.874  28.443  1.00  0.00     0.049 A 
ATOM     46  H   UNL A   1      42.424  27.654  29.308  1.00  0.00     0.167 HD
ATOM     47  C   UNL A   1      43.747  31.524  30.825  1.00  0.00     0.031 A 
ATOM     48  C   UNL A   1      42.838  25.066  28.319  1.00  0.00     0.031 A 
ATOM     49  C   UNL A   1      44.930  30.708  30.804  1.00  0.00     0.049 A 
ATOM     50  C   UNL A   1      44.188  25.554  28.765  1.00  0.00     0.074 A 
ATOM     51  C   UNL A   1      46.205  31.030  31.238  1.00  0.00     0.029 A 
ATOM     52  N   UNL A   1      44.988  29.408  30.326  1.00  0.00    -0.354 N 
ATOM     53  N   UNL A   1      44.513  26.719  29.272  1.00  0.00    -0.248 NA
ATOM     54  C   UNL A   1      45.313  24.620  28.624  1.00  0.00     0.031 C 
ATOM     55  C   UNL A   1      47.042  29.937  30.989  1.00  0.00     0.029 A 
ATOM     56  C   UNL A   1      46.279  28.919  30.438  1.00  0.00     0.049 A 
ATOM     57  H   UNL A   1      44.223  28.906  29.961  1.00  0.00     0.167 HD
ATOM     58  C   UNL A   1      45.879  26.651  29.526  1.00  0.00     0.074 A 
ATOM     59  C   UNL A   1      46.314  25.326  29.132  1.00  0.00     0.031 C 
ATOM     60  C   UNL A   1      46.697  27.601  30.038  1.00  0.00     0.031 A 
BRANCH  47  61
ATOM     61  C   UNL A   1      43.865  32.946  31.303  1.00  0.00    -0.014 A 
ATOM     62  C   UNL A   1      43.911  33.246  32.676  1.00  0.00     0.010 A 
ATOM     63  C   UNL A   1      43.950  33.992  30.368  1.00  0.00     0.010 A 
ATOM     64  C   UNL A   1      43.991  34.573  33.107  1.00  0.00     0.020 A 
ATOM     65  C   UNL A   1      44.056  35.320  30.796  1.00  0.00     0.020 A 
ATOM     66  C   UNL A   1      44.054  35.602  32.163  1.00  0.00     0.054 A 
BRANCH  66  67
ATOM     67  S   UNL A   1      44.161  37.315  32.748  1.00  0.00     0.124 S 
ATOM     68  O   UNL A   1      44.100  38.062  31.494  1.00  0.00    -0.237 OA
ATOM     69  O   UNL A   1      42.986  37.437  33.608  1.00  0.00    -0.237 OA
ATOM     70  O   UNL A   1      45.445  37.365  33.442  1.00  0.00    -0.744 OA
ENDBRANCH  66  67
ENDBRANCH  47  61
BRANCH  48  71
ATOM     71  C   UNL A   1      42.675  23.698  27.758  1.00  0.00    -0.014 A 
ATOM     72  C   UNL A   1      42.322  22.626  28.595  1.00  0.00     0.010 A 
ATOM     73  C   UNL A   1      42.857  23.463  26.383  1.00  0.00     0.010 A 
ATOM     74  C   UNL A   1      42.166  21.339  28.071  1.00  0.00     0.020 A 
ATOM     75  C   UNL A   1      42.679  22.182  25.852  1.00  0.00     0.020 A 
ATOM     76  C   UNL A   1      42.345  21.125  26.703  1.00  0.00     0.054 A 
BRANCH  76  77
ATOM     77  S   UNL A   1      42.079  19.460  26.032  1.00  0.00     0.124 S 
ATOM     78  O   UNL A   1      40.644  19.465  25.768  1.00  0.00    -0.237 OA
ATOM     79  O   UNL A   1      42.941  19.452  24.852  1.00  0.00    -0.237 OA
ATOM     80  O   UNL A   1      42.516  18.585  27.118  1.00  0.00    -0.744 OA
ENDBRANCH  76  77
ENDBRANCH  48  71
BRANCH  60  81
ATOM     81  C   UNL A   1      48.146  27.239  30.221  1.00  0.00    -0.014 A 
ATOM     82  C   UNL A   1      49.097  27.538  29.231  1.00  0.00     0.010 A 
ATOM     83  C   UNL A   1      48.566  26.640  31.423  1.00  0.00     0.010 A 
ATOM     84  C   UNL A   1      50.443  27.223  29.429  1.00  0.00     0.020 A 
ATOM     85  C   UNL A   1      49.915  26.345  31.633  1.00  0.00     0.020 A 
ATOM     86  C   UNL A   1      50.844  26.627  30.630  1.00  0.00     0.054 A 
BRANCH  86  87
ATOM     87  S   UNL A   1      52.604  26.274  30.887  1.00  0.00     0.124 S 
ATOM     88  O   UNL A   1      53.056  27.474  31.586  1.00  0.00    -0.237 OA
ATOM     89  O   UNL A   1      52.575  25.053  31.690  1.00  0.00    -0.237 OA
ATOM     90  O   UNL A   1      53.124  26.107  29.532  1.00  0.00    -0.744 OA
ENDBRANCH  86  87
ENDBRANCH  60  81
ENDBRANCH  34  35
ENDBRANCH  26  29
ENDBRANCH  24  25
ENDBRANCH   1  24
TORSDOF 16
ENDMDL
MODEL 3
REMARK VINA RESULT:     -10.5      2.390      9.358
REMARK SMILES O=C(C[C@H]1C[C@H]2CC[C@@H](C1)N2C(=O)[C@H]1CCCCO1)NCCCNC(=O)c1ccc(-c2c3nc(c(-c4ccc(S(=O)(=O)[O-])cc4)c4ccc([nH]4)c(-c4ccc(S(=O)(=O)[O-])cc4)c4nc(c(-c5ccc(S(=O)(=O)[O-])cc5)c5ccc2[nH]5)C=C4)C=C3)cc1
REMARK SMILES IDX 22 1 21 2 20 3 1 4 2 5 3 7 4 8 5 9 10 10 6 11 9 12 7 13
REMARK SMILES IDX 11 14 8 15 12 16 13 17 14 18 15 19 19 20 16 21 18 22 17 23
REMARK SMILES IDX 23 24 24 25 25 26 26 28 27 29 28 30 86 31 29 32 85 33 30 34
REMARK SMILES IDX 31 35 32 36 79 37 33 38 84 39 78 40 80 41 34 42 83 43 77 44
REMARK SMILES IDX 76 45 35 47 65 48 46 49 64 50 47 51 50 52 63 53 81 54 48 55
REMARK SMILES IDX 49 56 62 58 82 59 51 60 36 61 37 62 45 63 38 64 44 65 39 66
REMARK SMILES IDX 40 67 41 68 42 69 43 70 66 71 67 72 75 73 68 74 74 75 69 76
REMARK SMILES IDX 70 77 71 78 72 79 73 80 52 81 53 82 61 83 54 84 60 85 55 86
REMARK SMILES IDX 56 87 57 88 58 89 59 90
REMARK H PARENT 20 6 24 27 80 46 50 57
REMARK Flexibility Score: inf
ROOT
ATOM      1  C   UNL A   1      36.529  22.226  24.376  1.00  0.00     0.042 C 
ENDROOT
BRANCH   1   2
ATOM      2  C   UNL A   1      35.578  21.232  25.017  1.00  0.00     0.117 C 
BRANCH   2   3
ATOM      3  N   UNL A   1      34.180  21.625  24.973  1.00  0.00    -0.356 N 
ATOM      4  O   UNL A   1      33.753  21.359  27.219  1.00  0.00    -0.275 OA
ATOM      5  C   UNL A   1      33.444  21.817  26.125  1.00  0.00     0.220 C 
ATOM      6  H   UNL A   1      33.747  21.758  24.099  1.00  0.00     0.163 HD
BRANCH   5   7
ATOM      7  C   UNL A   1      32.251  22.737  25.945  1.00  0.00     0.103 C 
BRANCH   7   8
ATOM      8  C   UNL A   1      32.526  24.259  26.071  1.00  0.00     0.002 C 
ATOM      9  C   UNL A   1      33.399  24.876  24.938  1.00  0.00     0.029 C 
ATOM     10  C   UNL A   1      31.311  25.143  26.429  1.00  0.00     0.029 C 
ATOM     11  C   UNL A   1      32.669  25.848  23.990  1.00  0.00     0.085 C 
ATOM     12  C   UNL A   1      30.749  25.999  25.280  1.00  0.00     0.085 C 
ATOM     13  C   UNL A   1      31.606  25.108  23.176  1.00  0.00     0.027 C 
ATOM     14  N   UNL A   1      31.859  26.773  24.771  1.00  0.00    -0.334 N 
ATOM     15  C   UNL A   1      30.323  25.269  24.004  1.00  0.00     0.027 C 
BRANCH  14  16
ATOM     16  C   UNL A   1      32.008  28.148  24.739  1.00  0.00     0.252 C 
ATOM     17  O   UNL A   1      31.702  28.793  23.734  1.00  0.00    -0.272 OA
BRANCH  16  18
ATOM     18  C   UNL A   1      32.559  28.833  26.024  1.00  0.00     0.207 C 
ATOM     19  C   UNL A   1      34.009  28.397  26.272  1.00  0.00     0.042 C 
ATOM     20  O   UNL A   1      32.494  30.261  25.933  1.00  0.00    -0.368 OA
ATOM     21  C   UNL A   1      34.611  29.102  27.483  1.00  0.00     0.006 C 
ATOM     22  C   UNL A   1      32.929  30.908  27.126  1.00  0.00     0.161 C 
ATOM     23  C   UNL A   1      34.398  30.604  27.386  1.00  0.00     0.029 C 
ENDBRANCH  16  18
ENDBRANCH  14  16
ENDBRANCH   7   8
ENDBRANCH   5   7
ENDBRANCH   2   3
ENDBRANCH   1   2
BRANCH   1  24
ATOM     24  C   UNL A   1      37.430  22.985  25.346  1.00  0.00     0.118 C 
BRANCH  24  25
ATOM     25  N   UNL A   1      38.664  22.296  25.707  1.00  0.00    -0.352 N 
ATOM     26  C   UNL A   1      39.765  22.769  26.395  1.00  0.00     0.251 C 
ATOM     27  H   UNL A   1      38.721  21.358  25.417  1.00  0.00     0.163 HD
ATOM     28  O   UNL A   1      40.736  22.046  26.569  1.00  0.00    -0.269 OA
BRANCH  26  29
ATOM     29  C   UNL A   1      39.781  24.173  26.870  1.00  0.00     0.039 A 
ATOM     30  C   UNL A   1      39.284  24.462  28.144  1.00  0.00     0.014 A 
ATOM     31  C   UNL A   1      40.369  25.179  26.103  1.00  0.00     0.014 A 
ATOM     32  C   UNL A   1      39.502  25.726  28.699  1.00  0.00     0.010 A 
ATOM     33  C   UNL A   1      40.665  26.405  26.691  1.00  0.00     0.010 A 
ATOM     34  C   UNL A   1      40.261  26.683  28.006  1.00  0.00    -0.014 A 
BRANCH  34  35
ATOM     35  C   UNL A   1      40.701  27.952  28.647  1.00  0.00     0.031 A 
ATOM     36  C   UNL A   1      42.071  28.060  29.258  1.00  0.00     0.074 A 
ATOM     37  C   UNL A   1      39.826  28.971  28.782  1.00  0.00     0.049 A 
ATOM     38  N   UNL A   1      42.578  29.028  29.977  1.00  0.00    -0.248 NA
ATOM     39  C   UNL A   1      42.976  26.916  29.062  1.00  0.00     0.031 C 
ATOM     40  C   UNL A   1      38.445  28.981  28.287  1.00  0.00     0.029 A 
ATOM     41  N   UNL A   1      39.962  30.193  29.394  1.00  0.00    -0.354 N 
ATOM     42  C   UNL A   1      43.847  28.597  30.347  1.00  0.00     0.074 A 
ATOM     43  C   UNL A   1      44.016  27.266  29.805  1.00  0.00     0.031 C 
ATOM     44  C   UNL A   1      37.874  30.159  28.591  1.00  0.00     0.029 A 
ATOM     45  C   UNL A   1      38.826  30.969  29.341  1.00  0.00     0.049 A 
ATOM     46  H   UNL A   1      40.795  30.487  29.828  1.00  0.00     0.167 HD
ATOM     47  C   UNL A   1      44.795  29.255  31.059  1.00  0.00     0.031 A 
ATOM     48  C   UNL A   1      38.571  32.191  29.850  1.00  0.00     0.031 A 
ATOM     49  C   UNL A   1      44.642  30.589  31.572  1.00  0.00     0.049 A 
ATOM     50  C   UNL A   1      39.643  32.908  30.621  1.00  0.00     0.074 A 
ATOM     51  C   UNL A   1      45.573  31.364  32.243  1.00  0.00     0.029 A 
ATOM     52  N   UNL A   1      43.488  31.349  31.471  1.00  0.00    -0.354 N 
ATOM     53  N   UNL A   1      40.857  32.504  30.911  1.00  0.00    -0.248 NA
ATOM     54  C   UNL A   1      39.312  34.245  31.133  1.00  0.00     0.031 C 
ATOM     55  C   UNL A   1      44.968  32.580  32.580  1.00  0.00     0.029 A 
ATOM     56  C   UNL A   1      43.675  32.578  32.081  1.00  0.00     0.049 A 
ATOM     57  H   UNL A   1      42.657  31.059  31.029  1.00  0.00     0.167 HD
ATOM     58  C   UNL A   1      41.440  33.545  31.624  1.00  0.00     0.074 A 
ATOM     59  C   UNL A   1      40.452  34.602  31.709  1.00  0.00     0.031 C 
ATOM     60  C   UNL A   1      42.681  33.617  32.161  1.00  0.00     0.031 A 
BRANCH  47  61
ATOM     61  C   UNL A   1      46.088  28.530  31.320  1.00  0.00    -0.014 A 
ATOM     62  C   UNL A   1      47.212  28.740  30.501  1.00  0.00     0.010 A 
ATOM     63  C   UNL A   1      46.185  27.644  32.407  1.00  0.00     0.010 A 
ATOM     64  C   UNL A   1      48.397  28.038  30.736  1.00  0.00     0.020 A 
ATOM     65  C   UNL A   1      47.378  26.960  32.661  1.00  0.00     0.020 A 
ATOM     66  C   UNL A   1      48.469  27.146  31.810  1.00  0.00     0.054 A 
BRANCH  66  67
ATOM     67  S   UNL A   1      50.020  26.250  32.096  1.00  0.00     0.124 S 
ATOM     68  O   UNL A   1      49.643  24.882  31.744  1.00  0.00    -0.237 OA
ATOM     69  O   UNL A   1      50.945  26.902  31.172  1.00  0.00    -0.237 OA
ATOM     70  O   UNL A   1      50.294  26.476  33.512  1.00  0.00    -0.744 OA
ENDBRANCH  66  67
ENDBRANCH  47  61
BRANCH  48  71
ATOM     71  C   UNL A   1      37.242  32.823  29.634  1.00  0.00    -0.014 A 
ATOM     72  C   UNL A   1      36.246  32.732  30.622  1.00  0.00     0.010 A 
ATOM     73  C   UNL A   1      36.970  33.530  28.449  1.00  0.00     0.010 A 
ATOM     74  C   UNL A   1      34.996  33.325  30.423  1.00  0.00     0.020 A 
ATOM     75  C   UNL A   1      35.729  34.144  28.257  1.00  0.00     0.020 A 
ATOM     76  C   UNL A   1      34.746  34.029  29.243  1.00  0.00     0.054 A 
BRANCH  76  77
ATOM     77  S   UNL A   1      33.138  34.843  29.030  1.00  0.00     0.124 S 
ATOM     78  O   UNL A   1      32.586  34.780  30.380  1.00  0.00    -0.237 OA
ATOM     79  O   UNL A   1      33.516  36.174  28.561  1.00  0.00    -0.237 OA
ATOM     80  O   UNL A   1      32.466  34.010  28.036  1.00  0.00    -0.744 OA
ENDBRANCH  76  77
ENDBRANCH  48  71
BRANCH  60  81
ATOM     81  C   UNL A   1      43.052  34.889  32.874  1.00  0.00    -0.014 A 
ATOM     82  C   UNL A   1      42.955  34.990  34.272  1.00  0.00     0.010 A 
ATOM     83  C   UNL A   1      43.556  35.977  32.137  1.00  0.00     0.010 A 
ATOM     84  C   UNL A   1      43.332  36.167  34.922  1.00  0.00     0.020 A 
ATOM     85  C   UNL A   1      43.956  37.148  32.787  1.00  0.00     0.020 A 
ATOM     86  C   UNL A   1      43.830  37.240  34.174  1.00  0.00     0.054 A 
BRANCH  86  87
ATOM     87  S   UNL A   1      44.362  38.740  35.043  1.00  0.00     0.124 S 
ATOM     88  O   UNL A   1      43.979  38.445  36.421  1.00  0.00    -0.237 OA
ATOM     89  O   UNL A   1      45.800  38.771  34.784  1.00  0.00    -0.237 OA
ATOM     90  O   UNL A   1      43.597  39.803  34.396  1.00  0.00    -0.744 OA
ENDBRANCH  86  87
ENDBRANCH  60  81
ENDBRANCH  34  35
ENDBRANCH  26  29
ENDBRANCH  24  25
ENDBRANCH   1  24
TORSDOF 16
ENDMDL
