MODEL 1
REMARK VINA RESULT:     -10.3      0.000      0.000
REMARK SMILES CC(C)[C@@H](NC(=O)[C@@](C)([NH3+])C(F)(F)F)C(=O)NCCCNC(=O)c1ccc(-c2c3nc(c(-c4ccc(S(=O)(=O)[O-])cc4)c4ccc([nH]4)c(-c4ccc(S(=O)(=O)[O-])cc4)c4nc(c(-c5ccc(S(=O)(=O)[O-])cc5)c5ccc2[nH]5)C=C4)C=C3)cc1
REMARK SMILES IDX 19 1 18 2 17 3 15 4 16 5 4 7 2 8 1 9 3 10 5 11 6 12 7 14
REMARK SMILES IDX 8 15 9 16 10 17 11 21 12 22 13 23 14 24 20 25 21 26 22 27
REMARK SMILES IDX 23 29 24 30 25 31 83 32 26 33 82 34 27 35 28 36 29 37 76 38
REMARK SMILES IDX 30 39 81 40 75 41 77 42 31 43 80 44 74 45 73 46 32 48 62 49
REMARK SMILES IDX 43 50 61 51 44 52 47 53 60 54 78 55 45 56 46 57 59 59 79 60
REMARK SMILES IDX 48 61 33 62 34 63 42 64 35 65 41 66 36 67 37 68 38 69 39 70
REMARK SMILES IDX 40 71 63 72 64 73 72 74 65 75 71 76 66 77 67 78 68 79 69 80
REMARK SMILES IDX 70 81 49 82 50 83 58 84 51 85 57 86 52 87 53 88 54 89 55 90
REMARK SMILES IDX 56 91
REMARK H PARENT 17 6 5 13 10 18 10 19 10 20 21 28 77 47 47 58
REMARK Flexibility Score: inf
ROOT
ATOM      1  C   UNL A   1      32.556  28.070  27.063  1.00  0.00     0.042 C 
ENDROOT
BRANCH   1   2
ATOM      2  C   UNL A   1      32.624  26.789  26.258  1.00  0.00     0.117 C 
BRANCH   2   3
ATOM      3  N   UNL A   1      31.610  25.828  26.666  1.00  0.00    -0.354 N 
ATOM      4  C   UNL A   1      31.696  24.468  26.684  1.00  0.00     0.242 C 
ATOM      5  O   UNL A   1      30.859  23.838  27.337  1.00  0.00    -0.273 OA
ATOM      6  H   UNL A   1      30.753  26.208  26.967  1.00  0.00     0.163 HD
BRANCH   4   7
ATOM      7  C   UNL A   1      32.756  23.739  25.850  1.00  0.00     0.174 C 
BRANCH   7   8
ATOM      8  C   UNL A   1      34.105  23.765  26.646  1.00  0.00     0.015 C 
ATOM      9  C   UNL A   1      34.380  22.462  27.399  1.00  0.00     0.010 C 
ATOM     10  C   UNL A   1      35.318  24.084  25.756  1.00  0.00     0.010 C 
ENDBRANCH   7   8
BRANCH   7  11
ATOM     11  N   UNL A   1      32.327  22.367  25.530  1.00  0.00    -0.338 N 
ATOM     12  C   UNL A   1      32.186  21.677  24.358  1.00  0.00     0.291 C 
ATOM     13  H   UNL A   1      32.092  21.836  26.325  1.00  0.00     0.164 HD
ATOM     14  O   UNL A   1      32.116  20.452  24.516  1.00  0.00    -0.267 OA
BRANCH  12  15
ATOM     15  C   UNL A   1      31.985  22.318  22.956  1.00  0.00     0.267 C 
ATOM     16  C   UNL A   1      31.769  21.254  21.866  1.00  0.00     0.100 C 
BRANCH  15  17
ATOM     17  N   UNL A   1      30.816  23.262  22.958  1.00  0.00    -0.337 N 
ATOM     18  H   UNL A   1      30.355  23.234  22.049  1.00  0.00     0.345 HD
ATOM     19  H   UNL A   1      31.145  24.210  23.144  1.00  0.00     0.345 HD
ATOM     20  H   UNL A   1      30.155  22.984  23.684  1.00  0.00     0.345 HD
ENDBRANCH  15  17
BRANCH  15  21
ATOM     21  C   UNL A   1      33.338  23.013  22.597  1.00  0.00     0.453 C 
ATOM     22  F   UNL A   1      33.375  24.321  22.933  1.00  0.00    -0.164 F 
ATOM     23  F   UNL A   1      34.412  22.396  23.139  1.00  0.00    -0.164 F 
ATOM     24  F   UNL A   1      33.522  22.965  21.244  1.00  0.00    -0.164 F 
ENDBRANCH  15  21
ENDBRANCH  12  15
ENDBRANCH   7  11
ENDBRANCH   4   7
ENDBRANCH   2   3
ENDBRANCH   1   2
BRANCH   1  25
ATOM     25  C   UNL A   1      33.708  29.018  26.776  1.00  0.00     0.118 C 
BRANCH  25  26
ATOM     26  N   UNL A   1      33.676  30.240  27.570  1.00  0.00    -0.352 N 
ATOM     27  C   UNL A   1      34.656  30.753  28.391  1.00  0.00     0.251 C 
ATOM     28  H   UNL A   1      32.846  30.767  27.513  1.00  0.00     0.163 HD
ATOM     29  O   UNL A   1      34.447  31.755  29.066  1.00  0.00    -0.269 OA
BRANCH  27  30
ATOM     30  C   UNL A   1      35.943  30.035  28.481  1.00  0.00     0.039 A 
ATOM     31  C   UNL A   1      36.848  30.134  27.424  1.00  0.00     0.014 A 
ATOM     32  C   UNL A   1      36.301  29.395  29.670  1.00  0.00     0.014 A 
ATOM     33  C   UNL A   1      38.156  29.683  27.603  1.00  0.00     0.010 A 
ATOM     34  C   UNL A   1      37.631  29.054  29.882  1.00  0.00     0.010 A 
ATOM     35  C   UNL A   1      38.575  29.198  28.854  1.00  0.00    -0.014 A 
BRANCH  35  36
ATOM     36  C   UNL A   1      39.996  28.850  29.117  1.00  0.00     0.031 A 
ATOM     37  C   UNL A   1      40.931  29.893  29.670  1.00  0.00     0.074 A 
ATOM     38  C   UNL A   1      40.469  27.636  28.768  1.00  0.00     0.049 A 
ATOM     39  N   UNL A   1      42.221  29.819  29.873  1.00  0.00    -0.248 NA
ATOM     40  C   UNL A   1      40.350  31.207  29.999  1.00  0.00     0.031 C 
ATOM     41  C   UNL A   1      39.687  26.562  28.144  1.00  0.00     0.029 A 
ATOM     42  N   UNL A   1      41.729  27.100  28.874  1.00  0.00    -0.354 N 
ATOM     43  C   UNL A   1      42.608  31.081  30.306  1.00  0.00     0.074 A 
ATOM     44  C   UNL A   1      41.428  31.916  30.296  1.00  0.00     0.031 C 
ATOM     45  C   UNL A   1      40.478  25.493  27.952  1.00  0.00     0.029 A 
ATOM     46  C   UNL A   1      41.829  25.812  28.402  1.00  0.00     0.049 A 
ATOM     47  H   UNL A   1      42.492  27.593  29.255  1.00  0.00     0.167 HD
ATOM     48  C   UNL A   1      43.831  31.503  30.702  1.00  0.00     0.031 A 
ATOM     49  C   UNL A   1      42.887  24.982  28.332  1.00  0.00     0.031 A 
ATOM     50  C   UNL A   1      44.989  30.654  30.774  1.00  0.00     0.049 A 
ATOM     51  C   UNL A   1      44.220  25.452  28.849  1.00  0.00     0.074 A 
ATOM     52  C   UNL A   1      46.246  30.958  31.267  1.00  0.00     0.029 A 
ATOM     53  N   UNL A   1      45.028  29.336  30.353  1.00  0.00    -0.354 N 
ATOM     54  N   UNL A   1      44.542  26.623  29.346  1.00  0.00    -0.248 NA
ATOM     55  C   UNL A   1      45.328  24.487  28.809  1.00  0.00     0.031 C 
ATOM     56  C   UNL A   1      47.058  29.831  31.107  1.00  0.00     0.029 A 
ATOM     57  C   UNL A   1      46.294  28.815  30.557  1.00  0.00     0.049 A 
ATOM     58  H   UNL A   1      44.269  28.842  29.966  1.00  0.00     0.167 HD
ATOM     59  C   UNL A   1      45.883  26.526  29.698  1.00  0.00     0.074 A 
ATOM     60  C   UNL A   1      46.307  25.180  29.375  1.00  0.00     0.031 C 
ATOM     61  C   UNL A   1      46.693  27.470  30.238  1.00  0.00     0.031 A 
BRANCH  48  62
ATOM     62  C   UNL A   1      43.981  32.946  31.101  1.00  0.00    -0.014 A 
ATOM     63  C   UNL A   1      43.876  33.342  32.446  1.00  0.00     0.010 A 
ATOM     64  C   UNL A   1      44.283  33.910  30.123  1.00  0.00     0.010 A 
ATOM     65  C   UNL A   1      44.040  34.683  32.803  1.00  0.00     0.020 A 
ATOM     66  C   UNL A   1      44.474  35.248  30.479  1.00  0.00     0.020 A 
ATOM     67  C   UNL A   1      44.338  35.627  31.816  1.00  0.00     0.054 A 
BRANCH  67  68
ATOM     68  S   UNL A   1      44.592  37.353  32.313  1.00  0.00     0.124 S 
ATOM     69  O   UNL A   1      45.764  37.246  33.178  1.00  0.00    -0.237 OA
ATOM     70  O   UNL A   1      44.814  38.026  31.036  1.00  0.00    -0.237 OA
ATOM     71  O   UNL A   1      43.347  37.705  32.991  1.00  0.00    -0.744 OA
ENDBRANCH  67  68
ENDBRANCH  48  62
BRANCH  49  72
ATOM     72  C   UNL A   1      42.735  23.615  27.761  1.00  0.00    -0.014 A 
ATOM     73  C   UNL A   1      43.005  23.372  26.403  1.00  0.00     0.010 A 
ATOM     74  C   UNL A   1      42.310  22.549  28.575  1.00  0.00     0.010 A 
ATOM     75  C   UNL A   1      42.824  22.095  25.860  1.00  0.00     0.020 A 
ATOM     76  C   UNL A   1      42.153  21.266  28.041  1.00  0.00     0.020 A 
ATOM     77  C   UNL A   1      42.396  21.051  26.684  1.00  0.00     0.054 A 
BRANCH  77  78
ATOM     78  S   UNL A   1      42.200  19.393  25.972  1.00  0.00     0.124 S 
ATOM     79  O   UNL A   1      42.683  18.541  27.053  1.00  0.00    -0.237 OA
ATOM     80  O   UNL A   1      40.766  19.328  25.706  1.00  0.00    -0.237 OA
ATOM     81  O   UNL A   1      43.046  19.435  24.780  1.00  0.00    -0.744 OA
ENDBRANCH  77  78
ENDBRANCH  49  72
BRANCH  61  82
ATOM     82  C   UNL A   1      48.110  27.073  30.544  1.00  0.00    -0.014 A 
ATOM     83  C   UNL A   1      49.139  27.283  29.611  1.00  0.00     0.010 A 
ATOM     84  C   UNL A   1      48.423  26.544  31.810  1.00  0.00     0.010 A 
ATOM     85  C   UNL A   1      50.457  26.945  29.930  1.00  0.00     0.020 A 
ATOM     86  C   UNL A   1      49.742  26.228  32.140  1.00  0.00     0.020 A 
ATOM     87  C   UNL A   1      50.750  26.419  31.192  1.00  0.00     0.054 A 
BRANCH  87  88
ATOM     88  S   UNL A   1      52.475  26.034  31.600  1.00  0.00     0.124 S 
ATOM     89  O   UNL A   1      52.808  27.101  32.540  1.00  0.00    -0.237 OA
ATOM     90  O   UNL A   1      52.377  24.695  32.178  1.00  0.00    -0.237 OA
ATOM     91  O   UNL A   1      53.158  26.102  30.311  1.00  0.00    -0.744 OA
ENDBRANCH  87  88
ENDBRANCH  61  82
ENDBRANCH  35  36
ENDBRANCH  27  30
ENDBRANCH  25  26
ENDBRANCH   1  25
TORSDOF 18
ENDMDL
MODEL 2
REMARK VINA RESULT:     -10.1      2.643      3.539
REMARK SMILES CC(C)[C@@H](NC(=O)[C@@](C)([NH3+])C(F)(F)F)C(=O)NCCCNC(=O)c1ccc(-c2c3nc(c(-c4ccc(S(=O)(=O)[O-])cc4)c4ccc([nH]4)c(-c4ccc(S(=O)(=O)[O-])cc4)c4nc(c(-c5ccc(S(=O)(=O)[O-])cc5)c5ccc2[nH]5)C=C4)C=C3)cc1
REMARK SMILES IDX 19 1 18 2 17 3 15 4 16 5 4 7 2 8 1 9 3 10 5 11 6 12 7 14
REMARK SMILES IDX 8 15 9 16 10 17 11 21 12 22 13 23 14 24 20 25 21 26 22 27
REMARK SMILES IDX 23 29 24 30 25 31 83 32 26 33 82 34 27 35 28 36 29 37 76 38
REMARK SMILES IDX 30 39 81 40 75 41 77 42 31 43 80 44 74 45 73 46 32 48 62 49
REMARK SMILES IDX 43 50 61 51 44 52 47 53 60 54 78 55 45 56 46 57 59 59 79 60
REMARK SMILES IDX 48 61 33 62 34 63 42 64 35 65 41 66 36 67 37 68 38 69 39 70
REMARK SMILES IDX 40 71 63 72 64 73 72 74 65 75 71 76 66 77 67 78 68 79 69 80
REMARK SMILES IDX 70 81 49 82 50 83 58 84 51 85 57 86 52 87 53 88 54 89 55 90
REMARK SMILES IDX 56 91
REMARK H PARENT 17 6 5 13 10 18 10 19 10 20 21 28 77 47 47 58
REMARK Flexibility Score: inf
ROOT
ATOM      1  C   UNL A   1      33.407  29.200  25.652  1.00  0.00     0.042 C 
ENDROOT
BRANCH   1   2
ATOM      2  C   UNL A   1      33.001  27.891  25.009  1.00  0.00     0.117 C 
BRANCH   2   3
ATOM      3  N   UNL A   1      31.850  27.289  25.665  1.00  0.00    -0.354 N 
ATOM      4  C   UNL A   1      30.691  26.849  25.099  1.00  0.00     0.242 C 
ATOM      5  O   UNL A   1      29.964  26.103  25.760  1.00  0.00    -0.273 OA
ATOM      6  H   UNL A   1      31.917  27.186  26.642  1.00  0.00     0.163 HD
BRANCH   4   7
ATOM      7  C   UNL A   1      30.264  27.336  23.709  1.00  0.00     0.174 C 
BRANCH   7   8
ATOM      8  C   UNL A   1      30.574  26.198  22.678  1.00  0.00     0.015 C 
ATOM      9  C   UNL A   1      31.870  26.433  21.900  1.00  0.00     0.010 C 
ATOM     10  C   UNL A   1      30.634  24.805  23.326  1.00  0.00     0.010 C 
ENDBRANCH   7   8
BRANCH   7  11
ATOM     11  N   UNL A   1      28.844  27.724  23.697  1.00  0.00    -0.338 N 
ATOM     12  C   UNL A   1      28.131  28.652  22.990  1.00  0.00     0.291 C 
ATOM     13  H   UNL A   1      28.293  27.209  24.329  1.00  0.00     0.164 HD
ATOM     14  O   UNL A   1      26.909  28.459  23.022  1.00  0.00    -0.267 OA
BRANCH  12  15
ATOM     15  C   UNL A   1      28.725  29.920  22.316  1.00  0.00     0.267 C 
ATOM     16  C   UNL A   1      30.184  29.706  21.877  1.00  0.00     0.100 C 
BRANCH  15  17
ATOM     17  N   UNL A   1      27.909  30.329  21.123  1.00  0.00    -0.337 N 
ATOM     18  H   UNL A   1      26.925  30.387  21.387  1.00  0.00     0.345 HD
ATOM     19  H   UNL A   1      28.021  29.637  20.381  1.00  0.00     0.345 HD
ATOM     20  H   UNL A   1      28.225  31.239  20.789  1.00  0.00     0.345 HD
ENDBRANCH  15  17
BRANCH  15  21
ATOM     21  C   UNL A   1      28.783  31.018  23.428  1.00  0.00     0.453 C 
ATOM     22  F   UNL A   1      29.721  30.777  24.371  1.00  0.00    -0.164 F 
ATOM     23  F   UNL A   1      28.975  32.262  22.935  1.00  0.00    -0.164 F 
ATOM     24  F   UNL A   1      27.586  31.055  24.085  1.00  0.00    -0.164 F 
ENDBRANCH  15  21
ENDBRANCH  12  15
ENDBRANCH   7  11
ENDBRANCH   4   7
ENDBRANCH   2   3
ENDBRANCH   1   2
BRANCH   1  25
ATOM     25  C   UNL A   1      33.513  29.115  27.165  1.00  0.00     0.118 C 
BRANCH  25  26
ATOM     26  N   UNL A   1      33.562  30.414  27.825  1.00  0.00    -0.352 N 
ATOM     27  C   UNL A   1      34.606  30.981  28.522  1.00  0.00     0.251 C 
ATOM     28  H   UNL A   1      32.742  30.957  27.765  1.00  0.00     0.163 HD
ATOM     29  O   UNL A   1      34.465  32.054  29.098  1.00  0.00    -0.269 OA
BRANCH  27  30
ATOM     30  C   UNL A   1      35.880  30.240  28.605  1.00  0.00     0.039 A 
ATOM     31  C   UNL A   1      36.758  30.280  27.522  1.00  0.00     0.014 A 
ATOM     32  C   UNL A   1      36.256  29.635  29.807  1.00  0.00     0.014 A 
ATOM     33  C   UNL A   1      38.061  29.807  27.683  1.00  0.00     0.010 A 
ATOM     34  C   UNL A   1      37.583  29.273  29.996  1.00  0.00     0.010 A 
ATOM     35  C   UNL A   1      38.503  29.359  28.940  1.00  0.00    -0.014 A 
BRANCH  35  36
ATOM     36  C   UNL A   1      39.923  28.990  29.178  1.00  0.00     0.031 A 
ATOM     37  C   UNL A   1      40.883  30.019  29.715  1.00  0.00     0.074 A 
ATOM     38  C   UNL A   1      40.371  27.768  28.822  1.00  0.00     0.049 A 
ATOM     39  N   UNL A   1      42.174  29.925  29.895  1.00  0.00    -0.248 NA
ATOM     40  C   UNL A   1      40.327  31.341  30.052  1.00  0.00     0.031 C 
ATOM     41  C   UNL A   1      39.563  26.706  28.212  1.00  0.00     0.029 A 
ATOM     42  N   UNL A   1      41.624  27.213  28.907  1.00  0.00    -0.354 N 
ATOM     43  C   UNL A   1      42.588  31.181  30.321  1.00  0.00     0.074 A 
ATOM     44  C   UNL A   1      41.421  32.034  30.331  1.00  0.00     0.031 C 
ATOM     45  C   UNL A   1      40.334  25.625  28.007  1.00  0.00     0.029 A 
ATOM     46  C   UNL A   1      41.696  25.924  28.434  1.00  0.00     0.049 A 
ATOM     47  H   UNL A   1      42.401  27.695  29.275  1.00  0.00     0.167 HD
ATOM     48  C   UNL A   1      43.824  31.585  30.695  1.00  0.00     0.031 A 
ATOM     49  C   UNL A   1      42.741  25.078  28.347  1.00  0.00     0.031 A 
ATOM     50  C   UNL A   1      44.970  30.718  30.748  1.00  0.00     0.049 A 
ATOM     51  C   UNL A   1      44.089  25.528  28.840  1.00  0.00     0.074 A 
ATOM     52  C   UNL A   1      46.239  31.004  31.219  1.00  0.00     0.029 A 
ATOM     53  N   UNL A   1      44.982  29.399  30.327  1.00  0.00    -0.354 N 
ATOM     54  N   UNL A   1      44.438  26.693  29.331  1.00  0.00    -0.248 NA
ATOM     55  C   UNL A   1      45.182  24.546  28.781  1.00  0.00     0.031 C 
ATOM     56  C   UNL A   1      47.032  29.864  31.046  1.00  0.00     0.029 A 
ATOM     57  C   UNL A   1      46.243  28.859  30.510  1.00  0.00     0.049 A 
ATOM     58  H   UNL A   1      44.209  28.917  29.954  1.00  0.00     0.167 HD
ATOM     59  C   UNL A   1      45.783  26.577  29.660  1.00  0.00     0.074 A 
ATOM     60  C   UNL A   1      46.181  25.224  29.330  1.00  0.00     0.031 C 
ATOM     61  C   UNL A   1      46.616  27.508  30.185  1.00  0.00     0.031 A 
BRANCH  48  62
ATOM     62  C   UNL A   1      44.002  33.025  31.091  1.00  0.00    -0.014 A 
ATOM     63  C   UNL A   1      43.826  33.440  32.423  1.00  0.00     0.010 A 
ATOM     64  C   UNL A   1      44.404  33.967  30.127  1.00  0.00     0.010 A 
ATOM     65  C   UNL A   1      44.017  34.778  32.778  1.00  0.00     0.020 A 
ATOM     66  C   UNL A   1      44.622  35.300  30.483  1.00  0.00     0.020 A 
ATOM     67  C   UNL A   1      44.414  35.699  31.804  1.00  0.00     0.054 A 
BRANCH  67  68
ATOM     68  S   UNL A   1      44.701  37.420  32.302  1.00  0.00     0.124 S 
ATOM     69  O   UNL A   1      43.928  38.153  31.303  1.00  0.00    -0.237 OA
ATOM     70  O   UNL A   1      44.165  37.455  33.660  1.00  0.00    -0.237 OA
ATOM     71  O   UNL A   1      46.151  37.572  32.203  1.00  0.00    -0.744 OA
ENDBRANCH  67  68
ENDBRANCH  48  62
BRANCH  49  72
ATOM     72  C   UNL A   1      42.558  23.713  27.779  1.00  0.00    -0.014 A 
ATOM     73  C   UNL A   1      42.247  22.626  28.615  1.00  0.00     0.010 A 
ATOM     74  C   UNL A   1      42.704  23.493  26.398  1.00  0.00     0.010 A 
ATOM     75  C   UNL A   1      42.114  21.338  28.084  1.00  0.00     0.020 A 
ATOM     76  C   UNL A   1      42.546  22.212  25.861  1.00  0.00     0.020 A 
ATOM     77  C   UNL A   1      42.267  21.139  26.710  1.00  0.00     0.054 A 
BRANCH  77  78
ATOM     78  S   UNL A   1      42.057  19.468  26.034  1.00  0.00     0.124 S 
ATOM     79  O   UNL A   1      42.893  19.519  24.839  1.00  0.00    -0.237 OA
ATOM     80  O   UNL A   1      42.549  18.622  27.117  1.00  0.00    -0.237 OA
ATOM     81  O   UNL A   1      40.618  19.381  25.790  1.00  0.00    -0.744 OA
ENDBRANCH  77  78
ENDBRANCH  49  72
BRANCH  61  82
ATOM     82  C   UNL A   1      48.032  27.090  30.467  1.00  0.00    -0.014 A 
ATOM     83  C   UNL A   1      49.055  27.317  29.531  1.00  0.00     0.010 A 
ATOM     84  C   UNL A   1      48.352  26.524  31.715  1.00  0.00     0.010 A 
ATOM     85  C   UNL A   1      50.373  26.958  29.827  1.00  0.00     0.020 A 
ATOM     86  C   UNL A   1      49.671  26.187  32.023  1.00  0.00     0.020 A 
ATOM     87  C   UNL A   1      50.672  26.395  31.072  1.00  0.00     0.054 A 
BRANCH  87  88
ATOM     88  S   UNL A   1      52.397  25.983  31.453  1.00  0.00     0.124 S 
ATOM     89  O   UNL A   1      53.022  26.049  30.135  1.00  0.00    -0.237 OA
ATOM     90  O   UNL A   1      52.781  27.041  32.385  1.00  0.00    -0.237 OA
ATOM     91  O   UNL A   1      52.311  24.647  32.038  1.00  0.00    -0.744 OA
ENDBRANCH  87  88
ENDBRANCH  61  82
ENDBRANCH  35  36
ENDBRANCH  27  30
ENDBRANCH  25  26
ENDBRANCH   1  25
TORSDOF 18
ENDMDL
MODEL 3
REMARK VINA RESULT:      -9.9      1.509      2.144
REMARK SMILES CC(C)[C@@H](NC(=O)[C@@](C)([NH3+])C(F)(F)F)C(=O)NCCCNC(=O)c1ccc(-c2c3nc(c(-c4ccc(S(=O)(=O)[O-])cc4)c4ccc([nH]4)c(-c4ccc(S(=O)(=O)[O-])cc4)c4nc(c(-c5ccc(S(=O)(=O)[O-])cc5)c5ccc2[nH]5)C=C4)C=C3)cc1
REMARK SMILES IDX 19 1 18 2 17 3 15 4 16 5 4 7 2 8 1 9 3 10 5 11 6 12 7 14
REMARK SMILES IDX 8 15 9 16 10 17 11 21 12 22 13 23 14 24 20 25 21 26 22 27
REMARK SMILES IDX 23 29 24 30 25 31 83 32 26 33 82 34 27 35 28 36 29 37 76 38
REMARK SMILES IDX 30 39 81 40 75 41 77 42 31 43 80 44 74 45 73 46 32 48 62 49
REMARK SMILES IDX 43 50 61 51 44 52 47 53 60 54 78 55 45 56 46 57 59 59 79 60
REMARK SMILES IDX 48 61 33 62 34 63 42 64 35 65 41 66 36 67 37 68 38 69 39 70
REMARK SMILES IDX 40 71 63 72 64 73 72 74 65 75 71 76 66 77 67 78 68 79 69 80
REMARK SMILES IDX 70 81 49 82 50 83 58 84 51 85 57 86 52 87 53 88 54 89 55 90
REMARK SMILES IDX 56 91
REMARK H PARENT 17 6 5 13 10 18 10 19 10 20 21 28 77 47 47 58
REMARK Flexibility Score: inf
ROOT
ATOM      1  C   UNL A   1      33.829  28.405  25.822  1.00  0.00     0.042 C 
ENDROOT
BRANCH   1   2
ATOM      2  C   UNL A   1      33.457  27.009  25.370  1.00  0.00     0.117 C 
BRANCH   2   3
ATOM      3  N   UNL A   1      33.968  26.707  24.041  1.00  0.00    -0.354 N 
ATOM      4  C   UNL A   1      33.330  26.075  23.015  1.00  0.00     0.242 C 
ATOM      5  O   UNL A   1      33.806  26.175  21.881  1.00  0.00    -0.273 OA
ATOM      6  H   UNL A   1      34.892  26.995  23.859  1.00  0.00     0.163 HD
BRANCH   4   7
ATOM      7  C   UNL A   1      32.101  25.197  23.280  1.00  0.00     0.174 C 
BRANCH   7   8
ATOM      8  C   UNL A   1      30.831  25.984  22.811  1.00  0.00     0.015 C 
ATOM      9  C   UNL A   1      29.687  25.932  23.825  1.00  0.00     0.010 C 
ATOM     10  C   UNL A   1      31.128  27.456  22.478  1.00  0.00     0.010 C 
ENDBRANCH   7   8
BRANCH   7  11
ATOM     11  N   UNL A   1      32.227  23.893  22.607  1.00  0.00    -0.338 N 
ATOM     12  C   UNL A   1      32.538  22.637  23.046  1.00  0.00     0.291 C 
ATOM     13  H   UNL A   1      32.050  23.935  21.640  1.00  0.00     0.164 HD
ATOM     14  O   UNL A   1      32.225  21.746  22.245  1.00  0.00    -0.267 OA
BRANCH  12  15
ATOM     15  C   UNL A   1      33.331  22.308  24.341  1.00  0.00     0.267 C 
ATOM     16  C   UNL A   1      33.648  20.807  24.454  1.00  0.00     0.100 C 
BRANCH  15  17
ATOM     17  N   UNL A   1      34.615  23.086  24.399  1.00  0.00    -0.337 N 
ATOM     18  H   UNL A   1      35.288  22.680  23.748  1.00  0.00     0.345 HD
ATOM     19  H   UNL A   1      34.994  23.048  25.346  1.00  0.00     0.345 HD
ATOM     20  H   UNL A   1      34.437  24.056  24.143  1.00  0.00     0.345 HD
ENDBRANCH  15  17
BRANCH  15  21
ATOM     21  C   UNL A   1      32.368  22.620  25.533  1.00  0.00     0.453 C 
ATOM     22  F   UNL A   1      32.623  23.804  26.133  1.00  0.00    -0.164 F 
ATOM     23  F   UNL A   1      31.063  22.583  25.184  1.00  0.00    -0.164 F 
ATOM     24  F   UNL A   1      32.525  21.665  26.498  1.00  0.00    -0.164 F 
ENDBRANCH  15  21
ENDBRANCH  12  15
ENDBRANCH   7  11
ENDBRANCH   4   7
ENDBRANCH   2   3
ENDBRANCH   1   2
BRANCH   1  25
ATOM     25  C   UNL A   1      33.467  28.679  27.272  1.00  0.00     0.118 C 
BRANCH  25  26
ATOM     26  N   UNL A   1      33.571  30.084  27.649  1.00  0.00    -0.352 N 
ATOM     27  C   UNL A   1      34.665  30.757  28.147  1.00  0.00     0.251 C 
ATOM     28  H   UNL A   1      32.754  30.621  27.532  1.00  0.00     0.163 HD
ATOM     29  O   UNL A   1      34.572  31.928  28.500  1.00  0.00    -0.269 OA
BRANCH  27  30
ATOM     30  C   UNL A   1      35.935  30.020  28.297  1.00  0.00     0.039 A 
ATOM     31  C   UNL A   1      36.871  30.066  27.264  1.00  0.00     0.014 A 
ATOM     32  C   UNL A   1      36.248  29.414  29.516  1.00  0.00     0.014 A 
ATOM     33  C   UNL A   1      38.165  29.598  27.494  1.00  0.00     0.010 A 
ATOM     34  C   UNL A   1      37.564  29.056  29.777  1.00  0.00     0.010 A 
ATOM     35  C   UNL A   1      38.539  29.148  28.772  1.00  0.00    -0.014 A 
BRANCH  35  36
ATOM     36  C   UNL A   1      39.946  28.784  29.087  1.00  0.00     0.031 A 
ATOM     37  C   UNL A   1      40.870  29.814  29.681  1.00  0.00     0.074 A 
ATOM     38  C   UNL A   1      40.418  27.566  28.750  1.00  0.00     0.049 A 
ATOM     39  N   UNL A   1      42.150  29.724  29.932  1.00  0.00    -0.248 NA
ATOM     40  C   UNL A   1      40.291  31.132  29.994  1.00  0.00     0.031 C 
ATOM     41  C   UNL A   1      39.649  26.504  28.091  1.00  0.00     0.029 A 
ATOM     42  N   UNL A   1      41.667  27.016  28.901  1.00  0.00    -0.354 N 
ATOM     43  C   UNL A   1      42.534  30.980  30.387  1.00  0.00     0.074 A 
ATOM     44  C   UNL A   1      41.365  31.828  30.336  1.00  0.00     0.031 C 
ATOM     45  C   UNL A   1      40.436  25.427  27.923  1.00  0.00     0.029 A 
ATOM     46  C   UNL A   1      41.771  25.729  28.426  1.00  0.00     0.049 A 
ATOM     47  H   UNL A   1      42.420  27.499  29.313  1.00  0.00     0.167 HD
ATOM     48  C   UNL A   1      43.746  31.387  30.830  1.00  0.00     0.031 A 
ATOM     49  C   UNL A   1      42.823  24.888  28.392  1.00  0.00     0.031 A 
ATOM     50  C   UNL A   1      44.891  30.525  30.942  1.00  0.00     0.049 A 
ATOM     51  C   UNL A   1      44.140  25.341  28.961  1.00  0.00     0.074 A 
ATOM     52  C   UNL A   1      46.131  30.813  31.483  1.00  0.00     0.029 A 
ATOM     53  N   UNL A   1      44.932  29.208  30.516  1.00  0.00    -0.354 N 
ATOM     54  N   UNL A   1      44.455  26.506  29.477  1.00  0.00    -0.248 NA
ATOM     55  C   UNL A   1      45.238  24.364  28.958  1.00  0.00     0.031 C 
ATOM     56  C   UNL A   1      46.937  29.678  31.349  1.00  0.00     0.029 A 
ATOM     57  C   UNL A   1      46.183  28.672  30.765  1.00  0.00     0.049 A 
ATOM     58  H   UNL A   1      44.183  28.725  30.097  1.00  0.00     0.167 HD
ATOM     59  C   UNL A   1      45.781  26.393  29.879  1.00  0.00     0.074 A 
ATOM     60  C   UNL A   1      46.203  25.043  29.565  1.00  0.00     0.031 C 
ATOM     61  C   UNL A   1      46.580  27.325  30.454  1.00  0.00     0.031 A 
BRANCH  48  62
ATOM     62  C   UNL A   1      43.895  32.826  31.242  1.00  0.00    -0.014 A 
ATOM     63  C   UNL A   1      43.711  33.222  32.579  1.00  0.00     0.010 A 
ATOM     64  C   UNL A   1      44.279  33.786  30.289  1.00  0.00     0.010 A 
ATOM     65  C   UNL A   1      43.876  34.559  32.949  1.00  0.00     0.020 A 
ATOM     66  C   UNL A   1      44.471  35.119  30.661  1.00  0.00     0.020 A 
ATOM     67  C   UNL A   1      44.255  35.499  31.987  1.00  0.00     0.054 A 
BRANCH  67  68
ATOM     68  S   UNL A   1      44.507  37.219  32.504  1.00  0.00     0.124 S 
ATOM     69  O   UNL A   1      44.547  37.915  31.221  1.00  0.00    -0.237 OA
ATOM     70  O   UNL A   1      43.329  37.484  33.325  1.00  0.00    -0.237 OA
ATOM     71  O   UNL A   1      45.774  37.179  33.231  1.00  0.00    -0.744 OA
ENDBRANCH  67  68
ENDBRANCH  48  62
BRANCH  49  72
ATOM     72  C   UNL A   1      42.678  23.526  27.809  1.00  0.00    -0.014 A 
ATOM     73  C   UNL A   1      43.104  23.259  26.495  1.00  0.00     0.010 A 
ATOM     74  C   UNL A   1      42.103  22.487  28.564  1.00  0.00     0.010 A 
ATOM     75  C   UNL A   1      42.932  21.989  25.937  1.00  0.00     0.020 A 
ATOM     76  C   UNL A   1      41.953  21.209  28.017  1.00  0.00     0.020 A 
ATOM     77  C   UNL A   1      42.353  20.972  26.701  1.00  0.00     0.054 A 
BRANCH  77  78
ATOM     78  S   UNL A   1      42.169  19.320  25.972  1.00  0.00     0.124 S 
ATOM     79  O   UNL A   1      40.726  19.239  25.769  1.00  0.00    -0.237 OA
ATOM     80  O   UNL A   1      42.976  19.416  24.759  1.00  0.00    -0.237 OA
ATOM     81  O   UNL A   1      42.709  18.434  27.002  1.00  0.00    -0.744 OA
ENDBRANCH  77  78
ENDBRANCH  49  72
BRANCH  61  82
ATOM     82  C   UNL A   1      47.980  26.911  30.812  1.00  0.00    -0.014 A 
ATOM     83  C   UNL A   1      49.034  27.051  29.893  1.00  0.00     0.010 A 
ATOM     84  C   UNL A   1      48.253  26.439  32.109  1.00  0.00     0.010 A 
ATOM     85  C   UNL A   1      50.336  26.699  30.258  1.00  0.00     0.020 A 
ATOM     86  C   UNL A   1      49.557  26.109  32.484  1.00  0.00     0.020 A 
ATOM     87  C   UNL A   1      50.589  26.229  31.550  1.00  0.00     0.054 A 
BRANCH  87  88
ATOM     88  S   UNL A   1      52.294  25.826  32.017  1.00  0.00     0.124 S 
ATOM     89  O   UNL A   1      53.041  26.265  30.841  1.00  0.00    -0.237 OA
ATOM     90  O   UNL A   1      52.495  26.624  33.224  1.00  0.00    -0.237 OA
ATOM     91  O   UNL A   1      52.260  24.381  32.231  1.00  0.00    -0.744 OA
ENDBRANCH  87  88
ENDBRANCH  61  82
ENDBRANCH  35  36
ENDBRANCH  27  30
ENDBRANCH  25  26
ENDBRANCH   1  25
TORSDOF 18
ENDMDL
