MODEL 1
REMARK VINA RESULT:     -12.4      0.000      0.000
REMARK SMILES COc1ccccc1C(=O)N/C(=C/c1ccc2c(c1)OCO2)C(=O)Nc1ccc(C(=O)NCCCNC(=O)c2ccc(-c3c4nc(c(-c5ccc(S(=O)(=O)[O-])cc5)c5ccc([nH]5)c(-c5ccc(S(=O)(=O)[O-])cc5)c5nc(c(-c6ccc(S(=O)(=O)[O-])cc6)c6ccc3[nH]6)C=C5)C=C4)cc2)cc1
REMARK SMILES IDX 33 1 32 2 30 3 31 4 29 6 26 7 27 8 100 9 28 10 99 11 25 12
REMARK SMILES IDX 23 13 24 14 12 16 13 17 11 18 9 19 10 20 8 22 3 23 4 24 5 25
REMARK SMILES IDX 7 26 6 27 2 28 1 29 14 30 15 31 19 32 16 33 18 34 17 35
REMARK SMILES IDX 20 36 22 37 21 38 34 39 35 40 36 41 37 42 38 44 39 45 40 46
REMARK SMILES IDX 98 47 41 48 97 49 42 50 43 51 44 52 91 53 45 54 96 55 90 56
REMARK SMILES IDX 92 57 46 58 95 59 89 60 88 61 47 63 77 64 58 65 76 66 59 67
REMARK SMILES IDX 62 68 75 69 93 70 60 71 61 72 74 74 94 75 63 76 48 77 49 78
REMARK SMILES IDX 57 79 50 80 56 81 51 82 52 83 53 84 54 85 55 86 78 87 79 88
REMARK SMILES IDX 87 89 80 90 86 91 81 92 82 93 83 94 84 95 85 96 64 97 65 98
REMARK SMILES IDX 73 99 66 100 72 101 67 102 68 103 69 104 70 105 71 106
REMARK H PARENT 32 5 25 15 11 21 36 43 92 62 62 73
REMARK Flexibility Score: inf
ROOT
ATOM      1  C   UNL A   1      33.632  30.112  27.774  1.00  0.00     0.118 C 
ENDROOT
BRANCH   1   2
ATOM      2  N   UNL A   1      32.788  30.276  26.610  1.00  0.00    -0.352 N 
ATOM      3  C   UNL A   1      32.358  29.349  25.705  1.00  0.00     0.251 C 
ATOM      4  O   UNL A   1      31.614  29.675  24.787  1.00  0.00    -0.269 OA
ATOM      5  H   UNL A   1      32.476  31.195  26.445  1.00  0.00     0.163 HD
BRANCH   3   6
ATOM      6  C   UNL A   1      32.690  27.936  25.883  1.00  0.00     0.039 A 
ATOM      7  C   UNL A   1      33.618  24.343  26.158  1.00  0.00     0.041 A 
ATOM      8  C   UNL A   1      34.812  25.480  25.519  1.00  0.00     0.027 A 
ATOM      9  C   UNL A   1      32.073  24.972  26.714  1.00  0.00     0.027 A 
ATOM     10  C   UNL A   1      34.311  27.423  25.302  1.00  0.00     0.016 A 
ATOM     11  C   UNL A   1      31.630  26.703  26.587  1.00  0.00     0.016 A 
BRANCH   7  12
ATOM     12  N   UNL A   1      33.689  23.105  25.498  1.00  0.00    -0.321 N 
ATOM     13  C   UNL A   1      34.131  23.033  24.179  1.00  0.00     0.272 C 
ATOM     14  O   UNL A   1      35.168  22.439  23.878  1.00  0.00    -0.267 OA
ATOM     15  H   UNL A   1      33.423  22.283  25.970  1.00  0.00     0.170 HD
BRANCH  13  16
ATOM     16  C   UNL A   1      33.197  23.542  23.060  1.00  0.00     0.108 C 
ATOM     17  C   UNL A   1      32.088  22.904  22.581  1.00  0.00     0.040 C 
BRANCH  16  18
ATOM     18  N   UNL A   1      33.468  24.789  22.502  1.00  0.00    -0.317 N 
ATOM     19  C   UNL A   1      32.791  25.984  22.355  1.00  0.00     0.259 C 
ATOM     20  O   UNL A   1      33.382  26.897  21.769  1.00  0.00    -0.269 OA
ATOM     21  H   UNL A   1      34.371  24.828  22.112  1.00  0.00     0.170 HD
BRANCH  19  22
ATOM     22  C   UNL A   1      31.401  26.246  22.778  1.00  0.00     0.082 A 
ATOM     23  C   UNL A   1      30.659  27.406  22.532  1.00  0.00     0.131 A 
ATOM     24  C   UNL A   1      29.421  27.566  23.176  1.00  0.00     0.047 A 
ATOM     25  C   UNL A   1      28.855  26.534  23.926  1.00  0.00     0.004 A 
ATOM     26  C   UNL A   1      30.787  25.178  23.465  1.00  0.00     0.018 A 
ATOM     27  C   UNL A   1      29.517  25.318  24.025  1.00  0.00     0.001 A 
BRANCH  23  28
ATOM     28  O   UNL A   1      30.990  28.489  21.766  1.00  0.00    -0.496 OA
ATOM     29  C   UNL A   1      30.199  29.663  21.895  1.00  0.00     0.278 C 
ENDBRANCH  23  28
ENDBRANCH  19  22
ENDBRANCH  16  18
BRANCH  17  30
ATOM     30  C   UNL A   1      31.686  21.505  22.877  1.00  0.00    -0.019 A 
ATOM     31  C   UNL A   1      31.617  20.577  21.340  1.00  0.00     0.012 A 
ATOM     32  C   UNL A   1      32.255  20.665  24.335  1.00  0.00     0.058 A 
ATOM     33  C   UNL A   1      32.337  18.686  21.319  1.00  0.00     0.051 A 
ATOM     34  C   UNL A   1      32.831  18.984  24.289  1.00  0.00     0.166 A 
ATOM     35  C   UNL A   1      32.896  18.004  22.870  1.00  0.00     0.165 A 
ATOM     36  O   UNL A   1      33.757  18.445  25.152  1.00  0.00    -0.454 OA
ATOM     37  O   UNL A   1      33.819  17.027  23.067  1.00  0.00    -0.454 OA
ATOM     38  C   UNL A   1      34.498  17.545  24.256  1.00  0.00     0.468 C 
ENDBRANCH  17  30
ENDBRANCH  13  16
ENDBRANCH   7  12
ENDBRANCH   3   6
ENDBRANCH   1   2
BRANCH   1  39
ATOM     39  C   UNL A   1      35.093  30.340  27.417  1.00  0.00     0.042 C 
BRANCH  39  40
ATOM     40  C   UNL A   1      35.774  31.349  28.331  1.00  0.00     0.118 C 
BRANCH  40  41
ATOM     41  N   UNL A   1      35.638  30.987  29.734  1.00  0.00    -0.352 N 
ATOM     42  C   UNL A   1      36.494  30.248  30.512  1.00  0.00     0.251 C 
ATOM     43  H   UNL A   1      34.827  31.315  30.183  1.00  0.00     0.163 HD
ATOM     44  O   UNL A   1      36.115  29.793  31.586  1.00  0.00    -0.269 OA
BRANCH  42  45
ATOM     45  C   UNL A   1      37.868  30.002  30.030  1.00  0.00     0.039 A 
ATOM     46  C   UNL A   1      38.951  30.275  30.868  1.00  0.00     0.014 A 
ATOM     47  C   UNL A   1      38.077  29.492  28.746  1.00  0.00     0.014 A 
ATOM     48  C   UNL A   1      40.245  29.990  30.429  1.00  0.00     0.010 A 
ATOM     49  C   UNL A   1      39.352  29.113  28.354  1.00  0.00     0.010 A 
ATOM     50  C   UNL A   1      40.453  29.386  29.179  1.00  0.00    -0.014 A 
BRANCH  50  51
ATOM     51  C   UNL A   1      41.813  29.089  28.669  1.00  0.00     0.031 A 
ATOM     52  C   UNL A   1      42.145  27.680  28.248  1.00  0.00     0.074 A 
ATOM     53  C   UNL A   1      42.753  30.053  28.645  1.00  0.00     0.049 A 
ATOM     54  N   UNL A   1      43.297  27.177  27.890  1.00  0.00    -0.248 NA
ATOM     55  C   UNL A   1      41.044  26.699  28.265  1.00  0.00     0.031 C 
ATOM     56  C   UNL A   1      42.557  31.445  29.062  1.00  0.00     0.029 A 
ATOM     57  N   UNL A   1      44.069  30.008  28.260  1.00  0.00    -0.354 N 
ATOM     58  C   UNL A   1      43.062  25.826  27.657  1.00  0.00     0.074 A 
ATOM     59  C   UNL A   1      41.676  25.572  27.979  1.00  0.00     0.031 C 
ATOM     60  C   UNL A   1      43.704  32.123  28.888  1.00  0.00     0.029 A 
ATOM     61  C   UNL A   1      44.727  31.209  28.390  1.00  0.00     0.049 A 
ATOM     62  H   UNL A   1      44.503  29.191  27.920  1.00  0.00     0.167 HD
ATOM     63  C   UNL A   1      43.912  24.887  27.183  1.00  0.00     0.031 A 
ATOM     64  C   UNL A   1      46.011  31.531  28.146  1.00  0.00     0.031 A 
ATOM     65  C   UNL A   1      45.279  25.154  26.834  1.00  0.00     0.049 A 
ATOM     66  C   UNL A   1      46.940  30.462  27.629  1.00  0.00     0.074 A 
ATOM     67  C   UNL A   1      46.220  24.283  26.315  1.00  0.00     0.029 A 
ATOM     68  N   UNL A   1      45.895  26.390  26.953  1.00  0.00    -0.354 N 
ATOM     69  N   UNL A   1      46.686  29.200  27.379  1.00  0.00    -0.248 NA
ATOM     70  C   UNL A   1      48.326  30.865  27.349  1.00  0.00     0.031 C 
ATOM     71  C   UNL A   1      47.418  24.984  26.152  1.00  0.00     0.029 A 
ATOM     72  C   UNL A   1      47.205  26.305  26.518  1.00  0.00     0.049 A 
ATOM     73  H   UNL A   1      45.465  27.206  27.295  1.00  0.00     0.167 HD
ATOM     74  C   UNL A   1      47.868  28.669  26.873  1.00  0.00     0.074 A 
ATOM     75  C   UNL A   1      48.832  29.750  26.842  1.00  0.00     0.031 C 
ATOM     76  C   UNL A   1      48.135  27.403  26.472  1.00  0.00     0.031 A 
BRANCH  63  77
ATOM     77  C   UNL A   1      43.378  23.493  26.983  1.00  0.00    -0.014 A 
ATOM     78  C   UNL A   1      42.856  23.095  25.738  1.00  0.00     0.010 A 
ATOM     79  C   UNL A   1      43.455  22.552  28.026  1.00  0.00     0.010 A 
ATOM     80  C   UNL A   1      42.400  21.790  25.546  1.00  0.00     0.020 A 
ATOM     81  C   UNL A   1      43.026  21.236  27.829  1.00  0.00     0.020 A 
ATOM     82  C   UNL A   1      42.493  20.866  26.591  1.00  0.00     0.054 A 
BRANCH  82  83
ATOM     83  S   UNL A   1      41.949  19.163  26.289  1.00  0.00     0.124 S 
ATOM     84  O   UNL A   1      42.054  18.572  27.621  1.00  0.00    -0.237 OA
ATOM     85  O   UNL A   1      40.588  19.347  25.790  1.00  0.00    -0.237 OA
ATOM     86  O   UNL A   1      42.908  18.660  25.308  1.00  0.00    -0.744 OA
ENDBRANCH  82  83
ENDBRANCH  63  77
BRANCH  64  87
ATOM     87  C   UNL A   1      46.505  32.916  28.385  1.00  0.00    -0.014 A 
ATOM     88  C   UNL A   1      46.445  33.884  27.367  1.00  0.00     0.010 A 
ATOM     89  C   UNL A   1      47.073  33.265  29.624  1.00  0.00     0.010 A 
ATOM     90  C   UNL A   1      46.990  35.158  27.565  1.00  0.00     0.020 A 
ATOM     91  C   UNL A   1      47.588  34.547  29.838  1.00  0.00     0.020 A 
ATOM     92  C   UNL A   1      47.564  35.478  28.798  1.00  0.00     0.054 A 
BRANCH  92  93
ATOM     93  S   UNL A   1      48.268  37.133  29.035  1.00  0.00     0.124 S 
ATOM     94  O   UNL A   1      49.082  37.290  27.835  1.00  0.00    -0.237 OA
ATOM     95  O   UNL A   1      47.078  37.976  29.109  1.00  0.00    -0.237 OA
ATOM     96  O   UNL A   1      49.012  37.010  30.287  1.00  0.00    -0.744 OA
ENDBRANCH  92  93
ENDBRANCH  64  87
BRANCH  76  97
ATOM     97  C   UNL A   1      49.500  27.127  25.902  1.00  0.00    -0.014 A 
ATOM     98  C   UNL A   1      50.551  26.665  26.712  1.00  0.00     0.010 A 
ATOM     99  C   UNL A   1      49.706  27.266  24.516  1.00  0.00     0.010 A 
ATOM    100  C   UNL A   1      51.795  26.372  26.149  1.00  0.00     0.020 A 
ATOM    101  C   UNL A   1      50.939  26.945  23.946  1.00  0.00     0.020 A 
ATOM    102  C   UNL A   1      51.980  26.510  24.769  1.00  0.00     0.054 A 
BRANCH 102 103
ATOM    103  S   UNL A   1      53.587  26.069  24.056  1.00  0.00     0.124 S 
ATOM    104  O   UNL A   1      54.456  27.109  24.597  1.00  0.00    -0.237 OA
ATOM    105  O   UNL A   1      53.811  24.725  24.583  1.00  0.00    -0.237 OA
ATOM    106  O   UNL A   1      53.357  26.136  22.614  1.00  0.00    -0.744 OA
ENDBRANCH 102 103
ENDBRANCH  76  97
ENDBRANCH  50  51
ENDBRANCH  42  45
ENDBRANCH  40  41
ENDBRANCH  39  40
ENDBRANCH   1  39
TORSDOF 19
ENDMDL
MODEL 2
REMARK VINA RESULT:     -12.3      2.343      8.973
REMARK SMILES COc1ccccc1C(=O)N/C(=C/c1ccc2c(c1)OCO2)C(=O)Nc1ccc(C(=O)NCCCNC(=O)c2ccc(-c3c4nc(c(-c5ccc(S(=O)(=O)[O-])cc5)c5ccc([nH]5)c(-c5ccc(S(=O)(=O)[O-])cc5)c5nc(c(-c6ccc(S(=O)(=O)[O-])cc6)c6ccc3[nH]6)C=C5)C=C4)cc2)cc1
REMARK SMILES IDX 33 1 32 2 30 3 31 4 29 6 26 7 27 8 100 9 28 10 99 11 25 12
REMARK SMILES IDX 23 13 24 14 12 16 13 17 11 18 9 19 10 20 8 22 3 23 4 24 5 25
REMARK SMILES IDX 7 26 6 27 2 28 1 29 14 30 15 31 19 32 16 33 18 34 17 35
REMARK SMILES IDX 20 36 22 37 21 38 34 39 35 40 36 41 37 42 38 44 39 45 40 46
REMARK SMILES IDX 98 47 41 48 97 49 42 50 43 51 44 52 91 53 45 54 96 55 90 56
REMARK SMILES IDX 92 57 46 58 95 59 89 60 88 61 47 63 77 64 58 65 76 66 59 67
REMARK SMILES IDX 62 68 75 69 93 70 60 71 61 72 74 74 94 75 63 76 48 77 49 78
REMARK SMILES IDX 57 79 50 80 56 81 51 82 52 83 53 84 54 85 55 86 78 87 79 88
REMARK SMILES IDX 87 89 80 90 86 91 81 92 82 93 83 94 84 95 85 96 64 97 65 98
REMARK SMILES IDX 73 99 66 100 72 101 67 102 68 103 69 104 70 105 71 106
REMARK H PARENT 32 5 25 15 11 21 36 43 92 62 62 73
REMARK Flexibility Score: inf
ROOT
ATOM      1  C   UNL A   1      34.988  31.814  30.435  1.00  0.00     0.118 C 
ENDROOT
BRANCH   1   2
ATOM      2  N   UNL A   1      34.817  33.115  29.825  1.00  0.00    -0.352 N 
ATOM      3  C   UNL A   1      34.283  33.449  28.615  1.00  0.00     0.251 C 
ATOM      4  O   UNL A   1      34.194  34.625  28.278  1.00  0.00    -0.269 OA
ATOM      5  H   UNL A   1      35.132  33.875  30.365  1.00  0.00     0.163 HD
BRANCH   3   6
ATOM      6  C   UNL A   1      33.709  32.417  27.753  1.00  0.00     0.039 A 
ATOM      7  C   UNL A   1      32.072  29.823  25.645  1.00  0.00     0.041 A 
ATOM      8  C   UNL A   1      31.234  31.358  25.903  1.00  0.00     0.027 A 
ATOM      9  C   UNL A   1      33.680  29.620  26.328  1.00  0.00     0.027 A 
ATOM     10  C   UNL A   1      32.072  32.757  27.092  1.00  0.00     0.016 A 
ATOM     11  C   UNL A   1      34.470  30.872  27.336  1.00  0.00     0.016 A 
BRANCH   7  12
ATOM     12  N   UNL A   1      31.169  28.748  25.615  1.00  0.00    -0.321 N 
ATOM     13  C   UNL A   1      31.588  27.463  25.954  1.00  0.00     0.272 C 
ATOM     14  O   UNL A   1      31.138  26.877  26.940  1.00  0.00    -0.267 OA
ATOM     15  H   UNL A   1      30.233  28.903  25.353  1.00  0.00     0.170 HD
BRANCH  13  16
ATOM     16  C   UNL A   1      32.486  26.696  24.959  1.00  0.00     0.108 C 
ATOM     17  C   UNL A   1      32.297  26.598  23.610  1.00  0.00     0.040 C 
BRANCH  16  18
ATOM     18  N   UNL A   1      33.627  26.073  25.459  1.00  0.00    -0.317 N 
ATOM     19  C   UNL A   1      34.091  24.777  25.561  1.00  0.00     0.259 C 
ATOM     20  O   UNL A   1      35.191  24.613  26.099  1.00  0.00    -0.269 OA
ATOM     21  H   UNL A   1      34.263  26.722  25.837  1.00  0.00     0.170 HD
BRANCH  19  22
ATOM     22  C   UNL A   1      33.362  23.563  25.142  1.00  0.00     0.082 A 
ATOM     23  C   UNL A   1      32.184  23.062  25.706  1.00  0.00     0.131 A 
ATOM     24  C   UNL A   1      31.735  21.790  25.314  1.00  0.00     0.047 A 
ATOM     25  C   UNL A   1      32.351  21.092  24.274  1.00  0.00     0.004 A 
ATOM     26  C   UNL A   1      33.927  22.893  24.037  1.00  0.00     0.018 A 
ATOM     27  C   UNL A   1      33.417  21.671  23.599  1.00  0.00     0.001 A 
BRANCH  23  28
ATOM     28  O   UNL A   1      31.388  23.620  26.667  1.00  0.00    -0.496 OA
ATOM     29  C   UNL A   1      30.117  23.031  26.905  1.00  0.00     0.278 C 
ENDBRANCH  23  28
ENDBRANCH  19  22
ENDBRANCH  16  18
BRANCH  17  30
ATOM     30  C   UNL A   1      31.082  27.015  22.863  1.00  0.00    -0.019 A 
ATOM     31  C   UNL A   1      29.655  26.161  23.540  1.00  0.00     0.012 A 
ATOM     32  C   UNL A   1      30.866  28.687  22.303  1.00  0.00     0.058 A 
ATOM     33  C   UNL A   1      27.930  27.194  23.774  1.00  0.00     0.051 A 
ATOM     34  C   UNL A   1      29.320  29.546  22.476  1.00  0.00     0.166 A 
ATOM     35  C   UNL A   1      27.895  28.875  23.180  1.00  0.00     0.165 A 
ATOM     36  O   UNL A   1      29.187  30.910  22.601  1.00  0.00    -0.454 OA
ATOM     37  O   UNL A   1      27.110  29.897  23.613  1.00  0.00    -0.454 OA
ATOM     38  C   UNL A   1      28.064  31.005  23.547  1.00  0.00     0.468 C 
ENDBRANCH  17  30
ENDBRANCH  13  16
ENDBRANCH   7  12
ENDBRANCH   3   6
ENDBRANCH   1   2
BRANCH   1  39
ATOM     39  C   UNL A   1      35.932  31.895  31.626  1.00  0.00     0.042 C 
BRANCH  39  40
ATOM     40  C   UNL A   1      37.325  32.375  31.244  1.00  0.00     0.118 C 
BRANCH  40  41
ATOM     41  N   UNL A   1      37.736  33.527  32.033  1.00  0.00    -0.352 N 
ATOM     42  C   UNL A   1      38.983  33.824  32.525  1.00  0.00     0.251 C 
ATOM     43  H   UNL A   1      37.028  34.178  32.240  1.00  0.00     0.163 HD
ATOM     44  O   UNL A   1      39.114  34.674  33.399  1.00  0.00    -0.269 OA
BRANCH  42  45
ATOM     45  C   UNL A   1      40.154  33.098  31.995  1.00  0.00     0.039 A 
ATOM     46  C   UNL A   1      40.782  32.133  32.785  1.00  0.00     0.014 A 
ATOM     47  C   UNL A   1      40.621  33.372  30.707  1.00  0.00     0.014 A 
ATOM     48  C   UNL A   1      41.855  31.411  32.260  1.00  0.00     0.010 A 
ATOM     49  C   UNL A   1      41.616  32.583  30.152  1.00  0.00     0.010 A 
ATOM     50  C   UNL A   1      42.264  31.614  30.931  1.00  0.00    -0.014 A 
BRANCH  50  51
ATOM     51  C   UNL A   1      43.413  30.882  30.346  1.00  0.00     0.031 A 
ATOM     52  C   UNL A   1      44.747  31.576  30.242  1.00  0.00     0.074 A 
ATOM     53  C   UNL A   1      43.246  29.638  29.857  1.00  0.00     0.049 A 
ATOM     54  N   UNL A   1      45.844  31.170  29.659  1.00  0.00    -0.248 NA
ATOM     55  C   UNL A   1      44.851  32.919  30.842  1.00  0.00     0.031 C 
ATOM     56  C   UNL A   1      41.991  28.879  29.870  1.00  0.00     0.029 A 
ATOM     57  N   UNL A   1      44.135  28.792  29.244  1.00  0.00    -0.354 N 
ATOM     58  C   UNL A   1      46.756  32.210  29.809  1.00  0.00     0.074 A 
ATOM     59  C   UNL A   1      46.067  33.291  30.475  1.00  0.00     0.031 C 
ATOM     60  C   UNL A   1      42.200  27.674  29.313  1.00  0.00     0.029 A 
ATOM     61  C   UNL A   1      43.585  27.590  28.864  1.00  0.00     0.049 A 
ATOM     62  H   UNL A   1      45.080  29.024  29.091  1.00  0.00     0.167 HD
ATOM     63  C   UNL A   1      48.061  32.249  29.457  1.00  0.00     0.031 A 
ATOM     64  C   UNL A   1      44.137  26.545  28.219  1.00  0.00     0.031 A 
ATOM     65  C   UNL A   1      48.749  31.158  28.824  1.00  0.00     0.049 A 
ATOM     66  C   UNL A   1      45.590  26.619  27.827  1.00  0.00     0.074 A 
ATOM     67  C   UNL A   1      50.079  31.079  28.453  1.00  0.00     0.029 A 
ATOM     68  N   UNL A   1      48.163  29.948  28.486  1.00  0.00    -0.354 N 
ATOM     69  N   UNL A   1      46.445  27.597  28.014  1.00  0.00    -0.248 NA
ATOM     70  C   UNL A   1      46.158  25.445  27.150  1.00  0.00     0.031 C 
ATOM     71  C   UNL A   1      50.290  29.833  27.856  1.00  0.00     0.029 A 
ATOM     72  C   UNL A   1      49.104  29.116  27.908  1.00  0.00     0.049 A 
ATOM     73  H   UNL A   1      47.218  29.716  28.635  1.00  0.00     0.167 HD
ATOM     74  C   UNL A   1      47.659  27.138  27.515  1.00  0.00     0.074 A 
ATOM     75  C   UNL A   1      47.431  25.793  27.031  1.00  0.00     0.031 C 
ATOM     76  C   UNL A   1      48.856  27.771  27.459  1.00  0.00     0.031 A 
BRANCH  63  77
ATOM     77  C   UNL A   1      48.838  33.498  29.778  1.00  0.00    -0.014 A 
ATOM     78  C   UNL A   1      49.528  33.622  30.998  1.00  0.00     0.010 A 
ATOM     79  C   UNL A   1      48.934  34.533  28.830  1.00  0.00     0.010 A 
ATOM     80  C   UNL A   1      50.280  34.766  31.274  1.00  0.00     0.020 A 
ATOM     81  C   UNL A   1      49.710  35.666  29.089  1.00  0.00     0.020 A 
ATOM     82  C   UNL A   1      50.371  35.779  30.316  1.00  0.00     0.054 A 
BRANCH  82  83
ATOM     83  S   UNL A   1      51.405  37.222  30.680  1.00  0.00     0.124 S 
ATOM     84  O   UNL A   1      50.456  38.321  30.527  1.00  0.00    -0.237 OA
ATOM     85  O   UNL A   1      51.847  36.960  32.048  1.00  0.00    -0.237 OA
ATOM     86  O   UNL A   1      52.456  37.162  29.667  1.00  0.00    -0.744 OA
ENDBRANCH  82  83
ENDBRANCH  63  77
BRANCH  64  87
ATOM     87  C   UNL A   1      43.324  25.338  27.895  1.00  0.00    -0.014 A 
ATOM     88  C   UNL A   1      43.253  24.260  28.794  1.00  0.00     0.010 A 
ATOM     89  C   UNL A   1      42.645  25.247  26.666  1.00  0.00     0.010 A 
ATOM     90  C   UNL A   1      42.561  23.093  28.450  1.00  0.00     0.020 A 
ATOM     91  C   UNL A   1      41.924  24.096  26.333  1.00  0.00     0.020 A 
ATOM     92  C   UNL A   1      41.907  23.017  27.217  1.00  0.00     0.054 A 
BRANCH  92  93
ATOM     93  S   UNL A   1      41.019  21.495  26.787  1.00  0.00     0.124 S 
ATOM     94  O   UNL A   1      39.910  22.006  25.991  1.00  0.00    -0.237 OA
ATOM     95  O   UNL A   1      42.028  20.734  26.056  1.00  0.00    -0.237 OA
ATOM     96  O   UNL A   1      40.653  20.937  28.088  1.00  0.00    -0.744 OA
ENDBRANCH  92  93
ENDBRANCH  64  87
BRANCH  76  97
ATOM     97  C   UNL A   1      50.027  26.998  26.918  1.00  0.00    -0.014 A 
ATOM     98  C   UNL A   1      50.291  26.940  25.539  1.00  0.00     0.010 A 
ATOM     99  C   UNL A   1      50.918  26.382  27.817  1.00  0.00     0.010 A 
ATOM    100  C   UNL A   1      51.412  26.254  25.066  1.00  0.00     0.020 A 
ATOM    101  C   UNL A   1      52.056  25.722  27.349  1.00  0.00     0.020 A 
ATOM    102  C   UNL A   1      52.289  25.652  25.974  1.00  0.00     0.054 A 
BRANCH 102 103
ATOM    103  S   UNL A   1      53.767  24.818  25.337  1.00  0.00     0.124 S 
ATOM    104  O   UNL A   1      54.678  24.901  26.474  1.00  0.00    -0.237 OA
ATOM    105  O   UNL A   1      53.269  23.480  25.027  1.00  0.00    -0.237 OA
ATOM    106  O   UNL A   1      54.144  25.621  24.175  1.00  0.00    -0.744 OA
ENDBRANCH 102 103
ENDBRANCH  76  97
ENDBRANCH  50  51
ENDBRANCH  42  45
ENDBRANCH  40  41
ENDBRANCH  39  40
ENDBRANCH   1  39
TORSDOF 19
ENDMDL
MODEL 3
REMARK VINA RESULT:     -12.0      6.371     12.073
REMARK SMILES COc1ccccc1C(=O)N/C(=C/c1ccc2c(c1)OCO2)C(=O)Nc1ccc(C(=O)NCCCNC(=O)c2ccc(-c3c4nc(c(-c5ccc(S(=O)(=O)[O-])cc5)c5ccc([nH]5)c(-c5ccc(S(=O)(=O)[O-])cc5)c5nc(c(-c6ccc(S(=O)(=O)[O-])cc6)c6ccc3[nH]6)C=C5)C=C4)cc2)cc1
REMARK SMILES IDX 33 1 32 2 30 3 31 4 29 6 26 7 27 8 100 9 28 10 99 11 25 12
REMARK SMILES IDX 23 13 24 14 12 16 13 17 11 18 9 19 10 20 8 22 3 23 4 24 5 25
REMARK SMILES IDX 7 26 6 27 2 28 1 29 14 30 15 31 19 32 16 33 18 34 17 35
REMARK SMILES IDX 20 36 22 37 21 38 34 39 35 40 36 41 37 42 38 44 39 45 40 46
REMARK SMILES IDX 98 47 41 48 97 49 42 50 43 51 44 52 91 53 45 54 96 55 90 56
REMARK SMILES IDX 92 57 46 58 95 59 89 60 88 61 47 63 77 64 58 65 76 66 59 67
REMARK SMILES IDX 62 68 75 69 93 70 60 71 61 72 74 74 94 75 63 76 48 77 49 78
REMARK SMILES IDX 57 79 50 80 56 81 51 82 52 83 53 84 54 85 55 86 78 87 79 88
REMARK SMILES IDX 87 89 80 90 86 91 81 92 82 93 83 94 84 95 85 96 64 97 65 98
REMARK SMILES IDX 73 99 66 100 72 101 67 102 68 103 69 104 70 105 71 106
REMARK H PARENT 32 5 25 15 11 21 36 43 92 62 62 73
REMARK Flexibility Score: inf
ROOT
ATOM      1  C   UNL A   1      43.962  25.925  28.850  1.00  0.00     0.118 C 
ENDROOT
BRANCH   1   2
ATOM      2  N   UNL A   1      43.982  26.444  27.499  1.00  0.00    -0.352 N 
ATOM      3  C   UNL A   1      43.079  27.240  26.856  1.00  0.00     0.251 C 
ATOM      4  O   UNL A   1      43.284  27.607  25.705  1.00  0.00    -0.269 OA
ATOM      5  H   UNL A   1      44.764  26.184  26.962  1.00  0.00     0.163 HD
BRANCH   3   6
ATOM      6  C   UNL A   1      41.913  27.757  27.571  1.00  0.00     0.039 A 
ATOM      7  C   UNL A   1      39.064  29.128  29.535  1.00  0.00     0.041 A 
ATOM      8  C   UNL A   1      40.560  30.067  29.443  1.00  0.00     0.027 A 
ATOM      9  C   UNL A   1      38.959  27.627  28.626  1.00  0.00     0.027 A 
ATOM     10  C   UNL A   1      42.140  29.316  28.436  1.00  0.00     0.016 A 
ATOM     11  C   UNL A   1      40.328  26.971  27.675  1.00  0.00     0.016 A 
BRANCH   7  12
ATOM     12  N   UNL A   1      38.471  29.238  30.804  1.00  0.00    -0.321 N 
ATOM     13  C   UNL A   1      37.506  30.210  31.051  1.00  0.00     0.272 C 
ATOM     14  O   UNL A   1      36.344  29.909  31.327  1.00  0.00    -0.267 OA
ATOM     15  H   UNL A   1      38.741  28.623  31.524  1.00  0.00     0.170 HD
BRANCH  13  16
ATOM     16  C   UNL A   1      37.957  31.682  31.169  1.00  0.00     0.108 C 
ATOM     17  C   UNL A   1      38.764  32.204  32.139  1.00  0.00     0.040 C 
BRANCH  16  18
ATOM     18  N   UNL A   1      37.548  32.571  30.177  1.00  0.00    -0.317 N 
ATOM     19  C   UNL A   1      36.677  33.638  30.092  1.00  0.00     0.259 C 
ATOM     20  O   UNL A   1      36.570  34.191  28.993  1.00  0.00    -0.269 OA
ATOM     21  H   UNL A   1      37.992  32.390  29.317  1.00  0.00     0.170 HD
BRANCH  19  22
ATOM     22  C   UNL A   1      35.814  34.137  31.181  1.00  0.00     0.082 A 
ATOM     23  C   UNL A   1      34.428  34.320  31.131  1.00  0.00     0.131 A 
ATOM     24  C   UNL A   1      33.795  34.989  32.192  1.00  0.00     0.047 A 
ATOM     25  C   UNL A   1      34.492  35.332  33.351  1.00  0.00     0.004 A 
ATOM     26  C   UNL A   1      36.492  34.409  32.388  1.00  0.00     0.018 A 
ATOM     27  C   UNL A   1      35.833  34.993  33.469  1.00  0.00     0.001 A 
BRANCH  23  28
ATOM     28  O   UNL A   1      33.555  33.981  30.135  1.00  0.00    -0.496 OA
ATOM     29  C   UNL A   1      33.120  35.007  29.252  1.00  0.00     0.278 C 
ENDBRANCH  23  28
ENDBRANCH  19  22
ENDBRANCH  16  18
BRANCH  17  30
ATOM     30  C   UNL A   1      39.185  31.521  33.389  1.00  0.00    -0.019 A 
ATOM     31  C   UNL A   1      40.771  32.182  33.913  1.00  0.00     0.012 A 
ATOM     32  C   UNL A   1      38.010  31.078  34.645  1.00  0.00     0.058 A 
ATOM     33  C   UNL A   1      41.070  32.533  35.884  1.00  0.00     0.051 A 
ATOM     34  C   UNL A   1      38.328  31.351  36.372  1.00  0.00     0.166 A 
ATOM     35  C   UNL A   1      39.772  32.051  37.008  1.00  0.00     0.165 A 
ATOM     36  O   UNL A   1      37.361  31.568  37.326  1.00  0.00    -0.454 OA
ATOM     37  O   UNL A   1      39.491  32.572  38.231  1.00  0.00    -0.454 OA
ATOM     38  C   UNL A   1      38.028  32.550  38.195  1.00  0.00     0.468 C 
ENDBRANCH  17  30
ENDBRANCH  13  16
ENDBRANCH   7  12
ENDBRANCH   3   6
ENDBRANCH   1   2
BRANCH   1  39
ATOM     39  C   UNL A   1      43.826  24.409  28.844  1.00  0.00     0.042 C 
BRANCH  39  40
ATOM     40  C   UNL A   1      43.469  23.854  27.473  1.00  0.00     0.118 C 
BRANCH  40  41
ATOM     41  N   UNL A   1      44.283  22.697  27.128  1.00  0.00    -0.352 N 
ATOM     42  C   UNL A   1      45.481  22.665  26.458  1.00  0.00     0.251 C 
ATOM     43  H   UNL A   1      43.929  21.825  27.414  1.00  0.00     0.163 HD
ATOM     44  O   UNL A   1      45.903  21.608  26.000  1.00  0.00    -0.269 OA
BRANCH  42  45
ATOM     45  C   UNL A   1      46.241  23.919  26.289  1.00  0.00     0.039 A 
ATOM     46  C   UNL A   1      46.060  24.686  25.137  1.00  0.00     0.014 A 
ATOM     47  C   UNL A   1      47.130  24.335  27.285  1.00  0.00     0.014 A 
ATOM     48  C   UNL A   1      46.740  25.897  25.007  1.00  0.00     0.010 A 
ATOM     49  C   UNL A   1      47.722  25.586  27.201  1.00  0.00     0.010 A 
ATOM     50  C   UNL A   1      47.558  26.367  26.048  1.00  0.00    -0.014 A 
BRANCH  50  51
ATOM     51  C   UNL A   1      48.313  27.638  25.937  1.00  0.00     0.031 A 
ATOM     52  C   UNL A   1      47.695  28.905  26.471  1.00  0.00     0.074 A 
ATOM     53  C   UNL A   1      49.506  27.666  25.312  1.00  0.00     0.049 A 
ATOM     54  N   UNL A   1      48.123  30.137  26.371  1.00  0.00    -0.248 NA
ATOM     55  C   UNL A   1      46.409  28.776  27.179  1.00  0.00     0.031 C 
ATOM     56  C   UNL A   1      50.187  26.507  24.724  1.00  0.00     0.029 A 
ATOM     57  N   UNL A   1      50.357  28.711  25.057  1.00  0.00    -0.354 N 
ATOM     58  C   UNL A   1      47.155  30.923  26.987  1.00  0.00     0.074 A 
ATOM     59  C   UNL A   1      46.085  30.041  27.395  1.00  0.00     0.031 C 
ATOM     60  C   UNL A   1      51.358  26.905  24.199  1.00  0.00     0.029 A 
ATOM     61  C   UNL A   1      51.493  28.347  24.372  1.00  0.00     0.049 A 
ATOM     62  H   UNL A   1      50.172  29.637  25.339  1.00  0.00     0.167 HD
ATOM     63  C   UNL A   1      47.169  32.254  27.223  1.00  0.00     0.031 A 
ATOM     64  C   UNL A   1      52.519  29.096  23.926  1.00  0.00     0.031 A 
ATOM     65  C   UNL A   1      48.250  33.119  26.842  1.00  0.00     0.049 A 
ATOM     66  C   UNL A   1      52.504  30.579  24.194  1.00  0.00     0.074 A 
ATOM     67  C   UNL A   1      48.382  34.479  27.061  1.00  0.00     0.029 A 
ATOM     68  N   UNL A   1      49.394  32.705  26.179  1.00  0.00    -0.354 N 
ATOM     69  N   UNL A   1      51.597  31.295  24.812  1.00  0.00    -0.248 NA
ATOM     70  C   UNL A   1      53.659  31.352  23.715  1.00  0.00     0.031 C 
ATOM     71  C   UNL A   1      49.591  34.895  26.498  1.00  0.00     0.029 A 
ATOM     72  C   UNL A   1      50.237  33.782  25.979  1.00  0.00     0.049 A 
ATOM     73  H   UNL A   1      49.579  31.781  25.893  1.00  0.00     0.167 HD
ATOM     74  C   UNL A   1      52.090  32.596  24.832  1.00  0.00     0.074 A 
ATOM     75  C   UNL A   1      53.380  32.563  24.176  1.00  0.00     0.031 C 
ATOM     76  C   UNL A   1      51.529  33.717  25.346  1.00  0.00     0.031 A 
BRANCH  63  77
ATOM     77  C   UNL A   1      45.996  32.850  27.955  1.00  0.00    -0.014 A 
ATOM     78  C   UNL A   1      45.991  32.932  29.360  1.00  0.00     0.010 A 
ATOM     79  C   UNL A   1      44.915  33.390  27.235  1.00  0.00     0.010 A 
ATOM     80  C   UNL A   1      44.919  33.522  30.032  1.00  0.00     0.020 A 
ATOM     81  C   UNL A   1      43.853  34.008  27.902  1.00  0.00     0.020 A 
ATOM     82  C   UNL A   1      43.859  34.061  29.299  1.00  0.00     0.054 A 
BRANCH  82  83
ATOM     83  S   UNL A   1      42.512  34.875  30.199  1.00  0.00     0.124 S 
ATOM     84  O   UNL A   1      43.008  36.244  30.313  1.00  0.00    -0.237 OA
ATOM     85  O   UNL A   1      41.373  34.693  29.301  1.00  0.00    -0.237 OA
ATOM     86  O   UNL A   1      42.436  34.134  31.456  1.00  0.00    -0.744 OA
ENDBRANCH  82  83
ENDBRANCH  63  77
BRANCH  64  87
ATOM     87  C   UNL A   1      53.648  28.470  23.181  1.00  0.00    -0.014 A 
ATOM     88  C   UNL A   1      54.798  28.028  23.859  1.00  0.00     0.010 A 
ATOM     89  C   UNL A   1      53.592  28.345  21.780  1.00  0.00     0.010 A 
ATOM     90  C   UNL A   1      55.891  27.521  23.147  1.00  0.00     0.020 A 
ATOM     91  C   UNL A   1      54.669  27.808  21.069  1.00  0.00     0.020 A 
ATOM     92  C   UNL A   1      55.821  27.422  21.755  1.00  0.00     0.054 A 
BRANCH  92  93
ATOM     93  S   UNL A   1      57.250  26.766  20.850  1.00  0.00     0.124 S 
ATOM     94  O   UNL A   1      57.998  26.099  21.909  1.00  0.00    -0.237 OA
ATOM     95  O   UNL A   1      56.625  25.888  19.864  1.00  0.00    -0.237 OA
ATOM     96  O   UNL A   1      57.879  27.963  20.295  1.00  0.00    -0.744 OA
ENDBRANCH  92  93
ENDBRANCH  64  87
BRANCH  76  97
ATOM     97  C   UNL A   1      52.330  34.989  25.281  1.00  0.00    -0.014 A 
ATOM     98  C   UNL A   1      53.209  35.352  26.315  1.00  0.00     0.010 A 
ATOM     99  C   UNL A   1      52.250  35.792  24.128  1.00  0.00     0.010 A 
ATOM    100  C   UNL A   1      53.976  36.515  26.208  1.00  0.00     0.020 A 
ATOM    101  C   UNL A   1      53.038  36.939  24.006  1.00  0.00     0.020 A 
ATOM    102  C   UNL A   1      53.888  37.298  25.053  1.00  0.00     0.054 A 
BRANCH 102 103
ATOM    103  S   UNL A   1      54.937  38.771  24.916  1.00  0.00     0.124 S 
ATOM    104  O   UNL A   1      53.949  39.835  24.768  1.00  0.00    -0.237 OA
ATOM    105  O   UNL A   1      55.667  38.761  26.181  1.00  0.00    -0.237 OA
ATOM    106  O   UNL A   1      55.752  38.507  23.731  1.00  0.00    -0.744 OA
ENDBRANCH 102 103
ENDBRANCH  76  97
ENDBRANCH  50  51
ENDBRANCH  42  45
ENDBRANCH  40  41
ENDBRANCH  39  40
ENDBRANCH   1  39
TORSDOF 19
ENDMDL
