MODEL 1
REMARK VINA RESULT:     -11.2      0.000      0.000
REMARK SMILES Cc1cc(C[N@@H+]2C[C@H](C)[C@H](C(=O)NCCCNC(=O)c3ccc(-c4c5nc(c(-c6ccc(S(=O)(=O)[O-])cc6)c6ccc([nH]6)c(-c6ccc(S(=O)(=O)[O-])cc6)c6nc(c(-c7ccc(S(=O)(=O)[O-])cc7)c7ccc4[nH]7)C=C6)C=C5)cc3)C2)ccc1Br
REMARK SMILES IDX 15 1 14 2 13 3 11 4 12 5 10 7 6 8 7 9 80 10 8 12 9 13 5 14
REMARK SMILES IDX 4 15 1 16 2 17 3 18 83 19 82 20 84 21 81 22 16 23 17 24
REMARK SMILES IDX 18 25 19 27 20 28 21 29 79 30 22 31 78 32 23 33 24 34 25 35
REMARK SMILES IDX 72 36 26 37 77 38 71 39 73 40 27 41 76 42 70 43 69 44 28 46
REMARK SMILES IDX 58 47 39 48 57 49 40 50 43 51 56 52 74 53 41 54 42 55 55 57
REMARK SMILES IDX 75 58 44 59 29 60 30 61 38 62 31 63 37 64 32 65 33 66 34 67
REMARK SMILES IDX 35 68 36 69 59 70 60 71 68 72 61 73 67 74 62 75 63 76 64 77
REMARK SMILES IDX 65 78 66 79 45 80 46 81 54 82 47 83 53 84 48 85 49 86 50 87
REMARK SMILES IDX 51 88 52 89
REMARK H PARENT 13 6 6 11 17 26 73 45 43 56
REMARK Flexibility Score: inf
ROOT
ATOM      1  C   UNL A   1      32.949  27.919  25.592  1.00  0.00     0.042 C 
ENDROOT
BRANCH   1   2
ATOM      2  C   UNL A   1      31.552  28.516  25.500  1.00  0.00     0.117 C 
BRANCH   2   3
ATOM      3  N   UNL A   1      31.128  28.752  24.132  1.00  0.00    -0.356 N 
ATOM      4  C   UNL A   1      30.532  27.948  23.216  1.00  0.00     0.229 C 
ATOM      5  O   UNL A   1      30.319  28.454  22.107  1.00  0.00    -0.275 OA
ATOM      6  H   UNL A   1      31.305  29.665  23.810  1.00  0.00     0.163 HD
BRANCH   4   7
ATOM      7  C   UNL A   1      30.154  26.492  23.453  1.00  0.00     0.142 C 
ATOM      8  N   UNL A   1      30.243  24.621  24.922  1.00  0.00    -0.330 N 
ATOM      9  C   UNL A   1      30.693  24.162  23.616  1.00  0.00     0.266 C 
ATOM     10  C   UNL A   1      29.907  26.038  24.889  1.00  0.00     0.276 C 
ATOM     11  H   UNL A   1      29.364  24.134  25.095  1.00  0.00     0.348 HD
ATOM     12  C   UNL A   1      31.013  25.410  22.789  1.00  0.00     0.059 C 
ATOM     13  C   UNL A   1      32.510  25.661  22.698  1.00  0.00     0.015 C 
BRANCH   8  14
ATOM     14  C   UNL A   1      30.889  24.083  26.113  1.00  0.00     0.299 C 
BRANCH  14  15
ATOM     15  C   UNL A   1      32.185  23.321  25.920  1.00  0.00     0.007 A 
ATOM     16  C   UNL A   1      35.915  24.092  25.619  1.00  0.00     0.045 C 
ATOM     17  C   UNL A   1      34.634  23.308  25.694  1.00  0.00    -0.036 A 
ATOM     18  C   UNL A   1      33.419  23.994  25.891  1.00  0.00     0.014 A 
ATOM     19  C   UNL A   1      34.594  21.918  25.513  1.00  0.00     0.020 A 
ATOM     20  C   UNL A   1      33.380  21.231  25.573  1.00  0.00     0.016 A 
ATOM     21  Br  UNL A   1      36.156  20.902  25.137  1.00  0.00    -0.051 Br
ATOM     22  C   UNL A   1      32.188  21.927  25.790  1.00  0.00     0.011 A 
ENDBRANCH  14  15
ENDBRANCH   8  14
ENDBRANCH   4   7
ENDBRANCH   2   3
ENDBRANCH   1   2
BRANCH   1  23
ATOM     23  C   UNL A   1      33.670  28.218  26.895  1.00  0.00     0.118 C 
BRANCH  23  24
ATOM     24  N   UNL A   1      33.590  29.623  27.270  1.00  0.00    -0.352 N 
ATOM     25  C   UNL A   1      34.461  30.435  27.960  1.00  0.00     0.251 C 
ATOM     26  H   UNL A   1      32.765  30.073  26.977  1.00  0.00     0.163 HD
ATOM     27  O   UNL A   1      34.058  31.534  28.334  1.00  0.00    -0.269 OA
BRANCH  25  28
ATOM     28  C   UNL A   1      35.849  30.015  28.280  1.00  0.00     0.039 A 
ATOM     29  C   UNL A   1      36.830  30.124  27.286  1.00  0.00     0.014 A 
ATOM     30  C   UNL A   1      36.193  29.452  29.509  1.00  0.00     0.014 A 
ATOM     31  C   UNL A   1      38.149  29.733  27.549  1.00  0.00     0.010 A 
ATOM     32  C   UNL A   1      37.524  29.161  29.806  1.00  0.00     0.010 A 
ATOM     33  C   UNL A   1      38.517  29.280  28.824  1.00  0.00    -0.014 A 
BRANCH  33  34
ATOM     34  C   UNL A   1      39.918  28.896  29.150  1.00  0.00     0.031 A 
ATOM     35  C   UNL A   1      40.853  29.899  29.782  1.00  0.00     0.074 A 
ATOM     36  C   UNL A   1      40.379  27.673  28.811  1.00  0.00     0.049 A 
ATOM     37  N   UNL A   1      42.133  29.791  30.036  1.00  0.00    -0.248 NA
ATOM     38  C   UNL A   1      40.281  31.207  30.148  1.00  0.00     0.031 C 
ATOM     39  C   UNL A   1      39.597  26.622  28.156  1.00  0.00     0.029 A 
ATOM     40  N   UNL A   1      41.624  27.114  28.960  1.00  0.00    -0.354 N 
ATOM     41  C   UNL A   1      42.522  31.022  30.555  1.00  0.00     0.074 A 
ATOM     42  C   UNL A   1      41.355  31.874  30.543  1.00  0.00     0.031 C 
ATOM     43  C   UNL A   1      40.374  25.540  27.980  1.00  0.00     0.029 A 
ATOM     44  C   UNL A   1      41.718  25.833  28.469  1.00  0.00     0.049 A 
ATOM     45  H   UNL A   1      42.380  27.586  29.380  1.00  0.00     0.167 HD
ATOM     46  C   UNL A   1      43.737  31.405  31.018  1.00  0.00     0.031 A 
ATOM     47  C   UNL A   1      42.767  24.990  28.407  1.00  0.00     0.031 A 
ATOM     48  C   UNL A   1      44.889  30.545  31.072  1.00  0.00     0.049 A 
ATOM     49  C   UNL A   1      44.100  25.430  28.952  1.00  0.00     0.074 A 
ATOM     50  C   UNL A   1      46.143  30.820  31.591  1.00  0.00     0.029 A 
ATOM     51  N   UNL A   1      44.928  29.243  30.599  1.00  0.00    -0.354 N 
ATOM     52  N   UNL A   1      44.430  26.579  29.491  1.00  0.00    -0.248 NA
ATOM     53  C   UNL A   1      45.197  24.454  28.889  1.00  0.00     0.031 C 
ATOM     54  C   UNL A   1      46.952  29.695  31.398  1.00  0.00     0.029 A 
ATOM     55  C   UNL A   1      46.187  28.706  30.801  1.00  0.00     0.049 A 
ATOM     56  H   UNL A   1      44.171  28.771  30.182  1.00  0.00     0.167 HD
ATOM     57  C   UNL A   1      45.767  26.455  29.854  1.00  0.00     0.074 A 
ATOM     58  C   UNL A   1      46.178  25.116  29.488  1.00  0.00     0.031 C 
ATOM     59  C   UNL A   1      46.580  27.369  30.438  1.00  0.00     0.031 A 
BRANCH  46  60
ATOM     60  C   UNL A   1      43.883  32.820  31.514  1.00  0.00    -0.014 A 
ATOM     61  C   UNL A   1      43.671  33.140  32.866  1.00  0.00     0.010 A 
ATOM     62  C   UNL A   1      44.295  33.832  30.627  1.00  0.00     0.010 A 
ATOM     63  C   UNL A   1      43.832  34.453  33.317  1.00  0.00     0.020 A 
ATOM     64  C   UNL A   1      44.484  35.141  31.079  1.00  0.00     0.020 A 
ATOM     65  C   UNL A   1      44.236  35.447  32.419  1.00  0.00     0.054 A 
BRANCH  65  66
ATOM     66  S   UNL A   1      44.474  37.135  33.038  1.00  0.00     0.124 S 
ATOM     67  O   UNL A   1      45.525  36.943  34.036  1.00  0.00    -0.237 OA
ATOM     68  O   UNL A   1      44.874  37.865  31.839  1.00  0.00    -0.237 OA
ATOM     69  O   UNL A   1      43.163  37.495  33.575  1.00  0.00    -0.744 OA
ENDBRANCH  65  66
ENDBRANCH  46  60
BRANCH  47  70
ATOM     70  C   UNL A   1      42.604  23.636  27.811  1.00  0.00    -0.014 A 
ATOM     71  C   UNL A   1      42.134  22.565  28.591  1.00  0.00     0.010 A 
ATOM     72  C   UNL A   1      42.921  23.410  26.459  1.00  0.00     0.010 A 
ATOM     73  C   UNL A   1      42.008  21.288  28.038  1.00  0.00     0.020 A 
ATOM     74  C   UNL A   1      42.771  22.139  25.897  1.00  0.00     0.020 A 
ATOM     75  C   UNL A   1      42.330  21.082  26.694  1.00  0.00     0.054 A 
BRANCH  75  76
ATOM     76  S   UNL A   1      42.125  19.424  25.985  1.00  0.00     0.124 S 
ATOM     77  O   UNL A   1      42.938  19.510  24.777  1.00  0.00    -0.237 OA
ATOM     78  O   UNL A   1      42.646  18.560  27.041  1.00  0.00    -0.237 OA
ATOM     79  O   UNL A   1      40.682  19.325  25.765  1.00  0.00    -0.744 OA
ENDBRANCH  75  76
ENDBRANCH  47  70
BRANCH  59  80
ATOM     80  C   UNL A   1      47.988  26.942  30.752  1.00  0.00    -0.014 A 
ATOM     81  C   UNL A   1      49.043  27.205  29.861  1.00  0.00     0.010 A 
ATOM     82  C   UNL A   1      48.264  26.320  31.983  1.00  0.00     0.010 A 
ATOM     83  C   UNL A   1      50.348  26.823  30.184  1.00  0.00     0.020 A 
ATOM     84  C   UNL A   1      49.572  25.959  32.319  1.00  0.00     0.020 A 
ATOM     85  C   UNL A   1      50.603  26.201  31.409  1.00  0.00     0.054 A 
BRANCH  85  86
ATOM     86  S   UNL A   1      52.313  25.754  31.824  1.00  0.00     0.124 S 
ATOM     87  O   UNL A   1      52.171  24.359  32.230  1.00  0.00    -0.237 OA
ATOM     88  O   UNL A   1      53.018  25.974  30.564  1.00  0.00    -0.237 OA
ATOM     89  O   UNL A   1      52.662  26.683  32.896  1.00  0.00    -0.744 OA
ENDBRANCH  85  86
ENDBRANCH  59  80
ENDBRANCH  33  34
ENDBRANCH  25  28
ENDBRANCH  23  24
ENDBRANCH   1  23
TORSDOF 15
ENDMDL
MODEL 2
REMARK VINA RESULT:     -11.0      4.782     10.339
REMARK SMILES Cc1cc(C[N@@H+]2C[C@H](C)[C@H](C(=O)NCCCNC(=O)c3ccc(-c4c5nc(c(-c6ccc(S(=O)(=O)[O-])cc6)c6ccc([nH]6)c(-c6ccc(S(=O)(=O)[O-])cc6)c6nc(c(-c7ccc(S(=O)(=O)[O-])cc7)c7ccc4[nH]7)C=C6)C=C5)cc3)C2)ccc1Br
REMARK SMILES IDX 15 1 14 2 13 3 11 4 12 5 10 7 6 8 7 9 80 10 8 12 9 13 5 14
REMARK SMILES IDX 4 15 1 16 2 17 3 18 83 19 82 20 84 21 81 22 16 23 17 24
REMARK SMILES IDX 18 25 19 27 20 28 21 29 79 30 22 31 78 32 23 33 24 34 25 35
REMARK SMILES IDX 72 36 26 37 77 38 71 39 73 40 27 41 76 42 70 43 69 44 28 46
REMARK SMILES IDX 58 47 39 48 57 49 40 50 43 51 56 52 74 53 41 54 42 55 55 57
REMARK SMILES IDX 75 58 44 59 29 60 30 61 38 62 31 63 37 64 32 65 33 66 34 67
REMARK SMILES IDX 35 68 36 69 59 70 60 71 68 72 61 73 67 74 62 75 63 76 64 77
REMARK SMILES IDX 65 78 66 79 45 80 46 81 54 82 47 83 53 84 48 85 49 86 50 87
REMARK SMILES IDX 51 88 52 89
REMARK H PARENT 13 6 6 11 17 26 73 45 43 56
REMARK Flexibility Score: inf
ROOT
ATOM      1  C   UNL A   1      38.210  23.490  26.006  1.00  0.00     0.042 C 
ENDROOT
BRANCH   1   2
ATOM      2  C   UNL A   1      37.793  22.248  25.231  1.00  0.00     0.117 C 
BRANCH   2   3
ATOM      3  N   UNL A   1      36.987  22.555  24.064  1.00  0.00    -0.356 N 
ATOM      4  C   UNL A   1      35.648  22.705  23.900  1.00  0.00     0.229 C 
ATOM      5  O   UNL A   1      35.266  22.946  22.749  1.00  0.00    -0.275 OA
ATOM      6  H   UNL A   1      37.508  22.677  23.238  1.00  0.00     0.163 HD
BRANCH   4   7
ATOM      7  C   UNL A   1      34.616  22.565  25.012  1.00  0.00     0.142 C 
ATOM      8  N   UNL A   1      32.315  22.629  25.617  1.00  0.00    -0.330 N 
ATOM      9  C   UNL A   1      33.030  23.478  26.558  1.00  0.00     0.266 C 
ATOM     10  C   UNL A   1      33.229  22.047  24.643  1.00  0.00     0.276 C 
ATOM     11  H   UNL A   1      31.966  21.845  26.168  1.00  0.00     0.348 HD
ATOM     12  C   UNL A   1      34.408  23.756  25.953  1.00  0.00     0.059 C 
ATOM     13  C   UNL A   1      34.493  25.149  25.350  1.00  0.00     0.015 C 
BRANCH   8  14
ATOM     14  C   UNL A   1      30.987  23.036  25.175  1.00  0.00     0.299 C 
BRANCH  14  15
ATOM     15  C   UNL A   1      30.860  24.391  24.507  1.00  0.00     0.007 A 
ATOM     16  C   UNL A   1      31.961  26.069  21.256  1.00  0.00     0.045 C 
ATOM     17  C   UNL A   1      31.313  25.875  22.599  1.00  0.00    -0.036 A 
ATOM     18  C   UNL A   1      31.402  24.618  23.230  1.00  0.00     0.014 A 
ATOM     19  C   UNL A   1      30.670  26.920  23.279  1.00  0.00     0.020 A 
ATOM     20  C   UNL A   1      30.097  26.701  24.533  1.00  0.00     0.016 A 
ATOM     21  Br  UNL A   1      30.579  28.681  22.572  1.00  0.00    -0.051 Br
ATOM     22  C   UNL A   1      30.179  25.442  25.134  1.00  0.00     0.011 A 
ENDBRANCH  14  15
ENDBRANCH   8  14
ENDBRANCH   4   7
ENDBRANCH   2   3
ENDBRANCH   1   2
BRANCH   1  23
ATOM     23  C   UNL A   1      39.440  23.298  26.876  1.00  0.00     0.118 C 
BRANCH  23  24
ATOM     24  N   UNL A   1      40.672  23.669  26.194  1.00  0.00    -0.352 N 
ATOM     25  C   UNL A   1      41.494  24.764  26.325  1.00  0.00     0.251 C 
ATOM     26  H   UNL A   1      40.970  23.019  25.518  1.00  0.00     0.163 HD
ATOM     27  O   UNL A   1      42.362  24.945  25.473  1.00  0.00    -0.269 OA
BRANCH  25  28
ATOM     28  C   UNL A   1      41.349  25.733  27.441  1.00  0.00     0.039 A 
ATOM     29  C   UNL A   1      42.302  26.752  27.574  1.00  0.00     0.014 A 
ATOM     30  C   UNL A   1      40.341  25.623  28.398  1.00  0.00     0.014 A 
ATOM     31  C   UNL A   1      42.202  27.681  28.618  1.00  0.00     0.010 A 
ATOM     32  C   UNL A   1      40.180  26.606  29.373  1.00  0.00     0.010 A 
ATOM     33  C   UNL A   1      41.118  27.639  29.508  1.00  0.00    -0.014 A 
BRANCH  33  34
ATOM     34  C   UNL A   1      40.959  28.636  30.602  1.00  0.00     0.031 A 
ATOM     35  C   UNL A   1      41.816  28.545  31.842  1.00  0.00     0.074 A 
ATOM     36  C   UNL A   1      39.995  29.577  30.523  1.00  0.00     0.049 A 
ATOM     37  N   UNL A   1      41.750  29.245  32.945  1.00  0.00    -0.248 NA
ATOM     38  C   UNL A   1      42.864  27.510  31.855  1.00  0.00     0.031 C 
ATOM     39  C   UNL A   1      39.067  29.751  29.403  1.00  0.00     0.029 A 
ATOM     40  N   UNL A   1      39.627  30.558  31.411  1.00  0.00    -0.354 N 
ATOM     41  C   UNL A   1      42.719  28.715  33.791  1.00  0.00     0.074 A 
ATOM     42  C   UNL A   1      43.331  27.608  33.091  1.00  0.00     0.031 C 
ATOM     43  C   UNL A   1      38.253  30.788  29.661  1.00  0.00     0.029 A 
ATOM     44  C   UNL A   1      38.571  31.326  30.981  1.00  0.00     0.049 A 
ATOM     45  H   UNL A   1      40.078  30.698  32.275  1.00  0.00     0.167 HD
ATOM     46  C   UNL A   1      43.081  29.121  35.032  1.00  0.00     0.031 A 
ATOM     47  C   UNL A   1      37.921  32.342  31.582  1.00  0.00     0.031 A 
ATOM     48  C   UNL A   1      42.504  30.248  35.714  1.00  0.00     0.049 A 
ATOM     49  C   UNL A   1      38.359  32.791  32.950  1.00  0.00     0.074 A 
ATOM     50  C   UNL A   1      42.855  30.781  36.943  1.00  0.00     0.029 A 
ATOM     51  N   UNL A   1      41.463  31.021  35.225  1.00  0.00    -0.354 N 
ATOM     52  N   UNL A   1      39.317  32.310  33.707  1.00  0.00    -0.248 NA
ATOM     53  C   UNL A   1      37.636  33.927  33.539  1.00  0.00     0.031 C 
ATOM     54  C   UNL A   1      41.999  31.855  37.213  1.00  0.00     0.029 A 
ATOM     55  C   UNL A   1      41.149  32.017  36.132  1.00  0.00     0.049 A 
ATOM     56  H   UNL A   1      41.015  30.882  34.360  1.00  0.00     0.167 HD
ATOM     57  C   UNL A   1      39.326  33.101  34.851  1.00  0.00     0.074 A 
ATOM     58  C   UNL A   1      38.292  34.100  34.679  1.00  0.00     0.031 C 
ATOM     59  C   UNL A   1      40.121  33.009  35.945  1.00  0.00     0.031 A 
BRANCH  46  60
ATOM     60  C   UNL A   1      44.163  28.344  35.736  1.00  0.00    -0.014 A 
ATOM     61  C   UNL A   1      45.516  28.702  35.604  1.00  0.00     0.010 A 
ATOM     62  C   UNL A   1      43.817  27.277  36.586  1.00  0.00     0.010 A 
ATOM     63  C   UNL A   1      46.507  27.985  36.281  1.00  0.00     0.020 A 
ATOM     64  C   UNL A   1      44.802  26.575  37.286  1.00  0.00     0.020 A 
ATOM     65  C   UNL A   1      46.144  26.924  37.116  1.00  0.00     0.054 A 
BRANCH  65  66
ATOM     66  S   UNL A   1      47.447  26.036  38.011  1.00  0.00     0.124 S 
ATOM     67  O   UNL A   1      46.671  25.233  38.953  1.00  0.00    -0.237 OA
ATOM     68  O   UNL A   1      48.113  25.286  36.949  1.00  0.00    -0.237 OA
ATOM     69  O   UNL A   1      48.246  27.103  38.611  1.00  0.00    -0.744 OA
ENDBRANCH  65  66
ENDBRANCH  46  60
BRANCH  47  70
ATOM     70  C   UNL A   1      36.786  33.014  30.893  1.00  0.00    -0.014 A 
ATOM     71  C   UNL A   1      37.018  33.855  29.790  1.00  0.00     0.010 A 
ATOM     72  C   UNL A   1      35.465  32.820  31.339  1.00  0.00     0.010 A 
ATOM     73  C   UNL A   1      35.954  34.509  29.161  1.00  0.00     0.020 A 
ATOM     74  C   UNL A   1      34.398  33.452  30.696  1.00  0.00     0.020 A 
ATOM     75  C   UNL A   1      34.650  34.305  29.620  1.00  0.00     0.054 A 
BRANCH  75  76
ATOM     76  S   UNL A   1      33.279  35.133  28.768  1.00  0.00     0.124 S 
ATOM     77  O   UNL A   1      33.972  36.185  28.031  1.00  0.00    -0.237 OA
ATOM     78  O   UNL A   1      32.713  34.059  27.957  1.00  0.00    -0.237 OA
ATOM     79  O   UNL A   1      32.426  35.591  29.864  1.00  0.00    -0.744 OA
ENDBRANCH  75  76
ENDBRANCH  47  70
BRANCH  59  80
ATOM     80  C   UNL A   1      39.930  34.034  37.028  1.00  0.00    -0.014 A 
ATOM     81  C   UNL A   1      40.435  35.339  36.892  1.00  0.00     0.010 A 
ATOM     82  C   UNL A   1      39.185  33.700  38.174  1.00  0.00     0.010 A 
ATOM     83  C   UNL A   1      40.225  36.284  37.899  1.00  0.00     0.020 A 
ATOM     84  C   UNL A   1      38.952  34.651  39.172  1.00  0.00     0.020 A 
ATOM     85  C   UNL A   1      39.487  35.933  39.033  1.00  0.00     0.054 A 
BRANCH  85  86
ATOM     86  S   UNL A   1      39.190  37.191  40.308  1.00  0.00     0.124 S 
ATOM     87  O   UNL A   1      40.540  37.447  40.800  1.00  0.00    -0.237 OA
ATOM     88  O   UNL A   1      38.579  38.280  39.550  1.00  0.00    -0.237 OA
ATOM     89  O   UNL A   1      38.298  36.521  41.252  1.00  0.00    -0.744 OA
ENDBRANCH  85  86
ENDBRANCH  59  80
ENDBRANCH  33  34
ENDBRANCH  25  28
ENDBRANCH  23  24
ENDBRANCH   1  23
TORSDOF 15
ENDMDL
MODEL 3
REMARK VINA RESULT:     -10.9      2.765      3.476
REMARK SMILES Cc1cc(C[N@@H+]2C[C@H](C)[C@H](C(=O)NCCCNC(=O)c3ccc(-c4c5nc(c(-c6ccc(S(=O)(=O)[O-])cc6)c6ccc([nH]6)c(-c6ccc(S(=O)(=O)[O-])cc6)c6nc(c(-c7ccc(S(=O)(=O)[O-])cc7)c7ccc4[nH]7)C=C6)C=C5)cc3)C2)ccc1Br
REMARK SMILES IDX 15 1 14 2 13 3 11 4 12 5 10 7 6 8 7 9 80 10 8 12 9 13 5 14
REMARK SMILES IDX 4 15 1 16 2 17 3 18 83 19 82 20 84 21 81 22 16 23 17 24
REMARK SMILES IDX 18 25 19 27 20 28 21 29 79 30 22 31 78 32 23 33 24 34 25 35
REMARK SMILES IDX 72 36 26 37 77 38 71 39 73 40 27 41 76 42 70 43 69 44 28 46
REMARK SMILES IDX 58 47 39 48 57 49 40 50 43 51 56 52 74 53 41 54 42 55 55 57
REMARK SMILES IDX 75 58 44 59 29 60 30 61 38 62 31 63 37 64 32 65 33 66 34 67
REMARK SMILES IDX 35 68 36 69 59 70 60 71 68 72 61 73 67 74 62 75 63 76 64 77
REMARK SMILES IDX 65 78 66 79 45 80 46 81 54 82 47 83 53 84 48 85 49 86 50 87
REMARK SMILES IDX 51 88 52 89
REMARK H PARENT 13 6 6 11 17 26 73 45 43 56
REMARK Flexibility Score: inf
ROOT
ATOM      1  C   UNL A   1      33.829  28.593  27.253  1.00  0.00     0.042 C 
ENDROOT
BRANCH   1   2
ATOM      2  C   UNL A   1      33.637  27.981  25.873  1.00  0.00     0.117 C 
BRANCH   2   3
ATOM      3  N   UNL A   1      32.724  28.742  25.040  1.00  0.00    -0.356 N 
ATOM      4  C   UNL A   1      31.526  28.429  24.486  1.00  0.00     0.229 C 
ATOM      5  O   UNL A   1      31.001  29.310  23.794  1.00  0.00    -0.275 OA
ATOM      6  H   UNL A   1      33.031  29.656  24.840  1.00  0.00     0.163 HD
BRANCH   4   7
ATOM      7  C   UNL A   1      30.826  27.084  24.633  1.00  0.00     0.142 C 
ATOM      8  N   UNL A   1      30.745  24.990  25.763  1.00  0.00    -0.330 N 
ATOM      9  C   UNL A   1      30.716  24.709  24.335  1.00  0.00     0.266 C 
ATOM     10  C   UNL A   1      30.819  26.424  26.009  1.00  0.00     0.276 C 
ATOM     11  H   UNL A   1      29.835  24.698  26.117  1.00  0.00     0.348 HD
ATOM     12  C   UNL A   1      31.160  25.986  23.618  1.00  0.00     0.059 C 
ATOM     13  C   UNL A   1      32.598  25.894  23.133  1.00  0.00     0.015 C 
BRANCH   8  14
ATOM     14  C   UNL A   1      31.484  24.090  26.639  1.00  0.00     0.299 C 
BRANCH  14  15
ATOM     15  C   UNL A   1      32.822  23.577  26.142  1.00  0.00     0.007 A 
ATOM     16  C   UNL A   1      34.287  20.316  24.792  1.00  0.00     0.045 C 
ATOM     17  C   UNL A   1      34.194  21.753  25.227  1.00  0.00    -0.036 A 
ATOM     18  C   UNL A   1      32.958  22.257  25.675  1.00  0.00     0.014 A 
ATOM     19  C   UNL A   1      35.313  22.599  25.261  1.00  0.00     0.020 A 
ATOM     20  C   UNL A   1      35.186  23.922  25.688  1.00  0.00     0.016 A 
ATOM     21  Br  UNL A   1      37.050  21.998  24.778  1.00  0.00    -0.051 Br
ATOM     22  C   UNL A   1      33.947  24.409  26.111  1.00  0.00     0.011 A 
ENDBRANCH  14  15
ENDBRANCH   8  14
ENDBRANCH   4   7
ENDBRANCH   2   3
ENDBRANCH   1   2
BRANCH   1  23
ATOM     23  C   UNL A   1      35.142  29.336  27.428  1.00  0.00     0.118 C 
BRANCH  23  24
ATOM     24  N   UNL A   1      35.201  30.084  28.676  1.00  0.00    -0.352 N 
ATOM     25  C   UNL A   1      36.226  30.286  29.572  1.00  0.00     0.251 C 
ATOM     26  H   UNL A   1      34.356  30.524  28.923  1.00  0.00     0.163 HD
ATOM     27  O   UNL A   1      35.954  30.782  30.663  1.00  0.00    -0.269 OA
BRANCH  25  28
ATOM     28  C   UNL A   1      37.629  29.907  29.267  1.00  0.00     0.039 A 
ATOM     29  C   UNL A   1      38.503  29.652  30.333  1.00  0.00     0.014 A 
ATOM     30  C   UNL A   1      38.124  29.864  27.964  1.00  0.00     0.014 A 
ATOM     31  C   UNL A   1      39.834  29.298  30.085  1.00  0.00     0.010 A 
ATOM     32  C   UNL A   1      39.418  29.410  27.713  1.00  0.00     0.010 A 
ATOM     33  C   UNL A   1      40.297  29.138  28.771  1.00  0.00    -0.014 A 
BRANCH  33  34
ATOM     34  C   UNL A   1      41.695  28.721  28.472  1.00  0.00     0.031 A 
ATOM     35  C   UNL A   1      42.803  29.746  28.446  1.00  0.00     0.074 A 
ATOM     36  C   UNL A   1      41.963  27.439  28.148  1.00  0.00     0.049 A 
ATOM     37  N   UNL A   1      44.056  29.601  28.099  1.00  0.00    -0.248 NA
ATOM     38  C   UNL A   1      42.447  31.123  28.832  1.00  0.00     0.031 C 
ATOM     39  C   UNL A   1      40.980  26.354  28.091  1.00  0.00     0.029 A 
ATOM     40  N   UNL A   1      43.143  26.834  27.793  1.00  0.00    -0.354 N 
ATOM     41  C   UNL A   1      44.626  30.866  28.190  1.00  0.00     0.074 A 
ATOM     42  C   UNL A   1      43.574  31.776  28.585  1.00  0.00     0.031 C 
ATOM     43  C   UNL A   1      41.602  25.214  27.744  1.00  0.00     0.029 A 
ATOM     44  C   UNL A   1      43.016  25.494  27.513  1.00  0.00     0.049 A 
ATOM     45  H   UNL A   1      44.001  27.315  27.743  1.00  0.00     0.167 HD
ATOM     46  C   UNL A   1      45.912  31.239  27.982  1.00  0.00     0.031 A 
ATOM     47  C   UNL A   1      43.929  24.591  27.105  1.00  0.00     0.031 A 
ATOM     48  C   UNL A   1      46.970  30.329  27.630  1.00  0.00     0.049 A 
ATOM     49  C   UNL A   1      45.356  25.023  26.905  1.00  0.00     0.074 A 
ATOM     50  C   UNL A   1      48.318  30.600  27.469  1.00  0.00     0.029 A 
ATOM     51  N   UNL A   1      46.803  28.974  27.395  1.00  0.00    -0.354 N 
ATOM     52  N   UNL A   1      45.883  26.215  27.053  1.00  0.00    -0.248 NA
ATOM     53  C   UNL A   1      46.313  23.986  26.495  1.00  0.00     0.031 C 
ATOM     54  C   UNL A   1      48.960  29.414  27.099  1.00  0.00     0.029 A 
ATOM     55  C   UNL A   1      48.019  28.398  27.076  1.00  0.00     0.049 A 
ATOM     56  H   UNL A   1      45.945  28.493  27.447  1.00  0.00     0.167 HD
ATOM     57  C   UNL A   1      47.238  26.065  26.777  1.00  0.00     0.074 A 
ATOM     58  C   UNL A   1      47.451  24.666  26.470  1.00  0.00     0.031 C 
ATOM     59  C   UNL A   1      48.217  27.002  26.779  1.00  0.00     0.031 A 
BRANCH  46  60
ATOM     60  C   UNL A   1      46.253  32.698  28.136  1.00  0.00    -0.014 A 
ATOM     61  C   UNL A   1      46.660  33.221  29.375  1.00  0.00     0.010 A 
ATOM     62  C   UNL A   1      46.222  33.545  27.012  1.00  0.00     0.010 A 
ATOM     63  C   UNL A   1      46.995  34.572  29.499  1.00  0.00     0.020 A 
ATOM     64  C   UNL A   1      46.582  34.891  27.125  1.00  0.00     0.020 A 
ATOM     65  C   UNL A   1      46.951  35.400  28.372  1.00  0.00     0.054 A 
BRANCH  65  66
ATOM     66  S   UNL A   1      47.427  37.141  28.553  1.00  0.00     0.124 S 
ATOM     67  O   UNL A   1      48.724  37.169  27.882  1.00  0.00    -0.237 OA
ATOM     68  O   UNL A   1      46.349  37.843  27.862  1.00  0.00    -0.237 OA
ATOM     69  O   UNL A   1      47.469  37.341  30.000  1.00  0.00    -0.744 OA
ENDBRANCH  65  66
ENDBRANCH  46  60
BRANCH  47  70
ATOM     70  C   UNL A   1      43.525  23.178  26.861  1.00  0.00    -0.014 A 
ATOM     71  C   UNL A   1      43.528  22.650  25.558  1.00  0.00     0.010 A 
ATOM     72  C   UNL A   1      43.133  22.355  27.932  1.00  0.00     0.010 A 
ATOM     73  C   UNL A   1      43.121  21.333  25.327  1.00  0.00     0.020 A 
ATOM     74  C   UNL A   1      42.750  21.030  27.707  1.00  0.00     0.020 A 
ATOM     75  C   UNL A   1      42.732  20.531  26.403  1.00  0.00     0.054 A 
BRANCH  75  76
ATOM     76  S   UNL A   1      42.243  18.813  26.087  1.00  0.00     0.124 S 
ATOM     77  O   UNL A   1      43.176  18.421  25.036  1.00  0.00    -0.237 OA
ATOM     78  O   UNL A   1      42.450  18.179  27.387  1.00  0.00    -0.237 OA
ATOM     79  O   UNL A   1      40.845  18.928  25.675  1.00  0.00    -0.744 OA
ENDBRANCH  75  76
ENDBRANCH  47  70
BRANCH  59  80
ATOM     80  C   UNL A   1      49.617  26.542  26.473  1.00  0.00    -0.014 A 
ATOM     81  C   UNL A   1      50.422  25.957  27.466  1.00  0.00     0.010 A 
ATOM     82  C   UNL A   1      50.109  26.648  25.160  1.00  0.00     0.010 A 
ATOM     83  C   UNL A   1      51.710  25.513  27.155  1.00  0.00     0.020 A 
ATOM     84  C   UNL A   1      51.388  26.183  24.841  1.00  0.00     0.020 A 
ATOM     85  C   UNL A   1      52.185  25.631  25.845  1.00  0.00     0.054 A 
BRANCH  85  86
ATOM     86  S   UNL A   1      53.845  25.007  25.457  1.00  0.00     0.124 S 
ATOM     87  O   UNL A   1      53.585  23.593  25.203  1.00  0.00    -0.237 OA
ATOM     88  O   UNL A   1      54.221  25.798  24.288  1.00  0.00    -0.237 OA
ATOM     89  O   UNL A   1      54.613  25.293  26.667  1.00  0.00    -0.744 OA
ENDBRANCH  85  86
ENDBRANCH  59  80
ENDBRANCH  33  34
ENDBRANCH  25  28
ENDBRANCH  23  24
ENDBRANCH   1  23
TORSDOF 15
ENDMDL
