MODEL 1
REMARK VINA RESULT:     -10.4      0.000      0.000
REMARK SMILES NC(=O)c1ccnc(N(CC(=O)NCCCNC(=O)c2ccc(-c3c4nc(c(-c5ccc(S(=O)(=O)[O-])cc5)c5ccc([nH]5)c(-c5ccc(S(=O)(=O)[O-])cc5)c5nc(c(-c6ccc(S(=O)(=O)[O-])cc6)c6ccc3[nH]6)C=C5)C=C4)cc2)CC(F)(F)F)c1
REMARK SMILES IDX 15 1 14 2 13 3 11 4 12 5 10 7 9 8 8 9 4 10 5 11 85 12 6 13
REMARK SMILES IDX 7 14 2 15 1 16 3 19 80 20 81 21 82 22 83 23 84 24 16 25
REMARK SMILES IDX 17 26 18 27 19 29 20 30 21 31 79 32 22 33 78 34 23 35 24 36
REMARK SMILES IDX 25 37 72 38 26 39 77 40 71 41 73 42 27 43 76 44 70 45 69 46
REMARK SMILES IDX 28 48 58 49 39 50 57 51 40 52 43 53 56 54 74 55 41 56 42 57
REMARK SMILES IDX 55 59 75 60 44 61 29 62 30 63 38 64 31 65 37 66 32 67 33 68
REMARK SMILES IDX 34 69 35 70 36 71 59 72 60 73 68 74 61 75 67 76 62 77 63 78
REMARK SMILES IDX 64 79 65 80 66 81 45 82 46 83 54 84 47 85 53 86 48 87 49 88
REMARK SMILES IDX 50 89 51 90 52 91
REMARK H PARENT 13 6 1 17 1 18 17 28 73 47 43 58
REMARK Flexibility Score: inf
ROOT
ATOM      1  C   UNL A   1      34.632  30.602  27.566  1.00  0.00     0.042 C 
ENDROOT
BRANCH   1   2
ATOM      2  C   UNL A   1      34.893  32.047  27.983  1.00  0.00     0.117 C 
BRANCH   2   3
ATOM      3  N   UNL A   1      33.701  32.875  27.917  1.00  0.00    -0.354 N 
ATOM      4  C   UNL A   1      33.498  34.120  28.437  1.00  0.00     0.239 C 
ATOM      5  O   UNL A   1      32.385  34.640  28.314  1.00  0.00    -0.273 OA
ATOM      6  H   UNL A   1      32.939  32.485  27.430  1.00  0.00     0.163 HD
BRANCH   4   7
ATOM      7  C   UNL A   1      34.632  34.849  29.165  1.00  0.00     0.218 C 
BRANCH   7   8
ATOM      8  N   UNL A   1      34.704  34.489  30.592  1.00  0.00    -0.338 N 
BRANCH   8   9
ATOM      9  C   UNL A   1      35.851  33.890  31.072  1.00  0.00     0.130 A 
ATOM     10  C   UNL A   1      37.124  32.717  32.762  1.00  0.00     0.044 A 
ATOM     11  C   UNL A   1      38.196  32.603  31.890  1.00  0.00     0.034 A 
ATOM     12  C   UNL A   1      35.950  33.360  32.351  1.00  0.00     0.060 A 
ATOM     13  C   UNL A   1      38.041  33.167  30.647  1.00  0.00     0.114 A 
ATOM     14  N   UNL A   1      36.917  33.800  30.243  1.00  0.00    -0.239 NA
BRANCH  10  15
ATOM     15  C   UNL A   1      37.152  32.137  34.122  1.00  0.00     0.248 C 
ATOM     16  N   UNL A   1      37.781  30.941  34.291  1.00  0.00    -0.366 N 
ATOM     17  H   UNL A   1      37.818  30.526  35.183  1.00  0.00     0.159 HD
ATOM     18  H   UNL A   1      38.199  30.491  33.521  1.00  0.00     0.159 HD
ATOM     19  O   UNL A   1      36.658  32.738  35.073  1.00  0.00    -0.270 OA
ENDBRANCH  10  15
ENDBRANCH   8   9
BRANCH   8  20
ATOM     20  C   UNL A   1      33.579  34.915  31.463  1.00  0.00     0.234 C 
BRANCH  20  21
ATOM     21  C   UNL A   1      33.699  36.302  32.122  1.00  0.00     0.405 C 
ATOM     22  F   UNL A   1      34.887  36.484  32.737  1.00  0.00    -0.169 F 
ATOM     23  F   UNL A   1      33.586  37.270  31.180  1.00  0.00    -0.169 F 
ATOM     24  F   UNL A   1      32.729  36.522  33.037  1.00  0.00    -0.169 F 
ENDBRANCH  20  21
ENDBRANCH   8  20
ENDBRANCH   7   8
ENDBRANCH   4   7
ENDBRANCH   2   3
ENDBRANCH   1   2
BRANCH   1  25
ATOM     25  C   UNL A   1      35.560  29.588  28.233  1.00  0.00     0.118 C 
BRANCH  25  26
ATOM     26  N   UNL A   1      35.618  29.770  29.678  1.00  0.00    -0.352 N 
ATOM     27  C   UNL A   1      36.661  29.578  30.548  1.00  0.00     0.251 C 
ATOM     28  H   UNL A   1      34.779  30.077  30.094  1.00  0.00     0.163 HD
ATOM     29  O   UNL A   1      36.443  29.568  31.757  1.00  0.00    -0.269 OA
BRANCH  27  30
ATOM     30  C   UNL A   1      38.038  29.376  30.045  1.00  0.00     0.039 A 
ATOM     31  C   UNL A   1      39.022  28.930  30.932  1.00  0.00     0.014 A 
ATOM     32  C   UNL A   1      38.375  29.667  28.720  1.00  0.00     0.014 A 
ATOM     33  C   UNL A   1      40.328  28.727  30.479  1.00  0.00     0.010 A 
ATOM     34  C   UNL A   1      39.662  29.404  28.254  1.00  0.00     0.010 A 
ATOM     35  C   UNL A   1      40.655  28.936  29.129  1.00  0.00    -0.014 A 
BRANCH  35  36
ATOM     36  C   UNL A   1      42.024  28.668  28.618  1.00  0.00     0.031 A 
ATOM     37  C   UNL A   1      42.407  27.287  28.152  1.00  0.00     0.074 A 
ATOM     38  C   UNL A   1      42.942  29.655  28.624  1.00  0.00     0.049 A 
ATOM     39  N   UNL A   1      43.565  26.853  27.725  1.00  0.00    -0.248 NA
ATOM     40  C   UNL A   1      41.357  26.256  28.193  1.00  0.00     0.031 C 
ATOM     41  C   UNL A   1      42.707  31.026  29.084  1.00  0.00     0.029 A 
ATOM     42  N   UNL A   1      44.260  29.656  28.241  1.00  0.00    -0.354 N 
ATOM     43  C   UNL A   1      43.390  25.499  27.462  1.00  0.00     0.074 A 
ATOM     44  C   UNL A   1      42.026  25.174  27.820  1.00  0.00     0.031 C 
ATOM     45  C   UNL A   1      43.835  31.740  28.933  1.00  0.00     0.029 A 
ATOM     46  C   UNL A   1      44.884  30.870  28.409  1.00  0.00     0.049 A 
ATOM     47  H   UNL A   1      44.717  28.862  27.881  1.00  0.00     0.167 HD
ATOM     48  C   UNL A   1      44.277  24.610  26.954  1.00  0.00     0.031 A 
ATOM     49  C   UNL A   1      46.158  31.244  28.176  1.00  0.00     0.031 A 
ATOM     50  C   UNL A   1      45.632  24.938  26.593  1.00  0.00     0.049 A 
ATOM     51  C   UNL A   1      47.129  30.234  27.627  1.00  0.00     0.074 A 
ATOM     52  C   UNL A   1      46.592  24.120  26.023  1.00  0.00     0.029 A 
ATOM     53  N   UNL A   1      46.222  26.181  26.773  1.00  0.00    -0.354 N 
ATOM     54  N   UNL A   1      46.924  28.974  27.324  1.00  0.00    -0.248 NA
ATOM     55  C   UNL A   1      48.500  30.700  27.379  1.00  0.00     0.031 C 
ATOM     56  C   UNL A   1      47.777  24.854  25.906  1.00  0.00     0.029 A 
ATOM     57  C   UNL A   1      47.539  26.146  26.346  1.00  0.00     0.049 A 
ATOM     58  H   UNL A   1      45.770  26.971  27.149  1.00  0.00     0.167 HD
ATOM     59  C   UNL A   1      48.134  28.505  26.822  1.00  0.00     0.074 A 
ATOM     60  C   UNL A   1      49.059  29.620  26.850  1.00  0.00     0.031 C 
ATOM     61  C   UNL A   1      48.449  27.263  26.379  1.00  0.00     0.031 A 
BRANCH  48  62
ATOM     62  C   UNL A   1      43.811  23.189  26.764  1.00  0.00    -0.014 A 
ATOM     63  C   UNL A   1      43.233  22.467  27.824  1.00  0.00     0.010 A 
ATOM     64  C   UNL A   1      43.912  22.581  25.500  1.00  0.00     0.010 A 
ATOM     65  C   UNL A   1      42.807  21.149  27.635  1.00  0.00     0.020 A 
ATOM     66  C   UNL A   1      43.458  21.274  25.298  1.00  0.00     0.020 A 
ATOM     67  C   UNL A   1      42.925  20.560  26.372  1.00  0.00     0.054 A 
BRANCH  67  68
ATOM     68  S   UNL A   1      42.344  18.855  26.151  1.00  0.00     0.124 S 
ATOM     69  O   UNL A   1      43.300  18.336  25.177  1.00  0.00    -0.237 OA
ATOM     70  O   UNL A   1      42.456  18.301  27.498  1.00  0.00    -0.237 OA
ATOM     71  O   UNL A   1      40.978  19.015  25.659  1.00  0.00    -0.744 OA
ENDBRANCH  67  68
ENDBRANCH  48  62
BRANCH  49  72
ATOM     72  C   UNL A   1      46.583  32.644  28.450  1.00  0.00    -0.014 A 
ATOM     73  C   UNL A   1      46.469  33.631  27.455  1.00  0.00     0.010 A 
ATOM     74  C   UNL A   1      47.092  33.003  29.711  1.00  0.00     0.010 A 
ATOM     75  C   UNL A   1      46.872  34.945  27.710  1.00  0.00     0.020 A 
ATOM     76  C   UNL A   1      47.470  34.322  29.980  1.00  0.00     0.020 A 
ATOM     77  C   UNL A   1      47.368  35.284  28.973  1.00  0.00     0.054 A 
BRANCH  77  78
ATOM     78  S   UNL A   1      47.836  37.007  29.296  1.00  0.00     0.124 S 
ATOM     79  O   UNL A   1      46.872  37.742  28.482  1.00  0.00    -0.237 OA
ATOM     80  O   UNL A   1      47.657  37.117  30.742  1.00  0.00    -0.237 OA
ATOM     81  O   UNL A   1      49.223  37.078  28.842  1.00  0.00    -0.744 OA
ENDBRANCH  77  78
ENDBRANCH  49  72
BRANCH  61  82
ATOM     82  C   UNL A   1      49.842  27.048  25.848  1.00  0.00    -0.014 A 
ATOM     83  C   UNL A   1      50.883  26.606  26.684  1.00  0.00     0.010 A 
ATOM     84  C   UNL A   1      50.099  27.240  24.478  1.00  0.00     0.010 A 
ATOM     85  C   UNL A   1      52.162  26.390  26.165  1.00  0.00     0.020 A 
ATOM     86  C   UNL A   1      51.369  26.997  23.950  1.00  0.00     0.020 A 
ATOM     87  C   UNL A   1      52.398  26.587  24.801  1.00  0.00     0.054 A 
BRANCH  87  88
ATOM     88  S   UNL A   1      54.055  26.257  24.143  1.00  0.00     0.124 S 
ATOM     89  O   UNL A   1      54.808  27.416  24.618  1.00  0.00    -0.237 OA
ATOM     90  O   UNL A   1      54.402  24.984  24.769  1.00  0.00    -0.237 OA
ATOM     91  O   UNL A   1      53.850  26.199  22.698  1.00  0.00    -0.744 OA
ENDBRANCH  87  88
ENDBRANCH  61  82
ENDBRANCH  35  36
ENDBRANCH  27  30
ENDBRANCH  25  26
ENDBRANCH   1  25
TORSDOF 18
ENDMDL
MODEL 2
REMARK VINA RESULT:     -10.4      5.997     11.402
REMARK SMILES NC(=O)c1ccnc(N(CC(=O)NCCCNC(=O)c2ccc(-c3c4nc(c(-c5ccc(S(=O)(=O)[O-])cc5)c5ccc([nH]5)c(-c5ccc(S(=O)(=O)[O-])cc5)c5nc(c(-c6ccc(S(=O)(=O)[O-])cc6)c6ccc3[nH]6)C=C5)C=C4)cc2)CC(F)(F)F)c1
REMARK SMILES IDX 15 1 14 2 13 3 11 4 12 5 10 7 9 8 8 9 4 10 5 11 85 12 6 13
REMARK SMILES IDX 7 14 2 15 1 16 3 19 80 20 81 21 82 22 83 23 84 24 16 25
REMARK SMILES IDX 17 26 18 27 19 29 20 30 21 31 79 32 22 33 78 34 23 35 24 36
REMARK SMILES IDX 25 37 72 38 26 39 77 40 71 41 73 42 27 43 76 44 70 45 69 46
REMARK SMILES IDX 28 48 58 49 39 50 57 51 40 52 43 53 56 54 74 55 41 56 42 57
REMARK SMILES IDX 55 59 75 60 44 61 29 62 30 63 38 64 31 65 37 66 32 67 33 68
REMARK SMILES IDX 34 69 35 70 36 71 59 72 60 73 68 74 61 75 67 76 62 77 63 78
REMARK SMILES IDX 64 79 65 80 66 81 45 82 46 83 54 84 47 85 53 86 48 87 49 88
REMARK SMILES IDX 50 89 51 90 52 91
REMARK H PARENT 13 6 1 17 1 18 17 28 73 47 43 58
REMARK Flexibility Score: inf
ROOT
ATOM      1  C   UNL A   1      33.646  27.794  25.245  1.00  0.00     0.042 C 
ENDROOT
BRANCH   1   2
ATOM      2  C   UNL A   1      33.245  26.346  24.974  1.00  0.00     0.117 C 
BRANCH   2   3
ATOM      3  N   UNL A   1      32.617  25.713  26.121  1.00  0.00    -0.354 N 
ATOM      4  C   UNL A   1      32.038  24.479  26.203  1.00  0.00     0.239 C 
ATOM      5  O   UNL A   1      31.511  24.142  27.266  1.00  0.00    -0.273 OA
ATOM      6  H   UNL A   1      32.609  26.245  26.950  1.00  0.00     0.163 HD
BRANCH   4   7
ATOM      7  C   UNL A   1      32.043  23.540  24.993  1.00  0.00     0.218 C 
BRANCH   7   8
ATOM      8  N   UNL A   1      32.944  22.388  25.182  1.00  0.00    -0.338 N 
BRANCH   8   9
ATOM      9  C   UNL A   1      32.727  21.243  24.442  1.00  0.00     0.130 A 
ATOM     10  C   UNL A   1      32.511  18.847  24.194  1.00  0.00     0.044 A 
ATOM     11  C   UNL A   1      32.160  19.006  22.863  1.00  0.00     0.034 A 
ATOM     12  C   UNL A   1      32.793  19.968  24.985  1.00  0.00     0.060 A 
ATOM     13  C   UNL A   1      32.133  20.293  22.382  1.00  0.00     0.114 A 
ATOM     14  N   UNL A   1      32.415  21.382  23.133  1.00  0.00    -0.239 NA
BRANCH  10  15
ATOM     15  C   UNL A   1      32.558  17.518  24.841  1.00  0.00     0.248 C 
ATOM     16  N   UNL A   1      32.914  16.450  24.075  1.00  0.00    -0.366 N 
ATOM     17  H   UNL A   1      32.955  15.550  24.474  1.00  0.00     0.159 HD
ATOM     18  H   UNL A   1      33.130  16.576  23.123  1.00  0.00     0.159 HD
ATOM     19  O   UNL A   1      32.323  17.394  26.041  1.00  0.00    -0.270 OA
ENDBRANCH  10  15
ENDBRANCH   8   9
BRANCH   8  20
ATOM     20  C   UNL A   1      34.120  22.578  26.070  1.00  0.00     0.234 C 
BRANCH  20  21
ATOM     21  C   UNL A   1      35.444  22.972  25.390  1.00  0.00     0.405 C 
ATOM     22  F   UNL A   1      35.580  24.308  25.253  1.00  0.00    -0.169 F 
ATOM     23  F   UNL A   1      36.490  22.540  26.136  1.00  0.00    -0.169 F 
ATOM     24  F   UNL A   1      35.575  22.422  24.163  1.00  0.00    -0.169 F 
ENDBRANCH  20  21
ENDBRANCH   8  20
ENDBRANCH   7   8
ENDBRANCH   4   7
ENDBRANCH   2   3
ENDBRANCH   1   2
BRANCH   1  25
ATOM     25  C   UNL A   1      33.967  28.084  26.709  1.00  0.00     0.118 C 
BRANCH  25  26
ATOM     26  N   UNL A   1      33.708  29.475  27.061  1.00  0.00    -0.352 N 
ATOM     27  C   UNL A   1      34.464  30.353  27.796  1.00  0.00     0.251 C 
ATOM     28  H   UNL A   1      32.861  29.841  26.716  1.00  0.00     0.163 HD
ATOM     29  O   UNL A   1      33.964  31.411  28.169  1.00  0.00    -0.269 OA
BRANCH  27  30
ATOM     30  C   UNL A   1      35.865  30.032  28.149  1.00  0.00     0.039 A 
ATOM     31  C   UNL A   1      36.157  29.635  29.456  1.00  0.00     0.014 A 
ATOM     32  C   UNL A   1      36.896  30.166  27.214  1.00  0.00     0.014 A 
ATOM     33  C   UNL A   1      37.472  29.322  29.813  1.00  0.00     0.010 A 
ATOM     34  C   UNL A   1      38.196  29.793  27.553  1.00  0.00     0.010 A 
ATOM     35  C   UNL A   1      38.500  29.372  28.857  1.00  0.00    -0.014 A 
BRANCH  35  36
ATOM     36  C   UNL A   1      39.892  28.986  29.203  1.00  0.00     0.031 A 
ATOM     37  C   UNL A   1      40.814  29.974  29.868  1.00  0.00     0.074 A 
ATOM     38  C   UNL A   1      40.346  27.761  28.867  1.00  0.00     0.049 A 
ATOM     39  N   UNL A   1      42.073  29.835  30.196  1.00  0.00    -0.248 NA
ATOM     40  C   UNL A   1      40.254  31.298  30.186  1.00  0.00     0.031 C 
ATOM     41  C   UNL A   1      39.564  26.726  28.187  1.00  0.00     0.029 A 
ATOM     42  N   UNL A   1      41.579  27.183  29.044  1.00  0.00    -0.354 N 
ATOM     43  C   UNL A   1      42.461  31.053  30.743  1.00  0.00     0.074 A 
ATOM     44  C   UNL A   1      41.316  31.934  30.661  1.00  0.00     0.031 C 
ATOM     45  C   UNL A   1      40.327  25.633  28.028  1.00  0.00     0.029 A 
ATOM     46  C   UNL A   1      41.663  25.902  28.551  1.00  0.00     0.049 A 
ATOM     47  H   UNL A   1      42.331  27.642  29.481  1.00  0.00     0.167 HD
ATOM     48  C   UNL A   1      43.655  31.403  31.278  1.00  0.00     0.031 A 
ATOM     49  C   UNL A   1      42.699  25.041  28.515  1.00  0.00     0.031 A 
ATOM     50  C   UNL A   1      44.791  30.523  31.363  1.00  0.00     0.049 A 
ATOM     51  C   UNL A   1      44.020  25.459  29.101  1.00  0.00     0.074 A 
ATOM     52  C   UNL A   1      46.028  30.767  31.934  1.00  0.00     0.029 A 
ATOM     53  N   UNL A   1      44.833  29.232  30.858  1.00  0.00    -0.354 N 
ATOM     54  N   UNL A   1      44.346  26.594  29.673  1.00  0.00    -0.248 NA
ATOM     55  C   UNL A   1      45.110  24.475  29.048  1.00  0.00     0.031 C 
ATOM     56  C   UNL A   1      46.834  29.643  31.729  1.00  0.00     0.029 A 
ATOM     57  C   UNL A   1      46.081  28.675  31.084  1.00  0.00     0.049 A 
ATOM     58  H   UNL A   1      44.085  28.778  30.406  1.00  0.00     0.167 HD
ATOM     59  C   UNL A   1      45.671  26.449  30.072  1.00  0.00     0.074 A 
ATOM     60  C   UNL A   1      46.079  25.113  29.690  1.00  0.00     0.031 C 
ATOM     61  C   UNL A   1      46.475  27.343  30.699  1.00  0.00     0.031 A 
BRANCH  48  62
ATOM     62  C   UNL A   1      43.797  32.807  31.809  1.00  0.00    -0.014 A 
ATOM     63  C   UNL A   1      43.425  33.127  33.128  1.00  0.00     0.010 A 
ATOM     64  C   UNL A   1      44.350  33.812  30.995  1.00  0.00     0.010 A 
ATOM     65  C   UNL A   1      43.561  34.433  33.606  1.00  0.00     0.020 A 
ATOM     66  C   UNL A   1      44.517  35.113  31.479  1.00  0.00     0.020 A 
ATOM     67  C   UNL A   1      44.104  35.419  32.777  1.00  0.00     0.054 A 
BRANCH  67  68
ATOM     68  S   UNL A   1      44.288  37.101  33.432  1.00  0.00     0.124 S 
ATOM     69  O   UNL A   1      45.740  37.247  33.479  1.00  0.00    -0.237 OA
ATOM     70  O   UNL A   1      43.608  37.913  32.426  1.00  0.00    -0.237 OA
ATOM     71  O   UNL A   1      43.625  37.042  34.732  1.00  0.00    -0.744 OA
ENDBRANCH  67  68
ENDBRANCH  48  62
BRANCH  49  72
ATOM     72  C   UNL A   1      42.522  23.690  27.912  1.00  0.00    -0.014 A 
ATOM     73  C   UNL A   1      42.779  23.480  26.546  1.00  0.00     0.010 A 
ATOM     74  C   UNL A   1      42.110  22.603  28.704  1.00  0.00     0.010 A 
ATOM     75  C   UNL A   1      42.610  22.214  25.979  1.00  0.00     0.020 A 
ATOM     76  C   UNL A   1      41.966  21.328  28.147  1.00  0.00     0.020 A 
ATOM     77  C   UNL A   1      42.206  21.144  26.784  1.00  0.00     0.054 A 
BRANCH  77  78
ATOM     78  S   UNL A   1      42.044  19.499  26.036  1.00  0.00     0.124 S 
ATOM     79  O   UNL A   1      40.603  19.400  25.827  1.00  0.00    -0.237 OA
ATOM     80  O   UNL A   1      42.851  19.622  24.824  1.00  0.00    -0.237 OA
ATOM     81  O   UNL A   1      42.593  18.603  27.051  1.00  0.00    -0.744 OA
ENDBRANCH  77  78
ENDBRANCH  49  72
BRANCH  61  82
ATOM     82  C   UNL A   1      47.870  26.895  31.049  1.00  0.00    -0.014 A 
ATOM     83  C   UNL A   1      48.115  26.070  32.161  1.00  0.00     0.010 A 
ATOM     84  C   UNL A   1      48.945  27.263  30.218  1.00  0.00     0.010 A 
ATOM     85  C   UNL A   1      49.415  25.648  32.453  1.00  0.00     0.020 A 
ATOM     86  C   UNL A   1      50.240  26.819  30.491  1.00  0.00     0.020 A 
ATOM     87  C   UNL A   1      50.469  26.024  31.616  1.00  0.00     0.054 A 
BRANCH  87  88
ATOM     88  S   UNL A   1      52.140  25.426  31.991  1.00  0.00     0.124 S 
ATOM     89  O   UNL A   1      51.910  24.001  32.215  1.00  0.00    -0.237 OA
ATOM     90  O   UNL A   1      52.880  25.759  30.776  1.00  0.00    -0.237 OA
ATOM     91  O   UNL A   1      52.525  26.189  33.176  1.00  0.00    -0.744 OA
ENDBRANCH  87  88
ENDBRANCH  61  82
ENDBRANCH  35  36
ENDBRANCH  27  30
ENDBRANCH  25  26
ENDBRANCH   1  25
TORSDOF 18
ENDMDL
MODEL 3
REMARK VINA RESULT:     -10.3      6.775     11.762
REMARK SMILES NC(=O)c1ccnc(N(CC(=O)NCCCNC(=O)c2ccc(-c3c4nc(c(-c5ccc(S(=O)(=O)[O-])cc5)c5ccc([nH]5)c(-c5ccc(S(=O)(=O)[O-])cc5)c5nc(c(-c6ccc(S(=O)(=O)[O-])cc6)c6ccc3[nH]6)C=C5)C=C4)cc2)CC(F)(F)F)c1
REMARK SMILES IDX 15 1 14 2 13 3 11 4 12 5 10 7 9 8 8 9 4 10 5 11 85 12 6 13
REMARK SMILES IDX 7 14 2 15 1 16 3 19 80 20 81 21 82 22 83 23 84 24 16 25
REMARK SMILES IDX 17 26 18 27 19 29 20 30 21 31 79 32 22 33 78 34 23 35 24 36
REMARK SMILES IDX 25 37 72 38 26 39 77 40 71 41 73 42 27 43 76 44 70 45 69 46
REMARK SMILES IDX 28 48 58 49 39 50 57 51 40 52 43 53 56 54 74 55 41 56 42 57
REMARK SMILES IDX 55 59 75 60 44 61 29 62 30 63 38 64 31 65 37 66 32 67 33 68
REMARK SMILES IDX 34 69 35 70 36 71 59 72 60 73 68 74 61 75 67 76 62 77 63 78
REMARK SMILES IDX 64 79 65 80 66 81 45 82 46 83 54 84 47 85 53 86 48 87 49 88
REMARK SMILES IDX 50 89 51 90 52 91
REMARK H PARENT 13 6 1 17 1 18 17 28 73 47 43 58
REMARK Flexibility Score: inf
ROOT
ATOM      1  C   UNL A   1      33.806  28.033  24.717  1.00  0.00     0.042 C 
ENDROOT
BRANCH   1   2
ATOM      2  C   UNL A   1      33.015  26.731  24.627  1.00  0.00     0.117 C 
BRANCH   2   3
ATOM      3  N   UNL A   1      33.237  26.024  23.378  1.00  0.00    -0.354 N 
ATOM      4  C   UNL A   1      33.472  24.693  23.181  1.00  0.00     0.239 C 
ATOM      5  O   UNL A   1      33.687  24.292  22.035  1.00  0.00    -0.273 OA
ATOM      6  H   UNL A   1      33.215  26.578  22.565  1.00  0.00     0.163 HD
BRANCH   4   7
ATOM      7  C   UNL A   1      33.472  23.724  24.368  1.00  0.00     0.218 C 
BRANCH   7   8
ATOM      8  N   UNL A   1      32.249  22.902  24.419  1.00  0.00    -0.338 N 
BRANCH   8   9
ATOM      9  C   UNL A   1      32.306  21.593  23.984  1.00  0.00     0.130 A 
ATOM     10  C   UNL A   1      32.516  19.211  24.343  1.00  0.00     0.044 A 
ATOM     11  C   UNL A   1      32.290  18.977  22.996  1.00  0.00     0.034 A 
ATOM     12  C   UNL A   1      32.522  20.521  24.837  1.00  0.00     0.060 A 
ATOM     13  C   UNL A   1      32.104  20.083  22.201  1.00  0.00     0.114 A 
ATOM     14  N   UNL A   1      32.120  21.353  22.665  1.00  0.00    -0.239 NA
BRANCH  10  15
ATOM     15  C   UNL A   1      32.711  18.109  25.310  1.00  0.00     0.248 C 
ATOM     16  N   UNL A   1      32.845  18.432  26.626  1.00  0.00    -0.366 N 
ATOM     17  H   UNL A   1      32.977  17.722  27.295  1.00  0.00     0.159 HD
ATOM     18  H   UNL A   1      32.811  19.374  26.907  1.00  0.00     0.159 HD
ATOM     19  O   UNL A   1      32.709  16.938  24.937  1.00  0.00    -0.270 OA
ENDBRANCH  10  15
ENDBRANCH   8   9
BRANCH   8  20
ATOM     20  C   UNL A   1      31.051  23.498  25.065  1.00  0.00     0.234 C 
BRANCH  20  21
ATOM     21  C   UNL A   1      31.103  23.673  26.594  1.00  0.00     0.405 C 
ATOM     22  F   UNL A   1      29.907  23.465  27.182  1.00  0.00    -0.169 F 
ATOM     23  F   UNL A   1      31.972  22.781  27.130  1.00  0.00    -0.169 F 
ATOM     24  F   UNL A   1      31.525  24.906  26.955  1.00  0.00    -0.169 F 
ENDBRANCH  20  21
ENDBRANCH   8  20
ENDBRANCH   7   8
ENDBRANCH   4   7
ENDBRANCH   2   3
ENDBRANCH   1   2
BRANCH   1  25
ATOM     25  C   UNL A   1      34.197  28.423  26.142  1.00  0.00     0.118 C 
BRANCH  25  26
ATOM     26  N   UNL A   1      33.819  29.795  26.456  1.00  0.00    -0.352 N 
ATOM     27  C   UNL A   1      34.323  30.653  27.401  1.00  0.00     0.251 C 
ATOM     28  H   UNL A   1      33.090  30.163  25.904  1.00  0.00     0.163 HD
ATOM     29  O   UNL A   1      33.715  31.689  27.657  1.00  0.00    -0.269 OA
BRANCH  27  30
ATOM     30  C   UNL A   1      35.581  30.337  28.114  1.00  0.00     0.039 A 
ATOM     31  C   UNL A   1      35.516  29.605  29.303  1.00  0.00     0.014 A 
ATOM     32  C   UNL A   1      36.815  30.796  27.645  1.00  0.00     0.014 A 
ATOM     33  C   UNL A   1      36.690  29.290  29.992  1.00  0.00     0.010 A 
ATOM     34  C   UNL A   1      37.990  30.428  28.298  1.00  0.00     0.010 A 
ATOM     35  C   UNL A   1      37.940  29.675  29.482  1.00  0.00    -0.014 A 
BRANCH  35  36
ATOM     36  C   UNL A   1      39.202  29.298  30.171  1.00  0.00     0.031 A 
ATOM     37  C   UNL A   1      39.648  30.038  31.404  1.00  0.00     0.074 A 
ATOM     38  C   UNL A   1      39.977  28.323  29.653  1.00  0.00     0.049 A 
ATOM     39  N   UNL A   1      40.741  29.886  32.107  1.00  0.00    -0.248 NA
ATOM     40  C   UNL A   1      38.760  31.103  31.899  1.00  0.00     0.031 C 
ATOM     41  C   UNL A   1      39.674  27.555  28.442  1.00  0.00     0.029 A 
ATOM     42  N   UNL A   1      41.182  27.818  30.073  1.00  0.00    -0.354 N 
ATOM     43  C   UNL A   1      40.683  30.842  33.115  1.00  0.00     0.074 A 
ATOM     44  C   UNL A   1      39.467  31.599  32.905  1.00  0.00     0.031 C 
ATOM     45  C   UNL A   1      40.654  26.661  28.233  1.00  0.00     0.029 A 
ATOM     46  C   UNL A   1      41.675  26.820  29.265  1.00  0.00     0.049 A 
ATOM     47  H   UNL A   1      41.650  28.140  30.877  1.00  0.00     0.167 HD
ATOM     48  C   UNL A   1      41.551  31.061  34.131  1.00  0.00     0.031 A 
ATOM     49  C   UNL A   1      42.822  26.117  29.337  1.00  0.00     0.031 A 
ATOM     50  C   UNL A   1      42.757  30.302  34.339  1.00  0.00     0.049 A 
ATOM     51  C   UNL A   1      43.779  26.390  30.466  1.00  0.00     0.074 A 
ATOM     52  C   UNL A   1      43.676  30.413  35.369  1.00  0.00     0.029 A 
ATOM     53  N   UNL A   1      43.217  29.296  33.501  1.00  0.00    -0.354 N 
ATOM     54  N   UNL A   1      43.671  27.254  31.446  1.00  0.00    -0.248 NA
ATOM     55  C   UNL A   1      45.006  25.582  30.504  1.00  0.00     0.031 C 
ATOM     56  C   UNL A   1      44.716  29.510  35.125  1.00  0.00     0.029 A 
ATOM     57  C   UNL A   1      44.416  28.794  33.978  1.00  0.00     0.049 A 
ATOM     58  H   UNL A   1      42.756  28.985  32.688  1.00  0.00     0.167 HD
ATOM     59  C   UNL A   1      44.805  27.075  32.234  1.00  0.00     0.074 A 
ATOM     60  C   UNL A   1      45.574  26.011  31.623  1.00  0.00     0.031 C 
ATOM     61  C   UNL A   1      45.173  27.734  33.360  1.00  0.00     0.031 A 
BRANCH  48  62
ATOM     62  C   UNL A   1      41.232  32.175  35.094  1.00  0.00    -0.014 A 
ATOM     63  C   UNL A   1      41.588  33.506  34.810  1.00  0.00     0.010 A 
ATOM     64  C   UNL A   1      40.530  31.896  36.281  1.00  0.00     0.010 A 
ATOM     65  C   UNL A   1      41.286  34.529  35.713  1.00  0.00     0.020 A 
ATOM     66  C   UNL A   1      40.200  32.921  37.173  1.00  0.00     0.020 A 
ATOM     67  C   UNL A   1      40.597  34.229  36.892  1.00  0.00     0.054 A 
BRANCH  67  68
ATOM     68  S   UNL A   1      40.201  35.581  38.035  1.00  0.00     0.124 S 
ATOM     69  O   UNL A   1      41.392  35.618  38.880  1.00  0.00    -0.237 OA
ATOM     70  O   UNL A   1      40.032  36.721  37.138  1.00  0.00    -0.237 OA
ATOM     71  O   UNL A   1      38.981  35.128  38.699  1.00  0.00    -0.744 OA
ENDBRANCH  67  68
ENDBRANCH  48  62
BRANCH  49  72
ATOM     72  C   UNL A   1      43.121  25.075  28.315  1.00  0.00    -0.014 A 
ATOM     73  C   UNL A   1      43.823  25.407  27.144  1.00  0.00     0.010 A 
ATOM     74  C   UNL A   1      42.717  23.742  28.514  1.00  0.00     0.010 A 
ATOM     75  C   UNL A   1      44.101  24.431  26.183  1.00  0.00     0.020 A 
ATOM     76  C   UNL A   1      43.017  22.757  27.569  1.00  0.00     0.020 A 
ATOM     77  C   UNL A   1      43.698  23.110  26.402  1.00  0.00     0.054 A 
BRANCH  77  78
ATOM     78  S   UNL A   1      44.116  21.851  25.164  1.00  0.00     0.124 S 
ATOM     79  O   UNL A   1      45.486  21.505  25.531  1.00  0.00    -0.237 OA
ATOM     80  O   UNL A   1      43.114  20.817  25.415  1.00  0.00    -0.237 OA
ATOM     81  O   UNL A   1      43.966  22.555  23.893  1.00  0.00    -0.744 OA
ENDBRANCH  77  78
ENDBRANCH  49  72
BRANCH  61  82
ATOM     82  C   UNL A   1      46.448  27.298  34.034  1.00  0.00    -0.014 A 
ATOM     83  C   UNL A   1      46.455  26.261  34.983  1.00  0.00     0.010 A 
ATOM     84  C   UNL A   1      47.666  27.901  33.668  1.00  0.00     0.010 A 
ATOM     85  C   UNL A   1      47.654  25.857  35.578  1.00  0.00     0.020 A 
ATOM     86  C   UNL A   1      48.869  27.480  34.239  1.00  0.00     0.020 A 
ATOM     87  C   UNL A   1      48.853  26.469  35.202  1.00  0.00     0.054 A 
BRANCH  87  88
ATOM     88  S   UNL A   1      50.401  25.897  35.954  1.00  0.00     0.124 S 
ATOM     89  O   UNL A   1      51.395  26.719  35.269  1.00  0.00    -0.237 OA
ATOM     90  O   UNL A   1      50.202  26.202  37.369  1.00  0.00    -0.237 OA
ATOM     91  O   UNL A   1      50.440  24.473  35.630  1.00  0.00    -0.744 OA
ENDBRANCH  87  88
ENDBRANCH  61  82
ENDBRANCH  35  36
ENDBRANCH  27  30
ENDBRANCH  25  26
ENDBRANCH   1  25
TORSDOF 18
ENDMDL
