MODEL 1
REMARK VINA RESULT:     -13.1      0.000      0.000
REMARK SMILES O=C(NCCCNC(=O)[C@H]1CCCCN1c1cc(-c2ccccc2)nc(-c2cccc(Cl)c2)n1)c1ccc(-c2c3nc(c(-c4ccc(S(=O)(=O)[O-])cc4)c4ccc([nH]4)c(-c4ccc(S(=O)(=O)[O-])cc4)c4nc(c(-c5ccc(S(=O)(=O)[O-])cc5)c5ccc2[nH]5)C=C4)C=C3)cc1
REMARK SMILES IDX 4 1 3 2 1 3 2 4 35 6 36 7 94 8 37 9 93 10 38 11 39 12 40 13
REMARK SMILES IDX 87 14 41 15 92 16 86 17 88 18 42 19 91 20 85 21 84 22 43 24
REMARK SMILES IDX 73 25 54 26 72 27 55 28 58 29 71 30 89 31 56 32 57 33 70 35
REMARK SMILES IDX 90 36 59 37 44 38 45 39 53 40 46 41 52 42 47 43 48 44 49 45
REMARK SMILES IDX 50 46 51 47 74 48 75 49 83 50 76 51 82 52 77 53 78 54 79 55
REMARK SMILES IDX 80 56 81 57 60 58 61 59 69 60 62 61 68 62 63 63 64 64 65 65
REMARK SMILES IDX 66 66 67 67 5 68 6 69 7 70 8 71 9 73 10 74 11 75 15 76 12 77
REMARK SMILES IDX 14 78 13 79 16 80 17 81 34 82 18 83 26 84 25 85 19 86 20 87
REMARK SMILES IDX 24 88 21 89 23 90 22 91 27 92 28 93 33 94 29 95 31 96 30 97
REMARK SMILES IDX 32 98
REMARK H PARENT 3 5 88 23 58 34 7 72
REMARK Flexibility Score: inf
ROOT
ATOM      1  C   UNL A   1      35.570  30.047  27.699  1.00  0.00     0.118 C 
ENDROOT
BRANCH   1   2
ATOM      2  N   UNL A   1      35.569  30.167  29.154  1.00  0.00    -0.352 N 
ATOM      3  O   UNL A   1      36.248  29.740  31.258  1.00  0.00    -0.269 OA
ATOM      4  C   UNL A   1      36.536  29.818  30.070  1.00  0.00     0.251 C 
ATOM      5  H   UNL A   1      34.752  30.558  29.539  1.00  0.00     0.163 HD
BRANCH   4   6
ATOM      6  C   UNL A   1      37.909  29.527  29.607  1.00  0.00     0.039 A 
ATOM      7  C   UNL A   1      38.863  29.068  30.513  1.00  0.00     0.014 A 
ATOM      8  C   UNL A   1      38.246  29.692  28.261  1.00  0.00     0.014 A 
ATOM      9  C   UNL A   1      40.187  28.967  30.129  1.00  0.00     0.010 A 
ATOM     10  C   UNL A   1      39.558  29.448  27.843  1.00  0.00     0.010 A 
ATOM     11  C   UNL A   1      40.545  29.108  28.780  1.00  0.00    -0.014 A 
BRANCH  11  12
ATOM     12  C   UNL A   1      41.938  28.785  28.386  1.00  0.00     0.031 A 
ATOM     13  C   UNL A   1      43.024  29.823  28.416  1.00  0.00     0.074 A 
ATOM     14  C   UNL A   1      42.215  27.509  28.046  1.00  0.00     0.049 A 
ATOM     15  N   UNL A   1      44.293  29.683  28.129  1.00  0.00    -0.248 NA
ATOM     16  C   UNL A   1      42.646  31.189  28.811  1.00  0.00     0.031 C 
ATOM     17  C   UNL A   1      41.231  26.421  27.981  1.00  0.00     0.029 A 
ATOM     18  N   UNL A   1      43.398  26.897  27.727  1.00  0.00    -0.354 N 
ATOM     19  C   UNL A   1      44.860  30.943  28.278  1.00  0.00     0.074 A 
ATOM     20  C   UNL A   1      43.794  31.841  28.670  1.00  0.00     0.031 C 
ATOM     21  C   UNL A   1      41.860  25.269  27.716  1.00  0.00     0.029 A 
ATOM     22  C   UNL A   1      43.272  25.546  27.499  1.00  0.00     0.049 A 
ATOM     23  H   UNL A   1      44.255  27.376  27.668  1.00  0.00     0.167 HD
ATOM     24  C   UNL A   1      46.152  31.311  28.102  1.00  0.00     0.031 A 
ATOM     25  C   UNL A   1      44.184  24.630  27.125  1.00  0.00     0.031 A 
ATOM     26  C   UNL A   1      47.202  30.402  27.719  1.00  0.00     0.049 A 
ATOM     27  C   UNL A   1      45.599  25.077  26.913  1.00  0.00     0.074 A 
ATOM     28  C   UNL A   1      48.548  30.670  27.539  1.00  0.00     0.029 A 
ATOM     29  N   UNL A   1      47.027  29.050  27.454  1.00  0.00    -0.354 N 
ATOM     30  N   UNL A   1      46.117  26.270  27.079  1.00  0.00    -0.248 NA
ATOM     31  C   UNL A   1      46.551  24.058  26.457  1.00  0.00     0.031 C 
ATOM     32  C   UNL A   1      49.175  29.496  27.113  1.00  0.00     0.029 A 
ATOM     33  C   UNL A   1      48.233  28.480  27.088  1.00  0.00     0.049 A 
ATOM     34  H   UNL A   1      46.170  28.570  27.517  1.00  0.00     0.167 HD
ATOM     35  C   UNL A   1      47.461  26.143  26.761  1.00  0.00     0.074 A 
ATOM     36  C   UNL A   1      47.680  24.751  26.419  1.00  0.00     0.031 C 
ATOM     37  C   UNL A   1      48.428  27.093  26.748  1.00  0.00     0.031 A 
BRANCH  24  38
ATOM     38  C   UNL A   1      46.508  32.763  28.288  1.00  0.00    -0.014 A 
ATOM     39  C   UNL A   1      46.898  33.267  29.541  1.00  0.00     0.010 A 
ATOM     40  C   UNL A   1      46.527  33.620  27.171  1.00  0.00     0.010 A 
ATOM     41  C   UNL A   1      47.280  34.606  29.677  1.00  0.00     0.020 A 
ATOM     42  C   UNL A   1      46.931  34.953  27.299  1.00  0.00     0.020 A 
ATOM     43  C   UNL A   1      47.296  35.440  28.554  1.00  0.00     0.054 A 
BRANCH  43  44
ATOM     44  S   UNL A   1      47.840  37.160  28.753  1.00  0.00     0.124 S 
ATOM     45  O   UNL A   1      49.061  37.184  27.952  1.00  0.00    -0.237 OA
ATOM     46  O   UNL A   1      46.716  37.916  28.206  1.00  0.00    -0.237 OA
ATOM     47  O   UNL A   1      48.037  37.298  30.194  1.00  0.00    -0.744 OA
ENDBRANCH  43  44
ENDBRANCH  24  38
BRANCH  25  48
ATOM     48  C   UNL A   1      43.767  23.221  26.889  1.00  0.00    -0.014 A 
ATOM     49  C   UNL A   1      43.215  22.448  27.924  1.00  0.00     0.010 A 
ATOM     50  C   UNL A   1      43.911  22.651  25.611  1.00  0.00     0.010 A 
ATOM     51  C   UNL A   1      42.837  21.123  27.691  1.00  0.00     0.020 A 
ATOM     52  C   UNL A   1      43.504  21.338  25.364  1.00  0.00     0.020 A 
ATOM     53  C   UNL A   1      42.986  20.576  26.412  1.00  0.00     0.054 A 
BRANCH  53  54
ATOM     54  S   UNL A   1      42.461  18.865  26.121  1.00  0.00     0.124 S 
ATOM     55  O   UNL A   1      43.382  18.443  25.070  1.00  0.00    -0.237 OA
ATOM     56  O   UNL A   1      42.665  18.244  27.428  1.00  0.00    -0.237 OA
ATOM     57  O   UNL A   1      41.064  19.000  25.715  1.00  0.00    -0.744 OA
ENDBRANCH  53  54
ENDBRANCH  25  48
BRANCH  37  58
ATOM     58  C   UNL A   1      49.815  26.646  26.380  1.00  0.00    -0.014 A 
ATOM     59  C   UNL A   1      50.667  26.058  27.331  1.00  0.00     0.010 A 
ATOM     60  C   UNL A   1      50.257  26.785  25.052  1.00  0.00     0.010 A 
ATOM     61  C   UNL A   1      51.953  25.650  26.968  1.00  0.00     0.020 A 
ATOM     62  C   UNL A   1      51.530  26.350  24.678  1.00  0.00     0.020 A 
ATOM     63  C   UNL A   1      52.376  25.800  25.643  1.00  0.00     0.054 A 
BRANCH  63  64
ATOM     64  S   UNL A   1      54.034  25.227  25.188  1.00  0.00     0.124 S 
ATOM     65  O   UNL A   1      53.805  23.806  24.939  1.00  0.00    -0.237 OA
ATOM     66  O   UNL A   1      54.338  26.031  24.007  1.00  0.00    -0.237 OA
ATOM     67  O   UNL A   1      54.842  25.531  26.365  1.00  0.00    -0.744 OA
ENDBRANCH  63  64
ENDBRANCH  37  58
ENDBRANCH  11  12
ENDBRANCH   4   6
ENDBRANCH   1   2
BRANCH   1  68
ATOM     68  C   UNL A   1      34.619  28.964  27.218  1.00  0.00     0.042 C 
BRANCH  68  69
ATOM     69  C   UNL A   1      33.555  29.511  26.286  1.00  0.00     0.117 C 
BRANCH  69  70
ATOM     70  N   UNL A   1      33.656  28.929  24.964  1.00  0.00    -0.354 N 
ATOM     71  C   UNL A   1      33.646  27.669  24.473  1.00  0.00     0.242 C 
ATOM     72  H   UNL A   1      33.754  29.608  24.258  1.00  0.00     0.163 HD
ATOM     73  O   UNL A   1      33.853  27.609  23.250  1.00  0.00    -0.273 OA
BRANCH  71  74
ATOM     74  C   UNL A   1      33.384  26.361  25.284  1.00  0.00     0.173 C 
ATOM     75  C   UNL A   1      32.245  26.255  26.297  1.00  0.00     0.035 C 
ATOM     76  N   UNL A   1      33.174  25.282  24.294  1.00  0.00    -0.344 N 
ATOM     77  C   UNL A   1      30.869  26.305  25.624  1.00  0.00     0.004 C 
ATOM     78  C   UNL A   1      31.916  25.281  23.558  1.00  0.00     0.119 C 
ATOM     79  C   UNL A   1      30.748  25.226  24.546  1.00  0.00     0.022 C 
BRANCH  76  80
ATOM     80  C   UNL A   1      33.911  24.126  24.423  1.00  0.00     0.133 A 
ATOM     81  C   UNL A   1      35.200  24.186  24.901  1.00  0.00     0.076 A 
ATOM     82  N   UNL A   1      33.332  22.953  24.131  1.00  0.00    -0.211 NA
ATOM     83  C   UNL A   1      35.865  22.993  25.095  1.00  0.00     0.076 A 
ATOM     84  C   UNL A   1      34.056  21.840  24.329  1.00  0.00     0.162 A 
ATOM     85  N   UNL A   1      35.313  21.802  24.799  1.00  0.00    -0.228 NA
BRANCH  83  86
ATOM     86  C   UNL A   1      37.214  22.958  25.670  1.00  0.00     0.000 A 
ATOM     87  C   UNL A   1      37.734  24.066  26.355  1.00  0.00     0.010 A 
ATOM     88  C   UNL A   1      38.015  21.807  25.560  1.00  0.00     0.010 A 
ATOM     89  C   UNL A   1      39.006  24.020  26.931  1.00  0.00     0.001 A 
ATOM     90  C   UNL A   1      39.290  21.763  26.126  1.00  0.00     0.001 A 
ATOM     91  C   UNL A   1      39.782  22.868  26.816  1.00  0.00     0.000 A 
ENDBRANCH  83  86
BRANCH  84  92
ATOM     92  C   UNL A   1      33.403  20.564  24.032  1.00  0.00     0.021 A 
ATOM     93  C   UNL A   1      32.517  20.439  22.946  1.00  0.00     0.012 A 
ATOM     94  C   UNL A   1      33.626  19.439  24.842  1.00  0.00     0.032 A 
ATOM     95  C   UNL A   1      31.884  19.225  22.669  1.00  0.00     0.002 A 
ATOM     96  C   UNL A   1      32.977  18.233  24.574  1.00  0.00     0.041 A 
ATOM     97  C   UNL A   1      32.111  18.121  23.489  1.00  0.00     0.020 A 
ATOM     98  Cl  UNL A   1      33.242  16.876  25.597  1.00  0.00    -0.084 Cl
ENDBRANCH  84  92
ENDBRANCH  76  80
ENDBRANCH  71  74
ENDBRANCH  69  70
ENDBRANCH  68  69
ENDBRANCH   1  68
TORSDOF 16
ENDMDL
MODEL 2
REMARK VINA RESULT:     -13.1      6.615     12.029
REMARK SMILES O=C(NCCCNC(=O)[C@H]1CCCCN1c1cc(-c2ccccc2)nc(-c2cccc(Cl)c2)n1)c1ccc(-c2c3nc(c(-c4ccc(S(=O)(=O)[O-])cc4)c4ccc([nH]4)c(-c4ccc(S(=O)(=O)[O-])cc4)c4nc(c(-c5ccc(S(=O)(=O)[O-])cc5)c5ccc2[nH]5)C=C4)C=C3)cc1
REMARK SMILES IDX 4 1 3 2 1 3 2 4 35 6 36 7 94 8 37 9 93 10 38 11 39 12 40 13
REMARK SMILES IDX 87 14 41 15 92 16 86 17 88 18 42 19 91 20 85 21 84 22 43 24
REMARK SMILES IDX 73 25 54 26 72 27 55 28 58 29 71 30 89 31 56 32 57 33 70 35
REMARK SMILES IDX 90 36 59 37 44 38 45 39 53 40 46 41 52 42 47 43 48 44 49 45
REMARK SMILES IDX 50 46 51 47 74 48 75 49 83 50 76 51 82 52 77 53 78 54 79 55
REMARK SMILES IDX 80 56 81 57 60 58 61 59 69 60 62 61 68 62 63 63 64 64 65 65
REMARK SMILES IDX 66 66 67 67 5 68 6 69 7 70 8 71 9 73 10 74 11 75 15 76 12 77
REMARK SMILES IDX 14 78 13 79 16 80 17 81 34 82 18 83 26 84 25 85 19 86 20 87
REMARK SMILES IDX 24 88 21 89 23 90 22 91 27 92 28 93 33 94 29 95 31 96 30 97
REMARK SMILES IDX 32 98
REMARK H PARENT 3 5 88 23 58 34 7 72
REMARK Flexibility Score: inf
ROOT
ATOM      1  C   UNL A   1      38.567  24.368  26.487  1.00  0.00     0.118 C 
ENDROOT
BRANCH   1   2
ATOM      2  N   UNL A   1      39.964  24.167  26.114  1.00  0.00    -0.352 N 
ATOM      3  O   UNL A   1      42.126  24.732  25.837  1.00  0.00    -0.269 OA
ATOM      4  C   UNL A   1      41.084  24.887  26.462  1.00  0.00     0.251 C 
ATOM      5  H   UNL A   1      40.130  23.397  25.524  1.00  0.00     0.163 HD
BRANCH   4   6
ATOM      6  C   UNL A   1      41.014  25.851  27.580  1.00  0.00     0.039 A 
ATOM      7  C   UNL A   1      40.105  25.645  28.617  1.00  0.00     0.014 A 
ATOM      8  C   UNL A   1      41.870  26.955  27.610  1.00  0.00     0.014 A 
ATOM      9  C   UNL A   1      39.908  26.630  29.568  1.00  0.00     0.010 A 
ATOM     10  C   UNL A   1      41.769  27.880  28.655  1.00  0.00     0.010 A 
ATOM     11  C   UNL A   1      40.768  27.737  29.628  1.00  0.00    -0.014 A 
BRANCH  11  12
ATOM     12  C   UNL A   1      40.650  28.655  30.787  1.00  0.00     0.031 A 
ATOM     13  C   UNL A   1      41.570  28.552  31.969  1.00  0.00     0.074 A 
ATOM     14  C   UNL A   1      39.715  29.625  30.726  1.00  0.00     0.049 A 
ATOM     15  N   UNL A   1      41.607  29.300  33.041  1.00  0.00    -0.248 NA
ATOM     16  C   UNL A   1      42.574  27.475  31.956  1.00  0.00     0.031 C 
ATOM     17  C   UNL A   1      38.764  29.813  29.622  1.00  0.00     0.029 A 
ATOM     18  N   UNL A   1      39.426  30.656  31.581  1.00  0.00    -0.354 N 
ATOM     19  C   UNL A   1      42.612  28.772  33.843  1.00  0.00     0.074 A 
ATOM     20  C   UNL A   1      43.154  27.629  33.140  1.00  0.00     0.031 C 
ATOM     21  C   UNL A   1      38.053  30.927  29.833  1.00  0.00     0.029 A 
ATOM     22  C   UNL A   1      38.426  31.483  31.126  1.00  0.00     0.049 A 
ATOM     23  H   UNL A   1      39.891  30.793  32.438  1.00  0.00     0.167 HD
ATOM     24  C   UNL A   1      43.038  29.205  35.054  1.00  0.00     0.031 A 
ATOM     25  C   UNL A   1      37.845  32.555  31.695  1.00  0.00     0.031 A 
ATOM     26  C   UNL A   1      42.491  30.350  35.737  1.00  0.00     0.049 A 
ATOM     27  C   UNL A   1      38.322  32.990  33.048  1.00  0.00     0.074 A 
ATOM     28  C   UNL A   1      42.870  30.886  36.955  1.00  0.00     0.029 A 
ATOM     29  N   UNL A   1      41.449  31.135  35.264  1.00  0.00    -0.354 N 
ATOM     30  N   UNL A   1      39.288  32.487  33.779  1.00  0.00    -0.248 NA
ATOM     31  C   UNL A   1      37.629  34.132  33.656  1.00  0.00     0.031 C 
ATOM     32  C   UNL A   1      42.022  31.959  37.244  1.00  0.00     0.029 A 
ATOM     33  C   UNL A   1      41.156  32.133  36.177  1.00  0.00     0.049 A 
ATOM     34  H   UNL A   1      40.987  31.002  34.405  1.00  0.00     0.167 HD
ATOM     35  C   UNL A   1      39.328  33.261  34.930  1.00  0.00     0.074 A 
ATOM     36  C   UNL A   1      38.308  34.281  34.785  1.00  0.00     0.031 C 
ATOM     37  C   UNL A   1      40.134  33.136  36.013  1.00  0.00     0.031 A 
BRANCH  24  38
ATOM     38  C   UNL A   1      44.127  28.425  35.744  1.00  0.00    -0.014 A 
ATOM     39  C   UNL A   1      45.482  28.763  35.586  1.00  0.00     0.010 A 
ATOM     40  C   UNL A   1      43.781  27.384  36.627  1.00  0.00     0.010 A 
ATOM     41  C   UNL A   1      46.472  28.062  36.283  1.00  0.00     0.020 A 
ATOM     42  C   UNL A   1      44.766  26.697  37.342  1.00  0.00     0.020 A 
ATOM     43  C   UNL A   1      46.107  27.034  37.158  1.00  0.00     0.054 A 
BRANCH  43  44
ATOM     44  S   UNL A   1      47.410  26.172  38.082  1.00  0.00     0.124 S 
ATOM     45  O   UNL A   1      48.040  25.370  37.036  1.00  0.00    -0.237 OA
ATOM     46  O   UNL A   1      48.218  27.274  38.599  1.00  0.00    -0.237 OA
ATOM     47  O   UNL A   1      46.677  25.413  39.092  1.00  0.00    -0.744 OA
ENDBRANCH  43  44
ENDBRANCH  24  38
BRANCH  25  48
ATOM     48  C   UNL A   1      36.727  33.249  31.002  1.00  0.00    -0.014 A 
ATOM     49  C   UNL A   1      36.948  33.971  29.818  1.00  0.00     0.010 A 
ATOM     50  C   UNL A   1      35.422  33.177  31.525  1.00  0.00     0.010 A 
ATOM     51  C   UNL A   1      35.890  34.627  29.182  1.00  0.00     0.020 A 
ATOM     52  C   UNL A   1      34.356  33.802  30.876  1.00  0.00     0.020 A 
ATOM     53  C   UNL A   1      34.601  34.539  29.717  1.00  0.00     0.054 A 
BRANCH  53  54
ATOM     54  S   UNL A   1      33.236  35.372  28.862  1.00  0.00     0.124 S 
ATOM     55  O   UNL A   1      32.482  35.936  29.977  1.00  0.00    -0.237 OA
ATOM     56  O   UNL A   1      33.933  36.338  28.016  1.00  0.00    -0.237 OA
ATOM     57  O   UNL A   1      32.573  34.288  28.141  1.00  0.00    -0.744 OA
ENDBRANCH  53  54
ENDBRANCH  25  48
BRANCH  37  58
ATOM     58  C   UNL A   1      39.960  34.150  37.110  1.00  0.00    -0.014 A 
ATOM     59  C   UNL A   1      40.544  35.425  37.022  1.00  0.00     0.010 A 
ATOM     60  C   UNL A   1      39.168  33.830  38.228  1.00  0.00     0.010 A 
ATOM     61  C   UNL A   1      40.370  36.352  38.052  1.00  0.00     0.020 A 
ATOM     62  C   UNL A   1      38.968  34.764  39.246  1.00  0.00     0.020 A 
ATOM     63  C   UNL A   1      39.583  36.014  39.158  1.00  0.00     0.054 A 
BRANCH  63  64
ATOM     64  S   UNL A   1      39.340  37.248  40.464  1.00  0.00     0.124 S 
ATOM     65  O   UNL A   1      38.619  36.480  41.475  1.00  0.00    -0.237 OA
ATOM     66  O   UNL A   1      40.709  37.619  40.814  1.00  0.00    -0.237 OA
ATOM     67  O   UNL A   1      38.565  38.298  39.809  1.00  0.00    -0.744 OA
ENDBRANCH  63  64
ENDBRANCH  37  58
ENDBRANCH  11  12
ENDBRANCH   4   6
ENDBRANCH   1   2
BRANCH   1  68
ATOM     68  C   UNL A   1      37.682  23.228  26.012  1.00  0.00     0.042 C 
BRANCH  68  69
ATOM     69  C   UNL A   1      36.524  23.718  25.166  1.00  0.00     0.117 C 
BRANCH  69  70
ATOM     70  N   UNL A   1      35.261  23.184  25.632  1.00  0.00    -0.354 N 
ATOM     71  C   UNL A   1      33.961  23.492  25.428  1.00  0.00     0.242 C 
ATOM     72  H   UNL A   1      35.376  22.417  26.239  1.00  0.00     0.163 HD
ATOM     73  O   UNL A   1      33.175  22.814  26.110  1.00  0.00    -0.273 OA
BRANCH  71  74
ATOM     74  C   UNL A   1      33.407  24.562  24.434  1.00  0.00     0.173 C 
ATOM     75  C   UNL A   1      33.148  24.237  22.963  1.00  0.00     0.035 C 
ATOM     76  N   UNL A   1      32.126  25.042  24.996  1.00  0.00    -0.344 N 
ATOM     77  C   UNL A   1      31.994  23.244  22.788  1.00  0.00     0.004 C 
ATOM     78  C   UNL A   1      30.984  24.141  24.930  1.00  0.00     0.119 C 
ATOM     79  C   UNL A   1      30.724  23.754  23.472  1.00  0.00     0.022 C 
BRANCH  76  80
ATOM     80  C   UNL A   1      31.941  26.401  25.128  1.00  0.00     0.133 A 
ATOM     81  C   UNL A   1      32.813  27.139  25.896  1.00  0.00     0.076 A 
ATOM     82  N   UNL A   1      30.942  26.986  24.454  1.00  0.00    -0.211 NA
ATOM     83  C   UNL A   1      32.636  28.507  25.925  1.00  0.00     0.076 A 
ATOM     84  C   UNL A   1      30.828  28.321  24.553  1.00  0.00     0.162 A 
ATOM     85  N   UNL A   1      31.634  29.120  25.268  1.00  0.00    -0.228 NA
BRANCH  83  86
ATOM     86  C   UNL A   1      33.562  29.378  26.656  1.00  0.00     0.000 A 
ATOM     87  C   UNL A   1      34.876  28.969  26.926  1.00  0.00     0.010 A 
ATOM     88  C   UNL A   1      33.158  30.652  27.095  1.00  0.00     0.010 A 
ATOM     89  C   UNL A   1      35.766  29.813  27.594  1.00  0.00     0.001 A 
ATOM     90  C   UNL A   1      34.043  31.494  27.771  1.00  0.00     0.001 A 
ATOM     91  C   UNL A   1      35.349  31.075  28.015  1.00  0.00     0.000 A 
ENDBRANCH  83  86
BRANCH  84  92
ATOM     92  C   UNL A   1      29.748  28.950  23.791  1.00  0.00     0.021 A 
ATOM     93  C   UNL A   1      28.720  28.179  23.217  1.00  0.00     0.012 A 
ATOM     94  C   UNL A   1      29.727  30.340  23.592  1.00  0.00     0.032 A 
ATOM     95  C   UNL A   1      27.697  28.777  22.479  1.00  0.00     0.002 A 
ATOM     96  C   UNL A   1      28.713  30.933  22.839  1.00  0.00     0.041 A 
ATOM     97  C   UNL A   1      27.697  30.158  22.286  1.00  0.00     0.020 A 
ATOM     98  Cl  UNL A   1      28.724  32.634  22.585  1.00  0.00    -0.084 Cl
ENDBRANCH  84  92
ENDBRANCH  76  80
ENDBRANCH  71  74
ENDBRANCH  69  70
ENDBRANCH  68  69
ENDBRANCH   1  68
TORSDOF 16
ENDMDL
MODEL 3
REMARK VINA RESULT:     -13.1      5.035      6.866
REMARK SMILES O=C(NCCCNC(=O)[C@H]1CCCCN1c1cc(-c2ccccc2)nc(-c2cccc(Cl)c2)n1)c1ccc(-c2c3nc(c(-c4ccc(S(=O)(=O)[O-])cc4)c4ccc([nH]4)c(-c4ccc(S(=O)(=O)[O-])cc4)c4nc(c(-c5ccc(S(=O)(=O)[O-])cc5)c5ccc2[nH]5)C=C4)C=C3)cc1
REMARK SMILES IDX 4 1 3 2 1 3 2 4 35 6 36 7 94 8 37 9 93 10 38 11 39 12 40 13
REMARK SMILES IDX 87 14 41 15 92 16 86 17 88 18 42 19 91 20 85 21 84 22 43 24
REMARK SMILES IDX 73 25 54 26 72 27 55 28 58 29 71 30 89 31 56 32 57 33 70 35
REMARK SMILES IDX 90 36 59 37 44 38 45 39 53 40 46 41 52 42 47 43 48 44 49 45
REMARK SMILES IDX 50 46 51 47 74 48 75 49 83 50 76 51 82 52 77 53 78 54 79 55
REMARK SMILES IDX 80 56 81 57 60 58 61 59 69 60 62 61 68 62 63 63 64 64 65 65
REMARK SMILES IDX 66 66 67 67 5 68 6 69 7 70 8 71 9 73 10 74 11 75 15 76 12 77
REMARK SMILES IDX 14 78 13 79 16 80 17 81 34 82 18 83 26 84 25 85 19 86 20 87
REMARK SMILES IDX 24 88 21 89 23 90 22 91 27 92 28 93 33 94 29 95 31 96 30 97
REMARK SMILES IDX 32 98
REMARK H PARENT 3 5 88 23 58 34 7 72
REMARK Flexibility Score: inf
ROOT
ATOM      1  C   UNL A   1      34.294  29.012  26.107  1.00  0.00     0.118 C 
ENDROOT
BRANCH   1   2
ATOM      2  N   UNL A   1      33.889  30.363  26.483  1.00  0.00    -0.352 N 
ATOM      3  O   UNL A   1      33.672  32.148  27.838  1.00  0.00    -0.269 OA
ATOM      4  C   UNL A   1      34.319  31.158  27.521  1.00  0.00     0.251 C 
ATOM      5  H   UNL A   1      33.203  30.767  25.905  1.00  0.00     0.163 HD
BRANCH   4   6
ATOM      6  C   UNL A   1      35.553  30.800  28.252  1.00  0.00     0.039 A 
ATOM      7  C   UNL A   1      36.689  31.597  28.126  1.00  0.00     0.014 A 
ATOM      8  C   UNL A   1      35.575  29.677  29.084  1.00  0.00     0.014 A 
ATOM      9  C   UNL A   1      37.892  31.172  28.660  1.00  0.00     0.010 A 
ATOM     10  C   UNL A   1      36.759  29.328  29.742  1.00  0.00     0.010 A 
ATOM     11  C   UNL A   1      37.934  30.060  29.514  1.00  0.00    -0.014 A 
BRANCH  11  12
ATOM     12  C   UNL A   1      39.203  29.769  30.225  1.00  0.00     0.031 A 
ATOM     13  C   UNL A   1      39.550  30.444  31.521  1.00  0.00     0.074 A 
ATOM     14  C   UNL A   1      40.020  28.836  29.695  1.00  0.00     0.049 A 
ATOM     15  N   UNL A   1      40.606  30.271  32.273  1.00  0.00    -0.248 NA
ATOM     16  C   UNL A   1      38.601  31.441  32.042  1.00  0.00     0.031 C 
ATOM     17  C   UNL A   1      39.779  28.120  28.435  1.00  0.00     0.029 A 
ATOM     18  N   UNL A   1      41.194  28.298  30.154  1.00  0.00    -0.354 N 
ATOM     19  C   UNL A   1      40.468  31.154  33.337  1.00  0.00     0.074 A 
ATOM     20  C   UNL A   1      39.229  31.873  33.129  1.00  0.00     0.031 C 
ATOM     21  C   UNL A   1      40.730  27.194  28.262  1.00  0.00     0.029 A 
ATOM     22  C   UNL A   1      41.698  27.309  29.342  1.00  0.00     0.049 A 
ATOM     23  H   UNL A   1      41.633  28.590  30.985  1.00  0.00     0.167 HD
ATOM     24  C   UNL A   1      41.302  31.344  34.388  1.00  0.00     0.031 A 
ATOM     25  C   UNL A   1      42.832  26.591  29.435  1.00  0.00     0.031 A 
ATOM     26  C   UNL A   1      42.529  30.614  34.583  1.00  0.00     0.049 A 
ATOM     27  C   UNL A   1      43.746  26.845  30.596  1.00  0.00     0.074 A 
ATOM     28  C   UNL A   1      43.431  30.712  35.628  1.00  0.00     0.029 A 
ATOM     29  N   UNL A   1      43.028  29.651  33.716  1.00  0.00    -0.354 N 
ATOM     30  N   UNL A   1      43.584  27.671  31.602  1.00  0.00    -0.248 NA
ATOM     31  C   UNL A   1      44.996  26.077  30.633  1.00  0.00     0.031 C 
ATOM     32  C   UNL A   1      44.500  29.852  35.366  1.00  0.00     0.029 A 
ATOM     33  C   UNL A   1      44.236  29.169  34.189  1.00  0.00     0.049 A 
ATOM     34  H   UNL A   1      42.587  29.356  32.887  1.00  0.00     0.167 HD
ATOM     35  C   UNL A   1      44.707  27.512  32.401  1.00  0.00     0.074 A 
ATOM     36  C   UNL A   1      45.526  26.493  31.775  1.00  0.00     0.031 C 
ATOM     37  C   UNL A   1      45.035  28.156  33.548  1.00  0.00     0.031 A 
BRANCH  24  38
ATOM     38  C   UNL A   1      40.941  32.402  35.398  1.00  0.00    -0.014 A 
ATOM     39  C   UNL A   1      40.215  32.089  36.559  1.00  0.00     0.010 A 
ATOM     40  C   UNL A   1      41.407  33.718  35.217  1.00  0.00     0.010 A 
ATOM     41  C   UNL A   1      39.942  33.078  37.512  1.00  0.00     0.020 A 
ATOM     42  C   UNL A   1      41.157  34.703  36.178  1.00  0.00     0.020 A 
ATOM     43  C   UNL A   1      40.418  34.379  37.315  1.00  0.00     0.054 A 
BRANCH  43  44
ATOM     44  S   UNL A   1      40.088  35.629  38.589  1.00  0.00     0.124 S 
ATOM     45  O   UNL A   1      38.994  35.014  39.337  1.00  0.00    -0.237 OA
ATOM     46  O   UNL A   1      41.364  35.709  39.296  1.00  0.00    -0.237 OA
ATOM     47  O   UNL A   1      39.727  36.819  37.823  1.00  0.00    -0.744 OA
ENDBRANCH  43  44
ENDBRANCH  24  38
BRANCH  25  48
ATOM     48  C   UNL A   1      43.175  25.605  28.375  1.00  0.00    -0.014 A 
ATOM     49  C   UNL A   1      43.808  26.011  27.188  1.00  0.00     0.010 A 
ATOM     50  C   UNL A   1      42.878  24.242  28.559  1.00  0.00     0.010 A 
ATOM     51  C   UNL A   1      44.115  25.076  26.196  1.00  0.00     0.020 A 
ATOM     52  C   UNL A   1      43.213  23.299  27.586  1.00  0.00     0.020 A 
ATOM     53  C   UNL A   1      43.813  23.725  26.401  1.00  0.00     0.054 A 
BRANCH  53  54
ATOM     54  S   UNL A   1      44.247  22.522  25.115  1.00  0.00     0.124 S 
ATOM     55  O   UNL A   1      45.548  23.014  24.670  1.00  0.00    -0.237 OA
ATOM     56  O   UNL A   1      44.266  21.261  25.853  1.00  0.00    -0.237 OA
ATOM     57  O   UNL A   1      43.161  22.653  24.146  1.00  0.00    -0.744 OA
ENDBRANCH  53  54
ENDBRANCH  25  48
BRANCH  37  58
ATOM     58  C   UNL A   1      46.322  27.750  34.212  1.00  0.00    -0.014 A 
ATOM     59  C   UNL A   1      47.530  28.407  33.923  1.00  0.00     0.010 A 
ATOM     60  C   UNL A   1      46.311  26.716  35.167  1.00  0.00     0.010 A 
ATOM     61  C   UNL A   1      48.714  28.014  34.550  1.00  0.00     0.020 A 
ATOM     62  C   UNL A   1      47.486  26.340  35.818  1.00  0.00     0.020 A 
ATOM     63  C   UNL A   1      48.684  26.981  35.494  1.00  0.00     0.054 A 
BRANCH  63  64
ATOM     64  S   UNL A   1      50.226  26.514  36.324  1.00  0.00     0.124 S 
ATOM     65  O   UNL A   1      50.094  25.063  36.414  1.00  0.00    -0.237 OA
ATOM     66  O   UNL A   1      51.248  26.997  35.399  1.00  0.00    -0.237 OA
ATOM     67  O   UNL A   1      50.163  27.225  37.599  1.00  0.00    -0.744 OA
ENDBRANCH  63  64
ENDBRANCH  37  58
ENDBRANCH  11  12
ENDBRANCH   4   6
ENDBRANCH   1   2
BRANCH   1  68
ATOM     68  C   UNL A   1      33.108  28.065  26.026  1.00  0.00     0.042 C 
BRANCH  68  69
ATOM     69  C   UNL A   1      32.373  28.183  24.706  1.00  0.00     0.117 C 
BRANCH  69  70
ATOM     70  N   UNL A   1      33.028  27.422  23.662  1.00  0.00    -0.354 N 
ATOM     71  C   UNL A   1      33.364  26.123  23.497  1.00  0.00     0.242 C 
ATOM     72  H   UNL A   1      33.289  27.980  22.894  1.00  0.00     0.163 HD
ATOM     73  O   UNL A   1      34.012  25.904  22.460  1.00  0.00    -0.273 OA
BRANCH  71  74
ATOM     74  C   UNL A   1      32.996  24.942  24.449  1.00  0.00     0.173 C 
ATOM     75  C   UNL A   1      31.607  24.813  25.073  1.00  0.00     0.035 C 
ATOM     76  N   UNL A   1      33.240  23.694  23.693  1.00  0.00    -0.344 N 
ATOM     77  C   UNL A   1      30.530  24.514  24.025  1.00  0.00     0.004 C 
ATOM     78  C   UNL A   1      32.300  23.357  22.632  1.00  0.00     0.119 C 
ATOM     79  C   UNL A   1      30.887  23.267  23.213  1.00  0.00     0.022 C 
BRANCH  76  80
ATOM     80  C   UNL A   1      34.017  22.719  24.278  1.00  0.00     0.133 A 
ATOM     81  C   UNL A   1      33.571  21.417  24.312  1.00  0.00     0.076 A 
ATOM     82  N   UNL A   1      35.225  23.052  24.754  1.00  0.00    -0.211 NA
ATOM     83  C   UNL A   1      34.424  20.464  24.830  1.00  0.00     0.076 A 
ATOM     84  C   UNL A   1      35.984  22.067  25.260  1.00  0.00     0.162 A 
ATOM     85  N   UNL A   1      35.637  20.772  25.325  1.00  0.00    -0.228 NA
BRANCH  83  86
ATOM     86  C   UNL A   1      34.061  19.043  24.838  1.00  0.00     0.000 A 
ATOM     87  C   UNL A   1      32.841  18.613  25.380  1.00  0.00     0.010 A 
ATOM     88  C   UNL A   1      34.923  18.076  24.289  1.00  0.00     0.010 A 
ATOM     89  C   UNL A   1      32.482  17.264  25.357  1.00  0.00     0.001 A 
ATOM     90  C   UNL A   1      34.570  16.725  24.274  1.00  0.00     0.001 A 
ATOM     91  C   UNL A   1      33.347  16.321  24.804  1.00  0.00     0.000 A 
ENDBRANCH  83  86
BRANCH  84  92
ATOM     92  C   UNL A   1      37.311  22.440  25.751  1.00  0.00     0.021 A 
ATOM     93  C   UNL A   1      37.587  23.756  26.165  1.00  0.00     0.012 A 
ATOM     94  C   UNL A   1      38.350  21.497  25.798  1.00  0.00     0.032 A 
ATOM     95  C   UNL A   1      38.857  24.117  26.622  1.00  0.00     0.002 A 
ATOM     96  C   UNL A   1      39.622  21.864  26.237  1.00  0.00     0.041 A 
ATOM     97  C   UNL A   1      39.878  23.168  26.654  1.00  0.00     0.020 A 
ATOM     98  Cl  UNL A   1      40.887  20.698  26.258  1.00  0.00    -0.084 Cl
ENDBRANCH  84  92
ENDBRANCH  76  80
ENDBRANCH  71  74
ENDBRANCH  69  70
ENDBRANCH  68  69
ENDBRANCH   1  68
TORSDOF 16
ENDMDL
