MODEL 1
REMARK VINA RESULT:     -13.1      0.000      0.000
REMARK SMILES Cc1n[nH]c(C)c1C(=O)N1CC(n2cc(C(=O)NCCCNC(=O)c3ccc(-c4c5nc(c(-c6ccc(S(=O)(=O)[O-])cc6)c6ccc([nH]6)c(-c6ccc(S(=O)(=O)[O-])cc6)c6nc(c(-c7ccc(S(=O)(=O)[O-])cc7)c7ccc4[nH]7)C=C6)C=C5)cc3)nn2)C1
REMARK SMILES IDX 20 1 19 2 18 3 16 4 17 5 15 7 13 8 14 9 86 10 85 11 12 12
REMARK SMILES IDX 8 13 9 14 10 15 11 16 87 17 7 18 1 19 2 20 3 21 4 22 5 23
REMARK SMILES IDX 6 25 21 26 22 27 23 28 24 30 25 31 26 32 84 33 27 34 83 35
REMARK SMILES IDX 28 36 29 37 30 38 77 39 31 40 82 41 76 42 78 43 32 44 81 45
REMARK SMILES IDX 75 46 74 47 33 49 63 50 44 51 62 52 45 53 48 54 61 55 79 56
REMARK SMILES IDX 46 57 47 58 60 60 80 61 49 62 34 63 35 64 43 65 36 66 42 67
REMARK SMILES IDX 37 68 38 69 39 70 40 71 41 72 64 73 65 74 73 75 66 76 72 77
REMARK SMILES IDX 67 78 68 79 69 80 70 81 71 82 50 83 51 84 59 85 52 86 58 87
REMARK SMILES IDX 53 88 54 89 55 90 56 91 57 92
REMARK H PARENT 18 6 4 24 22 29 78 48 48 59
REMARK Flexibility Score: inf
ROOT
ATOM      1  C   UNL A   1      37.438  19.929  24.657  1.00  0.00     0.042 C 
ENDROOT
BRANCH   1   2
ATOM      2  C   UNL A   1      36.092  20.552  25.048  1.00  0.00     0.118 C 
BRANCH   2   3
ATOM      3  N   UNL A   1      35.021  19.574  25.147  1.00  0.00    -0.351 N 
ATOM      4  C   UNL A   1      33.675  19.692  24.854  1.00  0.00     0.273 C 
ATOM      5  O   UNL A   1      33.011  18.667  24.798  1.00  0.00    -0.267 OA
ATOM      6  H   UNL A   1      35.298  18.688  25.474  1.00  0.00     0.163 HD
BRANCH   4   7
ATOM      7  C   UNL A   1      33.101  21.007  24.586  1.00  0.00     0.170 A 
ATOM      8  N   UNL A   1      32.398  23.057  24.628  1.00  0.00    -0.245 N 
ATOM      9  C   UNL A   1      32.840  22.057  25.442  1.00  0.00     0.145 A 
ATOM     10  N   UNL A   1      32.323  22.651  23.355  1.00  0.00    -0.066 NA
ATOM     11  N   UNL A   1      32.711  21.383  23.318  1.00  0.00    -0.125 NA
BRANCH   8  12
ATOM     12  C   UNL A   1      32.200  24.402  25.076  1.00  0.00     0.148 C 
ATOM     13  C   UNL A   1      31.086  27.363  24.582  1.00  0.00     0.257 C 
ATOM     14  O   UNL A   1      30.955  27.707  25.754  1.00  0.00    -0.269 OA
ATOM     15  N   UNL A   1      31.227  26.037  24.227  1.00  0.00    -0.334 N 
ATOM     16  C   UNL A   1      30.760  24.905  25.039  1.00  0.00     0.149 C 
ATOM     17  C   UNL A   1      32.512  25.392  23.943  1.00  0.00     0.149 C 
BRANCH  13  18
ATOM     18  C   UNL A   1      31.027  28.321  23.477  1.00  0.00     0.083 A 
ATOM     19  C   UNL A   1      28.430  28.381  23.104  1.00  0.00     0.069 C 
ATOM     20  C   UNL A   1      29.838  28.762  22.815  1.00  0.00     0.072 A 
ATOM     21  N   UNL A   1      30.100  29.603  21.808  1.00  0.00    -0.180 NA
ATOM     22  N   UNL A   1      31.432  29.692  21.802  1.00  0.00    -0.282 N 
ATOM     23  C   UNL A   1      32.048  28.959  22.778  1.00  0.00     0.045 A 
ATOM     24  H   UNL A   1      31.930  30.240  21.151  1.00  0.00     0.190 HD
ATOM     25  C   UNL A   1      33.526  28.959  22.889  1.00  0.00     0.067 C 
ENDBRANCH  13  18
ENDBRANCH   8  12
ENDBRANCH   4   7
ENDBRANCH   2   3
ENDBRANCH   1   2
BRANCH   1  26
ATOM     26  C   UNL A   1      38.571  20.377  25.563  1.00  0.00     0.118 C 
BRANCH  26  27
ATOM     27  N   UNL A   1      39.602  19.343  25.745  1.00  0.00    -0.352 N 
ATOM     28  C   UNL A   1      40.968  19.488  25.960  1.00  0.00     0.251 C 
ATOM     29  H   UNL A   1      39.277  18.415  25.709  1.00  0.00     0.163 HD
ATOM     30  O   UNL A   1      41.728  18.559  25.729  1.00  0.00    -0.269 OA
BRANCH  28  31
ATOM     31  C   UNL A   1      41.476  20.774  26.470  1.00  0.00     0.039 A 
ATOM     32  C   UNL A   1      42.125  21.724  25.675  1.00  0.00     0.014 A 
ATOM     33  C   UNL A   1      41.240  21.036  27.809  1.00  0.00     0.014 A 
ATOM     34  C   UNL A   1      42.479  22.941  26.258  1.00  0.00     0.010 A 
ATOM     35  C   UNL A   1      41.254  22.319  28.253  1.00  0.00     0.010 A 
ATOM     36  C   UNL A   1      42.028  23.221  27.557  1.00  0.00    -0.014 A 
BRANCH  36  37
ATOM     37  C   UNL A   1      42.289  24.465  28.255  1.00  0.00     0.031 A 
ATOM     38  C   UNL A   1      41.244  25.486  28.062  1.00  0.00     0.074 A 
ATOM     39  C   UNL A   1      43.229  24.579  29.220  1.00  0.00     0.049 A 
ATOM     40  N   UNL A   1      41.289  26.494  27.260  1.00  0.00    -0.248 NA
ATOM     41  C   UNL A   1      39.924  25.257  28.670  1.00  0.00     0.031 C 
ATOM     42  C   UNL A   1      44.095  23.542  29.803  1.00  0.00     0.029 A 
ATOM     43  N   UNL A   1      43.520  25.661  29.983  1.00  0.00    -0.354 N 
ATOM     44  C   UNL A   1      40.102  27.181  27.469  1.00  0.00     0.074 A 
ATOM     45  C   UNL A   1      39.218  26.251  28.125  1.00  0.00     0.031 C 
ATOM     46  C   UNL A   1      44.629  23.995  30.961  1.00  0.00     0.029 A 
ATOM     47  C   UNL A   1      44.287  25.397  31.111  1.00  0.00     0.049 A 
ATOM     48  H   UNL A   1      43.211  26.568  29.755  1.00  0.00     0.167 HD
ATOM     49  C   UNL A   1      40.047  28.538  27.360  1.00  0.00     0.031 A 
ATOM     50  C   UNL A   1      44.580  26.275  32.106  1.00  0.00     0.031 A 
ATOM     51  C   UNL A   1      41.270  29.070  26.802  1.00  0.00     0.049 A 
ATOM     52  C   UNL A   1      44.383  27.636  31.539  1.00  0.00     0.074 A 
ATOM     53  C   UNL A   1      41.978  28.851  25.635  1.00  0.00     0.029 A 
ATOM     54  N   UNL A   1      42.168  29.626  27.689  1.00  0.00    -0.354 N 
ATOM     55  N   UNL A   1      45.115  28.117  30.572  1.00  0.00    -0.248 NA
ATOM     56  C   UNL A   1      43.080  28.265  31.701  1.00  0.00     0.031 C 
ATOM     57  C   UNL A   1      43.345  28.814  26.040  1.00  0.00     0.029 A 
ATOM     58  C   UNL A   1      43.408  29.110  27.404  1.00  0.00     0.049 A 
ATOM     59  H   UNL A   1      41.957  30.274  28.399  1.00  0.00     0.167 HD
ATOM     60  C   UNL A   1      44.218  28.773  29.738  1.00  0.00     0.074 A 
ATOM     61  C   UNL A   1      43.000  28.915  30.536  1.00  0.00     0.031 C 
ATOM     62  C   UNL A   1      44.442  28.877  28.393  1.00  0.00     0.031 A 
BRANCH  49  63
ATOM     63  C   UNL A   1      39.085  29.406  28.131  1.00  0.00    -0.014 A 
ATOM     64  C   UNL A   1      37.828  29.683  27.560  1.00  0.00     0.010 A 
ATOM     65  C   UNL A   1      39.453  30.159  29.265  1.00  0.00     0.010 A 
ATOM     66  C   UNL A   1      37.015  30.709  28.057  1.00  0.00     0.020 A 
ATOM     67  C   UNL A   1      38.631  31.152  29.797  1.00  0.00     0.020 A 
ATOM     68  C   UNL A   1      37.431  31.445  29.166  1.00  0.00     0.054 A 
BRANCH  68  69
ATOM     69  S   UNL A   1      36.422  32.830  29.741  1.00  0.00     0.124 S 
ATOM     70  O   UNL A   1      36.415  32.615  31.184  1.00  0.00    -0.237 OA
ATOM     71  O   UNL A   1      37.188  33.982  29.273  1.00  0.00    -0.237 OA
ATOM     72  O   UNL A   1      35.143  32.623  29.067  1.00  0.00    -0.744 OA
ENDBRANCH  68  69
ENDBRANCH  49  63
BRANCH  50  73
ATOM     73  C   UNL A   1      44.672  26.015  33.567  1.00  0.00    -0.014 A 
ATOM     74  C   UNL A   1      45.748  26.521  34.323  1.00  0.00     0.010 A 
ATOM     75  C   UNL A   1      43.552  25.530  34.275  1.00  0.00     0.010 A 
ATOM     76  C   UNL A   1      45.667  26.625  35.724  1.00  0.00     0.020 A 
ATOM     77  C   UNL A   1      43.468  25.623  35.670  1.00  0.00     0.020 A 
ATOM     78  C   UNL A   1      44.513  26.201  36.387  1.00  0.00     0.054 A 
BRANCH  78  79
ATOM     79  S   UNL A   1      44.320  26.544  38.163  1.00  0.00     0.124 S 
ATOM     80  O   UNL A   1      42.901  26.282  38.379  1.00  0.00    -0.237 OA
ATOM     81  O   UNL A   1      45.239  25.587  38.773  1.00  0.00    -0.237 OA
ATOM     82  O   UNL A   1      44.720  27.945  38.287  1.00  0.00    -0.744 OA
ENDBRANCH  78  79
ENDBRANCH  50  73
BRANCH  62  83
ATOM     83  C   UNL A   1      45.812  28.511  27.855  1.00  0.00    -0.014 A 
ATOM     84  C   UNL A   1      46.192  27.207  27.476  1.00  0.00     0.010 A 
ATOM     85  C   UNL A   1      46.698  29.567  27.579  1.00  0.00     0.010 A 
ATOM     86  C   UNL A   1      47.435  26.968  26.868  1.00  0.00     0.020 A 
ATOM     87  C   UNL A   1      47.927  29.340  26.957  1.00  0.00     0.020 A 
ATOM     88  C   UNL A   1      48.297  28.039  26.614  1.00  0.00     0.054 A 
BRANCH  88  89
ATOM     89  S   UNL A   1      49.892  27.735  25.802  1.00  0.00     0.124 S 
ATOM     90  O   UNL A   1      49.557  26.710  24.818  1.00  0.00    -0.237 OA
ATOM     91  O   UNL A   1      50.234  29.046  25.255  1.00  0.00    -0.237 OA
ATOM     92  O   UNL A   1      50.758  27.285  26.892  1.00  0.00    -0.744 OA
ENDBRANCH  88  89
ENDBRANCH  62  83
ENDBRANCH  36  37
ENDBRANCH  28  31
ENDBRANCH  26  27
ENDBRANCH   1  26
TORSDOF 15
ENDMDL
MODEL 2
REMARK VINA RESULT:     -12.8      2.686      7.174
REMARK SMILES Cc1n[nH]c(C)c1C(=O)N1CC(n2cc(C(=O)NCCCNC(=O)c3ccc(-c4c5nc(c(-c6ccc(S(=O)(=O)[O-])cc6)c6ccc([nH]6)c(-c6ccc(S(=O)(=O)[O-])cc6)c6nc(c(-c7ccc(S(=O)(=O)[O-])cc7)c7ccc4[nH]7)C=C6)C=C5)cc3)nn2)C1
REMARK SMILES IDX 20 1 19 2 18 3 16 4 17 5 15 7 13 8 14 9 86 10 85 11 12 12
REMARK SMILES IDX 8 13 9 14 10 15 11 16 87 17 7 18 1 19 2 20 3 21 4 22 5 23
REMARK SMILES IDX 6 25 21 26 22 27 23 28 24 30 25 31 26 32 84 33 27 34 83 35
REMARK SMILES IDX 28 36 29 37 30 38 77 39 31 40 82 41 76 42 78 43 32 44 81 45
REMARK SMILES IDX 75 46 74 47 33 49 63 50 44 51 62 52 45 53 48 54 61 55 79 56
REMARK SMILES IDX 46 57 47 58 60 60 80 61 49 62 34 63 35 64 43 65 36 66 42 67
REMARK SMILES IDX 37 68 38 69 39 70 40 71 41 72 64 73 65 74 73 75 66 76 72 77
REMARK SMILES IDX 67 78 68 79 69 80 70 81 71 82 50 83 51 84 59 85 52 86 58 87
REMARK SMILES IDX 53 88 54 89 55 90 56 91 57 92
REMARK H PARENT 18 6 4 24 22 29 78 48 48 59
REMARK Flexibility Score: inf
ROOT
ATOM      1  C   UNL A   1      36.518  21.804  24.507  1.00  0.00     0.042 C 
ENDROOT
BRANCH   1   2
ATOM      2  C   UNL A   1      35.536  21.427  25.623  1.00  0.00     0.118 C 
BRANCH   2   3
ATOM      3  N   UNL A   1      34.871  20.155  25.390  1.00  0.00    -0.351 N 
ATOM      4  C   UNL A   1      33.713  19.868  24.691  1.00  0.00     0.273 C 
ATOM      5  O   UNL A   1      33.476  18.696  24.437  1.00  0.00    -0.267 OA
ATOM      6  H   UNL A   1      35.316  19.375  25.794  1.00  0.00     0.163 HD
BRANCH   4   7
ATOM      7  C   UNL A   1      32.844  20.953  24.247  1.00  0.00     0.170 A 
ATOM      8  N   UNL A   1      31.619  22.729  24.030  1.00  0.00    -0.245 N 
ATOM      9  C   UNL A   1      32.217  21.946  24.972  1.00  0.00     0.145 A 
ATOM     10  N   UNL A   1      31.799  22.233  22.800  1.00  0.00    -0.066 NA
ATOM     11  N   UNL A   1      32.512  21.121  22.919  1.00  0.00    -0.125 NA
BRANCH   8  12
ATOM     12  C   UNL A   1      31.020  23.994  24.328  1.00  0.00     0.148 C 
ATOM     13  C   UNL A   1      31.227  27.179  24.586  1.00  0.00     0.257 C 
ATOM     14  O   UNL A   1      30.038  27.452  24.438  1.00  0.00    -0.269 OA
ATOM     15  N   UNL A   1      31.738  25.948  24.229  1.00  0.00    -0.334 N 
ATOM     16  C   UNL A   1      31.131  25.052  23.235  1.00  0.00     0.149 C 
ATOM     17  C   UNL A   1      31.977  24.850  25.171  1.00  0.00     0.149 C 
BRANCH  13  18
ATOM     18  C   UNL A   1      32.197  28.159  25.077  1.00  0.00     0.083 A 
ATOM     19  C   UNL A   1      31.499  28.218  27.606  1.00  0.00     0.069 C 
ATOM     20  C   UNL A   1      32.304  28.625  26.425  1.00  0.00     0.072 A 
ATOM     21  N   UNL A   1      33.254  29.558  26.565  1.00  0.00    -0.180 NA
ATOM     22  N   UNL A   1      33.739  29.709  25.330  1.00  0.00    -0.282 N 
ATOM     23  C   UNL A   1      33.159  28.898  24.396  1.00  0.00     0.045 A 
ATOM     24  H   UNL A   1      34.455  30.350  25.112  1.00  0.00     0.190 HD
ATOM     25  C   UNL A   1      33.597  28.961  22.981  1.00  0.00     0.067 C 
ENDBRANCH  13  18
ENDBRANCH   8  12
ENDBRANCH   4   7
ENDBRANCH   2   3
ENDBRANCH   1   2
BRANCH   1  26
ATOM     26  C   UNL A   1      37.769  22.482  25.037  1.00  0.00     0.118 C 
BRANCH  26  27
ATOM     27  N   UNL A   1      38.578  21.601  25.894  1.00  0.00    -0.352 N 
ATOM     28  C   UNL A   1      39.687  21.907  26.675  1.00  0.00     0.251 C 
ATOM     29  H   UNL A   1      38.294  20.659  25.916  1.00  0.00     0.163 HD
ATOM     30  O   UNL A   1      40.452  21.021  27.029  1.00  0.00    -0.269 OA
BRANCH  28  31
ATOM     31  C   UNL A   1      39.917  23.309  27.067  1.00  0.00     0.039 A 
ATOM     32  C   UNL A   1      38.954  24.316  26.951  1.00  0.00     0.014 A 
ATOM     33  C   UNL A   1      41.157  23.596  27.612  1.00  0.00     0.014 A 
ATOM     34  C   UNL A   1      39.266  25.586  27.440  1.00  0.00     0.010 A 
ATOM     35  C   UNL A   1      41.308  24.697  28.392  1.00  0.00     0.010 A 
ATOM     36  C   UNL A   1      40.455  25.755  28.164  1.00  0.00    -0.014 A 
BRANCH  36  37
ATOM     37  C   UNL A   1      40.870  27.010  28.760  1.00  0.00     0.031 A 
ATOM     38  C   UNL A   1      42.007  27.648  28.074  1.00  0.00     0.074 A 
ATOM     39  C   UNL A   1      40.113  27.678  29.659  1.00  0.00     0.049 A 
ATOM     40  N   UNL A   1      43.241  27.627  28.443  1.00  0.00    -0.248 NA
ATOM     41  C   UNL A   1      41.790  28.197  26.726  1.00  0.00     0.031 C 
ATOM     42  C   UNL A   1      38.764  27.363  30.156  1.00  0.00     0.029 A 
ATOM     43  N   UNL A   1      40.359  28.881  30.234  1.00  0.00    -0.354 N 
ATOM     44  C   UNL A   1      43.916  28.399  27.509  1.00  0.00     0.074 A 
ATOM     45  C   UNL A   1      43.042  28.489  26.367  1.00  0.00     0.031 C 
ATOM     46  C   UNL A   1      38.238  28.453  30.763  1.00  0.00     0.029 A 
ATOM     47  C   UNL A   1      39.264  29.475  30.850  1.00  0.00     0.049 A 
ATOM     48  H   UNL A   1      41.249  29.302  30.217  1.00  0.00     0.167 HD
ATOM     49  C   UNL A   1      44.999  29.145  27.864  1.00  0.00     0.031 A 
ATOM     50  C   UNL A   1      39.214  30.734  31.357  1.00  0.00     0.031 A 
ATOM     51  C   UNL A   1      45.433  28.834  29.208  1.00  0.00     0.049 A 
ATOM     52  C   UNL A   1      40.623  31.149  31.595  1.00  0.00     0.074 A 
ATOM     53  C   UNL A   1      45.824  27.678  29.857  1.00  0.00     0.029 A 
ATOM     54  N   UNL A   1      45.061  29.716  30.201  1.00  0.00    -0.354 N 
ATOM     55  N   UNL A   1      41.400  30.568  32.468  1.00  0.00    -0.248 NA
ATOM     56  C   UNL A   1      41.314  31.868  30.533  1.00  0.00     0.031 C 
ATOM     57  C   UNL A   1      45.199  27.749  31.137  1.00  0.00     0.029 A 
ATOM     58  C   UNL A   1      44.547  28.980  31.240  1.00  0.00     0.049 A 
ATOM     59  H   UNL A   1      45.147  30.696  30.169  1.00  0.00     0.167 HD
ATOM     60  C   UNL A   1      42.632  30.462  31.835  1.00  0.00     0.074 A 
ATOM     61  C   UNL A   1      42.544  31.367  30.689  1.00  0.00     0.031 C 
ATOM     62  C   UNL A   1      43.495  29.442  32.125  1.00  0.00     0.031 A 
BRANCH  49  63
ATOM     63  C   UNL A   1      45.399  30.428  27.180  1.00  0.00    -0.014 A 
ATOM     64  C   UNL A   1      46.769  30.744  27.098  1.00  0.00     0.010 A 
ATOM     65  C   UNL A   1      44.486  31.446  26.840  1.00  0.00     0.010 A 
ATOM     66  C   UNL A   1      47.197  32.035  26.762  1.00  0.00     0.020 A 
ATOM     67  C   UNL A   1      44.901  32.721  26.460  1.00  0.00     0.020 A 
ATOM     68  C   UNL A   1      46.256  33.018  26.458  1.00  0.00     0.054 A 
BRANCH  68  69
ATOM     69  S   UNL A   1      46.813  34.704  26.121  1.00  0.00     0.124 S 
ATOM     70  O   UNL A   1      47.549  35.024  27.341  1.00  0.00    -0.237 OA
ATOM     71  O   UNL A   1      47.623  34.525  24.919  1.00  0.00    -0.237 OA
ATOM     72  O   UNL A   1      45.569  35.442  25.925  1.00  0.00    -0.744 OA
ENDBRANCH  68  69
ENDBRANCH  49  63
BRANCH  50  73
ATOM     73  C   UNL A   1      38.084  31.699  31.320  1.00  0.00    -0.014 A 
ATOM     74  C   UNL A   1      36.754  31.250  31.207  1.00  0.00     0.010 A 
ATOM     75  C   UNL A   1      38.286  33.043  31.699  1.00  0.00     0.010 A 
ATOM     76  C   UNL A   1      35.673  32.082  31.552  1.00  0.00     0.020 A 
ATOM     77  C   UNL A   1      37.215  33.881  32.036  1.00  0.00     0.020 A 
ATOM     78  C   UNL A   1      35.914  33.386  31.992  1.00  0.00     0.054 A 
BRANCH  78  79
ATOM     79  S   UNL A   1      34.538  34.379  32.651  1.00  0.00     0.124 S 
ATOM     80  O   UNL A   1      33.718  34.602  31.465  1.00  0.00    -0.237 OA
ATOM     81  O   UNL A   1      33.963  33.494  33.660  1.00  0.00    -0.237 OA
ATOM     82  O   UNL A   1      35.199  35.570  33.184  1.00  0.00    -0.744 OA
ENDBRANCH  78  79
ENDBRANCH  50  73
BRANCH  62  83
ATOM     83  C   UNL A   1      43.216  28.578  33.339  1.00  0.00    -0.014 A 
ATOM     84  C   UNL A   1      43.981  28.605  34.524  1.00  0.00     0.010 A 
ATOM     85  C   UNL A   1      42.033  27.818  33.331  1.00  0.00     0.010 A 
ATOM     86  C   UNL A   1      43.586  27.868  35.652  1.00  0.00     0.020 A 
ATOM     87  C   UNL A   1      41.624  27.098  34.455  1.00  0.00     0.020 A 
ATOM     88  C   UNL A   1      42.408  27.116  35.608  1.00  0.00     0.054 A 
BRANCH  88  89
ATOM     89  S   UNL A   1      41.882  26.185  37.076  1.00  0.00     0.124 S 
ATOM     90  O   UNL A   1      40.625  26.838  37.431  1.00  0.00    -0.237 OA
ATOM     91  O   UNL A   1      41.762  24.820  36.570  1.00  0.00    -0.237 OA
ATOM     92  O   UNL A   1      42.974  26.389  38.027  1.00  0.00    -0.744 OA
ENDBRANCH  88  89
ENDBRANCH  62  83
ENDBRANCH  36  37
ENDBRANCH  28  31
ENDBRANCH  26  27
ENDBRANCH   1  26
TORSDOF 15
ENDMDL
MODEL 3
REMARK VINA RESULT:     -12.7      3.370      7.791
REMARK SMILES Cc1n[nH]c(C)c1C(=O)N1CC(n2cc(C(=O)NCCCNC(=O)c3ccc(-c4c5nc(c(-c6ccc(S(=O)(=O)[O-])cc6)c6ccc([nH]6)c(-c6ccc(S(=O)(=O)[O-])cc6)c6nc(c(-c7ccc(S(=O)(=O)[O-])cc7)c7ccc4[nH]7)C=C6)C=C5)cc3)nn2)C1
REMARK SMILES IDX 20 1 19 2 18 3 16 4 17 5 15 7 13 8 14 9 86 10 85 11 12 12
REMARK SMILES IDX 8 13 9 14 10 15 11 16 87 17 7 18 1 19 2 20 3 21 4 22 5 23
REMARK SMILES IDX 6 25 21 26 22 27 23 28 24 30 25 31 26 32 84 33 27 34 83 35
REMARK SMILES IDX 28 36 29 37 30 38 77 39 31 40 82 41 76 42 78 43 32 44 81 45
REMARK SMILES IDX 75 46 74 47 33 49 63 50 44 51 62 52 45 53 48 54 61 55 79 56
REMARK SMILES IDX 46 57 47 58 60 60 80 61 49 62 34 63 35 64 43 65 36 66 42 67
REMARK SMILES IDX 37 68 38 69 39 70 40 71 41 72 64 73 65 74 73 75 66 76 72 77
REMARK SMILES IDX 67 78 68 79 69 80 70 81 71 82 50 83 51 84 59 85 52 86 58 87
REMARK SMILES IDX 53 88 54 89 55 90 56 91 57 92
REMARK H PARENT 18 6 4 24 22 29 78 48 48 59
REMARK Flexibility Score: inf
ROOT
ATOM      1  C   UNL A   1      39.235  21.300  26.156  1.00  0.00     0.042 C 
ENDROOT
BRANCH   1   2
ATOM      2  C   UNL A   1      37.938  22.023  25.771  1.00  0.00     0.118 C 
BRANCH   2   3
ATOM      3  N   UNL A   1      37.762  22.148  24.333  1.00  0.00    -0.351 N 
ATOM      4  C   UNL A   1      36.653  22.527  23.599  1.00  0.00     0.273 C 
ATOM      5  O   UNL A   1      36.813  22.780  22.414  1.00  0.00    -0.267 OA
ATOM      6  H   UNL A   1      38.558  21.928  23.798  1.00  0.00     0.163 HD
BRANCH   4   7
ATOM      7  C   UNL A   1      35.355  22.651  24.254  1.00  0.00     0.170 A 
ATOM      8  N   UNL A   1      33.437  23.276  25.049  1.00  0.00    -0.245 N 
ATOM      9  C   UNL A   1      34.583  23.768  24.497  1.00  0.00     0.145 A 
ATOM     10  N   UNL A   1      33.504  21.948  25.204  1.00  0.00    -0.066 NA
ATOM     11  N   UNL A   1      34.690  21.555  24.760  1.00  0.00    -0.125 NA
BRANCH   8  12
ATOM     12  C   UNL A   1      32.272  24.074  25.276  1.00  0.00     0.148 C 
ATOM     13  C   UNL A   1      30.688  26.840  24.958  1.00  0.00     0.257 C 
ATOM     14  O   UNL A   1      29.543  26.407  25.064  1.00  0.00    -0.269 OA
ATOM     15  N   UNL A   1      31.755  26.007  24.691  1.00  0.00    -0.334 N 
ATOM     16  C   UNL A   1      31.644  24.698  24.034  1.00  0.00     0.149 C 
ATOM     17  C   UNL A   1      32.674  25.492  25.711  1.00  0.00     0.149 C 
BRANCH  13  18
ATOM     18  C   UNL A   1      30.991  28.269  25.033  1.00  0.00     0.083 A 
ATOM     19  C   UNL A   1      31.919  28.379  27.486  1.00  0.00     0.069 C 
ATOM     20  C   UNL A   1      31.531  28.950  26.169  1.00  0.00     0.072 A 
ATOM     21  N   UNL A   1      31.656  30.266  25.959  1.00  0.00    -0.180 NA
ATOM     22  N   UNL A   1      31.189  30.440  24.721  1.00  0.00    -0.282 N 
ATOM     23  C   UNL A   1      30.784  29.287  24.107  1.00  0.00     0.045 A 
ATOM     24  H   UNL A   1      31.142  31.322  24.285  1.00  0.00     0.190 HD
ATOM     25  C   UNL A   1      30.239  29.329  22.730  1.00  0.00     0.067 C 
ENDBRANCH  13  18
ENDBRANCH   8  12
ENDBRANCH   4   7
ENDBRANCH   2   3
ENDBRANCH   1   2
BRANCH   1  26
ATOM     26  C   UNL A   1      40.226  22.216  26.851  1.00  0.00     0.118 C 
BRANCH  26  27
ATOM     27  N   UNL A   1      41.596  22.077  26.331  1.00  0.00    -0.352 N 
ATOM     28  C   UNL A   1      42.489  23.062  25.926  1.00  0.00     0.251 C 
ATOM     29  H   UNL A   1      41.927  21.153  26.259  1.00  0.00     0.163 HD
ATOM     30  O   UNL A   1      43.425  22.780  25.192  1.00  0.00    -0.269 OA
BRANCH  28  31
ATOM     31  C   UNL A   1      42.287  24.444  26.399  1.00  0.00     0.039 A 
ATOM     32  C   UNL A   1      41.514  25.392  25.721  1.00  0.00     0.014 A 
ATOM     33  C   UNL A   1      42.881  24.770  27.607  1.00  0.00     0.014 A 
ATOM     34  C   UNL A   1      41.327  26.639  26.319  1.00  0.00     0.010 A 
ATOM     35  C   UNL A   1      42.404  25.817  28.326  1.00  0.00     0.010 A 
ATOM     36  C   UNL A   1      41.781  26.831  27.632  1.00  0.00    -0.014 A 
BRANCH  36  37
ATOM     37  C   UNL A   1      41.608  28.062  28.378  1.00  0.00     0.031 A 
ATOM     38  C   UNL A   1      42.628  29.085  28.083  1.00  0.00     0.074 A 
ATOM     39  C   UNL A   1      40.470  28.361  29.044  1.00  0.00     0.049 A 
ATOM     40  N   UNL A   1      43.661  29.372  28.796  1.00  0.00    -0.248 NA
ATOM     41  C   UNL A   1      42.615  29.720  26.756  1.00  0.00     0.031 C 
ATOM     42  C   UNL A   1      39.207  27.609  29.111  1.00  0.00     0.029 A 
ATOM     43  N   UNL A   1      40.166  29.497  29.718  1.00  0.00    -0.354 N 
ATOM     44  C   UNL A   1      44.283  30.421  28.134  1.00  0.00     0.074 A 
ATOM     45  C   UNL A   1      43.760  30.405  26.792  1.00  0.00     0.031 C 
ATOM     46  C   UNL A   1      38.226  28.411  29.584  1.00  0.00     0.029 A 
ATOM     47  C   UNL A   1      38.818  29.665  30.012  1.00  0.00     0.049 A 
ATOM     48  H   UNL A   1      40.850  30.155  29.980  1.00  0.00     0.167 HD
ATOM     49  C   UNL A   1      44.943  31.393  28.823  1.00  0.00     0.031 A 
ATOM     50  C   UNL A   1      38.244  30.778  30.537  1.00  0.00     0.031 A 
ATOM     51  C   UNL A   1      45.079  31.047  30.220  1.00  0.00     0.049 A 
ATOM     52  C   UNL A   1      39.335  31.546  31.193  1.00  0.00     0.074 A 
ATOM     53  C   UNL A   1      45.626  29.977  30.904  1.00  0.00     0.029 A 
ATOM     54  N   UNL A   1      44.201  31.647  31.098  1.00  0.00    -0.354 N 
ATOM     55  N   UNL A   1      39.994  31.104  32.230  1.00  0.00    -0.248 NA
ATOM     56  C   UNL A   1      40.021  32.566  30.413  1.00  0.00     0.031 C 
ATOM     57  C   UNL A   1      44.695  29.697  31.947  1.00  0.00     0.029 A 
ATOM     58  C   UNL A   1      43.687  30.664  31.908  1.00  0.00     0.049 A 
ATOM     59  H   UNL A   1      43.981  32.605  31.136  1.00  0.00     0.167 HD
ATOM     60  C   UNL A   1      41.319  31.440  31.981  1.00  0.00     0.074 A 
ATOM     61  C   UNL A   1      41.259  32.424  30.899  1.00  0.00     0.031 C 
ATOM     62  C   UNL A   1      42.349  30.683  32.465  1.00  0.00     0.031 A 
BRANCH  49  63
ATOM     63  C   UNL A   1      45.087  32.815  28.342  1.00  0.00    -0.014 A 
ATOM     64  C   UNL A   1      46.351  33.430  28.438  1.00  0.00     0.010 A 
ATOM     65  C   UNL A   1      43.992  33.649  28.037  1.00  0.00     0.010 A 
ATOM     66  C   UNL A   1      46.496  34.816  28.305  1.00  0.00     0.020 A 
ATOM     67  C   UNL A   1      44.131  35.024  27.856  1.00  0.00     0.020 A 
ATOM     68  C   UNL A   1      45.379  35.605  28.028  1.00  0.00     0.054 A 
BRANCH  68  69
ATOM     69  S   UNL A   1      45.559  37.401  27.954  1.00  0.00     0.124 S 
ATOM     70  O   UNL A   1      45.502  37.648  26.517  1.00  0.00    -0.237 OA
ATOM     71  O   UNL A   1      44.405  37.857  28.724  1.00  0.00    -0.237 OA
ATOM     72  O   UNL A   1      46.855  37.641  28.583  1.00  0.00    -0.744 OA
ENDBRANCH  68  69
ENDBRANCH  49  63
BRANCH  50  73
ATOM     73  C   UNL A   1      36.921  31.374  30.213  1.00  0.00    -0.014 A 
ATOM     74  C   UNL A   1      36.153  32.011  31.207  1.00  0.00     0.010 A 
ATOM     75  C   UNL A   1      36.547  31.585  28.869  1.00  0.00     0.010 A 
ATOM     76  C   UNL A   1      35.114  32.897  30.868  1.00  0.00     0.020 A 
ATOM     77  C   UNL A   1      35.509  32.460  28.523  1.00  0.00     0.020 A 
ATOM     78  C   UNL A   1      34.818  33.138  29.524  1.00  0.00     0.054 A 
BRANCH  78  79
ATOM     79  S   UNL A   1      33.635  34.450  29.087  1.00  0.00     0.124 S 
ATOM     80  O   UNL A   1      34.497  35.456  28.475  1.00  0.00    -0.237 OA
ATOM     81  O   UNL A   1      32.721  33.762  28.178  1.00  0.00    -0.237 OA
ATOM     82  O   UNL A   1      33.051  34.829  30.373  1.00  0.00    -0.744 OA
ENDBRANCH  78  79
ENDBRANCH  50  73
BRANCH  62  83
ATOM     83  C   UNL A   1      42.043  29.624  33.507  1.00  0.00    -0.014 A 
ATOM     84  C   UNL A   1      41.596  28.321  33.206  1.00  0.00     0.010 A 
ATOM     85  C   UNL A   1      42.374  29.920  34.841  1.00  0.00     0.010 A 
ATOM     86  C   UNL A   1      41.456  27.356  34.217  1.00  0.00     0.020 A 
ATOM     87  C   UNL A   1      42.255  28.961  35.849  1.00  0.00     0.020 A 
ATOM     88  C   UNL A   1      41.785  27.685  35.536  1.00  0.00     0.054 A 
BRANCH  88  89
ATOM     89  S   UNL A   1      41.632  26.431  36.839  1.00  0.00     0.124 S 
ATOM     90  O   UNL A   1      42.844  26.641  37.626  1.00  0.00    -0.237 OA
ATOM     91  O   UNL A   1      40.381  26.799  37.499  1.00  0.00    -0.237 OA
ATOM     92  O   UNL A   1      41.584  25.168  36.103  1.00  0.00    -0.744 OA
ENDBRANCH  88  89
ENDBRANCH  62  83
ENDBRANCH  36  37
ENDBRANCH  28  31
ENDBRANCH  26  27
ENDBRANCH   1  26
TORSDOF 15
ENDMDL
