MODEL 1
REMARK VINA RESULT:      -9.9      0.000      0.000
REMARK SMILES CCc1nc(COC)cc(OCC(=O)NCCCNC(=O)c2ccc(-c3c4nc(c(-c5ccc(S(=O)(=O)[O-])cc5)c5ccc([nH]5)c(-c5ccc(S(=O)(=O)[O-])cc5)c5nc(c(-c6ccc(S(=O)(=O)[O-])cc6)c6ccc3[nH]6)C=C5)C=C4)cc2)n1
REMARK SMILES IDX 16 1 15 2 13 3 14 4 12 6 11 7 10 8 3 9 4 10 82 11 5 12 9 13
REMARK SMILES IDX 2 14 1 15 6 16 7 17 8 18 17 19 18 20 19 21 20 22 21 24 22 25
REMARK SMILES IDX 23 26 81 27 24 28 80 29 25 30 26 31 27 32 74 33 28 34 79 35
REMARK SMILES IDX 73 36 75 37 29 38 78 39 72 40 71 41 30 43 60 44 41 45 59 46
REMARK SMILES IDX 42 47 45 48 58 49 76 50 43 51 44 52 57 54 77 55 46 56 31 57
REMARK SMILES IDX 32 58 40 59 33 60 39 61 34 62 35 63 36 64 37 65 38 66 61 67
REMARK SMILES IDX 62 68 70 69 63 70 69 71 64 72 65 73 66 74 67 75 68 76 47 77
REMARK SMILES IDX 48 78 56 79 49 80 55 81 50 82 51 83 52 84 53 85 54 86
REMARK H PARENT 15 5 19 23 75 42 45 53
REMARK Flexibility Score: inf
ROOT
ATOM      1  C   UNL A   1      31.921  26.844  25.456  1.00  0.00     0.117 C 
ENDROOT
BRANCH   1   2
ATOM      2  N   UNL A   1      31.695  25.886  26.524  1.00  0.00    -0.353 N 
ATOM      3  C   UNL A   1      31.593  24.529  26.434  1.00  0.00     0.258 C 
ATOM      4  O   UNL A   1      31.407  23.877  27.465  1.00  0.00    -0.271 OA
ATOM      5  H   UNL A   1      31.602  26.264  27.427  1.00  0.00     0.163 HD
BRANCH   3   6
ATOM      6  C   UNL A   1      31.726  23.843  25.072  1.00  0.00     0.331 C 
BRANCH   6   7
ATOM      7  O   UNL A   1      31.435  22.459  25.036  1.00  0.00    -0.467 OA
BRANCH   7   8
ATOM      8  C   UNL A   1      32.470  21.581  24.898  1.00  0.00     0.217 A 
ATOM      9  C   UNL A   1      32.991  19.351  24.730  1.00  0.00     0.132 A 
ATOM     10  N   UNL A   1      34.310  19.592  24.695  1.00  0.00    -0.235 NA
ATOM     11  N   UNL A   1      32.050  20.307  24.830  1.00  0.00    -0.198 NA
ATOM     12  C   UNL A   1      34.707  20.876  24.793  1.00  0.00     0.074 A 
ATOM     13  C   UNL A   1      33.804  21.918  24.858  1.00  0.00     0.094 A 
BRANCH   9  14
ATOM     14  C   UNL A   1      32.529  17.924  24.597  1.00  0.00     0.074 C 
ATOM     15  C   UNL A   1      33.525  17.043  23.856  1.00  0.00     0.012 C 
ENDBRANCH   9  14
BRANCH  12  16
ATOM     16  C   UNL A   1      36.189  21.152  24.910  1.00  0.00     0.216 C 
BRANCH  16  17
ATOM     17  O   UNL A   1      36.496  22.349  25.633  1.00  0.00    -0.378 OA
ATOM     18  C   UNL A   1      37.890  22.575  25.793  1.00  0.00     0.195 C 
ENDBRANCH  16  17
ENDBRANCH  12  16
ENDBRANCH   7   8
ENDBRANCH   6   7
ENDBRANCH   3   6
ENDBRANCH   1   2
BRANCH   1  19
ATOM     19  C   UNL A   1      33.386  27.243  25.325  1.00  0.00     0.042 C 
BRANCH  19  20
ATOM     20  C   UNL A   1      34.030  27.728  26.621  1.00  0.00     0.118 C 
BRANCH  20  21
ATOM     21  N   UNL A   1      33.644  29.086  26.982  1.00  0.00    -0.352 N 
ATOM     22  C   UNL A   1      34.328  30.051  27.679  1.00  0.00     0.251 C 
ATOM     23  H   UNL A   1      32.747  29.355  26.675  1.00  0.00     0.163 HD
ATOM     24  O   UNL A   1      33.742  31.080  28.011  1.00  0.00    -0.269 OA
BRANCH  22  25
ATOM     25  C   UNL A   1      35.746  29.856  28.051  1.00  0.00     0.039 A 
ATOM     26  C   UNL A   1      36.053  29.448  29.352  1.00  0.00     0.014 A 
ATOM     27  C   UNL A   1      36.775  30.089  27.136  1.00  0.00     0.014 A 
ATOM     28  C   UNL A   1      37.381  29.201  29.710  1.00  0.00     0.010 A 
ATOM     29  C   UNL A   1      38.089  29.767  27.469  1.00  0.00     0.010 A 
ATOM     30  C   UNL A   1      38.407  29.317  28.759  1.00  0.00    -0.014 A 
BRANCH  30  31
ATOM     31  C   UNL A   1      39.812  28.956  29.088  1.00  0.00     0.031 A 
ATOM     32  C   UNL A   1      40.735  29.970  29.710  1.00  0.00     0.074 A 
ATOM     33  C   UNL A   1      40.277  27.731  28.764  1.00  0.00     0.049 A 
ATOM     34  N   UNL A   1      42.004  29.855  30.009  1.00  0.00    -0.248 NA
ATOM     35  C   UNL A   1      40.166  31.292  30.016  1.00  0.00     0.031 C 
ATOM     36  C   UNL A   1      39.496  26.671  28.123  1.00  0.00     0.029 A 
ATOM     37  N   UNL A   1      41.522  27.175  28.922  1.00  0.00    -0.354 N 
ATOM     38  C   UNL A   1      42.387  31.089  30.521  1.00  0.00     0.074 A 
ATOM     39  C   UNL A   1      41.229  31.953  30.446  1.00  0.00     0.031 C 
ATOM     40  C   UNL A   1      40.271  25.585  27.970  1.00  0.00     0.029 A 
ATOM     41  C   UNL A   1      41.614  25.885  28.452  1.00  0.00     0.049 A 
ATOM     42  H   UNL A   1      42.278  27.654  29.333  1.00  0.00     0.167 HD
ATOM     43  C   UNL A   1      43.588  31.465  31.024  1.00  0.00     0.031 A 
ATOM     44  C   UNL A   1      42.663  25.040  28.403  1.00  0.00     0.031 A 
ATOM     45  C   UNL A   1      44.738  30.601  31.099  1.00  0.00     0.049 A 
ATOM     46  C   UNL A   1      43.993  25.489  28.945  1.00  0.00     0.074 A 
ATOM     47  C   UNL A   1      45.983  30.874  31.639  1.00  0.00     0.029 A 
ATOM     48  N   UNL A   1      44.789  29.303  30.614  1.00  0.00    -0.354 N 
ATOM     49  N   UNL A   1      44.315  26.639  29.488  1.00  0.00    -0.248 NA
ATOM     50  C   UNL A   1      45.097  24.521  28.879  1.00  0.00     0.031 C 
ATOM     51  C   UNL A   1      46.804  29.762  31.426  1.00  0.00     0.029 A 
ATOM     52  C   UNL A   1      46.051  28.771  30.818  1.00  0.00     0.049 A 
ATOM     53  H   UNL A   1      44.037  28.829  30.189  1.00  0.00     0.167 HD
ATOM     54  C   UNL A   1      45.652  26.521  29.855  1.00  0.00     0.074 A 
ATOM     55  C   UNL A   1      46.071  25.185  29.488  1.00  0.00     0.031 C 
ATOM     56  C   UNL A   1      46.457  27.438  30.447  1.00  0.00     0.031 A 
BRANCH  43  57
ATOM     57  C   UNL A   1      43.723  32.880  31.527  1.00  0.00    -0.014 A 
ATOM     58  C   UNL A   1      44.142  33.919  30.676  1.00  0.00     0.010 A 
ATOM     59  C   UNL A   1      43.381  33.186  32.858  1.00  0.00     0.010 A 
ATOM     60  C   UNL A   1      44.259  35.226  31.156  1.00  0.00     0.020 A 
ATOM     61  C   UNL A   1      43.467  34.498  33.333  1.00  0.00     0.020 A 
ATOM     62  C   UNL A   1      43.922  35.507  32.482  1.00  0.00     0.054 A 
BRANCH  62  63
ATOM     63  S   UNL A   1      44.062  37.218  33.070  1.00  0.00     0.124 S 
ATOM     64  O   UNL A   1      42.929  37.315  33.986  1.00  0.00    -0.237 OA
ATOM     65  O   UNL A   1      45.380  37.232  33.698  1.00  0.00    -0.237 OA
ATOM     66  O   UNL A   1      43.947  38.015  31.851  1.00  0.00    -0.744 OA
ENDBRANCH  62  63
ENDBRANCH  43  57
BRANCH  44  67
ATOM     67  C   UNL A   1      42.494  23.677  27.825  1.00  0.00    -0.014 A 
ATOM     68  C   UNL A   1      42.772  23.434  26.469  1.00  0.00     0.010 A 
ATOM     69  C   UNL A   1      42.063  22.609  28.635  1.00  0.00     0.010 A 
ATOM     70  C   UNL A   1      42.604  22.155  25.928  1.00  0.00     0.020 A 
ATOM     71  C   UNL A   1      41.923  21.324  28.105  1.00  0.00     0.020 A 
ATOM     72  C   UNL A   1      42.183  21.107  26.752  1.00  0.00     0.054 A 
BRANCH  72  73
ATOM     73  S   UNL A   1      42.018  19.447  26.037  1.00  0.00     0.124 S 
ATOM     74  O   UNL A   1      40.577  19.345  25.834  1.00  0.00    -0.237 OA
ATOM     75  O   UNL A   1      42.825  19.547  24.824  1.00  0.00    -0.237 OA
ATOM     76  O   UNL A   1      42.569  18.574  27.072  1.00  0.00    -0.744 OA
ENDBRANCH  72  73
ENDBRANCH  44  67
BRANCH  56  77
ATOM     77  C   UNL A   1      47.868  27.019  30.774  1.00  0.00    -0.014 A 
ATOM     78  C   UNL A   1      48.932  27.269  29.891  1.00  0.00     0.010 A 
ATOM     79  C   UNL A   1      48.136  26.411  32.015  1.00  0.00     0.010 A 
ATOM     80  C   UNL A   1      50.235  26.891  30.229  1.00  0.00     0.020 A 
ATOM     81  C   UNL A   1      49.441  26.061  32.371  1.00  0.00     0.020 A 
ATOM     82  C   UNL A   1      50.482  26.291  31.469  1.00  0.00     0.054 A 
BRANCH  82  83
ATOM     83  S   UNL A   1      52.187  25.851  31.901  1.00  0.00     0.124 S 
ATOM     84  O   UNL A   1      52.048  24.458  32.312  1.00  0.00    -0.237 OA
ATOM     85  O   UNL A   1      52.901  26.068  30.645  1.00  0.00    -0.237 OA
ATOM     86  O   UNL A   1      52.526  26.787  32.972  1.00  0.00    -0.744 OA
ENDBRANCH  82  83
ENDBRANCH  56  77
ENDBRANCH  30  31
ENDBRANCH  22  25
ENDBRANCH  20  21
ENDBRANCH  19  20
ENDBRANCH   1  19
TORSDOF 18
ENDMDL
MODEL 2
REMARK VINA RESULT:      -9.6      1.291      2.354
REMARK SMILES CCc1nc(COC)cc(OCC(=O)NCCCNC(=O)c2ccc(-c3c4nc(c(-c5ccc(S(=O)(=O)[O-])cc5)c5ccc([nH]5)c(-c5ccc(S(=O)(=O)[O-])cc5)c5nc(c(-c6ccc(S(=O)(=O)[O-])cc6)c6ccc3[nH]6)C=C5)C=C4)cc2)n1
REMARK SMILES IDX 16 1 15 2 13 3 14 4 12 6 11 7 10 8 3 9 4 10 82 11 5 12 9 13
REMARK SMILES IDX 2 14 1 15 6 16 7 17 8 18 17 19 18 20 19 21 20 22 21 24 22 25
REMARK SMILES IDX 23 26 81 27 24 28 80 29 25 30 26 31 27 32 74 33 28 34 79 35
REMARK SMILES IDX 73 36 75 37 29 38 78 39 72 40 71 41 30 43 60 44 41 45 59 46
REMARK SMILES IDX 42 47 45 48 58 49 76 50 43 51 44 52 57 54 77 55 46 56 31 57
REMARK SMILES IDX 32 58 40 59 33 60 39 61 34 62 35 63 36 64 37 65 38 66 61 67
REMARK SMILES IDX 62 68 70 69 63 70 69 71 64 72 65 73 66 74 67 75 68 76 47 77
REMARK SMILES IDX 48 78 56 79 49 80 55 81 50 82 51 83 52 84 53 85 54 86
REMARK H PARENT 15 5 19 23 75 42 45 53
REMARK Flexibility Score: inf
ROOT
ATOM      1  C   UNL A   1      32.346  26.945  24.989  1.00  0.00     0.117 C 
ENDROOT
BRANCH   1   2
ATOM      2  N   UNL A   1      31.760  26.885  23.661  1.00  0.00    -0.353 N 
ATOM      3  C   UNL A   1      32.263  26.292  22.541  1.00  0.00     0.258 C 
ATOM      4  O   UNL A   1      31.608  26.340  21.497  1.00  0.00    -0.271 OA
ATOM      5  H   UNL A   1      30.889  27.331  23.555  1.00  0.00     0.163 HD
BRANCH   3   6
ATOM      6  C   UNL A   1      33.612  25.569  22.602  1.00  0.00     0.331 C 
BRANCH   6   7
ATOM      7  O   UNL A   1      33.642  24.254  22.082  1.00  0.00    -0.467 OA
BRANCH   7   8
ATOM      8  C   UNL A   1      33.819  23.216  22.951  1.00  0.00     0.217 A 
ATOM      9  C   UNL A   1      35.380  22.132  24.239  1.00  0.00     0.132 A 
ATOM     10  N   UNL A   1      34.499  21.204  24.645  1.00  0.00    -0.235 NA
ATOM     11  N   UNL A   1      35.081  23.142  23.403  1.00  0.00    -0.198 NA
ATOM     12  C   UNL A   1      33.247  21.285  24.156  1.00  0.00     0.074 A 
ATOM     13  C   UNL A   1      32.850  22.313  23.325  1.00  0.00     0.094 A 
BRANCH   9  14
ATOM     14  C   UNL A   1      36.778  22.073  24.796  1.00  0.00     0.074 C 
ATOM     15  C   UNL A   1      37.307  23.435  25.222  1.00  0.00     0.012 C 
ENDBRANCH   9  14
BRANCH  12  16
ATOM     16  C   UNL A   1      32.287  20.161  24.480  1.00  0.00     0.216 C 
BRANCH  16  17
ATOM     17  O   UNL A   1      32.821  18.858  24.223  1.00  0.00    -0.378 OA
ATOM     18  C   UNL A   1      32.511  18.363  22.927  1.00  0.00     0.195 C 
ENDBRANCH  16  17
ENDBRANCH  12  16
ENDBRANCH   7   8
ENDBRANCH   6   7
ENDBRANCH   3   6
ENDBRANCH   1   2
BRANCH   1  19
ATOM     19  C   UNL A   1      33.145  28.222  25.220  1.00  0.00     0.042 C 
BRANCH  19  20
ATOM     20  C   UNL A   1      33.576  28.448  26.667  1.00  0.00     0.118 C 
BRANCH  20  21
ATOM     21  N   UNL A   1      33.497  29.845  27.078  1.00  0.00    -0.352 N 
ATOM     22  C   UNL A   1      34.381  30.612  27.795  1.00  0.00     0.251 C 
ATOM     23  H   UNL A   1      32.677  30.312  26.796  1.00  0.00     0.163 HD
ATOM     24  O   UNL A   1      34.036  31.732  28.171  1.00  0.00    -0.269 OA
BRANCH  22  25
ATOM     25  C   UNL A   1      35.726  30.101  28.137  1.00  0.00     0.039 A 
ATOM     26  C   UNL A   1      36.730  30.140  27.165  1.00  0.00     0.014 A 
ATOM     27  C   UNL A   1      36.000  29.567  29.398  1.00  0.00     0.014 A 
ATOM     28  C   UNL A   1      38.023  29.717  27.483  1.00  0.00     0.010 A 
ATOM     29  C   UNL A   1      37.306  29.221  29.738  1.00  0.00     0.010 A 
ATOM     30  C   UNL A   1      38.333  29.293  28.785  1.00  0.00    -0.014 A 
BRANCH  30  31
ATOM     31  C   UNL A   1      39.725  28.941  29.173  1.00  0.00     0.031 A 
ATOM     32  C   UNL A   1      40.605  29.950  29.861  1.00  0.00     0.074 A 
ATOM     33  C   UNL A   1      40.220  27.728  28.846  1.00  0.00     0.049 A 
ATOM     34  N   UNL A   1      41.860  29.842  30.218  1.00  0.00    -0.248 NA
ATOM     35  C   UNL A   1      40.006  31.258  30.168  1.00  0.00     0.031 C 
ATOM     36  C   UNL A   1      39.482  26.674  28.145  1.00  0.00     0.029 A 
ATOM     37  N   UNL A   1      41.462  27.182  29.051  1.00  0.00    -0.354 N 
ATOM     38  C   UNL A   1      42.203  31.069  30.774  1.00  0.00     0.074 A 
ATOM     39  C   UNL A   1      41.040  31.922  30.662  1.00  0.00     0.031 C 
ATOM     40  C   UNL A   1      40.276  25.600  28.005  1.00  0.00     0.029 A 
ATOM     41  C   UNL A   1      41.592  25.904  28.558  1.00  0.00     0.049 A 
ATOM     42  H   UNL A   1      42.192  27.659  29.508  1.00  0.00     0.167 HD
ATOM     43  C   UNL A   1      43.374  31.446  31.342  1.00  0.00     0.031 A 
ATOM     44  C   UNL A   1      42.651  25.072  28.541  1.00  0.00     0.031 A 
ATOM     45  C   UNL A   1      44.530  30.593  31.453  1.00  0.00     0.049 A 
ATOM     46  C   UNL A   1      43.948  25.522  29.156  1.00  0.00     0.074 A 
ATOM     47  C   UNL A   1      45.744  30.867  32.059  1.00  0.00     0.029 A 
ATOM     48  N   UNL A   1      44.619  29.307  30.943  1.00  0.00    -0.354 N 
ATOM     49  N   UNL A   1      44.231  26.663  29.738  1.00  0.00    -0.248 NA
ATOM     50  C   UNL A   1      45.066  24.569  29.121  1.00  0.00     0.031 C 
ATOM     51  C   UNL A   1      46.587  29.769  31.861  1.00  0.00     0.029 A 
ATOM     52  C   UNL A   1      45.877  28.784  31.196  1.00  0.00     0.049 A 
ATOM     53  H   UNL A   1      43.894  28.834  30.473  1.00  0.00     0.167 HD
ATOM     54  C   UNL A   1      45.550  26.552  30.167  1.00  0.00     0.074 A 
ATOM     55  C   UNL A   1      46.002  25.229  29.791  1.00  0.00     0.031 C 
ATOM     56  C   UNL A   1      46.315  27.464  30.816  1.00  0.00     0.031 A 
BRANCH  43  57
ATOM     57  C   UNL A   1      43.469  32.851  31.881  1.00  0.00    -0.014 A 
ATOM     58  C   UNL A   1      43.785  33.934  31.041  1.00  0.00     0.010 A 
ATOM     59  C   UNL A   1      43.191  33.100  33.239  1.00  0.00     0.010 A 
ATOM     60  C   UNL A   1      43.865  35.231  31.555  1.00  0.00     0.020 A 
ATOM     61  C   UNL A   1      43.239  34.400  33.750  1.00  0.00     0.020 A 
ATOM     62  C   UNL A   1      43.593  35.455  32.908  1.00  0.00     0.054 A 
BRANCH  62  63
ATOM     63  S   UNL A   1      43.683  37.154  33.541  1.00  0.00     0.124 S 
ATOM     64  O   UNL A   1      44.818  37.073  34.457  1.00  0.00    -0.237 OA
ATOM     65  O   UNL A   1      43.908  37.935  32.328  1.00  0.00    -0.237 OA
ATOM     66  O   UNL A   1      42.384  37.357  34.176  1.00  0.00    -0.744 OA
ENDBRANCH  62  63
ENDBRANCH  43  57
BRANCH  44  67
ATOM     67  C   UNL A   1      42.527  23.720  27.927  1.00  0.00    -0.014 A 
ATOM     68  C   UNL A   1      42.960  23.489  26.610  1.00  0.00     0.010 A 
ATOM     69  C   UNL A   1      41.981  22.651  28.663  1.00  0.00     0.010 A 
ATOM     70  C   UNL A   1      42.832  22.221  26.033  1.00  0.00     0.020 A 
ATOM     71  C   UNL A   1      41.881  21.375  28.100  1.00  0.00     0.020 A 
ATOM     72  C   UNL A   1      42.296  21.171  26.784  1.00  0.00     0.054 A 
BRANCH  72  73
ATOM     73  S   UNL A   1      42.187  19.524  26.030  1.00  0.00     0.124 S 
ATOM     74  O   UNL A   1      43.068  19.660  24.875  1.00  0.00    -0.237 OA
ATOM     75  O   UNL A   1      42.671  18.656  27.099  1.00  0.00    -0.237 OA
ATOM     76  O   UNL A   1      40.765  19.385  25.721  1.00  0.00    -0.744 OA
ENDBRANCH  72  73
ENDBRANCH  44  67
BRANCH  56  77
ATOM     77  C   UNL A   1      47.713  27.053  31.201  1.00  0.00    -0.014 A 
ATOM     78  C   UNL A   1      47.985  26.445  32.439  1.00  0.00     0.010 A 
ATOM     79  C   UNL A   1      48.763  27.231  30.281  1.00  0.00     0.010 A 
ATOM     80  C   UNL A   1      49.287  26.052  32.763  1.00  0.00     0.020 A 
ATOM     81  C   UNL A   1      50.060  26.810  30.587  1.00  0.00     0.020 A 
ATOM     82  C   UNL A   1      50.317  26.235  31.833  1.00  0.00     0.054 A 
BRANCH  82  83
ATOM     83  S   UNL A   1      51.988  25.675  32.260  1.00  0.00     0.124 S 
ATOM     84  O   UNL A   1      52.802  26.350  31.255  1.00  0.00    -0.237 OA
ATOM     85  O   UNL A   1      52.147  26.161  33.629  1.00  0.00    -0.237 OA
ATOM     86  O   UNL A   1      51.911  24.221  32.127  1.00  0.00    -0.744 OA
ENDBRANCH  82  83
ENDBRANCH  56  77
ENDBRANCH  30  31
ENDBRANCH  22  25
ENDBRANCH  20  21
ENDBRANCH  19  20
ENDBRANCH   1  19
TORSDOF 18
ENDMDL
MODEL 3
REMARK VINA RESULT:      -9.4      3.245      9.374
REMARK SMILES CCc1nc(COC)cc(OCC(=O)NCCCNC(=O)c2ccc(-c3c4nc(c(-c5ccc(S(=O)(=O)[O-])cc5)c5ccc([nH]5)c(-c5ccc(S(=O)(=O)[O-])cc5)c5nc(c(-c6ccc(S(=O)(=O)[O-])cc6)c6ccc3[nH]6)C=C5)C=C4)cc2)n1
REMARK SMILES IDX 16 1 15 2 13 3 14 4 12 6 11 7 10 8 3 9 4 10 82 11 5 12 9 13
REMARK SMILES IDX 2 14 1 15 6 16 7 17 8 18 17 19 18 20 19 21 20 22 21 24 22 25
REMARK SMILES IDX 23 26 81 27 24 28 80 29 25 30 26 31 27 32 74 33 28 34 79 35
REMARK SMILES IDX 73 36 75 37 29 38 78 39 72 40 71 41 30 43 60 44 41 45 59 46
REMARK SMILES IDX 42 47 45 48 58 49 76 50 43 51 44 52 57 54 77 55 46 56 31 57
REMARK SMILES IDX 32 58 40 59 33 60 39 61 34 62 35 63 36 64 37 65 38 66 61 67
REMARK SMILES IDX 62 68 70 69 63 70 69 71 64 72 65 73 66 74 67 75 68 76 47 77
REMARK SMILES IDX 48 78 56 79 49 80 55 81 50 82 51 83 52 84 53 85 54 86
REMARK H PARENT 15 5 19 23 75 42 45 53
REMARK Flexibility Score: inf
ROOT
ATOM      1  C   UNL A   1      33.804  23.856  26.184  1.00  0.00     0.117 C 
ENDROOT
BRANCH   1   2
ATOM      2  N   UNL A   1      32.684  23.451  27.016  1.00  0.00    -0.353 N 
ATOM      3  C   UNL A   1      31.354  23.491  26.720  1.00  0.00     0.258 C 
ATOM      4  O   UNL A   1      30.545  23.092  27.561  1.00  0.00    -0.271 OA
ATOM      5  H   UNL A   1      32.914  23.106  27.908  1.00  0.00     0.163 HD
BRANCH   3   6
ATOM      6  C   UNL A   1      30.891  24.009  25.354  1.00  0.00     0.331 C 
BRANCH   6   7
ATOM      7  O   UNL A   1      30.155  25.217  25.359  1.00  0.00    -0.467 OA
BRANCH   7   8
ATOM      8  C   UNL A   1      30.265  26.049  24.283  1.00  0.00     0.217 A 
ATOM      9  C   UNL A   1      31.420  26.397  22.329  1.00  0.00     0.132 A 
ATOM     10  N   UNL A   1      30.768  27.541  22.069  1.00  0.00    -0.235 NA
ATOM     11  N   UNL A   1      31.199  25.632  23.413  1.00  0.00    -0.198 NA
ATOM     12  C   UNL A   1      29.856  27.952  22.972  1.00  0.00     0.074 A 
ATOM     13  C   UNL A   1      29.543  27.204  24.089  1.00  0.00     0.094 A 
BRANCH   9  14
ATOM     14  C   UNL A   1      32.424  25.910  21.319  1.00  0.00     0.074 C 
ATOM     15  C   UNL A   1      33.668  25.309  21.959  1.00  0.00     0.012 C 
ENDBRANCH   9  14
BRANCH  12  16
ATOM     16  C   UNL A   1      29.227  29.313  22.773  1.00  0.00     0.216 C 
BRANCH  16  17
ATOM     17  O   UNL A   1      29.261  29.769  21.416  1.00  0.00    -0.378 OA
ATOM     18  C   UNL A   1      28.122  30.535  21.046  1.00  0.00     0.195 C 
ENDBRANCH  16  17
ENDBRANCH  12  16
ENDBRANCH   7   8
ENDBRANCH   6   7
ENDBRANCH   3   6
ENDBRANCH   1   2
BRANCH   1  19
ATOM     19  C   UNL A   1      34.940  22.839  26.195  1.00  0.00     0.042 C 
BRANCH  19  20
ATOM     20  C   UNL A   1      36.330  23.438  25.998  1.00  0.00     0.118 C 
BRANCH  20  21
ATOM     21  N   UNL A   1      37.401  22.457  26.123  1.00  0.00    -0.352 N 
ATOM     22  C   UNL A   1      38.734  22.626  26.406  1.00  0.00     0.251 C 
ATOM     23  H   UNL A   1      37.123  21.523  25.982  1.00  0.00     0.163 HD
ATOM     24  O   UNL A   1      39.496  21.666  26.301  1.00  0.00    -0.269 OA
BRANCH  22  25
ATOM     25  C   UNL A   1      39.262  23.947  26.810  1.00  0.00     0.039 A 
ATOM     26  C   UNL A   1      39.180  24.325  28.154  1.00  0.00     0.014 A 
ATOM     27  C   UNL A   1      39.818  24.823  25.875  1.00  0.00     0.014 A 
ATOM     28  C   UNL A   1      39.724  25.543  28.569  1.00  0.00     0.010 A 
ATOM     29  C   UNL A   1      40.431  26.000  26.303  1.00  0.00     0.010 A 
ATOM     30  C   UNL A   1      40.393  26.372  27.655  1.00  0.00    -0.014 A 
BRANCH  30  31
ATOM     31  C   UNL A   1      41.072  27.620  28.095  1.00  0.00     0.031 A 
ATOM     32  C   UNL A   1      42.570  27.741  28.020  1.00  0.00     0.074 A 
ATOM     33  C   UNL A   1      40.341  28.623  28.626  1.00  0.00     0.049 A 
ATOM     34  N   UNL A   1      43.338  28.725  28.414  1.00  0.00    -0.248 NA
ATOM     35  C   UNL A   1      43.304  26.600  27.450  1.00  0.00     0.031 C 
ATOM     36  C   UNL A   1      38.885  28.615  28.790  1.00  0.00     0.029 A 
ATOM     37  N   UNL A   1      40.724  29.839  29.134  1.00  0.00    -0.354 N 
ATOM     38  C   UNL A   1      44.642  28.316  28.155  1.00  0.00     0.074 A 
ATOM     39  C   UNL A   1      44.564  26.975  27.617  1.00  0.00     0.031 C 
ATOM     40  C   UNL A   1      38.497  29.781  29.331  1.00  0.00     0.029 A 
ATOM     41  C   UNL A   1      39.676  30.598  29.600  1.00  0.00     0.049 A 
ATOM     42  H   UNL A   1      41.661  30.141  29.162  1.00  0.00     0.167 HD
ATOM     43  C   UNL A   1      45.798  29.001  28.332  1.00  0.00     0.031 A 
ATOM     44  C   UNL A   1      39.661  31.810  30.189  1.00  0.00     0.031 A 
ATOM     45  C   UNL A   1      45.872  30.336  28.867  1.00  0.00     0.049 A 
ATOM     46  C   UNL A   1      40.960  32.540  30.397  1.00  0.00     0.074 A 
ATOM     47  C   UNL A   1      46.992  31.132  29.036  1.00  0.00     0.029 A 
ATOM     48  N   UNL A   1      44.788  31.069  29.325  1.00  0.00    -0.354 N 
ATOM     49  N   UNL A   1      42.176  32.163  30.082  1.00  0.00    -0.248 NA
ATOM     50  C   UNL A   1      40.883  33.864  31.031  1.00  0.00     0.031 C 
ATOM     51  C   UNL A   1      46.592  32.322  29.652  1.00  0.00     0.029 A 
ATOM     52  C   UNL A   1      45.215  32.297  29.802  1.00  0.00     0.049 A 
ATOM     53  H   UNL A   1      43.852  30.762  29.311  1.00  0.00     0.167 HD
ATOM     54  C   UNL A   1      43.006  33.217  30.452  1.00  0.00     0.074 A 
ATOM     55  C   UNL A   1      42.151  34.251  30.998  1.00  0.00     0.031 C 
ATOM     56  C   UNL A   1      44.354  33.319  30.344  1.00  0.00     0.031 A 
BRANCH  43  57
ATOM     57  C   UNL A   1      47.084  28.310  27.953  1.00  0.00    -0.014 A 
ATOM     58  C   UNL A   1      47.804  27.546  28.888  1.00  0.00     0.010 A 
ATOM     59  C   UNL A   1      47.555  28.388  26.629  1.00  0.00     0.010 A 
ATOM     60  C   UNL A   1      48.992  26.909  28.520  1.00  0.00     0.020 A 
ATOM     61  C   UNL A   1      48.727  27.726  26.249  1.00  0.00     0.020 A 
ATOM     62  C   UNL A   1      49.447  27.005  27.202  1.00  0.00     0.054 A 
BRANCH  62  63
ATOM     63  S   UNL A   1      50.981  26.148  26.749  1.00  0.00     0.124 S 
ATOM     64  O   UNL A   1      50.976  26.274  25.294  1.00  0.00    -0.237 OA
ATOM     65  O   UNL A   1      52.000  26.930  27.444  1.00  0.00    -0.237 OA
ATOM     66  O   UNL A   1      50.786  24.793  27.257  1.00  0.00    -0.744 OA
ENDBRANCH  62  63
ENDBRANCH  43  57
BRANCH  44  67
ATOM     67  C   UNL A   1      38.368  32.416  30.615  1.00  0.00    -0.014 A 
ATOM     68  C   UNL A   1      37.631  33.225  29.733  1.00  0.00     0.010 A 
ATOM     69  C   UNL A   1      37.861  32.177  31.906  1.00  0.00     0.010 A 
ATOM     70  C   UNL A   1      36.422  33.800  30.139  1.00  0.00     0.020 A 
ATOM     71  C   UNL A   1      36.639  32.724  32.305  1.00  0.00     0.020 A 
ATOM     72  C   UNL A   1      35.933  33.542  31.423  1.00  0.00     0.054 A 
BRANCH  72  73
ATOM     73  S   UNL A   1      34.338  34.261  31.909  1.00  0.00     0.124 S 
ATOM     74  O   UNL A   1      34.747  35.520  32.523  1.00  0.00    -0.237 OA
ATOM     75  O   UNL A   1      33.642  34.374  30.631  1.00  0.00    -0.237 OA
ATOM     76  O   UNL A   1      33.783  33.268  32.826  1.00  0.00    -0.744 OA
ENDBRANCH  72  73
ENDBRANCH  44  67
BRANCH  56  77
ATOM     77  C   UNL A   1      44.993  34.610  30.790  1.00  0.00    -0.014 A 
ATOM     78  C   UNL A   1      45.137  35.699  29.912  1.00  0.00     0.010 A 
ATOM     79  C   UNL A   1      45.406  34.749  32.128  1.00  0.00     0.010 A 
ATOM     80  C   UNL A   1      45.712  36.893  30.357  1.00  0.00     0.020 A 
ATOM     81  C   UNL A   1      45.952  35.951  32.585  1.00  0.00     0.020 A 
ATOM     82  C   UNL A   1      46.114  37.013  31.692  1.00  0.00     0.054 A 
BRANCH  82  83
ATOM     83  S   UNL A   1      46.815  38.587  32.254  1.00  0.00     0.124 S 
ATOM     84  O   UNL A   1      46.458  38.593  33.669  1.00  0.00    -0.237 OA
ATOM     85  O   UNL A   1      48.239  38.424  31.965  1.00  0.00    -0.237 OA
ATOM     86  O   UNL A   1      46.130  39.585  31.434  1.00  0.00    -0.744 OA
ENDBRANCH  82  83
ENDBRANCH  56  77
ENDBRANCH  30  31
ENDBRANCH  22  25
ENDBRANCH  20  21
ENDBRANCH  19  20
ENDBRANCH   1  19
TORSDOF 18
ENDMDL
