MODEL 1
REMARK VINA RESULT:     -12.5      0.000      0.000
REMARK SMILES O=C(NCCCNC(=O)[C@H]1C[C@H](O)CN1S(=O)(=O)c1ccc2c(c1)OCCO2)c1ccc(-c2c3nc(c(-c4ccc(S(=O)(=O)[O-])cc4)c4ccc([nH]4)c(-c4ccc(S(=O)(=O)[O-])cc4)c4nc(c(-c5ccc(S(=O)(=O)[O-])cc5)c5ccc2[nH]5)C=C4)C=C3)cc1
REMARK SMILES IDX 4 1 3 2 1 3 2 4 29 6 30 7 88 8 31 9 87 10 32 11 33 12 34 13
REMARK SMILES IDX 81 14 35 15 86 16 80 17 82 18 36 19 85 20 79 21 78 22 37 24
REMARK SMILES IDX 67 25 48 26 66 27 49 28 52 29 65 30 83 31 50 32 51 33 64 35
REMARK SMILES IDX 84 36 53 37 38 38 39 39 47 40 40 41 46 42 41 43 42 44 43 45
REMARK SMILES IDX 44 46 45 47 68 48 69 49 77 50 70 51 76 52 71 53 72 54 73 55
REMARK SMILES IDX 74 56 75 57 54 58 55 59 63 60 56 61 62 62 57 63 58 64 59 65
REMARK SMILES IDX 60 66 61 67 5 68 6 69 7 70 8 71 9 73 10 74 11 75 15 76 12 77
REMARK SMILES IDX 14 78 16 79 17 80 18 81 19 82 20 83 24 84 21 85 23 86 22 87
REMARK SMILES IDX 25 88 28 89 26 90 27 91 13 92
REMARK H PARENT 3 5 82 23 52 34 7 72 13 93
REMARK Flexibility Score: inf
ROOT
ATOM      1  C   UNL A   1      39.621  23.490  27.003  1.00  0.00     0.118 C 
ENDROOT
BRANCH   1   2
ATOM      2  N   UNL A   1      40.455  24.212  26.039  1.00  0.00    -0.352 N 
ATOM      3  O   UNL A   1      41.435  25.997  25.054  1.00  0.00    -0.269 OA
ATOM      4  C   UNL A   1      40.860  25.528  26.032  1.00  0.00     0.251 C 
ATOM      5  H   UNL A   1      40.777  23.674  25.280  1.00  0.00     0.163 HD
BRANCH   4   6
ATOM      6  C   UNL A   1      40.567  26.375  27.203  1.00  0.00     0.039 A 
ATOM      7  C   UNL A   1      41.194  27.612  27.326  1.00  0.00     0.014 A 
ATOM      8  C   UNL A   1      39.705  25.918  28.204  1.00  0.00     0.014 A 
ATOM      9  C   UNL A   1      41.146  28.280  28.535  1.00  0.00     0.010 A 
ATOM     10  C   UNL A   1      39.539  26.673  29.370  1.00  0.00     0.010 A 
ATOM     11  C   UNL A   1      40.292  27.840  29.560  1.00  0.00    -0.014 A 
BRANCH  11  12
ATOM     12  C   UNL A   1      40.177  28.692  30.770  1.00  0.00     0.031 A 
ATOM     13  C   UNL A   1      41.175  28.616  31.891  1.00  0.00     0.074 A 
ATOM     14  C   UNL A   1      39.206  29.629  30.775  1.00  0.00     0.049 A 
ATOM     15  N   UNL A   1      41.260  29.371  32.956  1.00  0.00    -0.248 NA
ATOM     16  C   UNL A   1      42.197  27.560  31.823  1.00  0.00     0.031 C 
ATOM     17  C   UNL A   1      38.176  29.777  29.737  1.00  0.00     0.029 A 
ATOM     18  N   UNL A   1      38.964  30.672  31.627  1.00  0.00    -0.354 N 
ATOM     19  C   UNL A   1      42.319  28.866  33.701  1.00  0.00     0.074 A 
ATOM     20  C   UNL A   1      42.844  27.733  32.970  1.00  0.00     0.031 C 
ATOM     21  C   UNL A   1      37.493  30.908  29.953  1.00  0.00     0.029 A 
ATOM     22  C   UNL A   1      37.969  31.514  31.188  1.00  0.00     0.049 A 
ATOM     23  H   UNL A   1      39.452  30.805  32.472  1.00  0.00     0.167 HD
ATOM     24  C   UNL A   1      42.802  29.308  34.887  1.00  0.00     0.031 A 
ATOM     25  C   UNL A   1      37.483  32.649  31.721  1.00  0.00     0.031 A 
ATOM     26  C   UNL A   1      42.274  30.444  35.598  1.00  0.00     0.049 A 
ATOM     27  C   UNL A   1      38.063  33.134  33.013  1.00  0.00     0.074 A 
ATOM     28  C   UNL A   1      42.676  30.964  36.816  1.00  0.00     0.029 A 
ATOM     29  N   UNL A   1      41.238  31.249  35.145  1.00  0.00    -0.354 N 
ATOM     30  N   UNL A   1      39.046  32.619  33.713  1.00  0.00    -0.248 NA
ATOM     31  C   UNL A   1      37.463  34.340  33.594  1.00  0.00     0.031 C 
ATOM     32  C   UNL A   1      41.863  32.065  37.113  1.00  0.00     0.029 A 
ATOM     33  C   UNL A   1      40.984  32.256  36.060  1.00  0.00     0.049 A 
ATOM     34  H   UNL A   1      40.754  31.121  34.296  1.00  0.00     0.167 HD
ATOM     35  C   UNL A   1      39.166  33.426  34.835  1.00  0.00     0.074 A 
ATOM     36  C   UNL A   1      38.192  34.491  34.691  1.00  0.00     0.031 C 
ATOM     37  C   UNL A   1      39.991  33.287  35.901  1.00  0.00     0.031 A 
BRANCH  24  38
ATOM     38  C   UNL A   1      43.942  28.546  35.509  1.00  0.00    -0.014 A 
ATOM     39  C   UNL A   1      43.708  27.454  36.362  1.00  0.00     0.010 A 
ATOM     40  C   UNL A   1      45.268  28.890  35.186  1.00  0.00     0.010 A 
ATOM     41  C   UNL A   1      44.779  26.735  36.902  1.00  0.00     0.020 A 
ATOM     42  C   UNL A   1      46.342  28.159  35.707  1.00  0.00     0.020 A 
ATOM     43  C   UNL A   1      46.090  27.093  36.573  1.00  0.00     0.054 A 
BRANCH  43  44
ATOM     44  S   UNL A   1      47.461  26.120  37.256  1.00  0.00     0.124 S 
ATOM     45  O   UNL A   1      47.518  26.608  38.632  1.00  0.00    -0.237 OA
ATOM     46  O   UNL A   1      46.991  24.747  37.098  1.00  0.00    -0.237 OA
ATOM     47  O   UNL A   1      48.599  26.487  36.416  1.00  0.00    -0.744 OA
ENDBRANCH  43  44
ENDBRANCH  24  38
BRANCH  25  48
ATOM     48  C   UNL A   1      36.367  33.361  31.046  1.00  0.00    -0.014 A 
ATOM     49  C   UNL A   1      35.160  33.617  31.718  1.00  0.00     0.010 A 
ATOM     50  C   UNL A   1      36.532  33.830  29.729  1.00  0.00     0.010 A 
ATOM     51  C   UNL A   1      34.133  34.320  31.080  1.00  0.00     0.020 A 
ATOM     52  C   UNL A   1      35.522  34.560  29.102  1.00  0.00     0.020 A 
ATOM     53  C   UNL A   1      34.322  34.788  29.776  1.00  0.00     0.054 A 
BRANCH  53  54
ATOM     54  S   UNL A   1      33.011  35.758  28.982  1.00  0.00     0.124 S 
ATOM     55  O   UNL A   1      32.210  36.175  30.128  1.00  0.00    -0.237 OA
ATOM     56  O   UNL A   1      33.754  36.820  28.310  1.00  0.00    -0.237 OA
ATOM     57  O   UNL A   1      32.374  34.793  28.087  1.00  0.00    -0.744 OA
ENDBRANCH  53  54
ENDBRANCH  25  48
BRANCH  37  58
ATOM     58  C   UNL A   1      39.851  34.312  36.987  1.00  0.00    -0.014 A 
ATOM     59  C   UNL A   1      39.018  34.071  38.095  1.00  0.00     0.010 A 
ATOM     60  C   UNL A   1      40.549  35.529  36.897  1.00  0.00     0.010 A 
ATOM     61  C   UNL A   1      38.846  35.052  39.073  1.00  0.00     0.020 A 
ATOM     62  C   UNL A   1      40.396  36.503  37.885  1.00  0.00     0.020 A 
ATOM     63  C   UNL A   1      39.529  36.266  38.955  1.00  0.00     0.054 A 
BRANCH  63  64
ATOM     64  S   UNL A   1      39.295  37.530  40.235  1.00  0.00     0.124 S 
ATOM     65  O   UNL A   1      40.624  38.130  40.312  1.00  0.00    -0.237 OA
ATOM     66  O   UNL A   1      38.253  38.381  39.665  1.00  0.00    -0.237 OA
ATOM     67  O   UNL A   1      38.888  36.759  41.407  1.00  0.00    -0.744 OA
ENDBRANCH  63  64
ENDBRANCH  37  58
ENDBRANCH  11  12
ENDBRANCH   4   6
ENDBRANCH   1   2
BRANCH   1  68
ATOM     68  C   UNL A   1      39.188  22.123  26.503  1.00  0.00     0.042 C 
BRANCH  68  69
ATOM     69  C   UNL A   1      37.997  22.223  25.578  1.00  0.00     0.117 C 
BRANCH  69  70
ATOM     70  N   UNL A   1      36.907  23.009  26.107  1.00  0.00    -0.355 N 
ATOM     71  C   UNL A   1      35.570  22.748  26.117  1.00  0.00     0.238 C 
ATOM     72  H   UNL A   1      37.168  23.862  26.523  1.00  0.00     0.163 HD
ATOM     73  O   UNL A   1      34.860  23.519  26.772  1.00  0.00    -0.273 OA
BRANCH  71  74
ATOM     74  C   UNL A   1      34.934  21.648  25.272  1.00  0.00     0.165 C 
ATOM     75  C   UNL A   1      34.006  20.766  26.118  1.00  0.00     0.063 C 
ATOM     76  N   UNL A   1      34.224  21.911  23.984  1.00  0.00    -0.183 NA
ATOM     77  C   UNL A   1      32.648  20.813  25.449  1.00  0.00     0.131 C 
ATOM     78  C   UNL A   1      32.928  21.208  24.002  1.00  0.00     0.135 C 
BRANCH  76  79
ATOM     79  S   UNL A   1      34.457  23.390  23.211  1.00  0.00     0.244 S 
ATOM     80  O   UNL A   1      35.834  23.796  23.374  1.00  0.00    -0.207 OA
ATOM     81  O   UNL A   1      33.865  23.292  21.905  1.00  0.00    -0.207 OA
BRANCH  79  82
ATOM     82  C   UNL A   1      33.557  24.616  24.130  1.00  0.00     0.086 A 
ATOM     83  C   UNL A   1      32.242  24.368  24.534  1.00  0.00     0.026 A 
ATOM     84  C   UNL A   1      34.075  25.916  24.178  1.00  0.00     0.072 A 
ATOM     85  C   UNL A   1      31.453  25.429  24.991  1.00  0.00     0.052 A 
ATOM     86  C   UNL A   1      33.307  26.952  24.686  1.00  0.00     0.162 A 
ATOM     87  C   UNL A   1      31.981  26.720  25.053  1.00  0.00     0.161 A 
ATOM     88  O   UNL A   1      33.914  28.178  24.751  1.00  0.00    -0.486 OA
ATOM     89  O   UNL A   1      31.139  27.727  25.456  1.00  0.00    -0.486 OA
ATOM     90  C   UNL A   1      33.147  29.086  25.547  1.00  0.00     0.271 C 
ATOM     91  C   UNL A   1      31.684  29.017  25.141  1.00  0.00     0.271 C 
ENDBRANCH  79  82
ENDBRANCH  76  79
BRANCH  77  92
ATOM     92  O   UNL A   1      32.011  19.544  25.522  1.00  0.00    -0.392 OA
ATOM     93  H   UNL A   1      31.757  19.363  26.442  1.00  0.00     0.211 HD
ENDBRANCH  77  92
ENDBRANCH  71  74
ENDBRANCH  69  70
ENDBRANCH  68  69
ENDBRANCH   1  68
TORSDOF 16
ENDMDL
MODEL 2
REMARK VINA RESULT:     -12.5      1.225      1.773
REMARK SMILES O=C(NCCCNC(=O)[C@H]1C[C@H](O)CN1S(=O)(=O)c1ccc2c(c1)OCCO2)c1ccc(-c2c3nc(c(-c4ccc(S(=O)(=O)[O-])cc4)c4ccc([nH]4)c(-c4ccc(S(=O)(=O)[O-])cc4)c4nc(c(-c5ccc(S(=O)(=O)[O-])cc5)c5ccc2[nH]5)C=C4)C=C3)cc1
REMARK SMILES IDX 4 1 3 2 1 3 2 4 29 6 30 7 88 8 31 9 87 10 32 11 33 12 34 13
REMARK SMILES IDX 81 14 35 15 86 16 80 17 82 18 36 19 85 20 79 21 78 22 37 24
REMARK SMILES IDX 67 25 48 26 66 27 49 28 52 29 65 30 83 31 50 32 51 33 64 35
REMARK SMILES IDX 84 36 53 37 38 38 39 39 47 40 40 41 46 42 41 43 42 44 43 45
REMARK SMILES IDX 44 46 45 47 68 48 69 49 77 50 70 51 76 52 71 53 72 54 73 55
REMARK SMILES IDX 74 56 75 57 54 58 55 59 63 60 56 61 62 62 57 63 58 64 59 65
REMARK SMILES IDX 60 66 61 67 5 68 6 69 7 70 8 71 9 73 10 74 11 75 15 76 12 77
REMARK SMILES IDX 14 78 16 79 17 80 18 81 19 82 20 83 24 84 21 85 23 86 22 87
REMARK SMILES IDX 25 88 28 89 26 90 27 91 13 92
REMARK H PARENT 3 5 82 23 52 34 7 72 13 93
REMARK Flexibility Score: inf
ROOT
ATOM      1  C   UNL A   1      38.513  24.127  26.533  1.00  0.00     0.118 C 
ENDROOT
BRANCH   1   2
ATOM      2  N   UNL A   1      39.768  24.530  25.894  1.00  0.00    -0.352 N 
ATOM      3  O   UNL A   1      41.534  25.861  25.421  1.00  0.00    -0.269 OA
ATOM      4  C   UNL A   1      40.599  25.593  26.169  1.00  0.00     0.251 C 
ATOM      5  H   UNL A   1      40.063  23.952  25.154  1.00  0.00     0.163 HD
BRANCH   4   6
ATOM      6  C   UNL A   1      40.331  26.425  27.357  1.00  0.00     0.039 A 
ATOM      7  C   UNL A   1      40.831  27.723  27.410  1.00  0.00     0.014 A 
ATOM      8  C   UNL A   1      39.622  25.896  28.440  1.00  0.00     0.014 A 
ATOM      9  C   UNL A   1      40.828  28.402  28.613  1.00  0.00     0.010 A 
ATOM     10  C   UNL A   1      39.490  26.649  29.611  1.00  0.00     0.010 A 
ATOM     11  C   UNL A   1      40.129  27.892  29.720  1.00  0.00    -0.014 A 
BRANCH  11  12
ATOM     12  C   UNL A   1      40.040  28.748  30.929  1.00  0.00     0.031 A 
ATOM     13  C   UNL A   1      41.030  28.635  32.054  1.00  0.00     0.074 A 
ATOM     14  C   UNL A   1      39.104  29.719  30.931  1.00  0.00     0.049 A 
ATOM     15  N   UNL A   1      41.138  29.386  33.120  1.00  0.00    -0.248 NA
ATOM     16  C   UNL A   1      42.013  27.542  31.990  1.00  0.00     0.031 C 
ATOM     17  C   UNL A   1      38.085  29.905  29.889  1.00  0.00     0.029 A 
ATOM     18  N   UNL A   1      38.897  30.770  31.782  1.00  0.00    -0.354 N 
ATOM     19  C   UNL A   1      42.176  28.843  33.869  1.00  0.00     0.074 A 
ATOM     20  C   UNL A   1      42.662  27.691  33.139  1.00  0.00     0.031 C 
ATOM     21  C   UNL A   1      37.442  31.060  30.102  1.00  0.00     0.029 A 
ATOM     22  C   UNL A   1      37.935  31.648  31.339  1.00  0.00     0.049 A 
ATOM     23  H   UNL A   1      39.386  30.885  32.629  1.00  0.00     0.167 HD
ATOM     24  C   UNL A   1      42.670  29.266  35.057  1.00  0.00     0.031 A 
ATOM     25  C   UNL A   1      37.489  32.800  31.871  1.00  0.00     0.031 A 
ATOM     26  C   UNL A   1      42.180  30.421  35.766  1.00  0.00     0.049 A 
ATOM     27  C   UNL A   1      38.081  33.263  33.165  1.00  0.00     0.074 A 
ATOM     28  C   UNL A   1      42.596  30.926  36.986  1.00  0.00     0.029 A 
ATOM     29  N   UNL A   1      41.176  31.263  35.309  1.00  0.00    -0.354 N 
ATOM     30  N   UNL A   1      39.041  32.713  33.869  1.00  0.00    -0.248 NA
ATOM     31  C   UNL A   1      37.523  34.490  33.744  1.00  0.00     0.031 C 
ATOM     32  C   UNL A   1      41.823  32.055  37.280  1.00  0.00     0.029 A 
ATOM     33  C   UNL A   1      40.956  32.279  36.223  1.00  0.00     0.049 A 
ATOM     34  H   UNL A   1      40.692  31.153  34.459  1.00  0.00     0.167 HD
ATOM     35  C   UNL A   1      39.186  33.515  34.992  1.00  0.00     0.074 A 
ATOM     36  C   UNL A   1      38.253  34.615  34.844  1.00  0.00     0.031 C 
ATOM     37  C   UNL A   1      40.002  33.345  36.061  1.00  0.00     0.031 A 
BRANCH  24  38
ATOM     38  C   UNL A   1      43.779  28.463  35.683  1.00  0.00    -0.014 A 
ATOM     39  C   UNL A   1      43.502  27.406  36.566  1.00  0.00     0.010 A 
ATOM     40  C   UNL A   1      45.116  28.732  35.335  1.00  0.00     0.010 A 
ATOM     41  C   UNL A   1      44.543  26.646  37.110  1.00  0.00     0.020 A 
ATOM     42  C   UNL A   1      46.159  27.961  35.861  1.00  0.00     0.020 A 
ATOM     43  C   UNL A   1      45.866  26.930  36.755  1.00  0.00     0.054 A 
BRANCH  43  44
ATOM     44  S   UNL A   1      47.196  25.906  37.445  1.00  0.00     0.124 S 
ATOM     45  O   UNL A   1      47.452  24.971  36.352  1.00  0.00    -0.237 OA
ATOM     46  O   UNL A   1      48.254  26.879  37.698  1.00  0.00    -0.237 OA
ATOM     47  O   UNL A   1      46.595  25.318  38.640  1.00  0.00    -0.744 OA
ENDBRANCH  43  44
ENDBRANCH  24  38
BRANCH  25  48
ATOM     48  C   UNL A   1      36.402  33.553  31.192  1.00  0.00    -0.014 A 
ATOM     49  C   UNL A   1      36.523  33.946  29.849  1.00  0.00     0.010 A 
ATOM     50  C   UNL A   1      35.211  33.840  31.886  1.00  0.00     0.010 A 
ATOM     51  C   UNL A   1      35.476  34.622  29.214  1.00  0.00     0.020 A 
ATOM     52  C   UNL A   1      34.153  34.486  31.247  1.00  0.00     0.020 A 
ATOM     53  C   UNL A   1      34.297  34.887  29.918  1.00  0.00     0.054 A 
BRANCH  53  54
ATOM     54  S   UNL A   1      32.920  35.704  29.067  1.00  0.00     0.124 S 
ATOM     55  O   UNL A   1      32.076  36.114  30.185  1.00  0.00    -0.237 OA
ATOM     56  O   UNL A   1      33.581  36.786  28.343  1.00  0.00    -0.237 OA
ATOM     57  O   UNL A   1      32.372  34.645  28.221  1.00  0.00    -0.744 OA
ENDBRANCH  53  54
ENDBRANCH  25  48
BRANCH  37  58
ATOM     58  C   UNL A   1      39.895  34.375  37.147  1.00  0.00    -0.014 A 
ATOM     59  C   UNL A   1      39.024  34.179  38.234  1.00  0.00     0.010 A 
ATOM     60  C   UNL A   1      40.662  35.550  37.077  1.00  0.00     0.010 A 
ATOM     61  C   UNL A   1      38.886  35.166  39.211  1.00  0.00     0.020 A 
ATOM     62  C   UNL A   1      40.543  36.530  38.064  1.00  0.00     0.020 A 
ATOM     63  C   UNL A   1      39.639  36.340  39.113  1.00  0.00     0.054 A 
BRANCH  63  64
ATOM     64  S   UNL A   1      39.447  37.613  40.391  1.00  0.00     0.124 S 
ATOM     65  O   UNL A   1      39.264  36.806  41.594  1.00  0.00    -0.237 OA
ATOM     66  O   UNL A   1      40.708  38.346  40.311  1.00  0.00    -0.237 OA
ATOM     67  O   UNL A   1      38.271  38.361  39.956  1.00  0.00    -0.744 OA
ENDBRANCH  63  64
ENDBRANCH  37  58
ENDBRANCH  11  12
ENDBRANCH   4   6
ENDBRANCH   1   2
BRANCH   1  68
ATOM     68  C   UNL A   1      37.453  23.694  25.536  1.00  0.00     0.042 C 
BRANCH  68  69
ATOM     69  C   UNL A   1      37.112  22.230  25.689  1.00  0.00     0.117 C 
BRANCH  69  70
ATOM     70  N   UNL A   1      35.964  21.980  26.530  1.00  0.00    -0.355 N 
ATOM     71  C   UNL A   1      34.718  21.543  26.193  1.00  0.00     0.238 C 
ATOM     72  H   UNL A   1      36.101  22.151  27.489  1.00  0.00     0.163 HD
ATOM     73  O   UNL A   1      33.958  21.264  27.127  1.00  0.00    -0.273 OA
BRANCH  71  74
ATOM     74  C   UNL A   1      34.211  21.511  24.755  1.00  0.00     0.165 C 
ATOM     75  C   UNL A   1      33.751  20.101  24.360  1.00  0.00     0.063 C 
ATOM     76  N   UNL A   1      33.190  22.462  24.224  1.00  0.00    -0.183 NA
ATOM     77  C   UNL A   1      32.312  20.234  23.908  1.00  0.00     0.131 C 
ATOM     78  C   UNL A   1      32.152  21.698  23.506  1.00  0.00     0.135 C 
BRANCH  76  79
ATOM     79  S   UNL A   1      32.860  23.871  25.088  1.00  0.00     0.244 S 
ATOM     80  O   UNL A   1      31.880  23.580  26.109  1.00  0.00    -0.207 OA
ATOM     81  O   UNL A   1      34.120  24.476  25.424  1.00  0.00    -0.207 OA
BRANCH  79  82
ATOM     82  C   UNL A   1      31.997  24.974  23.995  1.00  0.00     0.086 A 
ATOM     83  C   UNL A   1      32.656  25.534  22.896  1.00  0.00     0.026 A 
ATOM     84  C   UNL A   1      30.767  25.492  24.417  1.00  0.00     0.072 A 
ATOM     85  C   UNL A   1      32.071  26.610  22.221  1.00  0.00     0.052 A 
ATOM     86  C   UNL A   1      30.166  26.520  23.708  1.00  0.00     0.162 A 
ATOM     87  C   UNL A   1      30.835  27.111  22.635  1.00  0.00     0.161 A 
ATOM     88  O   UNL A   1      28.936  26.925  24.157  1.00  0.00    -0.486 OA
ATOM     89  O   UNL A   1      30.341  28.204  21.967  1.00  0.00    -0.486 OA
ATOM     90  C   UNL A   1      28.294  27.769  23.195  1.00  0.00     0.271 C 
ATOM     91  C   UNL A   1      29.272  28.821  22.701  1.00  0.00     0.271 C 
ENDBRANCH  79  82
ENDBRANCH  76  79
BRANCH  77  92
ATOM     92  O   UNL A   1      32.051  19.369  22.810  1.00  0.00    -0.392 OA
ATOM     93  H   UNL A   1      32.614  19.620  22.060  1.00  0.00     0.211 HD
ENDBRANCH  77  92
ENDBRANCH  71  74
ENDBRANCH  69  70
ENDBRANCH  68  69
ENDBRANCH   1  68
TORSDOF 16
ENDMDL
MODEL 3
REMARK VINA RESULT:     -12.5      4.700      9.547
REMARK SMILES O=C(NCCCNC(=O)[C@H]1C[C@H](O)CN1S(=O)(=O)c1ccc2c(c1)OCCO2)c1ccc(-c2c3nc(c(-c4ccc(S(=O)(=O)[O-])cc4)c4ccc([nH]4)c(-c4ccc(S(=O)(=O)[O-])cc4)c4nc(c(-c5ccc(S(=O)(=O)[O-])cc5)c5ccc2[nH]5)C=C4)C=C3)cc1
REMARK SMILES IDX 4 1 3 2 1 3 2 4 29 6 30 7 88 8 31 9 87 10 32 11 33 12 34 13
REMARK SMILES IDX 81 14 35 15 86 16 80 17 82 18 36 19 85 20 79 21 78 22 37 24
REMARK SMILES IDX 67 25 48 26 66 27 49 28 52 29 65 30 83 31 50 32 51 33 64 35
REMARK SMILES IDX 84 36 53 37 38 38 39 39 47 40 40 41 46 42 41 43 42 44 43 45
REMARK SMILES IDX 44 46 45 47 68 48 69 49 77 50 70 51 76 52 71 53 72 54 73 55
REMARK SMILES IDX 74 56 75 57 54 58 55 59 63 60 56 61 62 62 57 63 58 64 59 65
REMARK SMILES IDX 60 66 61 67 5 68 6 69 7 70 8 71 9 73 10 74 11 75 15 76 12 77
REMARK SMILES IDX 14 78 16 79 17 80 18 81 19 82 20 83 24 84 21 85 23 86 22 87
REMARK SMILES IDX 25 88 28 89 26 90 27 91 13 92
REMARK H PARENT 3 5 82 23 52 34 7 72 13 93
REMARK Flexibility Score: inf
ROOT
ATOM      1  C   UNL A   1      34.241  27.894  26.672  1.00  0.00     0.118 C 
ENDROOT
BRANCH   1   2
ATOM      2  N   UNL A   1      33.804  29.251  27.010  1.00  0.00    -0.352 N 
ATOM      3  O   UNL A   1      33.849  31.257  28.053  1.00  0.00    -0.269 OA
ATOM      4  C   UNL A   1      34.440  30.227  27.743  1.00  0.00     0.251 C 
ATOM      5  H   UNL A   1      32.920  29.504  26.659  1.00  0.00     0.163 HD
BRANCH   4   6
ATOM      6  C   UNL A   1      35.833  30.007  28.176  1.00  0.00     0.039 A 
ATOM      7  C   UNL A   1      36.872  30.229  27.277  1.00  0.00     0.014 A 
ATOM      8  C   UNL A   1      36.102  29.534  29.464  1.00  0.00     0.014 A 
ATOM      9  C   UNL A   1      38.138  29.764  27.576  1.00  0.00     0.010 A 
ATOM     10  C   UNL A   1      37.415  29.204  29.817  1.00  0.00     0.010 A 
ATOM     11  C   UNL A   1      38.436  29.278  28.860  1.00  0.00    -0.014 A 
BRANCH  11  12
ATOM     12  C   UNL A   1      39.851  28.942  29.156  1.00  0.00     0.031 A 
ATOM     13  C   UNL A   1      40.462  27.639  28.724  1.00  0.00     0.074 A 
ATOM     14  C   UNL A   1      40.609  29.902  29.724  1.00  0.00     0.049 A 
ATOM     15  N   UNL A   1      41.710  27.255  28.819  1.00  0.00    -0.248 NA
ATOM     16  C   UNL A   1      39.572  26.633  28.123  1.00  0.00     0.031 C 
ATOM     17  C   UNL A   1      40.106  31.201  30.193  1.00  0.00     0.029 A 
ATOM     18  N   UNL A   1      41.958  29.978  29.939  1.00  0.00    -0.354 N 
ATOM     19  C   UNL A   1      41.751  25.957  28.323  1.00  0.00     0.074 A 
ATOM     20  C   UNL A   1      40.401  25.613  27.933  1.00  0.00     0.031 C 
ATOM     21  C   UNL A   1      41.141  31.980  30.529  1.00  0.00     0.029 A 
ATOM     22  C   UNL A   1      42.369  31.211  30.391  1.00  0.00     0.049 A 
ATOM     23  H   UNL A   1      42.573  29.224  29.786  1.00  0.00     0.167 HD
ATOM     24  C   UNL A   1      42.819  25.131  28.210  1.00  0.00     0.031 A 
ATOM     25  C   UNL A   1      43.600  31.674  30.671  1.00  0.00     0.031 A 
ATOM     26  C   UNL A   1      44.160  25.493  28.594  1.00  0.00     0.049 A 
ATOM     27  C   UNL A   1      44.765  30.751  30.499  1.00  0.00     0.074 A 
ATOM     28  C   UNL A   1      45.310  24.725  28.540  1.00  0.00     0.029 A 
ATOM     29  N   UNL A   1      44.534  26.735  29.088  1.00  0.00    -0.354 N 
ATOM     30  N   UNL A   1      44.772  29.516  30.057  1.00  0.00    -0.248 NA
ATOM     31  C   UNL A   1      46.082  31.275  30.877  1.00  0.00     0.031 C 
ATOM     32  C   UNL A   1      46.374  25.493  29.029  1.00  0.00     0.029 A 
ATOM     33  C   UNL A   1      45.893  26.753  29.347  1.00  0.00     0.049 A 
ATOM     34  H   UNL A   1      43.920  27.491  29.233  1.00  0.00     0.167 HD
ATOM     35  C   UNL A   1      46.095  29.104  30.127  1.00  0.00     0.074 A 
ATOM     36  C   UNL A   1      46.863  30.238  30.603  1.00  0.00     0.031 C 
ATOM     37  C   UNL A   1      46.626  27.889  29.845  1.00  0.00     0.031 A 
BRANCH  24  38
ATOM     38  C   UNL A   1      42.581  23.744  27.675  1.00  0.00    -0.014 A 
ATOM     39  C   UNL A   1      42.714  23.461  26.305  1.00  0.00     0.010 A 
ATOM     40  C   UNL A   1      42.279  22.697  28.565  1.00  0.00     0.010 A 
ATOM     41  C   UNL A   1      42.525  22.159  25.830  1.00  0.00     0.020 A 
ATOM     42  C   UNL A   1      42.110  21.389  28.096  1.00  0.00     0.020 A 
ATOM     43  C   UNL A   1      42.221  21.131  26.729  1.00  0.00     0.054 A 
BRANCH  43  44
ATOM     44  S   UNL A   1      42.019  19.443  26.092  1.00  0.00     0.124 S 
ATOM     45  O   UNL A   1      40.580  19.388  25.843  1.00  0.00    -0.237 OA
ATOM     46  O   UNL A   1      42.861  19.446  24.899  1.00  0.00    -0.237 OA
ATOM     47  O   UNL A   1      42.495  18.600  27.186  1.00  0.00    -0.744 OA
ENDBRANCH  43  44
ENDBRANCH  24  38
BRANCH  25  48
ATOM     48  C   UNL A   1      43.766  33.061  31.180  1.00  0.00    -0.014 A 
ATOM     49  C   UNL A   1      43.901  34.145  30.298  1.00  0.00     0.010 A 
ATOM     50  C   UNL A   1      43.744  33.303  32.567  1.00  0.00     0.010 A 
ATOM     51  C   UNL A   1      44.020  35.448  30.793  1.00  0.00     0.020 A 
ATOM     52  C   UNL A   1      43.831  34.604  33.063  1.00  0.00     0.020 A 
ATOM     53  C   UNL A   1      43.984  35.668  32.174  1.00  0.00     0.054 A 
BRANCH  53  54
ATOM     54  S   UNL A   1      44.071  37.367  32.804  1.00  0.00     0.124 S 
ATOM     55  O   UNL A   1      45.395  37.393  33.415  1.00  0.00    -0.237 OA
ATOM     56  O   UNL A   1      43.916  38.170  31.594  1.00  0.00    -0.237 OA
ATOM     57  O   UNL A   1      42.946  37.438  33.735  1.00  0.00    -0.744 OA
ENDBRANCH  53  54
ENDBRANCH  25  48
BRANCH  37  58
ATOM     58  C   UNL A   1      48.103  27.742  30.064  1.00  0.00    -0.014 A 
ATOM     59  C   UNL A   1      49.009  28.013  29.023  1.00  0.00     0.010 A 
ATOM     60  C   UNL A   1      48.588  27.324  31.314  1.00  0.00     0.010 A 
ATOM     61  C   UNL A   1      50.378  27.819  29.215  1.00  0.00     0.020 A 
ATOM     62  C   UNL A   1      49.958  27.150  31.516  1.00  0.00     0.020 A 
ATOM     63  C   UNL A   1      50.842  27.378  30.458  1.00  0.00     0.054 A 
BRANCH  63  64
ATOM     64  S   UNL A   1      52.624  27.131  30.690  1.00  0.00     0.124 S 
ATOM     65  O   UNL A   1      52.679  25.744  31.144  1.00  0.00    -0.237 OA
ATOM     66  O   UNL A   1      53.164  27.379  29.355  1.00  0.00    -0.237 OA
ATOM     67  O   UNL A   1      52.980  28.131  31.694  1.00  0.00    -0.744 OA
ENDBRANCH  63  64
ENDBRANCH  37  58
ENDBRANCH  11  12
ENDBRANCH   4   6
ENDBRANCH   1   2
BRANCH   1  68
ATOM     68  C   UNL A   1      33.431  27.275  25.546  1.00  0.00     0.042 C 
BRANCH  68  69
ATOM     69  C   UNL A   1      33.128  25.819  25.816  1.00  0.00     0.117 C 
BRANCH  69  70
ATOM     70  N   UNL A   1      31.825  25.589  26.396  1.00  0.00    -0.355 N 
ATOM     71  C   UNL A   1      30.822  24.765  25.982  1.00  0.00     0.238 C 
ATOM     72  H   UNL A   1      31.633  26.103  27.213  1.00  0.00     0.163 HD
ATOM     73  O   UNL A   1      29.858  24.639  26.746  1.00  0.00    -0.273 OA
BRANCH  71  74
ATOM     74  C   UNL A   1      30.795  24.122  24.599  1.00  0.00     0.165 C 
ATOM     75  C   UNL A   1      31.053  25.161  23.499  1.00  0.00     0.063 C 
ATOM     76  N   UNL A   1      31.590  22.909  24.243  1.00  0.00    -0.183 NA
ATOM     77  C   UNL A   1      32.247  24.659  22.713  1.00  0.00     0.131 C 
ATOM     78  C   UNL A   1      32.293  23.156  22.970  1.00  0.00     0.135 C 
BRANCH  76  79
ATOM     79  S   UNL A   1      32.235  21.964  25.480  1.00  0.00     0.244 S 
ATOM     80  O   UNL A   1      32.112  22.677  26.731  1.00  0.00    -0.207 OA
ATOM     81  O   UNL A   1      31.704  20.636  25.330  1.00  0.00    -0.207 OA
BRANCH  79  82
ATOM     82  C   UNL A   1      33.991  21.884  25.226  1.00  0.00     0.086 A 
ATOM     83  C   UNL A   1      34.595  20.678  24.859  1.00  0.00     0.026 A 
ATOM     84  C   UNL A   1      34.773  22.952  25.681  1.00  0.00     0.072 A 
ATOM     85  C   UNL A   1      35.985  20.552  24.946  1.00  0.00     0.052 A 
ATOM     86  C   UNL A   1      36.154  22.840  25.710  1.00  0.00     0.162 A 
ATOM     87  C   UNL A   1      36.762  21.626  25.384  1.00  0.00     0.161 A 
ATOM     88  O   UNL A   1      36.842  23.954  26.113  1.00  0.00    -0.486 OA
ATOM     89  O   UNL A   1      38.114  21.421  25.501  1.00  0.00    -0.486 OA
ATOM     90  C   UNL A   1      38.239  23.823  25.827  1.00  0.00     0.271 C 
ATOM     91  C   UNL A   1      38.730  22.458  26.280  1.00  0.00     0.271 C 
ENDBRANCH  79  82
ENDBRANCH  76  79
BRANCH  77  92
ATOM     92  O   UNL A   1      32.086  24.941  21.329  1.00  0.00    -0.392 OA
ATOM     93  H   UNL A   1      32.637  24.332  20.810  1.00  0.00     0.211 HD
ENDBRANCH  77  92
ENDBRANCH  71  74
ENDBRANCH  69  70
ENDBRANCH  68  69
ENDBRANCH   1  68
TORSDOF 16
ENDMDL
