MODEL 1
REMARK VINA RESULT:     -12.2      0.000      0.000
REMARK SMILES O=C(CNC(=O)N1CC(NCCCNC(=O)c2ccc(-c3c4nc(c(-c5ccc(S(=O)(=O)[O-])cc5)c5ccc([nH]5)c(-c5ccc(S(=O)(=O)[O-])cc5)c5nc(c(-c6ccc(S(=O)(=O)[O-])cc6)c6ccc3[nH]6)C=C5)C=C4)cc2)=[NH+]c2ccccc21)N[C@H](C(=O)[O-])c1ccccc1
REMARK SMILES IDX 11 1 10 2 7 3 8 4 83 5 9 6 78 7 82 8 77 9 79 10 81 11 80 14
REMARK SMILES IDX 5 15 4 16 6 18 3 19 2 20 1 21 84 22 85 24 89 25 90 26 94 27
REMARK SMILES IDX 91 28 93 29 92 30 86 31 87 32 88 33 12 34 13 35 14 36 15 37
REMARK SMILES IDX 16 39 17 40 18 41 76 42 19 43 75 44 20 45 21 46 22 47 69 48
REMARK SMILES IDX 23 49 74 50 68 51 70 52 24 53 73 54 67 55 66 56 25 58 55 59
REMARK SMILES IDX 36 60 54 61 37 62 40 63 53 64 71 65 38 66 39 67 52 69 72 70
REMARK SMILES IDX 41 71 26 72 27 73 35 74 28 75 34 76 29 77 30 78 31 79 32 80
REMARK SMILES IDX 33 81 56 82 57 83 65 84 58 85 64 86 59 87 60 88 61 89 62 90
REMARK SMILES IDX 63 91 42 92 43 93 51 94 44 95 50 96 45 97 46 98 47 99 48 100
REMARK SMILES IDX 49 101
REMARK H PARENT 10 12 77 13 4 17 84 23 14 38 70 57 40 68
REMARK Flexibility Score: inf
ROOT
ATOM      1  C   UNL A   1      34.317  28.572  26.077  1.00  0.00     0.235 C 
ENDROOT
BRANCH   1   2
ATOM      2  N   UNL A   1      33.456  29.279  25.160  1.00  0.00    -0.277 N 
ATOM      3  N   UNL A   1      30.396  27.267  24.485  1.00  0.00    -0.278 N 
ATOM      4  C   UNL A   1      31.448  27.751  25.361  1.00  0.00     0.255 C 
ATOM      5  C   UNL A   1      29.655  28.264  23.794  1.00  0.00     0.093 A 
ATOM      6  C   UNL A   1      32.172  28.972  24.785  1.00  0.00     0.268 C 
ATOM      7  C   UNL A   1      30.277  29.502  23.545  1.00  0.00     0.148 A 
ATOM      8  C   UNL A   1      28.349  28.038  23.334  1.00  0.00     0.031 A 
ATOM      9  N   UNL A   1      31.588  29.799  23.963  1.00  0.00    -0.241 N 
ATOM     10  C   UNL A   1      29.606  30.457  22.773  1.00  0.00     0.054 A 
ATOM     11  C   UNL A   1      27.690  29.005  22.574  1.00  0.00     0.002 A 
ATOM     12  H   UNL A   1      33.840  30.087  24.749  1.00  0.00     0.304 HD
ATOM     13  H   UNL A   1      32.049  30.608  23.644  1.00  0.00     0.312 HD
ATOM     14  C   UNL A   1      28.324  30.209  22.282  1.00  0.00     0.005 A 
BRANCH   3  15
ATOM     15  C   UNL A   1      30.149  25.914  24.486  1.00  0.00     0.323 C 
ATOM     16  N   UNL A   1      30.538  25.174  23.413  1.00  0.00    -0.329 N 
ATOM     17  H   UNL A   1      30.071  24.318  23.277  1.00  0.00     0.165 HD
ATOM     18  O   UNL A   1      29.663  25.332  25.458  1.00  0.00    -0.248 OA
BRANCH  16  19
ATOM     19  C   UNL A   1      31.569  25.513  22.445  1.00  0.00     0.218 C 
BRANCH  19  20
ATOM     20  C   UNL A   1      32.524  24.341  22.245  1.00  0.00     0.240 C 
ATOM     21  O   UNL A   1      33.300  24.299  21.295  1.00  0.00    -0.273 OA
ATOM     22  N   UNL A   1      32.429  23.424  23.255  1.00  0.00    -0.342 N 
ATOM     23  H   UNL A   1      31.666  23.525  23.869  1.00  0.00     0.164 HD
BRANCH  22  24
ATOM     24  C   UNL A   1      33.348  22.301  23.526  1.00  0.00     0.158 C 
BRANCH  24  25
ATOM     25  C   UNL A   1      34.662  22.784  24.130  1.00  0.00    -0.020 A 
ATOM     26  C   UNL A   1      34.726  23.119  25.489  1.00  0.00     0.006 A 
ATOM     27  C   UNL A   1      35.840  22.868  23.367  1.00  0.00     0.006 A 
ATOM     28  C   UNL A   1      35.943  23.469  26.080  1.00  0.00     0.000 A 
ATOM     29  C   UNL A   1      37.060  23.197  23.960  1.00  0.00     0.000 A 
ATOM     30  C   UNL A   1      37.112  23.489  25.320  1.00  0.00     0.000 A 
ENDBRANCH  24  25
BRANCH  24  31
ATOM     31  C   UNL A   1      32.624  21.249  24.449  1.00  0.00     0.068 C 
ATOM     32  O   UNL A   1      31.777  21.716  25.270  1.00  0.00    -0.548 OA
ATOM     33  O   UNL A   1      32.819  20.038  24.126  1.00  0.00    -0.548 OA
ENDBRANCH  24  31
ENDBRANCH  22  24
ENDBRANCH  19  20
ENDBRANCH  16  19
ENDBRANCH   3  15
ENDBRANCH   1   2
BRANCH   1  34
ATOM     34  C   UNL A   1      34.239  29.153  27.485  1.00  0.00     0.067 C 
BRANCH  34  35
ATOM     35  C   UNL A   1      35.393  30.083  27.851  1.00  0.00     0.120 C 
BRANCH  35  36
ATOM     36  N   UNL A   1      35.328  30.553  29.234  1.00  0.00    -0.352 N 
ATOM     37  C   UNL A   1      36.301  30.615  30.200  1.00  0.00     0.251 C 
ATOM     38  H   UNL A   1      34.443  30.877  29.518  1.00  0.00     0.163 HD
ATOM     39  O   UNL A   1      35.982  30.890  31.359  1.00  0.00    -0.269 OA
BRANCH  37  40
ATOM     40  C   UNL A   1      37.716  30.332  29.875  1.00  0.00     0.039 A 
ATOM     41  C   UNL A   1      38.585  29.955  30.904  1.00  0.00     0.014 A 
ATOM     42  C   UNL A   1      38.198  30.457  28.570  1.00  0.00     0.014 A 
ATOM     43  C   UNL A   1      39.912  29.629  30.611  1.00  0.00     0.010 A 
ATOM     44  C   UNL A   1      39.497  30.055  28.267  1.00  0.00     0.010 A 
ATOM     45  C   UNL A   1      40.368  29.635  29.282  1.00  0.00    -0.014 A 
BRANCH  45  46
ATOM     46  C   UNL A   1      41.743  29.191  28.929  1.00  0.00     0.031 A 
ATOM     47  C   UNL A   1      42.873  30.184  28.888  1.00  0.00     0.074 A 
ATOM     48  C   UNL A   1      41.958  27.907  28.576  1.00  0.00     0.049 A 
ATOM     49  N   UNL A   1      44.120  30.003  28.530  1.00  0.00    -0.248 NA
ATOM     50  C   UNL A   1      42.560  31.566  29.289  1.00  0.00     0.031 C 
ATOM     51  C   UNL A   1      40.940  26.855  28.542  1.00  0.00     0.029 A 
ATOM     52  N   UNL A   1      43.102  27.271  28.159  1.00  0.00    -0.354 N 
ATOM     53  C   UNL A   1      44.731  31.246  28.644  1.00  0.00     0.074 A 
ATOM     54  C   UNL A   1      43.713  32.182  29.066  1.00  0.00     0.031 C 
ATOM     55  C   UNL A   1      41.507  25.705  28.143  1.00  0.00     0.029 A 
ATOM     56  C   UNL A   1      42.913  25.946  27.840  1.00  0.00     0.049 A 
ATOM     57  H   UNL A   1      43.975  27.721  28.095  1.00  0.00     0.167 HD
ATOM     58  C   UNL A   1      46.028  31.578  28.431  1.00  0.00     0.031 A 
ATOM     59  C   UNL A   1      43.768  25.033  27.338  1.00  0.00     0.031 A 
ATOM     60  C   UNL A   1      47.035  30.646  27.993  1.00  0.00     0.049 A 
ATOM     61  C   UNL A   1      45.193  25.437  27.064  1.00  0.00     0.074 A 
ATOM     62  C   UNL A   1      48.384  30.874  27.784  1.00  0.00     0.029 A 
ATOM     63  N   UNL A   1      46.803  29.314  27.682  1.00  0.00    -0.354 N 
ATOM     64  N   UNL A   1      45.775  26.598  27.255  1.00  0.00    -0.248 NA
ATOM     65  C   UNL A   1      46.083  24.404  26.518  1.00  0.00     0.031 C 
ATOM     66  C   UNL A   1      48.957  29.695  27.298  1.00  0.00     0.029 A 
ATOM     67  C   UNL A   1      47.980  28.712  27.268  1.00  0.00     0.049 A 
ATOM     68  H   UNL A   1      45.930  28.863  27.747  1.00  0.00     0.167 HD
ATOM     69  C   UNL A   1      47.102  26.425  26.880  1.00  0.00     0.074 A 
ATOM     70  C   UNL A   1      47.244  25.044  26.471  1.00  0.00     0.031 C 
ATOM     71  C   UNL A   1      48.112  27.330  26.877  1.00  0.00     0.031 A 
BRANCH  58  72
ATOM     72  C   UNL A   1      46.431  33.012  28.670  1.00  0.00    -0.014 A 
ATOM     73  C   UNL A   1      46.750  33.466  29.963  1.00  0.00     0.010 A 
ATOM     74  C   UNL A   1      46.540  33.904  27.588  1.00  0.00     0.010 A 
ATOM     75  C   UNL A   1      47.137  34.792  30.174  1.00  0.00     0.020 A 
ATOM     76  C   UNL A   1      46.956  35.225  27.791  1.00  0.00     0.020 A 
ATOM     77  C   UNL A   1      47.240  35.664  29.086  1.00  0.00     0.054 A 
BRANCH  77  78
ATOM     78  S   UNL A   1      47.786  37.368  29.390  1.00  0.00     0.124 S 
ATOM     79  O   UNL A   1      48.344  37.275  30.737  1.00  0.00    -0.237 OA
ATOM     80  O   UNL A   1      48.760  37.587  28.324  1.00  0.00    -0.237 OA
ATOM     81  O   UNL A   1      46.560  38.155  29.278  1.00  0.00    -0.744 OA
ENDBRANCH  77  78
ENDBRANCH  58  72
BRANCH  59  82
ATOM     82  C   UNL A   1      43.305  23.642  27.066  1.00  0.00    -0.014 A 
ATOM     83  C   UNL A   1      42.927  23.258  25.767  1.00  0.00     0.010 A 
ATOM     84  C   UNL A   1      43.231  22.693  28.103  1.00  0.00     0.010 A 
ATOM     85  C   UNL A   1      42.456  21.966  25.516  1.00  0.00     0.020 A 
ATOM     86  C   UNL A   1      42.792  21.389  27.850  1.00  0.00     0.020 A 
ATOM     87  C   UNL A   1      42.391  21.038  26.559  1.00  0.00     0.054 A 
BRANCH  87  88
ATOM     88  S   UNL A   1      41.801  19.361  26.196  1.00  0.00     0.124 S 
ATOM     89  O   UNL A   1      42.620  18.992  25.045  1.00  0.00    -0.237 OA
ATOM     90  O   UNL A   1      42.098  18.645  27.434  1.00  0.00    -0.237 OA
ATOM     91  O   UNL A   1      40.379  19.546  25.919  1.00  0.00    -0.744 OA
ENDBRANCH  87  88
ENDBRANCH  59  82
BRANCH  71  92
ATOM     92  C   UNL A   1      49.483  26.848  26.473  1.00  0.00    -0.014 A 
ATOM     93  C   UNL A   1      50.318  26.162  27.373  1.00  0.00     0.010 A 
ATOM     94  C   UNL A   1      49.911  27.026  25.144  1.00  0.00     0.010 A 
ATOM     95  C   UNL A   1      51.566  25.686  26.957  1.00  0.00     0.020 A 
ATOM     96  C   UNL A   1      51.144  26.525  24.717  1.00  0.00     0.020 A 
ATOM     97  C   UNL A   1      51.969  25.867  25.630  1.00  0.00     0.054 A 
BRANCH  97  98
ATOM     98  S   UNL A   1      53.566  25.188  25.099  1.00  0.00     0.124 S 
ATOM     99  O   UNL A   1      53.617  25.584  23.695  1.00  0.00    -0.237 OA
ATOM    100  O   UNL A   1      54.514  25.866  25.979  1.00  0.00    -0.237 OA
ATOM    101  O   UNL A   1      53.429  23.751  25.333  1.00  0.00    -0.744 OA
ENDBRANCH  97  98
ENDBRANCH  71  92
ENDBRANCH  45  46
ENDBRANCH  37  40
ENDBRANCH  35  36
ENDBRANCH  34  35
ENDBRANCH   1  34
TORSDOF 18
ENDMDL
MODEL 2
REMARK VINA RESULT:     -12.0      6.261     11.442
REMARK SMILES O=C(CNC(=O)N1CC(NCCCNC(=O)c2ccc(-c3c4nc(c(-c5ccc(S(=O)(=O)[O-])cc5)c5ccc([nH]5)c(-c5ccc(S(=O)(=O)[O-])cc5)c5nc(c(-c6ccc(S(=O)(=O)[O-])cc6)c6ccc3[nH]6)C=C5)C=C4)cc2)=[NH+]c2ccccc21)N[C@H](C(=O)[O-])c1ccccc1
REMARK SMILES IDX 11 1 10 2 7 3 8 4 83 5 9 6 78 7 82 8 77 9 79 10 81 11 80 14
REMARK SMILES IDX 5 15 4 16 6 18 3 19 2 20 1 21 84 22 85 24 89 25 90 26 94 27
REMARK SMILES IDX 91 28 93 29 92 30 86 31 87 32 88 33 12 34 13 35 14 36 15 37
REMARK SMILES IDX 16 39 17 40 18 41 76 42 19 43 75 44 20 45 21 46 22 47 69 48
REMARK SMILES IDX 23 49 74 50 68 51 70 52 24 53 73 54 67 55 66 56 25 58 55 59
REMARK SMILES IDX 36 60 54 61 37 62 40 63 53 64 71 65 38 66 39 67 52 69 72 70
REMARK SMILES IDX 41 71 26 72 27 73 35 74 28 75 34 76 29 77 30 78 31 79 32 80
REMARK SMILES IDX 33 81 56 82 57 83 65 84 58 85 64 86 59 87 60 88 61 89 62 90
REMARK SMILES IDX 63 91 42 92 43 93 51 94 44 95 50 96 45 97 46 98 47 99 48 100
REMARK SMILES IDX 49 101
REMARK H PARENT 10 12 77 13 4 17 84 23 14 38 70 57 40 68
REMARK Flexibility Score: inf
ROOT
ATOM      1  C   UNL A   1      36.487  23.311  26.408  1.00  0.00     0.235 C 
ENDROOT
BRANCH   1   2
ATOM      2  N   UNL A   1      36.060  21.937  26.303  1.00  0.00    -0.277 N 
ATOM      3  N   UNL A   1      33.281  21.655  23.840  1.00  0.00    -0.278 N 
ATOM      4  C   UNL A   1      34.532  22.225  24.305  1.00  0.00     0.255 C 
ATOM      5  C   UNL A   1      33.238  20.236  23.756  1.00  0.00     0.093 A 
ATOM      6  C   UNL A   1      35.189  21.379  25.401  1.00  0.00     0.268 C 
ATOM      7  C   UNL A   1      34.093  19.494  24.592  1.00  0.00     0.148 A 
ATOM      8  C   UNL A   1      32.356  19.566  22.894  1.00  0.00     0.031 A 
ATOM      9  N   UNL A   1      34.996  20.092  25.491  1.00  0.00    -0.241 N 
ATOM     10  C   UNL A   1      33.991  18.099  24.603  1.00  0.00     0.054 A 
ATOM     11  C   UNL A   1      32.273  18.174  22.910  1.00  0.00     0.002 A 
ATOM     12  H   UNL A   1      36.444  21.318  26.966  1.00  0.00     0.304 HD
ATOM     13  H   UNL A   1      35.467  19.555  26.168  1.00  0.00     0.312 HD
ATOM     14  C   UNL A   1      33.081  17.441  23.775  1.00  0.00     0.005 A 
BRANCH   3  15
ATOM     15  C   UNL A   1      32.303  22.531  23.432  1.00  0.00     0.323 C 
ATOM     16  N   UNL A   1      31.306  22.854  24.298  1.00  0.00    -0.329 N 
ATOM     17  H   UNL A   1      30.469  23.189  23.901  1.00  0.00     0.165 HD
ATOM     18  O   UNL A   1      32.341  23.100  22.339  1.00  0.00    -0.248 OA
BRANCH  16  19
ATOM     19  C   UNL A   1      31.342  22.757  25.749  1.00  0.00     0.218 C 
BRANCH  19  20
ATOM     20  C   UNL A   1      32.261  23.823  26.336  1.00  0.00     0.240 C 
ATOM     21  O   UNL A   1      33.169  23.533  27.110  1.00  0.00    -0.273 OA
ATOM     22  N   UNL A   1      31.972  25.070  25.857  1.00  0.00    -0.342 N 
ATOM     23  H   UNL A   1      31.130  25.163  25.355  1.00  0.00     0.164 HD
BRANCH  22  24
ATOM     24  C   UNL A   1      32.786  26.292  26.010  1.00  0.00     0.158 C 
BRANCH  24  25
ATOM     25  C   UNL A   1      33.184  26.873  24.657  1.00  0.00    -0.020 A 
ATOM     26  C   UNL A   1      32.838  26.200  23.477  1.00  0.00     0.006 A 
ATOM     27  C   UNL A   1      33.862  28.100  24.550  1.00  0.00     0.006 A 
ATOM     28  C   UNL A   1      33.108  26.767  22.228  1.00  0.00     0.000 A 
ATOM     29  C   UNL A   1      34.113  28.677  23.304  1.00  0.00     0.000 A 
ATOM     30  C   UNL A   1      33.728  28.013  22.142  1.00  0.00     0.000 A 
ENDBRANCH  24  25
BRANCH  24  31
ATOM     31  C   UNL A   1      31.998  27.334  26.892  1.00  0.00     0.068 C 
ATOM     32  O   UNL A   1      30.751  27.135  27.009  1.00  0.00    -0.548 OA
ATOM     33  O   UNL A   1      32.732  28.132  27.550  1.00  0.00    -0.548 OA
ENDBRANCH  24  31
ENDBRANCH  22  24
ENDBRANCH  19  20
ENDBRANCH  16  19
ENDBRANCH   3  15
ENDBRANCH   1   2
BRANCH   1  34
ATOM     34  C   UNL A   1      37.834  23.536  25.729  1.00  0.00     0.067 C 
BRANCH  34  35
ATOM     35  C   UNL A   1      38.849  24.301  26.576  1.00  0.00     0.120 C 
BRANCH  35  36
ATOM     36  N   UNL A   1      39.986  24.790  25.797  1.00  0.00    -0.352 N 
ATOM     37  C   UNL A   1      40.843  25.836  26.033  1.00  0.00     0.251 C 
ATOM     38  H   UNL A   1      40.165  24.288  24.969  1.00  0.00     0.163 HD
ATOM     39  O   UNL A   1      41.633  26.177  25.150  1.00  0.00    -0.269 OA
BRANCH  37  40
ATOM     40  C   UNL A   1      40.814  26.570  27.317  1.00  0.00     0.039 A 
ATOM     41  C   UNL A   1      41.659  27.671  27.486  1.00  0.00     0.014 A 
ATOM     42  C   UNL A   1      39.978  26.169  28.361  1.00  0.00     0.014 A 
ATOM     43  C   UNL A   1      41.608  28.414  28.670  1.00  0.00     0.010 A 
ATOM     44  C   UNL A   1      39.869  26.955  29.506  1.00  0.00     0.010 A 
ATOM     45  C   UNL A   1      40.680  28.086  29.674  1.00  0.00    -0.014 A 
BRANCH  45  46
ATOM     46  C   UNL A   1      40.530  28.920  30.895  1.00  0.00     0.031 A 
ATOM     47  C   UNL A   1      39.501  30.018  30.942  1.00  0.00     0.074 A 
ATOM     48  C   UNL A   1      41.369  28.736  31.935  1.00  0.00     0.049 A 
ATOM     49  N   UNL A   1      39.271  30.897  31.885  1.00  0.00    -0.248 NA
ATOM     50  C   UNL A   1      38.620  30.155  29.769  1.00  0.00     0.031 C 
ATOM     51  C   UNL A   1      42.430  27.729  32.001  1.00  0.00     0.029 A 
ATOM     52  N   UNL A   1      41.473  29.402  33.132  1.00  0.00    -0.354 N 
ATOM     53  C   UNL A   1      38.239  31.700  31.413  1.00  0.00     0.074 A 
ATOM     54  C   UNL A   1      37.912  31.230  30.085  1.00  0.00     0.031 C 
ATOM     55  C   UNL A   1      43.066  27.834  33.178  1.00  0.00     0.029 A 
ATOM     56  C   UNL A   1      42.497  28.947  33.930  1.00  0.00     0.049 A 
ATOM     57  H   UNL A   1      40.871  30.136  33.395  1.00  0.00     0.167 HD
ATOM     58  C   UNL A   1      37.610  32.726  32.034  1.00  0.00     0.031 A 
ATOM     59  C   UNL A   1      42.944  29.390  35.122  1.00  0.00     0.031 A 
ATOM     60  C   UNL A   1      37.952  33.202  33.350  1.00  0.00     0.049 A 
ATOM     61  C   UNL A   1      42.260  30.563  35.771  1.00  0.00     0.074 A 
ATOM     62  C   UNL A   1      37.350  34.210  34.082  1.00  0.00     0.029 A 
ATOM     63  N   UNL A   1      38.994  32.714  34.124  1.00  0.00    -0.354 N 
ATOM     64  N   UNL A   1      41.231  31.259  35.347  1.00  0.00    -0.248 NA
ATOM     65  C   UNL A   1      42.787  31.004  37.070  1.00  0.00     0.031 C 
ATOM     66  C   UNL A   1      38.061  34.368  35.276  1.00  0.00     0.029 A 
ATOM     67  C   UNL A   1      39.064  33.411  35.319  1.00  0.00     0.049 A 
ATOM     68  H   UNL A   1      39.596  31.979  33.863  1.00  0.00     0.167 HD
ATOM     69  C   UNL A   1      40.973  32.200  36.337  1.00  0.00     0.074 A 
ATOM     70  C   UNL A   1      41.938  31.971  37.392  1.00  0.00     0.031 C 
ATOM     71  C   UNL A   1      40.020  33.164  36.370  1.00  0.00     0.031 A 
BRANCH  58  72
ATOM     72  C   UNL A   1      36.484  33.405  31.295  1.00  0.00    -0.014 A 
ATOM     73  C   UNL A   1      35.275  33.714  31.945  1.00  0.00     0.010 A 
ATOM     74  C   UNL A   1      36.649  33.785  29.950  1.00  0.00     0.010 A 
ATOM     75  C   UNL A   1      34.242  34.357  31.258  1.00  0.00     0.020 A 
ATOM     76  C   UNL A   1      35.629  34.456  29.266  1.00  0.00     0.020 A 
ATOM     77  C   UNL A   1      34.426  34.726  29.922  1.00  0.00     0.054 A 
BRANCH  77  78
ATOM     78  S   UNL A   1      33.080  35.597  29.072  1.00  0.00     0.124 S 
ATOM     79  O   UNL A   1      32.511  34.542  28.236  1.00  0.00    -0.237 OA
ATOM     80  O   UNL A   1      32.236  36.041  30.178  1.00  0.00    -0.237 OA
ATOM     81  O   UNL A   1      33.759  36.668  28.345  1.00  0.00    -0.744 OA
ENDBRANCH  77  78
ENDBRANCH  58  72
BRANCH  59  82
ATOM     82  C   UNL A   1      44.099  28.718  35.786  1.00  0.00    -0.014 A 
ATOM     83  C   UNL A   1      45.412  29.166  35.556  1.00  0.00     0.010 A 
ATOM     84  C   UNL A   1      43.896  27.622  36.646  1.00  0.00     0.010 A 
ATOM     85  C   UNL A   1      46.499  28.514  36.148  1.00  0.00     0.020 A 
ATOM     86  C   UNL A   1      44.979  26.988  37.265  1.00  0.00     0.020 A 
ATOM     87  C   UNL A   1      46.276  27.429  36.998  1.00  0.00     0.054 A 
BRANCH  87  88
ATOM     88  S   UNL A   1      47.705  26.621  37.771  1.00  0.00     0.124 S 
ATOM     89  O   UNL A   1      48.826  27.284  37.108  1.00  0.00    -0.237 OA
ATOM     90  O   UNL A   1      47.530  26.948  39.184  1.00  0.00    -0.237 OA
ATOM     91  O   UNL A   1      47.529  25.210  37.440  1.00  0.00    -0.744 OA
ENDBRANCH  87  88
ENDBRANCH  59  82
BRANCH  71  92
ATOM     92  C   UNL A   1      39.928  34.016  37.611  1.00  0.00    -0.014 A 
ATOM     93  C   UNL A   1      40.501  35.299  37.669  1.00  0.00     0.010 A 
ATOM     94  C   UNL A   1      39.194  33.545  38.716  1.00  0.00     0.010 A 
ATOM     95  C   UNL A   1      40.360  36.085  38.817  1.00  0.00     0.020 A 
ATOM     96  C   UNL A   1      39.026  34.339  39.853  1.00  0.00     0.020 A 
ATOM     97  C   UNL A   1      39.620  35.601  39.902  1.00  0.00     0.054 A 
BRANCH  97  98
ATOM     98  S   UNL A   1      39.402  36.663  41.357  1.00  0.00     0.124 S 
ATOM     99  O   UNL A   1      38.942  37.913  40.759  1.00  0.00    -0.237 OA
ATOM    100  O   UNL A   1      38.405  35.937  42.139  1.00  0.00    -0.237 OA
ATOM    101  O   UNL A   1      40.734  36.715  41.954  1.00  0.00    -0.744 OA
ENDBRANCH  97  98
ENDBRANCH  71  92
ENDBRANCH  45  46
ENDBRANCH  37  40
ENDBRANCH  35  36
ENDBRANCH  34  35
ENDBRANCH   1  34
TORSDOF 18
ENDMDL
MODEL 3
REMARK VINA RESULT:     -12.0      1.160      2.210
REMARK SMILES O=C(CNC(=O)N1CC(NCCCNC(=O)c2ccc(-c3c4nc(c(-c5ccc(S(=O)(=O)[O-])cc5)c5ccc([nH]5)c(-c5ccc(S(=O)(=O)[O-])cc5)c5nc(c(-c6ccc(S(=O)(=O)[O-])cc6)c6ccc3[nH]6)C=C5)C=C4)cc2)=[NH+]c2ccccc21)N[C@H](C(=O)[O-])c1ccccc1
REMARK SMILES IDX 11 1 10 2 7 3 8 4 83 5 9 6 78 7 82 8 77 9 79 10 81 11 80 14
REMARK SMILES IDX 5 15 4 16 6 18 3 19 2 20 1 21 84 22 85 24 89 25 90 26 94 27
REMARK SMILES IDX 91 28 93 29 92 30 86 31 87 32 88 33 12 34 13 35 14 36 15 37
REMARK SMILES IDX 16 39 17 40 18 41 76 42 19 43 75 44 20 45 21 46 22 47 69 48
REMARK SMILES IDX 23 49 74 50 68 51 70 52 24 53 73 54 67 55 66 56 25 58 55 59
REMARK SMILES IDX 36 60 54 61 37 62 40 63 53 64 71 65 38 66 39 67 52 69 72 70
REMARK SMILES IDX 41 71 26 72 27 73 35 74 28 75 34 76 29 77 30 78 31 79 32 80
REMARK SMILES IDX 33 81 56 82 57 83 65 84 58 85 64 86 59 87 60 88 61 89 62 90
REMARK SMILES IDX 63 91 42 92 43 93 51 94 44 95 50 96 45 97 46 98 47 99 48 100
REMARK SMILES IDX 49 101
REMARK H PARENT 10 12 77 13 4 17 84 23 14 38 70 57 40 68
REMARK Flexibility Score: inf
ROOT
ATOM      1  C   UNL A   1      34.497  29.247  26.502  1.00  0.00     0.235 C 
ENDROOT
BRANCH   1   2
ATOM      2  N   UNL A   1      33.408  29.964  25.884  1.00  0.00    -0.277 N 
ATOM      3  N   UNL A   1      31.277  27.605  23.944  1.00  0.00    -0.278 N 
ATOM      4  C   UNL A   1      32.106  27.944  25.085  1.00  0.00     0.255 C 
ATOM      5  C   UNL A   1      30.200  28.493  23.671  1.00  0.00     0.093 A 
ATOM      6  C   UNL A   1      32.314  29.455  25.229  1.00  0.00     0.268 C 
ATOM      7  C   UNL A   1      30.318  29.830  24.095  1.00  0.00     0.148 A 
ATOM      8  C   UNL A   1      29.053  28.083  22.974  1.00  0.00     0.031 A 
ATOM      9  N   UNL A   1      31.441  30.319  24.788  1.00  0.00    -0.241 N 
ATOM     10  C   UNL A   1      29.319  30.744  23.744  1.00  0.00     0.054 A 
ATOM     11  C   UNL A   1      28.062  29.006  22.640  1.00  0.00     0.002 A 
ATOM     12  H   UNL A   1      33.456  30.945  25.938  1.00  0.00     0.304 HD
ATOM     13  H   UNL A   1      31.564  31.284  24.935  1.00  0.00     0.312 HD
ATOM     14  C   UNL A   1      28.202  30.340  23.013  1.00  0.00     0.005 A 
BRANCH   3  15
ATOM     15  C   UNL A   1      31.543  26.417  23.304  1.00  0.00     0.323 C 
ATOM     16  N   UNL A   1      31.390  25.252  23.989  1.00  0.00    -0.329 N 
ATOM     17  H   UNL A   1      31.891  24.474  23.650  1.00  0.00     0.165 HD
ATOM     18  O   UNL A   1      31.835  26.362  22.107  1.00  0.00    -0.248 OA
BRANCH  16  19
ATOM     19  C   UNL A   1      30.569  25.032  25.168  1.00  0.00     0.218 C 
BRANCH  19  20
ATOM     20  C   UNL A   1      31.203  23.985  26.078  1.00  0.00     0.240 C 
ATOM     21  O   UNL A   1      30.982  23.964  27.285  1.00  0.00    -0.273 OA
ATOM     22  N   UNL A   1      31.968  23.094  25.378  1.00  0.00    -0.342 N 
ATOM     23  H   UNL A   1      32.163  23.324  24.441  1.00  0.00     0.164 HD
BRANCH  22  24
ATOM     24  C   UNL A   1      32.534  21.824  25.876  1.00  0.00     0.158 C 
BRANCH  24  25
ATOM     25  C   UNL A   1      32.413  20.713  24.838  1.00  0.00    -0.020 A 
ATOM     26  C   UNL A   1      32.201  21.034  23.490  1.00  0.00     0.006 A 
ATOM     27  C   UNL A   1      32.551  19.358  25.187  1.00  0.00     0.006 A 
ATOM     28  C   UNL A   1      32.188  20.034  22.514  1.00  0.00     0.000 A 
ATOM     29  C   UNL A   1      32.559  18.361  24.210  1.00  0.00     0.000 A 
ATOM     30  C   UNL A   1      32.385  18.701  22.871  1.00  0.00     0.000 A 
ENDBRANCH  24  25
BRANCH  24  31
ATOM     31  C   UNL A   1      34.027  22.059  26.320  1.00  0.00     0.068 C 
ATOM     32  O   UNL A   1      34.377  21.511  27.409  1.00  0.00    -0.548 OA
ATOM     33  O   UNL A   1      34.764  22.597  25.439  1.00  0.00    -0.548 OA
ENDBRANCH  24  31
ENDBRANCH  22  24
ENDBRANCH  19  20
ENDBRANCH  16  19
ENDBRANCH   3  15
ENDBRANCH   1   2
BRANCH   1  34
ATOM     34  C   UNL A   1      34.648  29.613  27.975  1.00  0.00     0.067 C 
BRANCH  34  35
ATOM     35  C   UNL A   1      35.398  30.919  28.228  1.00  0.00     0.120 C 
BRANCH  35  36
ATOM     36  N   UNL A   1      35.485  31.258  29.648  1.00  0.00    -0.352 N 
ATOM     37  C   UNL A   1      36.472  31.001  30.566  1.00  0.00     0.251 C 
ATOM     38  H   UNL A   1      34.710  31.751  30.003  1.00  0.00     0.163 HD
ATOM     39  O   UNL A   1      36.261  31.231  31.759  1.00  0.00    -0.269 OA
BRANCH  37  40
ATOM     40  C   UNL A   1      37.771  30.429  30.148  1.00  0.00     0.039 A 
ATOM     41  C   UNL A   1      38.107  30.436  28.790  1.00  0.00     0.014 A 
ATOM     42  C   UNL A   1      38.649  29.869  31.078  1.00  0.00     0.014 A 
ATOM     43  C   UNL A   1      39.353  29.953  28.378  1.00  0.00     0.010 A 
ATOM     44  C   UNL A   1      39.920  29.464  30.678  1.00  0.00     0.010 A 
ATOM     45  C   UNL A   1      40.288  29.502  29.325  1.00  0.00    -0.014 A 
BRANCH  45  46
ATOM     46  C   UNL A   1      41.658  29.083  28.927  1.00  0.00     0.031 A 
ATOM     47  C   UNL A   1      42.770  30.095  28.858  1.00  0.00     0.074 A 
ATOM     48  C   UNL A   1      41.883  27.806  28.557  1.00  0.00     0.049 A 
ATOM     49  N   UNL A   1      44.008  29.937  28.462  1.00  0.00    -0.248 NA
ATOM     50  C   UNL A   1      42.447  31.469  29.280  1.00  0.00     0.031 C 
ATOM     51  C   UNL A   1      40.882  26.737  28.547  1.00  0.00     0.029 A 
ATOM     52  N   UNL A   1      43.024  27.192  28.101  1.00  0.00    -0.354 N 
ATOM     53  C   UNL A   1      44.602  31.190  28.566  1.00  0.00     0.074 A 
ATOM     54  C   UNL A   1      43.582  32.105  29.026  1.00  0.00     0.031 C 
ATOM     55  C   UNL A   1      41.455  25.599  28.122  1.00  0.00     0.029 A 
ATOM     56  C   UNL A   1      42.847  25.866  27.778  1.00  0.00     0.049 A 
ATOM     57  H   UNL A   1      43.887  27.656  28.013  1.00  0.00     0.167 HD
ATOM     58  C   UNL A   1      45.886  31.544  28.316  1.00  0.00     0.031 A 
ATOM     59  C   UNL A   1      43.701  24.971  27.243  1.00  0.00     0.031 A 
ATOM     60  C   UNL A   1      46.894  30.632  27.839  1.00  0.00     0.049 A 
ATOM     61  C   UNL A   1      45.109  25.401  26.928  1.00  0.00     0.074 A 
ATOM     62  C   UNL A   1      48.232  30.884  27.591  1.00  0.00     0.029 A 
ATOM     63  N   UNL A   1      46.674  29.299  27.526  1.00  0.00    -0.354 N 
ATOM     64  N   UNL A   1      45.678  26.570  27.110  1.00  0.00    -0.248 NA
ATOM     65  C   UNL A   1      45.999  24.386  26.346  1.00  0.00     0.031 C 
ATOM     66  C   UNL A   1      48.809  29.719  27.078  1.00  0.00     0.029 A 
ATOM     67  C   UNL A   1      47.848  28.720  27.071  1.00  0.00     0.049 A 
ATOM     68  H   UNL A   1      45.811  28.833  27.614  1.00  0.00     0.167 HD
ATOM     69  C   UNL A   1      46.995  26.421  26.692  1.00  0.00     0.074 A 
ATOM     70  C   UNL A   1      47.147  25.046  26.268  1.00  0.00     0.031 C 
ATOM     71  C   UNL A   1      47.991  27.343  26.665  1.00  0.00     0.031 A 
BRANCH  58  72
ATOM     72  C   UNL A   1      46.273  32.983  28.553  1.00  0.00    -0.014 A 
ATOM     73  C   UNL A   1      46.148  33.942  27.532  1.00  0.00     0.010 A 
ATOM     74  C   UNL A   1      46.718  33.394  29.823  1.00  0.00     0.010 A 
ATOM     75  C   UNL A   1      46.494  35.276  27.763  1.00  0.00     0.020 A 
ATOM     76  C   UNL A   1      47.038  34.735  30.068  1.00  0.00     0.020 A 
ATOM     77  C   UNL A   1      46.936  35.665  29.032  1.00  0.00     0.054 A 
BRANCH  77  78
ATOM     78  S   UNL A   1      47.336  37.413  29.311  1.00  0.00     0.124 S 
ATOM     79  O   UNL A   1      48.451  37.326  30.251  1.00  0.00    -0.237 OA
ATOM     80  O   UNL A   1      47.683  37.880  27.971  1.00  0.00    -0.237 OA
ATOM     81  O   UNL A   1      46.102  37.973  29.859  1.00  0.00    -0.744 OA
ENDBRANCH  77  78
ENDBRANCH  58  72
BRANCH  59  82
ATOM     82  C   UNL A   1      43.252  23.575  26.974  1.00  0.00    -0.014 A 
ATOM     83  C   UNL A   1      43.108  22.657  28.029  1.00  0.00     0.010 A 
ATOM     84  C   UNL A   1      42.971  23.150  25.661  1.00  0.00     0.010 A 
ATOM     85  C   UNL A   1      42.723  21.337  27.775  1.00  0.00     0.020 A 
ATOM     86  C   UNL A   1      42.555  21.838  25.407  1.00  0.00     0.020 A 
ATOM     87  C   UNL A   1      42.449  20.935  26.465  1.00  0.00     0.054 A 
BRANCH  87  88
ATOM     88  S   UNL A   1      41.927  19.222  26.172  1.00  0.00     0.124 S 
ATOM     89  O   UNL A   1      42.278  18.575  27.434  1.00  0.00    -0.237 OA
ATOM     90  O   UNL A   1      40.496  19.365  25.917  1.00  0.00    -0.237 OA
ATOM     91  O   UNL A   1      42.719  18.810  25.017  1.00  0.00    -0.744 OA
ENDBRANCH  87  88
ENDBRANCH  59  82
BRANCH  71  92
ATOM     92  C   UNL A   1      49.355  26.886  26.215  1.00  0.00    -0.014 A 
ATOM     93  C   UNL A   1      49.802  27.085  24.896  1.00  0.00     0.010 A 
ATOM     94  C   UNL A   1      50.232  26.309  27.153  1.00  0.00     0.010 A 
ATOM     95  C   UNL A   1      51.089  26.692  24.519  1.00  0.00     0.020 A 
ATOM     96  C   UNL A   1      51.530  25.944  26.788  1.00  0.00     0.020 A 
ATOM     97  C   UNL A   1      51.948  26.127  25.469  1.00  0.00     0.054 A 
BRANCH  97  98
ATOM     98  S   UNL A   1      53.634  25.681  24.970  1.00  0.00     0.124 S 
ATOM     99  O   UNL A   1      54.444  26.599  25.766  1.00  0.00    -0.237 OA
ATOM    100  O   UNL A   1      53.722  24.274  25.352  1.00  0.00    -0.237 OA
ATOM    101  O   UNL A   1      53.651  25.930  23.530  1.00  0.00    -0.744 OA
ENDBRANCH  97  98
ENDBRANCH  71  92
ENDBRANCH  45  46
ENDBRANCH  37  40
ENDBRANCH  35  36
ENDBRANCH  34  35
ENDBRANCH   1  34
TORSDOF 18
ENDMDL
