MODEL 1
REMARK VINA RESULT:     -11.9      0.000      0.000
REMARK SMILES CSc1ccc(-c2cc(C[C@H]3CCCC3=O)ccc2[C@@H](C)C(=O)NCCCNC(=O)c2ccc(-c3c4nc(c(-c5ccc(S(=O)(=O)[O-])cc5)c5ccc([nH]5)c(-c5ccc(S(=O)(=O)[O-])cc5)c5nc(c(-c6ccc(S(=O)(=O)[O-])cc6)c6ccc3[nH]6)C=C5)C=C4)cc2)cc1
REMARK SMILES IDX 26 1 25 2 24 3 22 4 23 5 20 7 21 8 19 9 7 10 8 11 9 12 18 13
REMARK SMILES IDX 17 14 6 15 3 16 4 17 92 18 5 19 91 20 2 21 1 22 10 23 11 24
REMARK SMILES IDX 12 25 15 26 13 27 14 28 16 29 27 30 28 31 29 32 30 34 31 35
REMARK SMILES IDX 32 36 90 37 33 38 89 39 34 40 35 41 36 42 83 43 37 44 88 45
REMARK SMILES IDX 82 46 84 47 38 48 87 49 81 50 80 51 39 53 69 54 50 55 68 56
REMARK SMILES IDX 51 57 54 58 67 59 85 60 52 61 53 62 66 64 86 65 55 66 40 67
REMARK SMILES IDX 41 68 49 69 42 70 48 71 43 72 44 73 45 74 46 75 47 76 70 77
REMARK SMILES IDX 71 78 79 79 72 80 78 81 73 82 74 83 75 84 76 85 77 86 56 87
REMARK SMILES IDX 57 88 65 89 58 90 64 91 59 92 60 93 61 94 62 95 63 96
REMARK H PARENT 24 6 28 33 84 52 54 63
REMARK Flexibility Score: inf
ROOT
ATOM      1  C   UNL A   1      31.504  32.110  27.128  1.00  0.00     0.042 C 
ENDROOT
BRANCH   1   2
ATOM      2  C   UNL A   1      31.294  31.309  25.845  1.00  0.00     0.117 C 
BRANCH   2   3
ATOM      3  N   UNL A   1      32.405  30.423  25.556  1.00  0.00    -0.356 N 
ATOM      4  C   UNL A   1      32.590  29.085  25.730  1.00  0.00     0.227 C 
ATOM      5  O   UNL A   1      33.709  28.656  25.415  1.00  0.00    -0.274 OA
ATOM      6  H   UNL A   1      33.181  30.880  25.157  1.00  0.00     0.163 HD
BRANCH   4   7
ATOM      7  C   UNL A   1      31.524  28.115  26.272  1.00  0.00     0.106 C 
ATOM      8  C   UNL A   1      31.412  28.054  27.795  1.00  0.00     0.023 C 
BRANCH   7   9
ATOM      9  C   UNL A   1      31.536  26.760  25.569  1.00  0.00    -0.028 A 
ATOM     10  C   UNL A   1      31.073  26.587  24.242  1.00  0.00    -0.014 A 
ATOM     11  C   UNL A   1      31.199  25.319  23.631  1.00  0.00     0.012 A 
ATOM     12  C   UNL A   1      31.704  24.213  24.325  1.00  0.00    -0.047 A 
ATOM     13  C   UNL A   1      32.016  25.630  26.250  1.00  0.00     0.005 A 
ATOM     14  C   UNL A   1      32.137  24.388  25.635  1.00  0.00     0.004 A 
BRANCH  10  15
ATOM     15  C   UNL A   1      30.283  27.604  23.528  1.00  0.00    -0.018 A 
ATOM     16  C   UNL A   1      28.876  29.629  22.129  1.00  0.00     0.007 A 
ATOM     17  C   UNL A   1      30.268  29.550  22.055  1.00  0.00     0.015 A 
ATOM     18  C   UNL A   1      28.193  28.690  22.911  1.00  0.00     0.015 A 
ATOM     19  C   UNL A   1      30.959  28.548  22.738  1.00  0.00     0.010 A 
ATOM     20  C   UNL A   1      28.890  27.687  23.606  1.00  0.00     0.010 A 
BRANCH  16  21
ATOM     21  S   UNL A   1      28.100  30.976  21.246  1.00  0.00    -0.130 SA
ATOM     22  C   UNL A   1      28.582  32.416  22.229  1.00  0.00     0.091 C 
ENDBRANCH  16  21
ENDBRANCH  10  15
BRANCH  12  23
ATOM     23  C   UNL A   1      31.625  22.823  23.743  1.00  0.00     0.047 C 
BRANCH  23  24
ATOM     24  C   UNL A   1      32.929  22.339  23.087  1.00  0.00     0.060 C 
ATOM     25  C   UNL A   1      33.862  23.411  22.502  1.00  0.00     0.012 C 
ATOM     26  C   UNL A   1      33.839  21.656  24.085  1.00  0.00     0.136 C 
ATOM     27  C   UNL A   1      34.908  23.699  23.575  1.00  0.00     0.009 C 
ATOM     28  C   UNL A   1      35.164  22.355  24.238  1.00  0.00     0.076 C 
ATOM     29  O   UNL A   1      33.546  20.633  24.694  1.00  0.00    -0.299 OA
ENDBRANCH  23  24
ENDBRANCH  12  23
ENDBRANCH   7   9
ENDBRANCH   4   7
ENDBRANCH   2   3
ENDBRANCH   1   2
BRANCH   1  30
ATOM     30  C   UNL A   1      32.901  32.692  27.281  1.00  0.00     0.118 C 
BRANCH  30  31
ATOM     31  N   UNL A   1      32.868  34.081  27.711  1.00  0.00    -0.352 N 
ATOM     32  C   UNL A   1      33.515  34.716  28.744  1.00  0.00     0.251 C 
ATOM     33  H   UNL A   1      32.287  34.664  27.172  1.00  0.00     0.163 HD
ATOM     34  O   UNL A   1      33.150  35.845  29.063  1.00  0.00    -0.269 OA
BRANCH  32  35
ATOM     35  C   UNL A   1      34.626  34.065  29.478  1.00  0.00     0.039 A 
ATOM     36  C   UNL A   1      35.942  34.387  29.126  1.00  0.00     0.014 A 
ATOM     37  C   UNL A   1      34.394  33.096  30.457  1.00  0.00     0.014 A 
ATOM     38  C   UNL A   1      37.013  33.775  29.784  1.00  0.00     0.010 A 
ATOM     39  C   UNL A   1      35.460  32.551  31.171  1.00  0.00     0.010 A 
ATOM     40  C   UNL A   1      36.782  32.870  30.832  1.00  0.00    -0.014 A 
BRANCH  40  41
ATOM     41  C   UNL A   1      37.905  32.233  31.568  1.00  0.00     0.031 A 
ATOM     42  C   UNL A   1      38.314  32.752  32.923  1.00  0.00     0.074 A 
ATOM     43  C   UNL A   1      38.601  31.233  30.990  1.00  0.00     0.049 A 
ATOM     44  N   UNL A   1      39.309  32.375  33.685  1.00  0.00    -0.248 NA
ATOM     45  C   UNL A   1      37.517  33.856  33.484  1.00  0.00     0.031 C 
ATOM     46  C   UNL A   1      38.334  30.672  29.663  1.00  0.00     0.029 A 
ATOM     47  N   UNL A   1      39.683  30.518  31.440  1.00  0.00    -0.354 N 
ATOM     48  C   UNL A   1      39.275  33.212  34.795  1.00  0.00     0.074 A 
ATOM     49  C   UNL A   1      38.188  34.143  34.590  1.00  0.00     0.031 C 
ATOM     50  C   UNL A   1      39.215  29.687  29.417  1.00  0.00     0.029 A 
ATOM     51  C   UNL A   1      40.132  29.574  30.547  1.00  0.00     0.049 A 
ATOM     52  H   UNL A   1      40.099  30.667  32.320  1.00  0.00     0.167 HD
ATOM     53  C   UNL A   1      40.067  33.198  35.894  1.00  0.00     0.031 A 
ATOM     54  C   UNL A   1      41.170  28.720  30.621  1.00  0.00     0.031 A 
ATOM     55  C   UNL A   1      41.131  32.253  36.106  1.00  0.00     0.049 A 
ATOM     56  C   UNL A   1      42.026  28.712  31.859  1.00  0.00     0.074 A 
ATOM     57  C   UNL A   1      41.941  32.106  37.219  1.00  0.00     0.029 A 
ATOM     58  N   UNL A   1      41.533  31.294  35.189  1.00  0.00    -0.354 N 
ATOM     59  N   UNL A   1      41.929  29.461  32.931  1.00  0.00    -0.248 NA
ATOM     60  C   UNL A   1      43.122  27.734  31.902  1.00  0.00     0.031 C 
ATOM     61  C   UNL A   1      42.867  31.093  36.954  1.00  0.00     0.029 A 
ATOM     62  C   UNL A   1      42.597  30.569  35.701  1.00  0.00     0.049 A 
ATOM     63  H   UNL A   1      41.125  31.151  34.305  1.00  0.00     0.167 HD
ATOM     64  C   UNL A   1      42.936  29.029  33.787  1.00  0.00     0.074 A 
ATOM     65  C   UNL A   1      43.617  27.942  33.115  1.00  0.00     0.031 C 
ATOM     66  C   UNL A   1      43.264  29.489  35.019  1.00  0.00     0.031 A 
BRANCH  53  67
ATOM     67  C   UNL A   1      39.817  34.241  36.952  1.00  0.00    -0.014 A 
ATOM     68  C   UNL A   1      39.012  33.966  38.072  1.00  0.00     0.010 A 
ATOM     69  C   UNL A   1      40.438  35.499  36.850  1.00  0.00     0.010 A 
ATOM     70  C   UNL A   1      38.799  34.942  39.049  1.00  0.00     0.020 A 
ATOM     71  C   UNL A   1      40.251  36.469  37.839  1.00  0.00     0.020 A 
ATOM     72  C   UNL A   1      39.418  36.190  38.924  1.00  0.00     0.054 A 
BRANCH  72  73
ATOM     73  S   UNL A   1      39.146  37.428  40.222  1.00  0.00     0.124 S 
ATOM     74  O   UNL A   1      38.192  38.330  39.581  1.00  0.00    -0.237 OA
ATOM     75  O   UNL A   1      38.611  36.628  41.322  1.00  0.00    -0.237 OA
ATOM     76  O   UNL A   1      40.475  37.987  40.452  1.00  0.00    -0.744 OA
ENDBRANCH  72  73
ENDBRANCH  53  67
BRANCH  54  77
ATOM     77  C   UNL A   1      41.453  27.793  29.490  1.00  0.00    -0.014 A 
ATOM     78  C   UNL A   1      42.539  28.027  28.628  1.00  0.00     0.010 A 
ATOM     79  C   UNL A   1      40.641  26.664  29.276  1.00  0.00     0.010 A 
ATOM     80  C   UNL A   1      42.797  27.159  27.563  1.00  0.00     0.020 A 
ATOM     81  C   UNL A   1      40.914  25.779  28.230  1.00  0.00     0.020 A 
ATOM     82  C   UNL A   1      41.983  26.039  27.372  1.00  0.00     0.054 A 
BRANCH  82  83
ATOM     83  S   UNL A   1      42.369  24.897  26.017  1.00  0.00     0.124 S 
ATOM     84  O   UNL A   1      41.554  23.735  26.357  1.00  0.00    -0.237 OA
ATOM     85  O   UNL A   1      41.941  25.647  24.838  1.00  0.00    -0.237 OA
ATOM     86  O   UNL A   1      43.814  24.706  26.132  1.00  0.00    -0.744 OA
ENDBRANCH  82  83
ENDBRANCH  54  77
BRANCH  66  87
ATOM     87  C   UNL A   1      44.391  28.798  35.738  1.00  0.00    -0.014 A 
ATOM     88  C   UNL A   1      45.718  29.244  35.613  1.00  0.00     0.010 A 
ATOM     89  C   UNL A   1      44.106  27.721  36.598  1.00  0.00     0.010 A 
ATOM     90  C   UNL A   1      46.746  28.605  36.311  1.00  0.00     0.020 A 
ATOM     91  C   UNL A   1      45.127  27.098  37.319  1.00  0.00     0.020 A 
ATOM     92  C   UNL A   1      46.443  27.535  37.160  1.00  0.00     0.054 A 
BRANCH  92  93
ATOM     93  S   UNL A   1      47.788  26.750  38.089  1.00  0.00     0.124 S 
ATOM     94  O   UNL A   1      47.074  25.736  38.859  1.00  0.00    -0.237 OA
ATOM     95  O   UNL A   1      48.656  26.239  37.030  1.00  0.00    -0.237 OA
ATOM     96  O   UNL A   1      48.352  27.847  38.873  1.00  0.00    -0.744 OA
ENDBRANCH  92  93
ENDBRANCH  66  87
ENDBRANCH  40  41
ENDBRANCH  32  35
ENDBRANCH  30  31
ENDBRANCH   1  30
TORSDOF 18
ENDMDL
MODEL 2
REMARK VINA RESULT:     -11.7      2.602      9.315
REMARK SMILES CSc1ccc(-c2cc(C[C@H]3CCCC3=O)ccc2[C@@H](C)C(=O)NCCCNC(=O)c2ccc(-c3c4nc(c(-c5ccc(S(=O)(=O)[O-])cc5)c5ccc([nH]5)c(-c5ccc(S(=O)(=O)[O-])cc5)c5nc(c(-c6ccc(S(=O)(=O)[O-])cc6)c6ccc3[nH]6)C=C5)C=C4)cc2)cc1
REMARK SMILES IDX 26 1 25 2 24 3 22 4 23 5 20 7 21 8 19 9 7 10 8 11 9 12 18 13
REMARK SMILES IDX 17 14 6 15 3 16 4 17 92 18 5 19 91 20 2 21 1 22 10 23 11 24
REMARK SMILES IDX 12 25 15 26 13 27 14 28 16 29 27 30 28 31 29 32 30 34 31 35
REMARK SMILES IDX 32 36 90 37 33 38 89 39 34 40 35 41 36 42 83 43 37 44 88 45
REMARK SMILES IDX 82 46 84 47 38 48 87 49 81 50 80 51 39 53 69 54 50 55 68 56
REMARK SMILES IDX 51 57 54 58 67 59 85 60 52 61 53 62 66 64 86 65 55 66 40 67
REMARK SMILES IDX 41 68 49 69 42 70 48 71 43 72 44 73 45 74 46 75 47 76 70 77
REMARK SMILES IDX 71 78 79 79 72 80 78 81 73 82 74 83 75 84 76 85 77 86 56 87
REMARK SMILES IDX 57 88 65 89 58 90 64 91 59 92 60 93 61 94 62 95 63 96
REMARK H PARENT 24 6 28 33 84 52 54 63
REMARK Flexibility Score: inf
ROOT
ATOM      1  C   UNL A   1      39.568  21.786  26.521  1.00  0.00     0.042 C 
ENDROOT
BRANCH   1   2
ATOM      2  C   UNL A   1      38.364  21.786  25.581  1.00  0.00     0.117 C 
BRANCH   2   3
ATOM      3  N   UNL A   1      37.214  22.460  26.152  1.00  0.00    -0.356 N 
ATOM      4  C   UNL A   1      36.033  22.884  25.624  1.00  0.00     0.227 C 
ATOM      5  O   UNL A   1      35.284  23.485  26.406  1.00  0.00    -0.274 OA
ATOM      6  H   UNL A   1      37.306  22.651  27.114  1.00  0.00     0.163 HD
BRANCH   4   7
ATOM      7  C   UNL A   1      35.595  22.661  24.164  1.00  0.00     0.106 C 
ATOM      8  C   UNL A   1      36.679  22.903  23.114  1.00  0.00     0.023 C 
BRANCH   7   9
ATOM      9  C   UNL A   1      34.236  23.279  23.847  1.00  0.00    -0.028 A 
ATOM     10  C   UNL A   1      33.016  22.603  24.093  1.00  0.00    -0.014 A 
ATOM     11  C   UNL A   1      31.798  23.277  23.854  1.00  0.00     0.012 A 
ATOM     12  C   UNL A   1      31.762  24.569  23.315  1.00  0.00    -0.047 A 
ATOM     13  C   UNL A   1      34.173  24.564  23.285  1.00  0.00     0.005 A 
ATOM     14  C   UNL A   1      32.965  25.217  23.057  1.00  0.00     0.004 A 
BRANCH  10  15
ATOM     15  C   UNL A   1      32.942  21.164  24.396  1.00  0.00    -0.018 A 
ATOM     16  C   UNL A   1      32.846  18.420  25.102  1.00  0.00     0.007 A 
ATOM     17  C   UNL A   1      33.007  19.401  26.082  1.00  0.00     0.015 A 
ATOM     18  C   UNL A   1      32.737  18.821  23.765  1.00  0.00     0.015 A 
ATOM     19  C   UNL A   1      33.046  20.752  25.734  1.00  0.00     0.010 A 
ATOM     20  C   UNL A   1      32.787  20.181  23.415  1.00  0.00     0.010 A 
BRANCH  16  21
ATOM     21  S   UNL A   1      32.848  16.721  25.658  1.00  0.00    -0.130 SA
ATOM     22  C   UNL A   1      34.300  16.038  24.823  1.00  0.00     0.091 C 
ENDBRANCH  16  21
ENDBRANCH  10  15
BRANCH  12  23
ATOM     23  C   UNL A   1      30.466  25.189  22.856  1.00  0.00     0.047 C 
BRANCH  23  24
ATOM     24  C   UNL A   1      29.883  26.227  23.829  1.00  0.00     0.060 C 
ATOM     25  C   UNL A   1      30.376  26.180  25.284  1.00  0.00     0.012 C 
ATOM     26  C   UNL A   1      30.251  27.639  23.428  1.00  0.00     0.136 C 
ATOM     27  C   UNL A   1      31.496  27.212  25.389  1.00  0.00     0.009 C 
ATOM     28  C   UNL A   1      31.062  28.350  24.480  1.00  0.00     0.076 C 
ATOM     29  O   UNL A   1      29.914  28.165  22.373  1.00  0.00    -0.299 OA
ENDBRANCH  23  24
ENDBRANCH  12  23
ENDBRANCH   7   9
ENDBRANCH   4   7
ENDBRANCH   2   3
ENDBRANCH   1   2
BRANCH   1  30
ATOM     30  C   UNL A   1      39.999  23.169  26.986  1.00  0.00     0.118 C 
BRANCH  30  31
ATOM     31  N   UNL A   1      40.960  23.774  26.076  1.00  0.00    -0.352 N 
ATOM     32  C   UNL A   1      41.488  25.042  26.043  1.00  0.00     0.251 C 
ATOM     33  H   UNL A   1      41.287  23.175  25.367  1.00  0.00     0.163 HD
ATOM     34  O   UNL A   1      42.102  25.398  25.040  1.00  0.00    -0.269 OA
BRANCH  32  35
ATOM     35  C   UNL A   1      41.324  25.979  27.179  1.00  0.00     0.039 A 
ATOM     36  C   UNL A   1      42.225  27.043  27.307  1.00  0.00     0.014 A 
ATOM     37  C   UNL A   1      40.344  25.787  28.156  1.00  0.00     0.014 A 
ATOM     38  C   UNL A   1      42.111  27.933  28.380  1.00  0.00     0.010 A 
ATOM     39  C   UNL A   1      40.178  26.723  29.176  1.00  0.00     0.010 A 
ATOM     40  C   UNL A   1      41.069  27.797  29.310  1.00  0.00    -0.014 A 
BRANCH  40  41
ATOM     41  C   UNL A   1      40.909  28.750  30.439  1.00  0.00     0.031 A 
ATOM     42  C   UNL A   1      41.767  28.616  31.671  1.00  0.00     0.074 A 
ATOM     43  C   UNL A   1      39.947  29.692  30.386  1.00  0.00     0.049 A 
ATOM     44  N   UNL A   1      41.727  29.304  32.783  1.00  0.00    -0.248 NA
ATOM     45  C   UNL A   1      42.787  27.553  31.662  1.00  0.00     0.031 C 
ATOM     46  C   UNL A   1      39.020  29.896  29.270  1.00  0.00     0.029 A 
ATOM     47  N   UNL A   1      39.580  30.651  31.298  1.00  0.00    -0.354 N 
ATOM     48  C   UNL A   1      42.689  28.740  33.614  1.00  0.00     0.074 A 
ATOM     49  C   UNL A   1      43.270  27.628  32.894  1.00  0.00     0.031 C 
ATOM     50  C   UNL A   1      38.207  30.927  29.555  1.00  0.00     0.029 A 
ATOM     51  C   UNL A   1      38.525  31.431  30.887  1.00  0.00     0.049 A 
ATOM     52  H   UNL A   1      40.030  30.768  32.166  1.00  0.00     0.167 HD
ATOM     53  C   UNL A   1      43.068  29.123  34.856  1.00  0.00     0.031 A 
ATOM     54  C   UNL A   1      37.878  32.433  31.513  1.00  0.00     0.031 A 
ATOM     55  C   UNL A   1      42.507  30.246  35.559  1.00  0.00     0.049 A 
ATOM     56  C   UNL A   1      38.327  32.849  32.887  1.00  0.00     0.074 A 
ATOM     57  C   UNL A   1      42.875  30.762  36.789  1.00  0.00     0.029 A 
ATOM     58  N   UNL A   1      41.461  31.028  35.093  1.00  0.00    -0.354 N 
ATOM     59  N   UNL A   1      39.292  32.351  33.624  1.00  0.00    -0.248 NA
ATOM     60  C   UNL A   1      37.611  33.972  33.508  1.00  0.00     0.031 C 
ATOM     61  C   UNL A   1      42.017  31.824  37.092  1.00  0.00     0.029 A 
ATOM     62  C   UNL A   1      41.153  32.007  36.025  1.00  0.00     0.049 A 
ATOM     63  H   UNL A   1      41.004  30.905  34.231  1.00  0.00     0.167 HD
ATOM     64  C   UNL A   1      39.314  33.116  34.785  1.00  0.00     0.074 A 
ATOM     65  C   UNL A   1      38.279  34.119  34.644  1.00  0.00     0.031 C 
ATOM     66  C   UNL A   1      40.120  32.999  35.868  1.00  0.00     0.031 A 
BRANCH  53  67
ATOM     67  C   UNL A   1      44.139  28.315  35.543  1.00  0.00    -0.014 A 
ATOM     68  C   UNL A   1      43.828  27.132  36.238  1.00  0.00     0.010 A 
ATOM     69  C   UNL A   1      45.484  28.720  35.451  1.00  0.00     0.010 A 
ATOM     70  C   UNL A   1      44.836  26.391  36.861  1.00  0.00     0.020 A 
ATOM     71  C   UNL A   1      46.498  27.965  36.049  1.00  0.00     0.020 A 
ATOM     72  C   UNL A   1      46.165  26.814  36.765  1.00  0.00     0.054 A 
BRANCH  72  73
ATOM     73  S   UNL A   1      47.454  25.816  37.561  1.00  0.00     0.124 S 
ATOM     74  O   UNL A   1      48.455  25.719  36.501  1.00  0.00    -0.237 OA
ATOM     75  O   UNL A   1      47.832  26.637  38.708  1.00  0.00    -0.237 OA
ATOM     76  O   UNL A   1      46.771  24.567  37.890  1.00  0.00    -0.744 OA
ENDBRANCH  72  73
ENDBRANCH  53  67
BRANCH  54  77
ATOM     77  C   UNL A   1      36.740  33.117  30.841  1.00  0.00    -0.014 A 
ATOM     78  C   UNL A   1      35.435  33.005  31.353  1.00  0.00     0.010 A 
ATOM     79  C   UNL A   1      36.958  33.894  29.688  1.00  0.00     0.010 A 
ATOM     80  C   UNL A   1      34.367  33.643  30.714  1.00  0.00     0.020 A 
ATOM     81  C   UNL A   1      35.897  34.556  29.064  1.00  0.00     0.020 A 
ATOM     82  C   UNL A   1      34.606  34.416  29.575  1.00  0.00     0.054 A 
BRANCH  82  83
ATOM     83  S   UNL A   1      33.214  35.280  28.794  1.00  0.00     0.124 S 
ATOM     84  O   UNL A   1      33.895  36.300  28.004  1.00  0.00    -0.237 OA
ATOM     85  O   UNL A   1      32.568  34.214  28.032  1.00  0.00    -0.237 OA
ATOM     86  O   UNL A   1      32.441  35.778  29.931  1.00  0.00    -0.744 OA
ENDBRANCH  82  83
ENDBRANCH  54  77
BRANCH  66  87
ATOM     87  C   UNL A   1      39.940  34.001  36.977  1.00  0.00    -0.014 A 
ATOM     88  C   UNL A   1      40.554  35.265  36.924  1.00  0.00     0.010 A 
ATOM     89  C   UNL A   1      39.098  33.691  38.060  1.00  0.00     0.010 A 
ATOM     90  C   UNL A   1      40.352  36.190  37.951  1.00  0.00     0.020 A 
ATOM     91  C   UNL A   1      38.872  34.624  39.075  1.00  0.00     0.020 A 
ATOM     92  C   UNL A   1      39.512  35.863  39.020  1.00  0.00     0.054 A 
BRANCH  92  93
ATOM     93  S   UNL A   1      39.231  37.097  40.319  1.00  0.00     0.124 S 
ATOM     94  O   UNL A   1      38.328  36.389  41.221  1.00  0.00    -0.237 OA
ATOM     95  O   UNL A   1      40.578  37.333  40.836  1.00  0.00    -0.237 OA
ATOM     96  O   UNL A   1      38.639  38.225  39.602  1.00  0.00    -0.744 OA
ENDBRANCH  92  93
ENDBRANCH  66  87
ENDBRANCH  40  41
ENDBRANCH  32  35
ENDBRANCH  30  31
ENDBRANCH   1  30
TORSDOF 18
ENDMDL
MODEL 3
REMARK VINA RESULT:     -11.7      0.617      7.924
REMARK SMILES CSc1ccc(-c2cc(C[C@H]3CCCC3=O)ccc2[C@@H](C)C(=O)NCCCNC(=O)c2ccc(-c3c4nc(c(-c5ccc(S(=O)(=O)[O-])cc5)c5ccc([nH]5)c(-c5ccc(S(=O)(=O)[O-])cc5)c5nc(c(-c6ccc(S(=O)(=O)[O-])cc6)c6ccc3[nH]6)C=C5)C=C4)cc2)cc1
REMARK SMILES IDX 26 1 25 2 24 3 22 4 23 5 20 7 21 8 19 9 7 10 8 11 9 12 18 13
REMARK SMILES IDX 17 14 6 15 3 16 4 17 92 18 5 19 91 20 2 21 1 22 10 23 11 24
REMARK SMILES IDX 12 25 15 26 13 27 14 28 16 29 27 30 28 31 29 32 30 34 31 35
REMARK SMILES IDX 32 36 90 37 33 38 89 39 34 40 35 41 36 42 83 43 37 44 88 45
REMARK SMILES IDX 82 46 84 47 38 48 87 49 81 50 80 51 39 53 69 54 50 55 68 56
REMARK SMILES IDX 51 57 54 58 67 59 85 60 52 61 53 62 66 64 86 65 55 66 40 67
REMARK SMILES IDX 41 68 49 69 42 70 48 71 43 72 44 73 45 74 46 75 47 76 70 77
REMARK SMILES IDX 71 78 79 79 72 80 78 81 73 82 74 83 75 84 76 85 77 86 56 87
REMARK SMILES IDX 57 88 65 89 58 90 64 91 59 92 60 93 61 94 62 95 63 96
REMARK H PARENT 24 6 28 33 84 52 54 63
REMARK Flexibility Score: inf
ROOT
ATOM      1  C   UNL A   1      31.332  31.968  26.910  1.00  0.00     0.042 C 
ENDROOT
BRANCH   1   2
ATOM      2  C   UNL A   1      31.264  31.155  25.618  1.00  0.00     0.117 C 
BRANCH   2   3
ATOM      3  N   UNL A   1      32.404  30.273  25.458  1.00  0.00    -0.356 N 
ATOM      4  C   UNL A   1      32.601  28.955  25.738  1.00  0.00     0.227 C 
ATOM      5  O   UNL A   1      33.742  28.528  25.518  1.00  0.00    -0.274 OA
ATOM      6  H   UNL A   1      33.193  30.715  25.069  1.00  0.00     0.163 HD
BRANCH   4   7
ATOM      7  C   UNL A   1      31.521  28.005  26.290  1.00  0.00     0.106 C 
ATOM      8  C   UNL A   1      31.400  27.971  27.813  1.00  0.00     0.023 C 
BRANCH   7   9
ATOM      9  C   UNL A   1      31.522  26.639  25.610  1.00  0.00    -0.028 A 
ATOM     10  C   UNL A   1      31.037  26.443  24.294  1.00  0.00    -0.014 A 
ATOM     11  C   UNL A   1      31.154  25.165  23.702  1.00  0.00     0.012 A 
ATOM     12  C   UNL A   1      31.674  24.071  24.406  1.00  0.00    -0.047 A 
ATOM     13  C   UNL A   1      32.017  25.520  26.301  1.00  0.00     0.005 A 
ATOM     14  C   UNL A   1      32.129  24.268  25.704  1.00  0.00     0.004 A 
BRANCH  10  15
ATOM     15  C   UNL A   1      30.233  27.447  23.577  1.00  0.00    -0.018 A 
ATOM     16  C   UNL A   1      28.796  29.454  22.183  1.00  0.00     0.007 A 
ATOM     17  C   UNL A   1      30.192  29.456  22.193  1.00  0.00     0.015 A 
ATOM     18  C   UNL A   1      28.124  28.441  22.878  1.00  0.00     0.015 A 
ATOM     19  C   UNL A   1      30.899  28.464  22.873  1.00  0.00     0.010 A 
ATOM     20  C   UNL A   1      28.836  27.448  23.570  1.00  0.00     0.010 A 
BRANCH  16  21
ATOM     21  S   UNL A   1      27.997  30.796  21.313  1.00  0.00    -0.130 SA
ATOM     22  C   UNL A   1      28.862  32.248  21.956  1.00  0.00     0.091 C 
ENDBRANCH  16  21
ENDBRANCH  10  15
BRANCH  12  23
ATOM     23  C   UNL A   1      31.587  22.672  23.849  1.00  0.00     0.047 C 
BRANCH  23  24
ATOM     24  C   UNL A   1      32.888  22.168  23.204  1.00  0.00     0.060 C 
ATOM     25  C   UNL A   1      33.672  23.162  22.332  1.00  0.00     0.012 C 
ATOM     26  C   UNL A   1      33.922  21.795  24.245  1.00  0.00     0.136 C 
ATOM     27  C   UNL A   1      34.750  23.762  23.231  1.00  0.00     0.009 C 
ATOM     28  C   UNL A   1      35.178  22.620  24.138  1.00  0.00     0.076 C 
ATOM     29  O   UNL A   1      33.771  20.908  25.078  1.00  0.00    -0.299 OA
ENDBRANCH  23  24
ENDBRANCH  12  23
ENDBRANCH   7   9
ENDBRANCH   4   7
ENDBRANCH   2   3
ENDBRANCH   1   2
BRANCH   1  30
ATOM     30  C   UNL A   1      32.695  32.581  27.191  1.00  0.00     0.118 C 
BRANCH  30  31
ATOM     31  N   UNL A   1      32.595  33.982  27.570  1.00  0.00    -0.352 N 
ATOM     32  C   UNL A   1      33.203  34.683  28.582  1.00  0.00     0.251 C 
ATOM     33  H   UNL A   1      31.991  34.517  27.006  1.00  0.00     0.163 HD
ATOM     34  O   UNL A   1      32.784  35.805  28.857  1.00  0.00    -0.269 OA
BRANCH  32  35
ATOM     35  C   UNL A   1      34.339  34.113  29.346  1.00  0.00     0.039 A 
ATOM     36  C   UNL A   1      35.641  34.366  28.901  1.00  0.00     0.014 A 
ATOM     37  C   UNL A   1      34.139  33.279  30.449  1.00  0.00     0.014 A 
ATOM     38  C   UNL A   1      36.734  33.825  29.587  1.00  0.00     0.010 A 
ATOM     39  C   UNL A   1      35.229  32.812  31.182  1.00  0.00     0.010 A 
ATOM     40  C   UNL A   1      36.539  33.064  30.750  1.00  0.00    -0.014 A 
BRANCH  40  41
ATOM     41  C   UNL A   1      37.686  32.507  31.513  1.00  0.00     0.031 A 
ATOM     42  C   UNL A   1      38.394  31.271  31.021  1.00  0.00     0.074 A 
ATOM     43  C   UNL A   1      38.047  33.072  32.682  1.00  0.00     0.049 A 
ATOM     44  N   UNL A   1      39.365  30.598  31.584  1.00  0.00    -0.248 NA
ATOM     45  C   UNL A   1      37.933  30.701  29.744  1.00  0.00     0.031 C 
ATOM     46  C   UNL A   1      37.412  34.244  33.290  1.00  0.00     0.029 A 
ATOM     47  N   UNL A   1      39.032  32.730  33.576  1.00  0.00    -0.354 N 
ATOM     48  C   UNL A   1      39.609  29.514  30.748  1.00  0.00     0.074 A 
ATOM     49  C   UNL A   1      38.659  29.595  29.661  1.00  0.00     0.031 C 
ATOM     50  C   UNL A   1      38.035  34.534  34.444  1.00  0.00     0.029 A 
ATOM     51  C   UNL A   1      39.086  33.548  34.680  1.00  0.00     0.049 A 
ATOM     52  H   UNL A   1      39.641  31.969  33.440  1.00  0.00     0.167 HD
ATOM     53  C   UNL A   1      40.550  28.547  30.864  1.00  0.00     0.031 A 
ATOM     54  C   UNL A   1      39.882  33.507  35.765  1.00  0.00     0.031 A 
ATOM     55  C   UNL A   1      41.512  28.484  31.932  1.00  0.00     0.049 A 
ATOM     56  C   UNL A   1      40.930  32.432  35.864  1.00  0.00     0.074 A 
ATOM     57  C   UNL A   1      42.554  27.589  32.100  1.00  0.00     0.029 A 
ATOM     58  N   UNL A   1      41.550  29.350  33.015  1.00  0.00    -0.354 N 
ATOM     59  N   UNL A   1      41.194  31.460  35.023  1.00  0.00    -0.248 NA
ATOM     60  C   UNL A   1      41.796  32.456  37.052  1.00  0.00     0.031 C 
ATOM     61  C   UNL A   1      43.191  27.882  33.310  1.00  0.00     0.029 A 
ATOM     62  C   UNL A   1      42.583  28.994  33.867  1.00  0.00     0.049 A 
ATOM     63  H   UNL A   1      40.935  30.105  33.156  1.00  0.00     0.167 HD
ATOM     64  C   UNL A   1      42.273  30.773  35.568  1.00  0.00     0.074 A 
ATOM     65  C   UNL A   1      42.622  31.449  36.800  1.00  0.00     0.031 C 
ATOM     66  C   UNL A   1      42.918  29.680  35.089  1.00  0.00     0.031 A 
BRANCH  53  67
ATOM     67  C   UNL A   1      40.584  27.470  29.811  1.00  0.00    -0.014 A 
ATOM     68  C   UNL A   1      41.746  27.220  29.059  1.00  0.00     0.010 A 
ATOM     69  C   UNL A   1      39.450  26.662  29.604  1.00  0.00     0.010 A 
ATOM     70  C   UNL A   1      41.762  26.211  28.093  1.00  0.00     0.020 A 
ATOM     71  C   UNL A   1      39.471  25.632  28.658  1.00  0.00     0.020 A 
ATOM     72  C   UNL A   1      40.623  25.425  27.896  1.00  0.00     0.054 A 
BRANCH  72  73
ATOM     73  S   UNL A   1      40.682  24.104  26.654  1.00  0.00     0.124 S 
ATOM     74  O   UNL A   1      40.816  22.913  27.489  1.00  0.00    -0.237 OA
ATOM     75  O   UNL A   1      39.400  24.249  25.969  1.00  0.00    -0.237 OA
ATOM     76  O   UNL A   1      41.855  24.437  25.850  1.00  0.00    -0.744 OA
ENDBRANCH  72  73
ENDBRANCH  53  67
BRANCH  54  77
ATOM     77  C   UNL A   1      39.724  34.522  36.843  1.00  0.00    -0.014 A 
ATOM     78  C   UNL A   1      38.947  34.242  37.980  1.00  0.00     0.010 A 
ATOM     79  C   UNL A   1      40.360  35.773  36.740  1.00  0.00     0.010 A 
ATOM     80  C   UNL A   1      38.794  35.200  38.987  1.00  0.00     0.020 A 
ATOM     81  C   UNL A   1      40.232  36.722  37.757  1.00  0.00     0.020 A 
ATOM     82  C   UNL A   1      39.440  36.434  38.869  1.00  0.00     0.054 A 
BRANCH  82  83
ATOM     83  S   UNL A   1      39.273  37.643  40.212  1.00  0.00     0.124 S 
ATOM     84  O   UNL A   1      38.251  38.541  39.687  1.00  0.00    -0.237 OA
ATOM     85  O   UNL A   1      38.865  36.808  41.340  1.00  0.00    -0.237 OA
ATOM     86  O   UNL A   1      40.614  38.214  40.325  1.00  0.00    -0.744 OA
ENDBRANCH  82  83
ENDBRANCH  54  77
BRANCH  66  87
ATOM     87  C   UNL A   1      44.089  29.165  35.881  1.00  0.00    -0.014 A 
ATOM     88  C   UNL A   1      45.358  29.764  35.779  1.00  0.00     0.010 A 
ATOM     89  C   UNL A   1      43.902  28.102  36.782  1.00  0.00     0.010 A 
ATOM     90  C   UNL A   1      46.426  29.287  36.544  1.00  0.00     0.020 A 
ATOM     91  C   UNL A   1      44.960  27.640  37.568  1.00  0.00     0.020 A 
ATOM     92  C   UNL A   1      46.219  28.228  37.433  1.00  0.00     0.054 A 
BRANCH  92  93
ATOM     93  S   UNL A   1      47.610  27.656  38.446  1.00  0.00     0.124 S 
ATOM     94  O   UNL A   1      47.438  26.207  38.410  1.00  0.00    -0.237 OA
ATOM     95  O   UNL A   1      48.770  28.169  37.720  1.00  0.00    -0.237 OA
ATOM     96  O   UNL A   1      47.372  28.280  39.746  1.00  0.00    -0.744 OA
ENDBRANCH  92  93
ENDBRANCH  66  87
ENDBRANCH  40  41
ENDBRANCH  32  35
ENDBRANCH  30  31
ENDBRANCH   1  30
TORSDOF 18
ENDMDL
