MODEL 1
REMARK VINA RESULT:     -14.3      0.000      0.000
REMARK SMILES Cc1ccc(-c2c(C)sc(NC(=O)[C@H]3CC=CC[C@H]3C(=O)NCCCNC(=O)c3ccc(-c4c5nc(c(-c6ccc(S(=O)(=O)[O-])cc6)c6ccc([nH]6)c(-c6ccc(S(=O)(=O)[O-])cc6)c6nc(c(-c7ccc(S(=O)(=O)[O-])cc7)c7ccc4[nH]7)C=C6)C=C5)cc3)c2C(N)=O)cc1
REMARK SMILES IDX 24 1 23 2 22 3 20 4 21 5 19 7 14 8 15 9 16 10 18 11 17 12
REMARK SMILES IDX 12 13 11 14 13 16 10 17 6 18 7 19 89 20 8 21 9 22 5 23 1 24
REMARK SMILES IDX 2 25 3 26 94 27 4 28 93 29 90 30 91 31 92 32 25 35 26 36
REMARK SMILES IDX 27 37 28 39 29 40 30 41 88 42 31 43 87 44 32 45 33 46 34 47
REMARK SMILES IDX 81 48 35 49 86 50 80 51 82 52 36 53 85 54 79 55 78 56 37 58
REMARK SMILES IDX 67 59 48 60 66 61 49 62 52 63 65 64 83 65 50 66 51 67 64 69
REMARK SMILES IDX 84 70 53 71 38 72 39 73 47 74 40 75 46 76 41 77 42 78 43 79
REMARK SMILES IDX 44 80 45 81 68 82 69 83 77 84 70 85 76 86 71 87 72 88 73 89
REMARK SMILES IDX 74 90 75 91 54 92 55 93 63 94 56 95 62 96 57 97 58 98 59 99
REMARK SMILES IDX 60 100 61 101
REMARK H PARENT 22 6 11 15 91 33 91 34 26 38 82 57 52 68
REMARK Flexibility Score: inf
ROOT
ATOM      1  C   UNL A   1      37.282  21.426  25.389  1.00  0.00     0.042 C 
ENDROOT
BRANCH   1   2
ATOM      2  C   UNL A   1      35.843  21.637  25.832  1.00  0.00     0.117 C 
BRANCH   2   3
ATOM      3  N   UNL A   1      35.064  20.463  25.514  1.00  0.00    -0.356 N 
ATOM      4  C   UNL A   1      33.750  20.336  25.221  1.00  0.00     0.224 C 
ATOM      5  O   UNL A   1      33.260  19.209  25.360  1.00  0.00    -0.275 OA
ATOM      6  H   UNL A   1      35.572  19.620  25.510  1.00  0.00     0.163 HD
BRANCH   4   7
ATOM      7  C   UNL A   1      32.879  21.465  24.681  1.00  0.00     0.095 C 
ATOM      8  C   UNL A   1      32.194  22.451  25.644  1.00  0.00     0.095 C 
ATOM      9  C   UNL A   1      30.928  23.020  24.966  1.00  0.00     0.041 C 
ATOM     10  C   UNL A   1      31.025  23.154  23.458  1.00  0.00    -0.030 C 
ATOM     11  C   UNL A   1      33.292  22.087  23.353  1.00  0.00     0.041 C 
ATOM     12  C   UNL A   1      32.100  22.780  22.740  1.00  0.00    -0.030 C 
BRANCH   8  13
ATOM     13  C   UNL A   1      33.015  23.445  26.509  1.00  0.00     0.229 C 
ATOM     14  N   UNL A   1      33.551  24.654  26.175  1.00  0.00    -0.317 N 
ATOM     15  H   UNL A   1      34.411  24.833  26.618  1.00  0.00     0.170 HD
ATOM     16  O   UNL A   1      33.313  23.065  27.657  1.00  0.00    -0.274 OA
BRANCH  14  17
ATOM     17  C   UNL A   1      33.144  25.680  25.345  1.00  0.00     0.109 A 
ATOM     18  C   UNL A   1      32.047  27.462  24.299  1.00  0.00     0.010 A 
ATOM     19  C   UNL A   1      33.120  27.238  23.454  1.00  0.00     0.012 A 
ATOM     20  C   UNL A   1      32.033  26.524  25.418  1.00  0.00     0.082 A 
ATOM     21  C   UNL A   1      33.676  28.036  22.324  1.00  0.00     0.057 C 
ATOM     22  S   UNL A   1      33.797  25.724  23.788  1.00  0.00    -0.122 S 
BRANCH  18  23
ATOM     23  C   UNL A   1      31.103  28.535  24.011  1.00  0.00    -0.016 A 
ATOM     24  C   UNL A   1      28.268  31.715  23.378  1.00  0.00     0.044 C 
ATOM     25  C   UNL A   1      29.253  30.607  23.605  1.00  0.00    -0.051 A 
ATOM     26  C   UNL A   1      29.136  29.399  22.904  1.00  0.00     0.004 A 
ATOM     27  C   UNL A   1      30.322  30.783  24.487  1.00  0.00     0.004 A 
ATOM     28  C   UNL A   1      30.053  28.363  23.107  1.00  0.00     0.009 A 
ATOM     29  C   UNL A   1      31.244  29.757  24.682  1.00  0.00     0.009 A 
ENDBRANCH  18  23
BRANCH  20  30
ATOM     30  C   UNL A   1      30.976  26.500  26.431  1.00  0.00     0.252 C 
ATOM     31  N   UNL A   1      31.117  27.339  27.489  1.00  0.00    -0.365 N 
ATOM     32  O   UNL A   1      29.982  25.780  26.348  1.00  0.00    -0.269 OA
ATOM     33  H   UNL A   1      31.912  27.915  27.558  1.00  0.00     0.159 HD
ATOM     34  H   UNL A   1      30.424  27.370  28.188  1.00  0.00     0.159 HD
ENDBRANCH  20  30
ENDBRANCH  14  17
ENDBRANCH   8  13
ENDBRANCH   4   7
ENDBRANCH   2   3
ENDBRANCH   1   2
BRANCH   1  35
ATOM     35  C   UNL A   1      38.186  22.610  25.651  1.00  0.00     0.118 C 
BRANCH  35  36
ATOM     36  N   UNL A   1      39.159  22.360  26.709  1.00  0.00    -0.352 N 
ATOM     37  C   UNL A   1      40.151  23.285  27.041  1.00  0.00     0.251 C 
ATOM     38  H   UNL A   1      39.115  21.510  27.203  1.00  0.00     0.163 HD
ATOM     39  O   UNL A   1      41.314  23.010  27.215  1.00  0.00    -0.269 OA
BRANCH  37  40
ATOM     40  C   UNL A   1      39.629  24.660  27.240  1.00  0.00     0.039 A 
ATOM     41  C   UNL A   1      40.169  25.685  26.460  1.00  0.00     0.014 A 
ATOM     42  C   UNL A   1      38.975  24.929  28.436  1.00  0.00     0.014 A 
ATOM     43  C   UNL A   1      40.207  26.980  26.973  1.00  0.00     0.010 A 
ATOM     44  C   UNL A   1      39.156  26.176  29.001  1.00  0.00     0.010 A 
ATOM     45  C   UNL A   1      39.793  27.202  28.286  1.00  0.00    -0.014 A 
BRANCH  45  46
ATOM     46  C   UNL A   1      40.037  28.437  29.030  1.00  0.00     0.031 A 
ATOM     47  C   UNL A   1      39.052  29.551  28.953  1.00  0.00     0.074 A 
ATOM     48  C   UNL A   1      41.094  28.569  29.867  1.00  0.00     0.049 A 
ATOM     49  N   UNL A   1      39.318  30.780  29.255  1.00  0.00    -0.248 NA
ATOM     50  C   UNL A   1      37.683  29.372  28.472  1.00  0.00     0.031 C 
ATOM     51  C   UNL A   1      41.240  29.573  30.920  1.00  0.00     0.029 A 
ATOM     52  N   UNL A   1      42.353  27.964  29.816  1.00  0.00    -0.354 N 
ATOM     53  C   UNL A   1      38.124  31.465  29.300  1.00  0.00     0.074 A 
ATOM     54  C   UNL A   1      37.144  30.562  28.748  1.00  0.00     0.031 C 
ATOM     55  C   UNL A   1      42.544  29.740  31.181  1.00  0.00     0.029 A 
ATOM     56  C   UNL A   1      43.281  28.941  30.219  1.00  0.00     0.049 A 
ATOM     57  H   UNL A   1      42.551  27.037  29.551  1.00  0.00     0.167 HD
ATOM     58  C   UNL A   1      38.053  32.677  29.915  1.00  0.00     0.031 A 
ATOM     59  C   UNL A   1      44.344  29.373  29.480  1.00  0.00     0.031 A 
ATOM     60  C   UNL A   1      39.350  33.128  30.399  1.00  0.00     0.049 A 
ATOM     61  C   UNL A   1      44.368  30.874  29.276  1.00  0.00     0.074 A 
ATOM     62  C   UNL A   1      39.958  33.121  31.643  1.00  0.00     0.029 A 
ATOM     63  N   UNL A   1      40.336  33.450  29.479  1.00  0.00    -0.354 N 
ATOM     64  N   UNL A   1      43.373  31.659  29.575  1.00  0.00    -0.248 NA
ATOM     65  C   UNL A   1      45.477  31.605  28.666  1.00  0.00     0.031 C 
ATOM     66  C   UNL A   1      41.336  33.401  31.460  1.00  0.00     0.029 A 
ATOM     67  C   UNL A   1      41.556  33.593  30.108  1.00  0.00     0.049 A 
ATOM     68  H   UNL A   1      40.186  33.560  28.512  1.00  0.00     0.167 HD
ATOM     69  C   UNL A   1      43.653  32.943  29.187  1.00  0.00     0.074 A 
ATOM     70  C   UNL A   1      44.997  32.863  28.646  1.00  0.00     0.031 C 
ATOM     71  C   UNL A   1      42.733  33.945  29.327  1.00  0.00     0.031 A 
BRANCH  58  72
ATOM     72  C   UNL A   1      36.748  33.329  30.301  1.00  0.00    -0.014 A 
ATOM     73  C   UNL A   1      35.867  33.771  29.293  1.00  0.00     0.010 A 
ATOM     74  C   UNL A   1      36.349  33.568  31.630  1.00  0.00     0.010 A 
ATOM     75  C   UNL A   1      34.707  34.500  29.588  1.00  0.00     0.020 A 
ATOM     76  C   UNL A   1      35.214  34.332  31.939  1.00  0.00     0.020 A 
ATOM     77  C   UNL A   1      34.402  34.802  30.912  1.00  0.00     0.054 A 
BRANCH  77  78
ATOM     78  S   UNL A   1      32.947  35.820  31.269  1.00  0.00     0.124 S 
ATOM     79  O   UNL A   1      33.537  37.019  31.860  1.00  0.00    -0.237 OA
ATOM     80  O   UNL A   1      32.356  35.997  29.946  1.00  0.00    -0.237 OA
ATOM     81  O   UNL A   1      32.168  35.000  32.194  1.00  0.00    -0.744 OA
ENDBRANCH  77  78
ENDBRANCH  58  72
BRANCH  59  82
ATOM     82  C   UNL A   1      44.881  28.357  28.535  1.00  0.00    -0.014 A 
ATOM     83  C   UNL A   1      44.256  28.281  27.271  1.00  0.00     0.010 A 
ATOM     84  C   UNL A   1      46.204  27.901  28.672  1.00  0.00     0.010 A 
ATOM     85  C   UNL A   1      45.006  27.987  26.131  1.00  0.00     0.020 A 
ATOM     86  C   UNL A   1      46.954  27.596  27.526  1.00  0.00     0.020 A 
ATOM     87  C   UNL A   1      46.372  27.739  26.262  1.00  0.00     0.054 A 
BRANCH  87  88
ATOM     88  S   UNL A   1      47.407  27.808  24.765  1.00  0.00     0.124 S 
ATOM     89  O   UNL A   1      47.390  26.425  24.300  1.00  0.00    -0.237 OA
ATOM     90  O   UNL A   1      46.678  28.762  23.924  1.00  0.00    -0.237 OA
ATOM     91  O   UNL A   1      48.689  28.290  25.269  1.00  0.00    -0.744 OA
ENDBRANCH  87  88
ENDBRANCH  59  82
BRANCH  71  92
ATOM     92  C   UNL A   1      42.825  35.360  28.797  1.00  0.00    -0.014 A 
ATOM     93  C   UNL A   1      42.307  35.790  27.566  1.00  0.00     0.010 A 
ATOM     94  C   UNL A   1      43.358  36.365  29.646  1.00  0.00     0.010 A 
ATOM     95  C   UNL A   1      42.355  37.141  27.186  1.00  0.00     0.020 A 
ATOM     96  C   UNL A   1      43.372  37.718  29.297  1.00  0.00     0.020 A 
ATOM     97  C   UNL A   1      42.887  38.097  28.053  1.00  0.00     0.054 A 
BRANCH  97  98
ATOM     98  S   UNL A   1      42.869  39.848  27.591  1.00  0.00     0.124 S 
ATOM     99  O   UNL A   1      41.505  40.237  27.936  1.00  0.00    -0.237 OA
ATOM    100  O   UNL A   1      43.916  40.421  28.436  1.00  0.00    -0.237 OA
ATOM    101  O   UNL A   1      43.176  39.827  26.163  1.00  0.00    -0.744 OA
ENDBRANCH  97  98
ENDBRANCH  71  92
ENDBRANCH  45  46
ENDBRANCH  37  40
ENDBRANCH  35  36
ENDBRANCH   1  35
TORSDOF 17
ENDMDL
MODEL 2
REMARK VINA RESULT:     -14.3      4.492     11.081
REMARK SMILES Cc1ccc(-c2c(C)sc(NC(=O)[C@H]3CC=CC[C@H]3C(=O)NCCCNC(=O)c3ccc(-c4c5nc(c(-c6ccc(S(=O)(=O)[O-])cc6)c6ccc([nH]6)c(-c6ccc(S(=O)(=O)[O-])cc6)c6nc(c(-c7ccc(S(=O)(=O)[O-])cc7)c7ccc4[nH]7)C=C6)C=C5)cc3)c2C(N)=O)cc1
REMARK SMILES IDX 24 1 23 2 22 3 20 4 21 5 19 7 14 8 15 9 16 10 18 11 17 12
REMARK SMILES IDX 12 13 11 14 13 16 10 17 6 18 7 19 89 20 8 21 9 22 5 23 1 24
REMARK SMILES IDX 2 25 3 26 94 27 4 28 93 29 90 30 91 31 92 32 25 35 26 36
REMARK SMILES IDX 27 37 28 39 29 40 30 41 88 42 31 43 87 44 32 45 33 46 34 47
REMARK SMILES IDX 81 48 35 49 86 50 80 51 82 52 36 53 85 54 79 55 78 56 37 58
REMARK SMILES IDX 67 59 48 60 66 61 49 62 52 63 65 64 83 65 50 66 51 67 64 69
REMARK SMILES IDX 84 70 53 71 38 72 39 73 47 74 40 75 46 76 41 77 42 78 43 79
REMARK SMILES IDX 44 80 45 81 68 82 69 83 77 84 70 85 76 86 71 87 72 88 73 89
REMARK SMILES IDX 74 90 75 91 54 92 55 93 63 94 56 95 62 96 57 97 58 98 59 99
REMARK SMILES IDX 60 100 61 101
REMARK H PARENT 22 6 11 15 91 33 91 34 26 38 82 57 52 68
REMARK Flexibility Score: inf
ROOT
ATOM      1  C   UNL A   1      33.201  30.356  26.648  1.00  0.00     0.042 C 
ENDROOT
BRANCH   1   2
ATOM      2  C   UNL A   1      32.849  29.355  25.559  1.00  0.00     0.117 C 
BRANCH   2   3
ATOM      3  N   UNL A   1      31.631  29.769  24.901  1.00  0.00    -0.356 N 
ATOM      4  C   UNL A   1      30.834  29.103  24.036  1.00  0.00     0.224 C 
ATOM      5  O   UNL A   1      30.081  29.792  23.337  1.00  0.00    -0.275 OA
ATOM      6  H   UNL A   1      31.335  30.682  25.117  1.00  0.00     0.163 HD
BRANCH   4   7
ATOM      7  C   UNL A   1      30.767  27.584  23.927  1.00  0.00     0.095 C 
ATOM      8  C   UNL A   1      31.763  26.822  23.034  1.00  0.00     0.095 C 
ATOM      9  C   UNL A   1      31.118  25.493  22.581  1.00  0.00     0.041 C 
ATOM     10  C   UNL A   1      30.158  24.882  23.584  1.00  0.00    -0.030 C 
ATOM     11  C   UNL A   1      30.342  26.815  25.171  1.00  0.00     0.041 C 
ATOM     12  C   UNL A   1      29.845  25.449  24.764  1.00  0.00    -0.030 C 
BRANCH   8  13
ATOM     13  C   UNL A   1      33.278  26.771  23.365  1.00  0.00     0.229 C 
ATOM     14  N   UNL A   1      33.944  26.019  24.290  1.00  0.00    -0.317 N 
ATOM     15  H   UNL A   1      34.706  26.489  24.696  1.00  0.00     0.170 HD
ATOM     16  O   UNL A   1      34.003  27.592  22.773  1.00  0.00    -0.274 OA
BRANCH  14  17
ATOM     17  C   UNL A   1      33.773  24.738  24.775  1.00  0.00     0.109 A 
ATOM     18  C   UNL A   1      33.602  22.426  25.086  1.00  0.00     0.010 A 
ATOM     19  C   UNL A   1      33.305  22.915  26.345  1.00  0.00     0.012 A 
ATOM     20  C   UNL A   1      33.858  23.500  24.131  1.00  0.00     0.082 A 
ATOM     21  C   UNL A   1      33.181  22.240  27.669  1.00  0.00     0.057 C 
ATOM     22  S   UNL A   1      32.952  24.566  26.242  1.00  0.00    -0.122 S 
BRANCH  18  23
ATOM     23  C   UNL A   1      33.627  20.986  24.850  1.00  0.00    -0.016 A 
ATOM     24  C   UNL A   1      33.855  16.772  23.996  1.00  0.00     0.044 C 
ATOM     25  C   UNL A   1      33.779  18.240  24.288  1.00  0.00    -0.051 A 
ATOM     26  C   UNL A   1      32.548  18.908  24.250  1.00  0.00     0.004 A 
ATOM     27  C   UNL A   1      34.930  18.950  24.641  1.00  0.00     0.004 A 
ATOM     28  C   UNL A   1      32.469  20.278  24.525  1.00  0.00     0.009 A 
ATOM     29  C   UNL A   1      34.852  20.311  24.927  1.00  0.00     0.009 A 
ENDBRANCH  18  23
BRANCH  20  30
ATOM     30  C   UNL A   1      34.138  23.265  22.714  1.00  0.00     0.252 C 
ATOM     31  N   UNL A   1      33.071  23.167  21.882  1.00  0.00    -0.365 N 
ATOM     32  O   UNL A   1      35.279  23.175  22.261  1.00  0.00    -0.269 OA
ATOM     33  H   UNL A   1      32.157  23.237  22.243  1.00  0.00     0.159 HD
ATOM     34  H   UNL A   1      33.210  23.025  20.918  1.00  0.00     0.159 HD
ENDBRANCH  20  30
ENDBRANCH  14  17
ENDBRANCH   8  13
ENDBRANCH   4   7
ENDBRANCH   2   3
ENDBRANCH   1   2
BRANCH   1  35
ATOM     35  C   UNL A   1      34.461  30.015  27.412  1.00  0.00     0.118 C 
BRANCH  35  36
ATOM     36  N   UNL A   1      35.415  31.118  27.458  1.00  0.00    -0.352 N 
ATOM     37  C   UNL A   1      36.502  31.125  28.335  1.00  0.00     0.251 C 
ATOM     38  H   UNL A   1      35.286  31.882  26.851  1.00  0.00     0.163 HD
ATOM     39  O   UNL A   1      36.829  32.069  29.013  1.00  0.00    -0.269 OA
BRANCH  37  40
ATOM     40  C   UNL A   1      37.287  29.866  28.308  1.00  0.00     0.039 A 
ATOM     41  C   UNL A   1      37.403  29.141  29.496  1.00  0.00     0.014 A 
ATOM     42  C   UNL A   1      38.192  29.698  27.266  1.00  0.00     0.014 A 
ATOM     43  C   UNL A   1      38.542  28.366  29.709  1.00  0.00     0.010 A 
ATOM     44  C   UNL A   1      39.383  29.059  27.547  1.00  0.00     0.010 A 
ATOM     45  C   UNL A   1      39.577  28.411  28.777  1.00  0.00    -0.014 A 
BRANCH  45  46
ATOM     46  C   UNL A   1      40.919  27.877  29.008  1.00  0.00     0.031 A 
ATOM     47  C   UNL A   1      41.246  26.491  28.572  1.00  0.00     0.074 A 
ATOM     48  C   UNL A   1      41.910  28.640  29.528  1.00  0.00     0.049 A 
ATOM     49  N   UNL A   1      42.240  25.800  29.027  1.00  0.00    -0.248 NA
ATOM     50  C   UNL A   1      40.435  25.745  27.611  1.00  0.00     0.031 C 
ATOM     51  C   UNL A   1      43.343  28.354  29.462  1.00  0.00     0.029 A 
ATOM     52  N   UNL A   1      41.834  29.723  30.407  1.00  0.00    -0.354 N 
ATOM     53  C   UNL A   1      42.373  24.686  28.229  1.00  0.00     0.074 A 
ATOM     54  C   UNL A   1      41.192  24.666  27.401  1.00  0.00     0.031 C 
ATOM     55  C   UNL A   1      43.958  28.989  30.469  1.00  0.00     0.029 A 
ATOM     56  C   UNL A   1      42.926  29.602  31.286  1.00  0.00     0.049 A 
ATOM     57  H   UNL A   1      41.151  30.432  30.410  1.00  0.00     0.167 HD
ATOM     58  C   UNL A   1      43.524  23.960  28.253  1.00  0.00     0.031 A 
ATOM     59  C   UNL A   1      42.840  29.521  32.645  1.00  0.00     0.031 A 
ATOM     60  C   UNL A   1      44.473  24.461  29.237  1.00  0.00     0.049 A 
ATOM     61  C   UNL A   1      43.528  28.301  33.222  1.00  0.00     0.074 A 
ATOM     62  C   UNL A   1      45.600  25.261  29.151  1.00  0.00     0.029 A 
ATOM     63  N   UNL A   1      44.164  24.355  30.584  1.00  0.00    -0.354 N 
ATOM     64  N   UNL A   1      43.966  27.310  32.500  1.00  0.00    -0.248 NA
ATOM     65  C   UNL A   1      43.725  28.065  34.651  1.00  0.00     0.031 C 
ATOM     66  C   UNL A   1      45.945  25.675  30.463  1.00  0.00     0.029 A 
ATOM     67  C   UNL A   1      45.037  25.110  31.341  1.00  0.00     0.049 A 
ATOM     68  H   UNL A   1      43.425  23.817  30.950  1.00  0.00     0.167 HD
ATOM     69  C   UNL A   1      44.449  26.315  33.309  1.00  0.00     0.074 A 
ATOM     70  C   UNL A   1      44.301  26.847  34.651  1.00  0.00     0.031 C 
ATOM     71  C   UNL A   1      44.901  25.134  32.790  1.00  0.00     0.031 A 
BRANCH  58  72
ATOM     72  C   UNL A   1      43.881  22.947  27.193  1.00  0.00    -0.014 A 
ATOM     73  C   UNL A   1      43.005  21.872  26.936  1.00  0.00     0.010 A 
ATOM     74  C   UNL A   1      45.073  22.976  26.444  1.00  0.00     0.010 A 
ATOM     75  C   UNL A   1      43.344  20.832  26.060  1.00  0.00     0.020 A 
ATOM     76  C   UNL A   1      45.444  21.922  25.597  1.00  0.00     0.020 A 
ATOM     77  C   UNL A   1      44.578  20.849  25.416  1.00  0.00     0.054 A 
BRANCH  77  78
ATOM     78  S   UNL A   1      45.037  19.453  24.357  1.00  0.00     0.124 S 
ATOM     79  O   UNL A   1      44.417  19.806  23.082  1.00  0.00    -0.237 OA
ATOM     80  O   UNL A   1      46.495  19.507  24.384  1.00  0.00    -0.237 OA
ATOM     81  O   UNL A   1      44.445  18.298  25.029  1.00  0.00    -0.744 OA
ENDBRANCH  77  78
ENDBRANCH  58  72
BRANCH  59  82
ATOM     82  C   UNL A   1      41.651  30.204  33.222  1.00  0.00    -0.014 A 
ATOM     83  C   UNL A   1      41.806  31.568  33.550  1.00  0.00     0.010 A 
ATOM     84  C   UNL A   1      40.362  29.705  32.963  1.00  0.00     0.010 A 
ATOM     85  C   UNL A   1      40.741  32.457  33.387  1.00  0.00     0.020 A 
ATOM     86  C   UNL A   1      39.291  30.598  32.809  1.00  0.00     0.020 A 
ATOM     87  C   UNL A   1      39.518  31.974  32.927  1.00  0.00     0.054 A 
BRANCH  87  88
ATOM     88  S   UNL A   1      38.302  33.173  32.293  1.00  0.00     0.124 S 
ATOM     89  O   UNL A   1      38.870  33.556  31.005  1.00  0.00    -0.237 OA
ATOM     90  O   UNL A   1      37.077  32.370  32.224  1.00  0.00    -0.237 OA
ATOM     91  O   UNL A   1      38.296  34.213  33.316  1.00  0.00    -0.744 OA
ENDBRANCH  87  88
ENDBRANCH  59  82
BRANCH  71  92
ATOM     92  C   UNL A   1      45.299  23.886  33.550  1.00  0.00    -0.014 A 
ATOM     93  C   UNL A   1      46.582  23.628  34.053  1.00  0.00     0.010 A 
ATOM     94  C   UNL A   1      44.284  22.956  33.898  1.00  0.00     0.010 A 
ATOM     95  C   UNL A   1      46.849  22.486  34.825  1.00  0.00     0.020 A 
ATOM     96  C   UNL A   1      44.527  21.839  34.701  1.00  0.00     0.020 A 
ATOM     97  C   UNL A   1      45.820  21.598  35.145  1.00  0.00     0.054 A 
BRANCH  97  98
ATOM     98  S   UNL A   1      46.153  20.172  36.211  1.00  0.00     0.124 S 
ATOM     99  O   UNL A   1      45.333  19.135  35.591  1.00  0.00    -0.237 OA
ATOM    100  O   UNL A   1      47.597  19.991  36.077  1.00  0.00    -0.237 OA
ATOM    101  O   UNL A   1      45.709  20.621  37.528  1.00  0.00    -0.744 OA
ENDBRANCH  97  98
ENDBRANCH  71  92
ENDBRANCH  45  46
ENDBRANCH  37  40
ENDBRANCH  35  36
ENDBRANCH   1  35
TORSDOF 17
ENDMDL
MODEL 3
REMARK VINA RESULT:     -13.6      4.417     10.408
REMARK SMILES Cc1ccc(-c2c(C)sc(NC(=O)[C@H]3CC=CC[C@H]3C(=O)NCCCNC(=O)c3ccc(-c4c5nc(c(-c6ccc(S(=O)(=O)[O-])cc6)c6ccc([nH]6)c(-c6ccc(S(=O)(=O)[O-])cc6)c6nc(c(-c7ccc(S(=O)(=O)[O-])cc7)c7ccc4[nH]7)C=C6)C=C5)cc3)c2C(N)=O)cc1
REMARK SMILES IDX 24 1 23 2 22 3 20 4 21 5 19 7 14 8 15 9 16 10 18 11 17 12
REMARK SMILES IDX 12 13 11 14 13 16 10 17 6 18 7 19 89 20 8 21 9 22 5 23 1 24
REMARK SMILES IDX 2 25 3 26 94 27 4 28 93 29 90 30 91 31 92 32 25 35 26 36
REMARK SMILES IDX 27 37 28 39 29 40 30 41 88 42 31 43 87 44 32 45 33 46 34 47
REMARK SMILES IDX 81 48 35 49 86 50 80 51 82 52 36 53 85 54 79 55 78 56 37 58
REMARK SMILES IDX 67 59 48 60 66 61 49 62 52 63 65 64 83 65 50 66 51 67 64 69
REMARK SMILES IDX 84 70 53 71 38 72 39 73 47 74 40 75 46 76 41 77 42 78 43 79
REMARK SMILES IDX 44 80 45 81 68 82 69 83 77 84 70 85 76 86 71 87 72 88 73 89
REMARK SMILES IDX 74 90 75 91 54 92 55 93 63 94 56 95 62 96 57 97 58 98 59 99
REMARK SMILES IDX 60 100 61 101
REMARK H PARENT 22 6 11 15 91 33 91 34 26 38 82 57 52 68
REMARK Flexibility Score: inf
ROOT
ATOM      1  C   UNL A   1      33.468  29.502  26.483  1.00  0.00     0.042 C 
ENDROOT
BRANCH   1   2
ATOM      2  C   UNL A   1      33.520  28.071  25.971  1.00  0.00     0.117 C 
BRANCH   2   3
ATOM      3  N   UNL A   1      32.488  27.292  26.616  1.00  0.00    -0.356 N 
ATOM      4  C   UNL A   1      32.207  25.972  26.534  1.00  0.00     0.224 C 
ATOM      5  O   UNL A   1      31.068  25.628  26.872  1.00  0.00    -0.275 OA
ATOM      6  H   UNL A   1      31.892  27.805  27.209  1.00  0.00     0.163 HD
BRANCH   4   7
ATOM      7  C   UNL A   1      33.215  24.905  26.122  1.00  0.00     0.095 C 
ATOM      8  C   UNL A   1      32.738  23.501  25.707  1.00  0.00     0.095 C 
ATOM      9  C   UNL A   1      33.868  22.485  25.980  1.00  0.00     0.041 C 
ATOM     10  C   UNL A   1      35.271  23.041  25.827  1.00  0.00    -0.030 C 
ATOM     11  C   UNL A   1      34.463  25.374  25.386  1.00  0.00     0.041 C 
ATOM     12  C   UNL A   1      35.538  24.323  25.515  1.00  0.00    -0.030 C 
BRANCH   8  13
ATOM     13  C   UNL A   1      31.908  23.274  24.415  1.00  0.00     0.229 C 
ATOM     14  N   UNL A   1      31.141  24.152  23.706  1.00  0.00    -0.317 N 
ATOM     15  H   UNL A   1      30.340  23.738  23.313  1.00  0.00     0.170 HD
ATOM     16  O   UNL A   1      31.850  22.104  23.992  1.00  0.00    -0.274 OA
BRANCH  14  17
ATOM     17  C   UNL A   1      31.250  25.499  23.425  1.00  0.00     0.109 A 
ATOM     18  C   UNL A   1      30.930  27.799  23.146  1.00  0.00     0.010 A 
ATOM     19  C   UNL A   1      32.211  27.619  22.655  1.00  0.00     0.012 A 
ATOM     20  C   UNL A   1      30.333  26.542  23.585  1.00  0.00     0.082 A 
ATOM     21  C   UNL A   1      33.282  28.591  22.294  1.00  0.00     0.057 C 
ATOM     22  S   UNL A   1      32.478  25.973  22.366  1.00  0.00    -0.122 S 
BRANCH  18  23
ATOM     23  C   UNL A   1      30.342  29.134  23.175  1.00  0.00    -0.016 A 
ATOM     24  C   UNL A   1      28.714  33.120  23.071  1.00  0.00     0.044 C 
ATOM     25  C   UNL A   1      29.285  31.734  23.103  1.00  0.00    -0.051 A 
ATOM     26  C   UNL A   1      29.966  31.272  24.238  1.00  0.00     0.004 A 
ATOM     27  C   UNL A   1      29.108  30.873  22.016  1.00  0.00     0.004 A 
ATOM     28  C   UNL A   1      30.498  29.979  24.275  1.00  0.00     0.009 A 
ATOM     29  C   UNL A   1      29.626  29.580  22.056  1.00  0.00     0.009 A 
ENDBRANCH  18  23
BRANCH  20  30
ATOM     30  C   UNL A   1      28.965  26.437  24.093  1.00  0.00     0.252 C 
ATOM     31  N   UNL A   1      28.783  25.720  25.231  1.00  0.00    -0.365 N 
ATOM     32  O   UNL A   1      28.003  26.979  23.550  1.00  0.00    -0.269 OA
ATOM     33  H   UNL A   1      29.551  25.285  25.668  1.00  0.00     0.159 HD
ATOM     34  H   UNL A   1      27.883  25.635  25.621  1.00  0.00     0.159 HD
ENDBRANCH  20  30
ENDBRANCH  14  17
ENDBRANCH   8  13
ENDBRANCH   4   7
ENDBRANCH   2   3
ENDBRANCH   1   2
BRANCH   1  35
ATOM     35  C   UNL A   1      34.328  29.749  27.703  1.00  0.00     0.118 C 
BRANCH  35  36
ATOM     36  N   UNL A   1      35.261  30.856  27.525  1.00  0.00    -0.352 N 
ATOM     37  C   UNL A   1      36.448  30.954  28.256  1.00  0.00     0.251 C 
ATOM     38  H   UNL A   1      35.047  31.558  26.869  1.00  0.00     0.163 HD
ATOM     39  O   UNL A   1      36.840  31.960  28.796  1.00  0.00    -0.269 OA
BRANCH  37  40
ATOM     40  C   UNL A   1      37.245  29.702  28.252  1.00  0.00     0.039 A 
ATOM     41  C   UNL A   1      37.368  29.000  29.453  1.00  0.00     0.014 A 
ATOM     42  C   UNL A   1      38.151  29.523  27.213  1.00  0.00     0.014 A 
ATOM     43  C   UNL A   1      38.514  28.240  29.680  1.00  0.00     0.010 A 
ATOM     44  C   UNL A   1      39.348  28.901  27.506  1.00  0.00     0.010 A 
ATOM     45  C   UNL A   1      39.548  28.277  28.747  1.00  0.00    -0.014 A 
BRANCH  45  46
ATOM     46  C   UNL A   1      40.896  27.760  28.987  1.00  0.00     0.031 A 
ATOM     47  C   UNL A   1      41.247  26.383  28.542  1.00  0.00     0.074 A 
ATOM     48  C   UNL A   1      41.870  28.533  29.525  1.00  0.00     0.049 A 
ATOM     49  N   UNL A   1      42.246  25.703  29.002  1.00  0.00    -0.248 NA
ATOM     50  C   UNL A   1      40.457  25.635  27.566  1.00  0.00     0.031 C 
ATOM     51  C   UNL A   1      43.308  28.268  29.471  1.00  0.00     0.029 A 
ATOM     52  N   UNL A   1      41.769  29.606  30.413  1.00  0.00    -0.354 N 
ATOM     53  C   UNL A   1      42.403  24.598  28.195  1.00  0.00     0.074 A 
ATOM     54  C   UNL A   1      41.232  24.569  27.355  1.00  0.00     0.031 C 
ATOM     55  C   UNL A   1      43.903  28.903  30.490  1.00  0.00     0.029 A 
ATOM     56  C   UNL A   1      42.853  29.493  31.302  1.00  0.00     0.049 A 
ATOM     57  H   UNL A   1      41.076  30.306  30.415  1.00  0.00     0.167 HD
ATOM     58  C   UNL A   1      43.564  23.888  28.225  1.00  0.00     0.031 A 
ATOM     59  C   UNL A   1      42.755  29.399  32.660  1.00  0.00     0.031 A 
ATOM     60  C   UNL A   1      44.496  24.394  29.223  1.00  0.00     0.049 A 
ATOM     61  C   UNL A   1      43.454  28.184  33.233  1.00  0.00     0.074 A 
ATOM     62  C   UNL A   1      45.612  25.211  29.157  1.00  0.00     0.029 A 
ATOM     63  N   UNL A   1      44.174  24.271  30.566  1.00  0.00    -0.354 N 
ATOM     64  N   UNL A   1      43.914  27.205  32.506  1.00  0.00    -0.248 NA
ATOM     65  C   UNL A   1      43.639  27.936  34.661  1.00  0.00     0.031 C 
ATOM     66  C   UNL A   1      45.937  25.617  30.476  1.00  0.00     0.029 A 
ATOM     67  C   UNL A   1      45.028  25.032  31.339  1.00  0.00     0.049 A 
ATOM     68  H   UNL A   1      43.440  23.719  30.919  1.00  0.00     0.167 HD
ATOM     69  C   UNL A   1      44.402  26.209  33.311  1.00  0.00     0.074 A 
ATOM     70  C   UNL A   1      44.232  26.727  34.656  1.00  0.00     0.031 C 
ATOM     71  C   UNL A   1      44.877  25.040  32.787  1.00  0.00     0.031 A 
BRANCH  58  72
ATOM     72  C   UNL A   1      43.947  22.891  27.159  1.00  0.00    -0.014 A 
ATOM     73  C   UNL A   1      43.056  21.847  26.831  1.00  0.00     0.010 A 
ATOM     74  C   UNL A   1      45.176  22.902  26.473  1.00  0.00     0.010 A 
ATOM     75  C   UNL A   1      43.410  20.819  25.948  1.00  0.00     0.020 A 
ATOM     76  C   UNL A   1      45.561  21.858  25.620  1.00  0.00     0.020 A 
ATOM     77  C   UNL A   1      44.675  20.814  25.369  1.00  0.00     0.054 A 
BRANCH  77  78
ATOM     78  S   UNL A   1      45.149  19.431  24.300  1.00  0.00     0.124 S 
ATOM     79  O   UNL A   1      46.608  19.504  24.316  1.00  0.00    -0.237 OA
ATOM     80  O   UNL A   1      44.569  18.286  24.995  1.00  0.00    -0.237 OA
ATOM     81  O   UNL A   1      44.532  19.757  23.016  1.00  0.00    -0.744 OA
ENDBRANCH  77  78
ENDBRANCH  58  72
BRANCH  59  82
ATOM     82  C   UNL A   1      41.550  30.059  33.229  1.00  0.00    -0.014 A 
ATOM     83  C   UNL A   1      41.722  31.373  33.714  1.00  0.00     0.010 A 
ATOM     84  C   UNL A   1      40.267  29.639  32.835  1.00  0.00     0.010 A 
ATOM     85  C   UNL A   1      40.698  32.314  33.582  1.00  0.00     0.020 A 
ATOM     86  C   UNL A   1      39.236  30.582  32.711  1.00  0.00     0.020 A 
ATOM     87  C   UNL A   1      39.495  31.928  32.993  1.00  0.00     0.054 A 
BRANCH  87  88
ATOM     88  S   UNL A   1      38.361  33.232  32.418  1.00  0.00     0.124 S 
ATOM     89  O   UNL A   1      37.048  32.666  32.709  1.00  0.00    -0.237 OA
ATOM     90  O   UNL A   1      38.750  34.374  33.250  1.00  0.00    -0.237 OA
ATOM     91  O   UNL A   1      38.694  33.362  31.003  1.00  0.00    -0.744 OA
ENDBRANCH  87  88
ENDBRANCH  59  82
BRANCH  71  92
ATOM     92  C   UNL A   1      45.284  23.791  33.540  1.00  0.00    -0.014 A 
ATOM     93  C   UNL A   1      46.599  23.469  33.907  1.00  0.00     0.010 A 
ATOM     94  C   UNL A   1      44.263  22.934  34.027  1.00  0.00     0.010 A 
ATOM     95  C   UNL A   1      46.884  22.334  34.682  1.00  0.00     0.020 A 
ATOM     96  C   UNL A   1      44.529  21.826  34.836  1.00  0.00     0.020 A 
ATOM     97  C   UNL A   1      45.848  21.519  35.143  1.00  0.00     0.054 A 
BRANCH  97  98
ATOM     98  S   UNL A   1      46.215  20.104  36.212  1.00  0.00     0.124 S 
ATOM     99  O   UNL A   1      47.674  20.080  36.191  1.00  0.00    -0.237 OA
ATOM    100  O   UNL A   1      45.614  20.491  37.488  1.00  0.00    -0.237 OA
ATOM    101  O   UNL A   1      45.557  18.988  35.538  1.00  0.00    -0.744 OA
ENDBRANCH  97  98
ENDBRANCH  71  92
ENDBRANCH  45  46
ENDBRANCH  37  40
ENDBRANCH  35  36
ENDBRANCH   1  35
TORSDOF 17
ENDMDL
