MODEL 1
REMARK VINA RESULT:     -11.7      0.000      0.000
REMARK SMILES C[C@H]1[NH2+]CC[C@@H]1C(=O)N[C@@H](CC(=O)NCCCNC(=O)c1ccc(-c2c3nc(c(-c4ccc(S(=O)(=O)[O-])cc4)c4ccc([nH]4)c(-c4ccc(S(=O)(=O)[O-])cc4)c4nc(c(-c5ccc(S(=O)(=O)[O-])cc5)c5ccc2[nH]5)C=C4)C=C3)cc1)c1cccs1
REMARK SMILES IDX 16 1 15 2 14 3 12 4 13 5 11 7 10 8 9 9 7 10 8 11 6 13 1 14
REMARK SMILES IDX 2 15 3 16 4 17 5 20 81 21 82 22 85 23 83 24 84 25 17 26
REMARK SMILES IDX 18 27 19 28 20 30 21 31 22 32 80 33 23 34 79 35 24 36 25 37
REMARK SMILES IDX 26 38 73 39 27 40 78 41 72 42 74 43 28 44 77 45 71 46 70 47
REMARK SMILES IDX 29 49 59 50 40 51 58 52 41 53 44 54 57 55 75 56 42 57 43 58
REMARK SMILES IDX 56 60 76 61 45 62 30 63 31 64 39 65 32 66 38 67 33 68 34 69
REMARK SMILES IDX 35 70 36 71 37 72 60 73 61 74 69 75 62 76 68 77 63 78 64 79
REMARK SMILES IDX 65 80 66 81 67 82 46 83 47 84 55 85 48 86 54 87 49 88 50 89
REMARK SMILES IDX 51 90 52 91 53 92
REMARK H PARENT 14 6 9 12 3 18 3 19 18 29 74 48 44 59
REMARK Flexibility Score: inf
ROOT
ATOM      1  C   UNL A   1      40.087  22.347  26.931  1.00  0.00     0.042 C 
ENDROOT
BRANCH   1   2
ATOM      2  C   UNL A   1      39.130  21.436  26.162  1.00  0.00     0.117 C 
BRANCH   2   3
ATOM      3  N   UNL A   1      38.204  22.176  25.314  1.00  0.00    -0.356 N 
ATOM      4  C   UNL A   1      36.984  21.847  24.810  1.00  0.00     0.222 C 
ATOM      5  O   UNL A   1      36.351  22.727  24.219  1.00  0.00    -0.275 OA
ATOM      6  H   UNL A   1      38.517  23.075  25.062  1.00  0.00     0.163 HD
BRANCH   4   7
ATOM      7  C   UNL A   1      36.389  20.466  24.990  1.00  0.00     0.130 C 
BRANCH   7   8
ATOM      8  C   UNL A   1      34.860  20.359  24.931  1.00  0.00     0.131 C 
BRANCH   8   9
ATOM      9  N   UNL A   1      34.248  20.716  26.193  1.00  0.00    -0.348 N 
ATOM     10  C   UNL A   1      33.632  21.814  26.679  1.00  0.00     0.229 C 
ATOM     11  O   UNL A   1      33.659  21.930  27.907  1.00  0.00    -0.275 OA
ATOM     12  H   UNL A   1      34.293  19.986  26.853  1.00  0.00     0.164 HD
BRANCH  10  13
ATOM     13  C   UNL A   1      33.025  22.878  25.769  1.00  0.00     0.142 C 
ATOM     14  C   UNL A   1      32.677  25.409  25.906  1.00  0.00     0.076 C 
ATOM     15  C   UNL A   1      32.539  24.068  26.627  1.00  0.00     0.192 C 
ATOM     16  N   UNL A   1      31.116  23.803  26.919  1.00  0.00    -0.343 N 
ATOM     17  C   UNL A   1      30.676  22.659  26.133  1.00  0.00     0.261 C 
ATOM     18  H   UNL A   1      30.560  24.622  26.675  1.00  0.00     0.346 HD
ATOM     19  H   UNL A   1      31.001  23.603  27.913  1.00  0.00     0.346 HD
ATOM     20  C   UNL A   1      31.735  22.467  25.070  1.00  0.00     0.081 C 
ENDBRANCH  10  13
ENDBRANCH   8   9
BRANCH   8  21
ATOM     21  C   UNL A   1      34.327  18.998  24.533  1.00  0.00     0.027 A 
ATOM     22  C   UNL A   1      35.036  17.824  24.353  1.00  0.00     0.017 A 
ATOM     23  S   UNL A   1      32.658  18.762  24.157  1.00  0.00    -0.147 S 
ATOM     24  C   UNL A   1      34.218  16.750  23.890  1.00  0.00     0.012 A 
ATOM     25  C   UNL A   1      32.904  17.127  23.742  1.00  0.00     0.065 A 
ENDBRANCH   8  21
ENDBRANCH   7   8
ENDBRANCH   4   7
ENDBRANCH   2   3
ENDBRANCH   1   2
BRANCH   1  26
ATOM     26  C   UNL A   1      39.850  23.839  26.737  1.00  0.00     0.118 C 
BRANCH  26  27
ATOM     27  N   UNL A   1      40.838  24.448  25.867  1.00  0.00    -0.352 N 
ATOM     28  C   UNL A   1      41.400  25.703  25.915  1.00  0.00     0.251 C 
ATOM     29  H   UNL A   1      41.156  23.877  25.130  1.00  0.00     0.163 HD
ATOM     30  O   UNL A   1      42.054  26.098  24.954  1.00  0.00    -0.269 OA
BRANCH  28  31
ATOM     31  C   UNL A   1      41.220  26.586  27.096  1.00  0.00     0.039 A 
ATOM     32  C   UNL A   1      41.891  27.813  27.125  1.00  0.00     0.014 A 
ATOM     33  C   UNL A   1      40.454  26.197  28.199  1.00  0.00     0.014 A 
ATOM     34  C   UNL A   1      41.760  28.660  28.232  1.00  0.00     0.010 A 
ATOM     35  C   UNL A   1      40.255  27.079  29.263  1.00  0.00     0.010 A 
ATOM     36  C   UNL A   1      40.923  28.310  29.303  1.00  0.00    -0.014 A 
BRANCH  36  37
ATOM     37  C   UNL A   1      40.764  29.200  30.485  1.00  0.00     0.031 A 
ATOM     38  C   UNL A   1      41.624  29.001  31.706  1.00  0.00     0.074 A 
ATOM     39  C   UNL A   1      39.805  30.147  30.492  1.00  0.00     0.049 A 
ATOM     40  N   UNL A   1      41.593  29.633  32.853  1.00  0.00    -0.248 NA
ATOM     41  C   UNL A   1      42.632  27.930  31.644  1.00  0.00     0.031 C 
ATOM     42  C   UNL A   1      38.867  30.411  29.399  1.00  0.00     0.029 A 
ATOM     43  N   UNL A   1      39.453  31.058  31.459  1.00  0.00    -0.354 N 
ATOM     44  C   UNL A   1      42.546  29.014  33.655  1.00  0.00     0.074 A 
ATOM     45  C   UNL A   1      43.111  27.934  32.878  1.00  0.00     0.031 C 
ATOM     46  C   UNL A   1      38.059  31.426  29.749  1.00  0.00     0.029 A 
ATOM     47  C   UNL A   1      38.399  31.864  31.101  1.00  0.00     0.049 A 
ATOM     48  H   UNL A   1      39.912  31.125  32.327  1.00  0.00     0.167 HD
ATOM     49  C   UNL A   1      42.929  29.325  34.918  1.00  0.00     0.031 A 
ATOM     50  C   UNL A   1      37.770  32.842  31.780  1.00  0.00     0.031 A 
ATOM     51  C   UNL A   1      42.391  30.420  35.678  1.00  0.00     0.049 A 
ATOM     52  C   UNL A   1      38.239  33.201  33.163  1.00  0.00     0.074 A 
ATOM     53  C   UNL A   1      42.775  30.868  36.931  1.00  0.00     0.029 A 
ATOM     54  N   UNL A   1      41.356  31.241  35.260  1.00  0.00    -0.354 N 
ATOM     55  N   UNL A   1      39.197  32.655  33.873  1.00  0.00    -0.248 NA
ATOM     56  C   UNL A   1      37.554  34.317  33.828  1.00  0.00     0.031 C 
ATOM     57  C   UNL A   1      41.942  31.935  37.287  1.00  0.00     0.029 A 
ATOM     58  C   UNL A   1      41.071  32.180  36.238  1.00  0.00     0.049 A 
ATOM     59  H   UNL A   1      40.890  31.167  34.395  1.00  0.00     0.167 HD
ATOM     60  C   UNL A   1      39.241  33.372  35.064  1.00  0.00     0.074 A 
ATOM     61  C   UNL A   1      38.224  34.400  34.971  1.00  0.00     0.031 C 
ATOM     62  C   UNL A   1      40.051  33.194  36.135  1.00  0.00     0.031 A 
BRANCH  49  63
ATOM     63  C   UNL A   1      43.976  28.451  35.557  1.00  0.00    -0.014 A 
ATOM     64  C   UNL A   1      45.347  28.732  35.415  1.00  0.00     0.010 A 
ATOM     65  C   UNL A   1      43.582  27.338  36.322  1.00  0.00     0.010 A 
ATOM     66  C   UNL A   1      46.306  27.884  35.978  1.00  0.00     0.020 A 
ATOM     67  C   UNL A   1      44.537  26.503  36.910  1.00  0.00     0.020 A 
ATOM     68  C   UNL A   1      45.894  26.769  36.714  1.00  0.00     0.054 A 
BRANCH  68  69
ATOM     69  S   UNL A   1      47.156  25.680  37.431  1.00  0.00     0.124 S 
ATOM     70  O   UNL A   1      47.593  24.919  36.262  1.00  0.00    -0.237 OA
ATOM     71  O   UNL A   1      48.133  26.626  37.964  1.00  0.00    -0.237 OA
ATOM     72  O   UNL A   1      46.422  24.915  38.435  1.00  0.00    -0.744 OA
ENDBRANCH  68  69
ENDBRANCH  49  63
BRANCH  50  73
ATOM     73  C   UNL A   1      36.636  33.564  31.142  1.00  0.00    -0.014 A 
ATOM     74  C   UNL A   1      36.748  34.048  29.828  1.00  0.00     0.010 A 
ATOM     75  C   UNL A   1      35.419  33.726  31.829  1.00  0.00     0.010 A 
ATOM     76  C   UNL A   1      35.666  34.683  29.211  1.00  0.00     0.020 A 
ATOM     77  C   UNL A   1      34.327  34.341  31.210  1.00  0.00     0.020 A 
ATOM     78  C   UNL A   1      34.460  34.821  29.906  1.00  0.00     0.054 A 
BRANCH  78  79
ATOM     79  S   UNL A   1      33.043  35.578  29.059  1.00  0.00     0.124 S 
ATOM     80  O   UNL A   1      32.518  34.457  28.286  1.00  0.00    -0.237 OA
ATOM     81  O   UNL A   1      32.209  36.025  30.171  1.00  0.00    -0.237 OA
ATOM     82  O   UNL A   1      33.648  36.652  28.274  1.00  0.00    -0.744 OA
ENDBRANCH  78  79
ENDBRANCH  50  73
BRANCH  62  83
ATOM     83  C   UNL A   1      39.889  34.142  37.292  1.00  0.00    -0.014 A 
ATOM     84  C   UNL A   1      40.506  35.405  37.286  1.00  0.00     0.010 A 
ATOM     85  C   UNL A   1      39.060  33.787  38.372  1.00  0.00     0.010 A 
ATOM     86  C   UNL A   1      40.317  36.287  38.354  1.00  0.00     0.020 A 
ATOM     87  C   UNL A   1      38.852  34.674  39.430  1.00  0.00     0.020 A 
ATOM     88  C   UNL A   1      39.492  35.915  39.420  1.00  0.00     0.054 A 
BRANCH  88  89
ATOM     89  S   UNL A   1      39.224  37.094  40.774  1.00  0.00     0.124 S 
ATOM     90  O   UNL A   1      40.585  37.534  41.068  1.00  0.00    -0.237 OA
ATOM     91  O   UNL A   1      38.358  38.099  40.160  1.00  0.00    -0.237 OA
ATOM     92  O   UNL A   1      38.590  36.288  41.814  1.00  0.00    -0.744 OA
ENDBRANCH  88  89
ENDBRANCH  62  83
ENDBRANCH  36  37
ENDBRANCH  28  31
ENDBRANCH  26  27
ENDBRANCH   1  26
TORSDOF 17
ENDMDL
MODEL 2
REMARK VINA RESULT:     -11.7      4.538     10.332
REMARK SMILES C[C@H]1[NH2+]CC[C@@H]1C(=O)N[C@@H](CC(=O)NCCCNC(=O)c1ccc(-c2c3nc(c(-c4ccc(S(=O)(=O)[O-])cc4)c4ccc([nH]4)c(-c4ccc(S(=O)(=O)[O-])cc4)c4nc(c(-c5ccc(S(=O)(=O)[O-])cc5)c5ccc2[nH]5)C=C4)C=C3)cc1)c1cccs1
REMARK SMILES IDX 16 1 15 2 14 3 12 4 13 5 11 7 10 8 9 9 7 10 8 11 6 13 1 14
REMARK SMILES IDX 2 15 3 16 4 17 5 20 81 21 82 22 85 23 83 24 84 25 17 26
REMARK SMILES IDX 18 27 19 28 20 30 21 31 22 32 80 33 23 34 79 35 24 36 25 37
REMARK SMILES IDX 26 38 73 39 27 40 78 41 72 42 74 43 28 44 77 45 71 46 70 47
REMARK SMILES IDX 29 49 59 50 40 51 58 52 41 53 44 54 57 55 75 56 42 57 43 58
REMARK SMILES IDX 56 60 76 61 45 62 30 63 31 64 39 65 32 66 38 67 33 68 34 69
REMARK SMILES IDX 35 70 36 71 37 72 60 73 61 74 69 75 62 76 68 77 63 78 64 79
REMARK SMILES IDX 65 80 66 81 67 82 46 83 47 84 55 85 48 86 54 87 49 88 50 89
REMARK SMILES IDX 51 90 52 91 53 92
REMARK H PARENT 14 6 9 12 3 18 3 19 18 29 74 48 44 59
REMARK Flexibility Score: inf
ROOT
ATOM      1  C   UNL A   1      33.947  27.755  25.480  1.00  0.00     0.042 C 
ENDROOT
BRANCH   1   2
ATOM      2  C   UNL A   1      33.232  26.517  24.939  1.00  0.00     0.117 C 
BRANCH   2   3
ATOM      3  N   UNL A   1      33.181  25.426  25.904  1.00  0.00    -0.356 N 
ATOM      4  C   UNL A   1      33.551  24.120  25.808  1.00  0.00     0.222 C 
ATOM      5  O   UNL A   1      33.519  23.438  26.835  1.00  0.00    -0.275 OA
ATOM      6  H   UNL A   1      32.815  25.680  26.782  1.00  0.00     0.163 HD
BRANCH   4   7
ATOM      7  C   UNL A   1      34.023  23.516  24.502  1.00  0.00     0.130 C 
BRANCH   7   8
ATOM      8  C   UNL A   1      34.744  22.165  24.587  1.00  0.00     0.131 C 
BRANCH   8   9
ATOM      9  N   UNL A   1      34.051  21.240  25.459  1.00  0.00    -0.348 N 
ATOM     10  C   UNL A   1      33.427  20.055  25.293  1.00  0.00     0.229 C 
ATOM     11  O   UNL A   1      32.566  19.793  26.136  1.00  0.00    -0.275 OA
ATOM     12  H   UNL A   1      34.029  21.550  26.394  1.00  0.00     0.164 HD
BRANCH  10  13
ATOM     13  C   UNL A   1      33.704  19.149  24.097  1.00  0.00     0.142 C 
ATOM     14  C   UNL A   1      32.313  18.190  22.177  1.00  0.00     0.076 C 
ATOM     15  C   UNL A   1      32.399  18.434  23.684  1.00  0.00     0.192 C 
ATOM     16  N   UNL A   1      32.398  17.143  24.399  1.00  0.00    -0.343 N 
ATOM     17  C   UNL A   1      33.693  16.955  25.038  1.00  0.00     0.261 C 
ATOM     18  H   UNL A   1      32.230  16.386  23.737  1.00  0.00     0.346 HD
ATOM     19  H   UNL A   1      31.662  17.140  25.105  1.00  0.00     0.346 HD
ATOM     20  C   UNL A   1      34.616  17.963  24.387  1.00  0.00     0.081 C 
ENDBRANCH  10  13
ENDBRANCH   8   9
BRANCH   8  21
ATOM     21  C   UNL A   1      36.186  22.234  25.048  1.00  0.00     0.027 A 
ATOM     22  C   UNL A   1      37.106  21.204  25.130  1.00  0.00     0.017 A 
ATOM     23  S   UNL A   1      36.869  23.706  25.641  1.00  0.00    -0.147 S 
ATOM     24  C   UNL A   1      38.350  21.618  25.694  1.00  0.00     0.012 A 
ATOM     25  C   UNL A   1      38.353  22.955  26.015  1.00  0.00     0.065 A 
ENDBRANCH   8  21
ENDBRANCH   7   8
ENDBRANCH   4   7
ENDBRANCH   2   3
ENDBRANCH   1   2
BRANCH   1  26
ATOM     26  C   UNL A   1      33.605  28.117  26.919  1.00  0.00     0.118 C 
BRANCH  26  27
ATOM     27  N   UNL A   1      33.477  29.549  27.114  1.00  0.00    -0.352 N 
ATOM     28  C   UNL A   1      34.330  30.434  27.732  1.00  0.00     0.251 C 
ATOM     29  H   UNL A   1      32.656  29.949  26.747  1.00  0.00     0.163 HD
ATOM     30  O   UNL A   1      33.930  31.568  27.982  1.00  0.00    -0.269 OA
BRANCH  28  31
ATOM     31  C   UNL A   1      35.711  30.040  28.110  1.00  0.00     0.039 A 
ATOM     32  C   UNL A   1      36.717  30.106  27.139  1.00  0.00     0.014 A 
ATOM     33  C   UNL A   1      36.018  29.549  29.382  1.00  0.00     0.014 A 
ATOM     34  C   UNL A   1      38.026  29.723  27.455  1.00  0.00     0.010 A 
ATOM     35  C   UNL A   1      37.339  29.250  29.720  1.00  0.00     0.010 A 
ATOM     36  C   UNL A   1      38.354  29.311  28.755  1.00  0.00    -0.014 A 
BRANCH  36  37
ATOM     37  C   UNL A   1      39.740  28.907  29.114  1.00  0.00     0.031 A 
ATOM     38  C   UNL A   1      40.665  29.888  29.789  1.00  0.00     0.074 A 
ATOM     39  C   UNL A   1      40.195  27.684  28.780  1.00  0.00     0.049 A 
ATOM     40  N   UNL A   1      41.923  29.743  30.125  1.00  0.00    -0.248 NA
ATOM     41  C   UNL A   1      40.115  31.217  30.100  1.00  0.00     0.031 C 
ATOM     42  C   UNL A   1      39.425  26.656  28.076  1.00  0.00     0.029 A 
ATOM     43  N   UNL A   1      41.423  27.100  28.978  1.00  0.00    -0.354 N 
ATOM     44  C   UNL A   1      42.320  30.968  30.649  1.00  0.00     0.074 A 
ATOM     45  C   UNL A   1      41.183  31.856  30.553  1.00  0.00     0.031 C 
ATOM     46  C   UNL A   1      40.191  25.565  27.917  1.00  0.00     0.029 A 
ATOM     47  C   UNL A   1      41.515  25.823  28.477  1.00  0.00     0.049 A 
ATOM     48  H   UNL A   1      42.167  27.554  29.434  1.00  0.00     0.167 HD
ATOM     49  C   UNL A   1      43.518  31.320  31.178  1.00  0.00     0.031 A 
ATOM     50  C   UNL A   1      42.545  24.956  28.463  1.00  0.00     0.031 A 
ATOM     51  C   UNL A   1      44.638  30.429  31.305  1.00  0.00     0.049 A 
ATOM     52  C   UNL A   1      43.851  25.350  29.095  1.00  0.00     0.074 A 
ATOM     53  C   UNL A   1      45.863  30.667  31.905  1.00  0.00     0.029 A 
ATOM     54  N   UNL A   1      44.674  29.129  30.826  1.00  0.00    -0.354 N 
ATOM     55  N   UNL A   1      44.181  26.488  29.658  1.00  0.00    -0.248 NA
ATOM     56  C   UNL A   1      44.918  24.340  29.103  1.00  0.00     0.031 C 
ATOM     57  C   UNL A   1      46.654  29.523  31.751  1.00  0.00     0.029 A 
ATOM     58  C   UNL A   1      45.906  28.558  31.097  1.00  0.00     0.049 A 
ATOM     59  H   UNL A   1      43.931  28.678  30.361  1.00  0.00     0.167 HD
ATOM     60  C   UNL A   1      45.489  26.324  30.103  1.00  0.00     0.074 A 
ATOM     61  C   UNL A   1      45.883  24.973  29.757  1.00  0.00     0.031 C 
ATOM     62  C   UNL A   1      46.288  27.214  30.741  1.00  0.00     0.031 A 
BRANCH  49  63
ATOM     63  C   UNL A   1      43.674  32.744  31.647  1.00  0.00    -0.014 A 
ATOM     64  C   UNL A   1      43.191  33.156  32.903  1.00  0.00     0.010 A 
ATOM     65  C   UNL A   1      44.325  33.680  30.824  1.00  0.00     0.010 A 
ATOM     66  C   UNL A   1      43.305  34.491  33.302  1.00  0.00     0.020 A 
ATOM     67  C   UNL A   1      44.466  35.011  31.232  1.00  0.00     0.020 A 
ATOM     68  C   UNL A   1      43.933  35.412  32.459  1.00  0.00     0.054 A 
BRANCH  68  69
ATOM     69  S   UNL A   1      44.065  37.140  32.996  1.00  0.00     0.124 S 
ATOM     70  O   UNL A   1      43.026  37.214  34.021  1.00  0.00    -0.237 OA
ATOM     71  O   UNL A   1      45.438  37.222  33.488  1.00  0.00    -0.237 OA
ATOM     72  O   UNL A   1      43.796  37.901  31.779  1.00  0.00    -0.744 OA
ENDBRANCH  68  69
ENDBRANCH  49  63
BRANCH  50  73
ATOM     73  C   UNL A   1      42.367  23.616  27.842  1.00  0.00    -0.014 A 
ATOM     74  C   UNL A   1      42.817  23.370  26.533  1.00  0.00     0.010 A 
ATOM     75  C   UNL A   1      41.789  22.563  28.575  1.00  0.00     0.010 A 
ATOM     76  C   UNL A   1      42.694  22.098  25.968  1.00  0.00     0.020 A 
ATOM     77  C   UNL A   1      41.683  21.284  28.022  1.00  0.00     0.020 A 
ATOM     78  C   UNL A   1      42.131  21.061  26.719  1.00  0.00     0.054 A 
BRANCH  78  79
ATOM     79  S   UNL A   1      42.052  19.398  25.994  1.00  0.00     0.124 S 
ATOM     80  O   UNL A   1      40.626  19.254  25.719  1.00  0.00    -0.237 OA
ATOM     81  O   UNL A   1      42.913  19.521  24.821  1.00  0.00    -0.237 OA
ATOM     82  O   UNL A   1      42.576  18.538  27.053  1.00  0.00    -0.744 OA
ENDBRANCH  78  79
ENDBRANCH  50  73
BRANCH  62  83
ATOM     83  C   UNL A   1      47.667  26.754  31.127  1.00  0.00    -0.014 A 
ATOM     84  C   UNL A   1      47.907  26.146  32.372  1.00  0.00     0.010 A 
ATOM     85  C   UNL A   1      48.725  26.877  30.207  1.00  0.00     0.010 A 
ATOM     86  C   UNL A   1      49.188  25.693  32.701  1.00  0.00     0.020 A 
ATOM     87  C   UNL A   1      50.001  26.406  30.525  1.00  0.00     0.020 A 
ATOM     88  C   UNL A   1      50.227  25.828  31.775  1.00  0.00     0.054 A 
BRANCH  88  89
ATOM     89  S   UNL A   1      51.872  25.191  32.205  1.00  0.00     0.124 S 
ATOM     90  O   UNL A   1      51.629  23.753  32.284  1.00  0.00    -0.237 OA
ATOM     91  O   UNL A   1      52.692  25.629  31.078  1.00  0.00    -0.237 OA
ATOM     92  O   UNL A   1      52.173  25.844  33.476  1.00  0.00    -0.744 OA
ENDBRANCH  88  89
ENDBRANCH  62  83
ENDBRANCH  36  37
ENDBRANCH  28  31
ENDBRANCH  26  27
ENDBRANCH   1  26
TORSDOF 17
ENDMDL
MODEL 3
REMARK VINA RESULT:     -11.5      4.276     10.356
REMARK SMILES C[C@H]1[NH2+]CC[C@@H]1C(=O)N[C@@H](CC(=O)NCCCNC(=O)c1ccc(-c2c3nc(c(-c4ccc(S(=O)(=O)[O-])cc4)c4ccc([nH]4)c(-c4ccc(S(=O)(=O)[O-])cc4)c4nc(c(-c5ccc(S(=O)(=O)[O-])cc5)c5ccc2[nH]5)C=C4)C=C3)cc1)c1cccs1
REMARK SMILES IDX 16 1 15 2 14 3 12 4 13 5 11 7 10 8 9 9 7 10 8 11 6 13 1 14
REMARK SMILES IDX 2 15 3 16 4 17 5 20 81 21 82 22 85 23 83 24 84 25 17 26
REMARK SMILES IDX 18 27 19 28 20 30 21 31 22 32 80 33 23 34 79 35 24 36 25 37
REMARK SMILES IDX 26 38 73 39 27 40 78 41 72 42 74 43 28 44 77 45 71 46 70 47
REMARK SMILES IDX 29 49 59 50 40 51 58 52 41 53 44 54 57 55 75 56 42 57 43 58
REMARK SMILES IDX 56 60 76 61 45 62 30 63 31 64 39 65 32 66 38 67 33 68 34 69
REMARK SMILES IDX 35 70 36 71 37 72 60 73 61 74 69 75 62 76 68 77 63 78 64 79
REMARK SMILES IDX 65 80 66 81 67 82 46 83 47 84 55 85 48 86 54 87 49 88 50 89
REMARK SMILES IDX 51 90 52 91 53 92
REMARK H PARENT 14 6 9 12 3 18 3 19 18 29 74 48 44 59
REMARK Flexibility Score: inf
ROOT
ATOM      1  C   UNL A   1      32.713  27.573  25.715  1.00  0.00     0.042 C 
ENDROOT
BRANCH   1   2
ATOM      2  C   UNL A   1      31.317  27.048  26.051  1.00  0.00     0.117 C 
BRANCH   2   3
ATOM      3  N   UNL A   1      31.347  25.875  26.915  1.00  0.00    -0.356 N 
ATOM      4  C   UNL A   1      31.253  24.547  26.635  1.00  0.00     0.222 C 
ATOM      5  O   UNL A   1      31.442  23.752  27.560  1.00  0.00    -0.275 OA
ATOM      6  H   UNL A   1      31.454  26.081  27.872  1.00  0.00     0.163 HD
BRANCH   4   7
ATOM      7  C   UNL A   1      30.965  24.041  25.238  1.00  0.00     0.130 C 
BRANCH   7   8
ATOM      8  C   UNL A   1      32.170  23.852  24.309  1.00  0.00     0.131 C 
BRANCH   8   9
ATOM      9  N   UNL A   1      33.422  24.064  25.004  1.00  0.00    -0.348 N 
ATOM     10  C   UNL A   1      34.517  23.313  25.251  1.00  0.00     0.229 C 
ATOM     11  O   UNL A   1      35.165  23.644  26.246  1.00  0.00    -0.275 OA
ATOM     12  H   UNL A   1      33.491  24.968  25.388  1.00  0.00     0.164 HD
BRANCH  10  13
ATOM     13  C   UNL A   1      34.872  22.091  24.411  1.00  0.00     0.142 C 
ATOM     14  C   UNL A   1      34.576  19.562  24.659  1.00  0.00     0.076 C 
ATOM     15  C   UNL A   1      35.017  20.860  25.335  1.00  0.00     0.192 C 
ATOM     16  N   UNL A   1      36.449  20.780  25.684  1.00  0.00    -0.343 N 
ATOM     17  C   UNL A   1      37.188  21.741  24.877  1.00  0.00     0.261 C 
ATOM     18  H   UNL A   1      36.794  19.839  25.497  1.00  0.00     0.346 HD
ATOM     19  H   UNL A   1      36.575  20.993  26.673  1.00  0.00     0.346 HD
ATOM     20  C   UNL A   1      36.249  22.137  23.758  1.00  0.00     0.081 C 
ENDBRANCH  10  13
ENDBRANCH   8   9
BRANCH   8  21
ATOM     21  C   UNL A   1      32.177  24.734  23.077  1.00  0.00     0.027 A 
ATOM     22  C   UNL A   1      31.275  25.725  22.733  1.00  0.00     0.017 A 
ATOM     23  S   UNL A   1      33.358  24.532  21.834  1.00  0.00    -0.147 S 
ATOM     24  C   UNL A   1      31.542  26.295  21.453  1.00  0.00     0.012 A 
ATOM     25  C   UNL A   1      32.648  25.735  20.857  1.00  0.00     0.065 A 
ENDBRANCH   8  21
ENDBRANCH   7   8
ENDBRANCH   4   7
ENDBRANCH   2   3
ENDBRANCH   1   2
BRANCH   1  26
ATOM     26  C   UNL A   1      33.505  28.099  26.904  1.00  0.00     0.118 C 
BRANCH  26  27
ATOM     27  N   UNL A   1      33.407  29.540  27.041  1.00  0.00    -0.352 N 
ATOM     28  C   UNL A   1      34.280  30.431  27.621  1.00  0.00     0.251 C 
ATOM     29  H   UNL A   1      32.593  29.942  26.660  1.00  0.00     0.163 HD
ATOM     30  O   UNL A   1      33.904  31.582  27.826  1.00  0.00    -0.269 OA
BRANCH  28  31
ATOM     31  C   UNL A   1      35.653  30.024  28.013  1.00  0.00     0.039 A 
ATOM     32  C   UNL A   1      35.879  29.603  29.328  1.00  0.00     0.014 A 
ATOM     33  C   UNL A   1      36.730  30.111  27.126  1.00  0.00     0.014 A 
ATOM     34  C   UNL A   1      37.166  29.232  29.736  1.00  0.00     0.010 A 
ATOM     35  C   UNL A   1      37.994  29.659  27.509  1.00  0.00     0.010 A 
ATOM     36  C   UNL A   1      38.233  29.236  28.824  1.00  0.00    -0.014 A 
BRANCH  36  37
ATOM     37  C   UNL A   1      39.606  28.837  29.235  1.00  0.00     0.031 A 
ATOM     38  C   UNL A   1      40.487  29.807  29.980  1.00  0.00     0.074 A 
ATOM     39  C   UNL A   1      40.091  27.629  28.886  1.00  0.00     0.049 A 
ATOM     40  N   UNL A   1      41.730  29.666  30.370  1.00  0.00    -0.248 NA
ATOM     41  C   UNL A   1      39.906  31.120  30.304  1.00  0.00     0.031 C 
ATOM     42  C   UNL A   1      39.366  26.615  28.117  1.00  0.00     0.029 A 
ATOM     43  N   UNL A   1      41.315  27.053  29.123  1.00  0.00    -0.354 N 
ATOM     44  C   UNL A   1      42.087  30.879  30.948  1.00  0.00     0.074 A 
ATOM     45  C   UNL A   1      40.944  31.757  30.825  1.00  0.00     0.031 C 
ATOM     46  C   UNL A   1      40.152  25.537  27.962  1.00  0.00     0.029 A 
ATOM     47  C   UNL A   1      41.445  25.792  28.591  1.00  0.00     0.049 A 
ATOM     48  H   UNL A   1      42.032  27.501  29.627  1.00  0.00     0.167 HD
ATOM     49  C   UNL A   1      43.254  31.228  31.542  1.00  0.00     0.031 A 
ATOM     50  C   UNL A   1      42.486  24.938  28.599  1.00  0.00     0.031 A 
ATOM     51  C   UNL A   1      44.378  30.346  31.694  1.00  0.00     0.049 A 
ATOM     52  C   UNL A   1      43.757  25.327  29.302  1.00  0.00     0.074 A 
ATOM     53  C   UNL A   1      45.572  30.579  32.357  1.00  0.00     0.029 A 
ATOM     54  N   UNL A   1      44.452  29.061  31.180  1.00  0.00    -0.354 N 
ATOM     55  N   UNL A   1      44.046  26.451  29.913  1.00  0.00    -0.248 NA
ATOM     56  C   UNL A   1      44.834  24.329  29.329  1.00  0.00     0.031 C 
ATOM     57  C   UNL A   1      46.382  29.449  32.207  1.00  0.00     0.029 A 
ATOM     58  C   UNL A   1      45.677  28.496  31.490  1.00  0.00     0.049 A 
ATOM     59  H   UNL A   1      43.737  28.616  30.668  1.00  0.00     0.167 HD
ATOM     60  C   UNL A   1      45.334  26.288  30.414  1.00  0.00     0.074 A 
ATOM     61  C   UNL A   1      45.760  24.953  30.047  1.00  0.00     0.031 C 
ATOM     62  C   UNL A   1      46.091  27.167  31.113  1.00  0.00     0.031 A 
BRANCH  49  63
ATOM     63  C   UNL A   1      43.371  32.639  32.059  1.00  0.00    -0.014 A 
ATOM     64  C   UNL A   1      43.015  32.964  33.381  1.00  0.00     0.010 A 
ATOM     65  C   UNL A   1      43.856  33.652  31.213  1.00  0.00     0.010 A 
ATOM     66  C   UNL A   1      43.088  34.286  33.829  1.00  0.00     0.020 A 
ATOM     67  C   UNL A   1      43.957  34.971  31.667  1.00  0.00     0.020 A 
ATOM     68  C   UNL A   1      43.550  35.283  32.966  1.00  0.00     0.054 A 
BRANCH  68  69
ATOM     69  S   UNL A   1      43.630  36.993  33.568  1.00  0.00     0.124 S 
ATOM     70  O   UNL A   1      44.829  36.960  34.402  1.00  0.00    -0.237 OA
ATOM     71  O   UNL A   1      43.746  37.765  32.334  1.00  0.00    -0.237 OA
ATOM     72  O   UNL A   1      42.372  37.163  34.291  1.00  0.00    -0.744 OA
ENDBRANCH  68  69
ENDBRANCH  49  63
BRANCH  50  73
ATOM     73  C   UNL A   1      42.352  23.615  27.931  1.00  0.00    -0.014 A 
ATOM     74  C   UNL A   1      42.949  23.384  26.679  1.00  0.00     0.010 A 
ATOM     75  C   UNL A   1      41.670  22.562  28.568  1.00  0.00     0.010 A 
ATOM     76  C   UNL A   1      42.865  22.126  26.075  1.00  0.00     0.020 A 
ATOM     77  C   UNL A   1      41.601  21.297  27.977  1.00  0.00     0.020 A 
ATOM     78  C   UNL A   1      42.195  21.089  26.731  1.00  0.00     0.054 A 
BRANCH  78  79
ATOM     79  S   UNL A   1      42.166  19.443  25.965  1.00  0.00     0.124 S 
ATOM     80  O   UNL A   1      43.035  19.631  24.808  1.00  0.00    -0.237 OA
ATOM     81  O   UNL A   1      42.698  18.590  27.024  1.00  0.00    -0.237 OA
ATOM     82  O   UNL A   1      40.752  19.233  25.659  1.00  0.00    -0.744 OA
ENDBRANCH  78  79
ENDBRANCH  50  73
BRANCH  62  83
ATOM     83  C   UNL A   1      47.457  26.711  31.549  1.00  0.00    -0.014 A 
ATOM     84  C   UNL A   1      47.653  26.102  32.802  1.00  0.00     0.010 A 
ATOM     85  C   UNL A   1      48.548  26.838  30.669  1.00  0.00     0.010 A 
ATOM     86  C   UNL A   1      48.922  25.653  33.177  1.00  0.00     0.020 A 
ATOM     87  C   UNL A   1      49.813  26.370  31.033  1.00  0.00     0.020 A 
ATOM     88  C   UNL A   1      49.995  25.792  32.290  1.00  0.00     0.054 A 
BRANCH  88  89
ATOM     89  S   UNL A   1      51.624  25.160  32.780  1.00  0.00     0.124 S 
ATOM     90  O   UNL A   1      52.058  26.160  33.751  1.00  0.00    -0.237 OA
ATOM     91  O   UNL A   1      51.307  23.844  33.331  1.00  0.00    -0.237 OA
ATOM     92  O   UNL A   1      52.376  25.138  31.528  1.00  0.00    -0.744 OA
ENDBRANCH  88  89
ENDBRANCH  62  83
ENDBRANCH  36  37
ENDBRANCH  28  31
ENDBRANCH  26  27
ENDBRANCH   1  26
TORSDOF 17
ENDMDL
