MODEL 1
REMARK VINA RESULT:     -12.4      0.000      0.000
REMARK SMILES O=C1O[C@@H](c2ccc(O)c(O)c2)[C@H](C(=O)NCCCNC(=O)c2ccc(-c3c4nc(c(-c5ccc(S(=O)(=O)[O-])cc5)c5ccc([nH]5)c(-c5ccc(S(=O)(=O)[O-])cc5)c5nc(c(-c6ccc(S(=O)(=O)[O-])cc6)c6ccc3[nH]6)C=C5)C=C4)cc2)/C1=C\c1ccc(O)c(O)c1
REMARK SMILES IDX 18 1 17 2 16 3 14 4 15 5 13 7 1 8 2 9 3 10 83 11 4 12 84 13
REMARK SMILES IDX 5 14 6 15 12 16 7 17 10 18 8 19 11 20 9 22 85 24 86 25 92 26
REMARK SMILES IDX 87 27 90 28 88 29 91 30 89 32 19 34 20 35 21 36 22 38 23 39
REMARK SMILES IDX 24 40 82 41 25 42 81 43 26 44 27 45 28 46 75 47 29 48 80 49
REMARK SMILES IDX 74 50 76 51 30 52 79 53 73 54 72 55 31 57 61 58 42 59 60 60
REMARK SMILES IDX 43 61 46 62 59 63 77 64 44 65 45 66 58 68 78 69 47 70 32 71
REMARK SMILES IDX 33 72 41 73 34 74 40 75 35 76 36 77 37 78 38 79 39 80 62 81
REMARK SMILES IDX 63 82 71 83 64 84 70 85 65 86 66 87 67 88 68 89 69 90 48 91
REMARK SMILES IDX 49 92 57 93 50 94 56 95 51 96 52 97 53 98 54 99 55 100
REMARK H PARENT 16 6 11 21 9 23 91 31 89 33 20 37 76 56 46 67
REMARK Flexibility Score: inf
ROOT
ATOM      1  C   UNL A   1      32.206  27.636  27.065  1.00  0.00     0.042 C 
ENDROOT
BRANCH   1   2
ATOM      2  C   UNL A   1      32.101  26.416  26.169  1.00  0.00     0.117 C 
BRANCH   2   3
ATOM      3  N   UNL A   1      31.466  25.273  26.801  1.00  0.00    -0.355 N 
ATOM      4  C   UNL A   1      31.814  23.953  26.856  1.00  0.00     0.231 C 
ATOM      5  O   UNL A   1      31.152  23.250  27.623  1.00  0.00    -0.274 OA
ATOM      6  H   UNL A   1      30.632  25.489  27.277  1.00  0.00     0.163 HD
BRANCH   4   7
ATOM      7  C   UNL A   1      32.890  23.373  25.932  1.00  0.00     0.161 C 
ATOM      8  O   UNL A   1      31.792  20.177  24.758  1.00  0.00    -0.247 OA
ATOM      9  C   UNL A   1      32.369  21.124  25.264  1.00  0.00     0.335 C 
ATOM     10  O   UNL A   1      33.234  21.046  26.301  1.00  0.00    -0.453 OA
ATOM     11  C   UNL A   1      32.279  22.536  24.856  1.00  0.00     0.054 C 
ATOM     12  C   UNL A   1      33.782  22.339  26.612  1.00  0.00     0.224 C 
ATOM     13  C   UNL A   1      31.743  22.843  23.665  1.00  0.00     0.020 C 
BRANCH  12  14
ATOM     14  C   UNL A   1      35.263  22.439  26.234  1.00  0.00    -0.002 A 
ATOM     15  C   UNL A   1      35.987  23.641  26.419  1.00  0.00     0.012 A 
ATOM     16  C   UNL A   1      35.968  21.315  25.776  1.00  0.00     0.057 A 
ATOM     17  C   UNL A   1      37.360  23.722  26.164  1.00  0.00     0.050 A 
ATOM     18  C   UNL A   1      37.329  21.409  25.509  1.00  0.00     0.157 A 
ATOM     19  C   UNL A   1      38.024  22.597  25.707  1.00  0.00     0.157 A 
BRANCH  18  20
ATOM     20  O   UNL A   1      37.994  20.306  25.055  1.00  0.00    -0.504 OA
ATOM     21  H   UNL A   1      38.887  20.378  24.777  1.00  0.00     0.293 HD
ENDBRANCH  18  20
BRANCH  19  22
ATOM     22  O   UNL A   1      39.365  22.606  25.447  1.00  0.00    -0.504 OA
ATOM     23  H   UNL A   1      39.699  22.158  24.695  1.00  0.00     0.293 HD
ENDBRANCH  19  22
ENDBRANCH  12  14
BRANCH  13  24
ATOM     24  C   UNL A   1      31.618  24.197  23.129  1.00  0.00    -0.021 A 
ATOM     25  C   UNL A   1      30.472  24.971  23.372  1.00  0.00     0.012 A 
ATOM     26  C   UNL A   1      32.683  24.742  22.406  1.00  0.00     0.058 A 
ATOM     27  C   UNL A   1      30.375  26.272  22.870  1.00  0.00     0.051 A 
ATOM     28  C   UNL A   1      32.582  26.038  21.920  1.00  0.00     0.157 A 
ATOM     29  C   UNL A   1      31.436  26.797  22.142  1.00  0.00     0.157 A 
BRANCH  28  30
ATOM     30  O   UNL A   1      33.625  26.570  21.217  1.00  0.00    -0.504 OA
ATOM     31  H   UNL A   1      33.597  27.466  20.944  1.00  0.00     0.293 HD
ENDBRANCH  28  30
BRANCH  29  32
ATOM     32  O   UNL A   1      31.402  28.062  21.625  1.00  0.00    -0.504 OA
ATOM     33  H   UNL A   1      30.645  28.357  21.159  1.00  0.00     0.293 HD
ENDBRANCH  29  32
ENDBRANCH  13  24
ENDBRANCH   4   7
ENDBRANCH   2   3
ENDBRANCH   1   2
BRANCH   1  34
ATOM     34  C   UNL A   1      33.595  28.257  27.099  1.00  0.00     0.118 C 
BRANCH  34  35
ATOM     35  N   UNL A   1      33.567  29.672  27.450  1.00  0.00    -0.352 N 
ATOM     36  C   UNL A   1      34.503  30.454  28.082  1.00  0.00     0.251 C 
ATOM     37  H   UNL A   1      32.743  30.144  27.192  1.00  0.00     0.163 HD
ATOM     38  O   UNL A   1      34.188  31.576  28.466  1.00  0.00    -0.269 OA
BRANCH  36  39
ATOM     39  C   UNL A   1      35.871  29.944  28.319  1.00  0.00     0.039 A 
ATOM     40  C   UNL A   1      36.821  30.049  27.300  1.00  0.00     0.014 A 
ATOM     41  C   UNL A   1      36.217  29.355  29.537  1.00  0.00     0.014 A 
ATOM     42  C   UNL A   1      38.135  29.638  27.535  1.00  0.00     0.010 A 
ATOM     43  C   UNL A   1      37.545  29.044  29.804  1.00  0.00     0.010 A 
ATOM     44  C   UNL A   1      38.520  29.178  28.805  1.00  0.00    -0.014 A 
BRANCH  44  45
ATOM     45  C   UNL A   1      39.934  28.843  29.113  1.00  0.00     0.031 A 
ATOM     46  C   UNL A   1      40.853  29.886  29.690  1.00  0.00     0.074 A 
ATOM     47  C   UNL A   1      40.408  27.619  28.799  1.00  0.00     0.049 A 
ATOM     48  N   UNL A   1      42.130  29.797  29.960  1.00  0.00    -0.248 NA
ATOM     49  C   UNL A   1      40.273  31.210  29.976  1.00  0.00     0.031 C 
ATOM     50  C   UNL A   1      39.630  26.540  28.185  1.00  0.00     0.029 A 
ATOM     51  N   UNL A   1      41.662  27.080  28.941  1.00  0.00    -0.354 N 
ATOM     52  C   UNL A   1      42.509  31.053  30.420  1.00  0.00     0.074 A 
ATOM     53  C   UNL A   1      41.339  31.900  30.353  1.00  0.00     0.031 C 
ATOM     54  C   UNL A   1      40.416  25.463  28.027  1.00  0.00     0.029 A 
ATOM     55  C   UNL A   1      41.765  25.788  28.479  1.00  0.00     0.049 A 
ATOM     56  H   UNL A   1      42.418  27.571  29.337  1.00  0.00     0.167 HD
ATOM     57  C   UNL A   1      43.719  31.460  30.873  1.00  0.00     0.031 A 
ATOM     58  C   UNL A   1      42.827  24.961  28.409  1.00  0.00     0.031 A 
ATOM     59  C   UNL A   1      44.873  30.605  30.956  1.00  0.00     0.049 A 
ATOM     60  C   UNL A   1      44.158  25.438  28.921  1.00  0.00     0.074 A 
ATOM     61  C   UNL A   1      46.120  30.901  31.479  1.00  0.00     0.029 A 
ATOM     62  N   UNL A   1      44.929  29.297  30.500  1.00  0.00    -0.354 N 
ATOM     63  N   UNL A   1      44.470  26.601  29.441  1.00  0.00    -0.248 NA
ATOM     64  C   UNL A   1      45.278  24.489  28.847  1.00  0.00     0.031 C 
ATOM     65  C   UNL A   1      46.951  29.797  31.272  1.00  0.00     0.029 A 
ATOM     66  C   UNL A   1      46.201  28.787  30.692  1.00  0.00     0.049 A 
ATOM     67  H   UNL A   1      44.176  28.805  30.101  1.00  0.00     0.167 HD
ATOM     68  C   UNL A   1      45.816  26.513  29.782  1.00  0.00     0.074 A 
ATOM     69  C   UNL A   1      46.251  25.178  29.427  1.00  0.00     0.031 C 
ATOM     70  C   UNL A   1      46.620  27.455  30.335  1.00  0.00     0.031 A 
BRANCH  57  71
ATOM     71  C   UNL A   1      43.869  32.895  31.302  1.00  0.00    -0.014 A 
ATOM     72  C   UNL A   1      44.173  33.911  30.377  1.00  0.00     0.010 A 
ATOM     73  C   UNL A   1      43.618  33.246  32.642  1.00  0.00     0.010 A 
ATOM     74  C   UNL A   1      44.250  35.244  30.789  1.00  0.00     0.020 A 
ATOM     75  C   UNL A   1      43.663  34.581  33.052  1.00  0.00     0.020 A 
ATOM     76  C   UNL A   1      43.989  35.571  32.123  1.00  0.00     0.054 A 
BRANCH  76  77
ATOM     77  S   UNL A   1      44.037  37.316  32.614  1.00  0.00     0.124 S 
ATOM     78  O   UNL A   1      43.780  37.993  31.346  1.00  0.00    -0.237 OA
ATOM     79  O   UNL A   1      42.964  37.399  33.600  1.00  0.00    -0.237 OA
ATOM     80  O   UNL A   1      45.386  37.489  33.149  1.00  0.00    -0.744 OA
ENDBRANCH  76  77
ENDBRANCH  57  71
BRANCH  58  81
ATOM     81  C   UNL A   1      42.678  23.603  27.814  1.00  0.00    -0.014 A 
ATOM     82  C   UNL A   1      43.053  23.350  26.483  1.00  0.00     0.010 A 
ATOM     83  C   UNL A   1      42.148  22.551  28.584  1.00  0.00     0.010 A 
ATOM     84  C   UNL A   1      42.873  22.081  25.923  1.00  0.00     0.020 A 
ATOM     85  C   UNL A   1      41.999  21.272  28.040  1.00  0.00     0.020 A 
ATOM     86  C   UNL A   1      42.347  21.050  26.707  1.00  0.00     0.054 A 
BRANCH  86  87
ATOM     87  S   UNL A   1      42.154  19.401  25.975  1.00  0.00     0.124 S 
ATOM     88  O   UNL A   1      42.981  19.502  24.778  1.00  0.00    -0.237 OA
ATOM     89  O   UNL A   1      42.666  18.528  27.030  1.00  0.00    -0.237 OA
ATOM     90  O   UNL A   1      40.715  19.300  25.739  1.00  0.00    -0.744 OA
ENDBRANCH  86  87
ENDBRANCH  58  81
BRANCH  70  91
ATOM     91  C   UNL A   1      48.046  27.068  30.627  1.00  0.00    -0.014 A 
ATOM     92  C   UNL A   1      49.094  27.424  29.761  1.00  0.00     0.010 A 
ATOM     93  C   UNL A   1      48.346  26.387  31.821  1.00  0.00     0.010 A 
ATOM     94  C   UNL A   1      50.412  27.077  30.067  1.00  0.00     0.020 A 
ATOM     95  C   UNL A   1      49.667  26.068  32.148  1.00  0.00     0.020 A 
ATOM     96  C   UNL A   1      50.690  26.404  31.261  1.00  0.00     0.054 A 
BRANCH  96  97
ATOM     97  S   UNL A   1      52.414  26.006  31.655  1.00  0.00     0.124 S 
ATOM     98  O   UNL A   1      52.781  27.097  32.553  1.00  0.00    -0.237 OA
ATOM     99  O   UNL A   1      52.302  24.689  32.279  1.00  0.00    -0.237 OA
ATOM    100  O   UNL A   1      53.080  26.019  30.355  1.00  0.00    -0.744 OA
ENDBRANCH  96  97
ENDBRANCH  70  91
ENDBRANCH  44  45
ENDBRANCH  36  39
ENDBRANCH  34  35
ENDBRANCH   1  34
TORSDOF 19
ENDMDL
MODEL 2
REMARK VINA RESULT:     -12.2      0.478      7.911
REMARK SMILES O=C1O[C@@H](c2ccc(O)c(O)c2)[C@H](C(=O)NCCCNC(=O)c2ccc(-c3c4nc(c(-c5ccc(S(=O)(=O)[O-])cc5)c5ccc([nH]5)c(-c5ccc(S(=O)(=O)[O-])cc5)c5nc(c(-c6ccc(S(=O)(=O)[O-])cc6)c6ccc3[nH]6)C=C5)C=C4)cc2)/C1=C\c1ccc(O)c(O)c1
REMARK SMILES IDX 18 1 17 2 16 3 14 4 15 5 13 7 1 8 2 9 3 10 83 11 4 12 84 13
REMARK SMILES IDX 5 14 6 15 12 16 7 17 10 18 8 19 11 20 9 22 85 24 86 25 92 26
REMARK SMILES IDX 87 27 90 28 88 29 91 30 89 32 19 34 20 35 21 36 22 38 23 39
REMARK SMILES IDX 24 40 82 41 25 42 81 43 26 44 27 45 28 46 75 47 29 48 80 49
REMARK SMILES IDX 74 50 76 51 30 52 79 53 73 54 72 55 31 57 61 58 42 59 60 60
REMARK SMILES IDX 43 61 46 62 59 63 77 64 44 65 45 66 58 68 78 69 47 70 32 71
REMARK SMILES IDX 33 72 41 73 34 74 40 75 35 76 36 77 37 78 38 79 39 80 62 81
REMARK SMILES IDX 63 82 71 83 64 84 70 85 65 86 66 87 67 88 68 89 69 90 48 91
REMARK SMILES IDX 49 92 57 93 50 94 56 95 51 96 52 97 53 98 54 99 55 100
REMARK H PARENT 16 6 11 21 9 23 91 31 89 33 20 37 76 56 46 67
REMARK Flexibility Score: inf
ROOT
ATOM      1  C   UNL A   1      32.441  27.444  27.336  1.00  0.00     0.042 C 
ENDROOT
BRANCH   1   2
ATOM      2  C   UNL A   1      32.031  26.403  26.311  1.00  0.00     0.117 C 
BRANCH   2   3
ATOM      3  N   UNL A   1      31.378  25.239  26.882  1.00  0.00    -0.355 N 
ATOM      4  C   UNL A   1      31.718  23.915  26.888  1.00  0.00     0.231 C 
ATOM      5  O   UNL A   1      31.037  23.185  27.612  1.00  0.00    -0.274 OA
ATOM      6  H   UNL A   1      30.535  25.440  27.350  1.00  0.00     0.163 HD
BRANCH   4   7
ATOM      7  C   UNL A   1      32.809  23.368  25.962  1.00  0.00     0.161 C 
ATOM      8  O   UNL A   1      31.778  20.168  24.740  1.00  0.00    -0.247 OA
ATOM      9  C   UNL A   1      32.334  21.119  25.262  1.00  0.00     0.335 C 
ATOM     10  O   UNL A   1      33.195  21.043  26.302  1.00  0.00    -0.453 OA
ATOM     11  C   UNL A   1      32.219  22.534  24.872  1.00  0.00     0.054 C 
ATOM     12  C   UNL A   1      33.718  22.342  26.633  1.00  0.00     0.224 C 
ATOM     13  C   UNL A   1      31.683  22.846  23.682  1.00  0.00     0.020 C 
BRANCH  12  14
ATOM     14  C   UNL A   1      35.198  22.475  26.264  1.00  0.00    -0.002 A 
ATOM     15  C   UNL A   1      35.889  23.698  26.436  1.00  0.00     0.012 A 
ATOM     16  C   UNL A   1      35.935  21.364  25.828  1.00  0.00     0.057 A 
ATOM     17  C   UNL A   1      37.261  23.812  26.189  1.00  0.00     0.050 A 
ATOM     18  C   UNL A   1      37.296  21.489  25.570  1.00  0.00     0.157 A 
ATOM     19  C   UNL A   1      37.958  22.698  25.755  1.00  0.00     0.157 A 
BRANCH  18  20
ATOM     20  O   UNL A   1      37.993  20.397  25.138  1.00  0.00    -0.504 OA
ATOM     21  H   UNL A   1      37.962  20.148  24.234  1.00  0.00     0.293 HD
ENDBRANCH  18  20
BRANCH  19  22
ATOM     22  O   UNL A   1      39.300  22.737  25.504  1.00  0.00    -0.504 OA
ATOM     23  H   UNL A   1      39.841  23.364  25.942  1.00  0.00     0.293 HD
ENDBRANCH  19  22
ENDBRANCH  12  14
BRANCH  13  24
ATOM     24  C   UNL A   1      31.535  24.205  23.164  1.00  0.00    -0.021 A 
ATOM     25  C   UNL A   1      30.432  24.999  23.512  1.00  0.00     0.012 A 
ATOM     26  C   UNL A   1      32.541  24.734  22.348  1.00  0.00     0.058 A 
ATOM     27  C   UNL A   1      30.313  26.304  23.025  1.00  0.00     0.051 A 
ATOM     28  C   UNL A   1      32.419  26.033  21.877  1.00  0.00     0.157 A 
ATOM     29  C   UNL A   1      31.313  26.812  22.204  1.00  0.00     0.157 A 
BRANCH  28  30
ATOM     30  O   UNL A   1      33.404  26.549  21.082  1.00  0.00    -0.504 OA
ATOM     31  H   UNL A   1      34.304  26.420  21.308  1.00  0.00     0.293 HD
ENDBRANCH  28  30
BRANCH  29  32
ATOM     32  O   UNL A   1      31.255  28.080  21.696  1.00  0.00    -0.504 OA
ATOM     33  H   UNL A   1      30.681  28.272  20.981  1.00  0.00     0.293 HD
ENDBRANCH  29  32
ENDBRANCH  13  24
ENDBRANCH   4   7
ENDBRANCH   2   3
ENDBRANCH   1   2
BRANCH   1  34
ATOM     34  C   UNL A   1      33.663  28.256  26.933  1.00  0.00     0.118 C 
BRANCH  34  35
ATOM     35  N   UNL A   1      33.576  29.648  27.357  1.00  0.00    -0.352 N 
ATOM     36  C   UNL A   1      34.477  30.435  28.031  1.00  0.00     0.251 C 
ATOM     37  H   UNL A   1      32.732  30.098  27.122  1.00  0.00     0.163 HD
ATOM     38  O   UNL A   1      34.115  31.522  28.473  1.00  0.00    -0.269 OA
BRANCH  36  39
ATOM     39  C   UNL A   1      35.865  29.972  28.245  1.00  0.00     0.039 A 
ATOM     40  C   UNL A   1      36.791  30.100  27.206  1.00  0.00     0.014 A 
ATOM     41  C   UNL A   1      36.254  29.405  29.460  1.00  0.00     0.014 A 
ATOM     42  C   UNL A   1      38.123  29.734  27.418  1.00  0.00     0.010 A 
ATOM     43  C   UNL A   1      37.597  29.139  29.703  1.00  0.00     0.010 A 
ATOM     44  C   UNL A   1      38.547  29.297  28.684  1.00  0.00    -0.014 A 
BRANCH  44  45
ATOM     45  C   UNL A   1      39.977  29.011  28.966  1.00  0.00     0.031 A 
ATOM     46  C   UNL A   1      40.573  27.680  28.591  1.00  0.00     0.074 A 
ATOM     47  C   UNL A   1      40.717  29.923  29.630  1.00  0.00     0.049 A 
ATOM     48  N   UNL A   1      41.780  27.228  28.816  1.00  0.00    -0.248 NA
ATOM     49  C   UNL A   1      39.696  26.722  27.896  1.00  0.00     0.031 C 
ATOM     50  C   UNL A   1      40.237  31.227  30.096  1.00  0.00     0.029 A 
ATOM     51  N   UNL A   1      42.026  29.889  30.041  1.00  0.00    -0.354 N 
ATOM     52  C   UNL A   1      41.799  25.930  28.318  1.00  0.00     0.074 A 
ATOM     53  C   UNL A   1      40.471  25.650  27.817  1.00  0.00     0.031 C 
ATOM     54  C   UNL A   1      41.243  31.876  30.704  1.00  0.00     0.029 A 
ATOM     55  C   UNL A   1      42.423  31.019  30.719  1.00  0.00     0.049 A 
ATOM     56  H   UNL A   1      42.625  29.128  29.865  1.00  0.00     0.167 HD
ATOM     57  C   UNL A   1      42.832  25.057  28.269  1.00  0.00     0.031 A 
ATOM     58  C   UNL A   1      43.598  31.325  31.304  1.00  0.00     0.031 A 
ATOM     59  C   UNL A   1      44.155  25.350  28.750  1.00  0.00     0.049 A 
ATOM     60  C   UNL A   1      44.729  30.337  31.231  1.00  0.00     0.074 A 
ATOM     61  C   UNL A   1      45.290  24.562  28.668  1.00  0.00     0.029 A 
ATOM     62  N   UNL A   1      44.522  26.513  29.409  1.00  0.00    -0.354 N 
ATOM     63  N   UNL A   1      44.751  29.151  30.670  1.00  0.00    -0.248 NA
ATOM     64  C   UNL A   1      45.997  30.731  31.861  1.00  0.00     0.031 C 
ATOM     65  C   UNL A   1      46.324  25.217  29.343  1.00  0.00     0.029 A 
ATOM     66  C   UNL A   1      45.855  26.446  29.776  1.00  0.00     0.049 A 
ATOM     67  H   UNL A   1      43.923  27.274  29.588  1.00  0.00     0.167 HD
ATOM     68  C   UNL A   1      46.042  28.670  30.856  1.00  0.00     0.074 A 
ATOM     69  C   UNL A   1      46.776  29.699  31.562  1.00  0.00     0.031 C 
ATOM     70  C   UNL A   1      46.572  27.480  30.478  1.00  0.00     0.031 A 
BRANCH  57  71
ATOM     71  C   UNL A   1      42.578  23.691  27.687  1.00  0.00    -0.014 A 
ATOM     72  C   UNL A   1      42.892  23.393  26.348  1.00  0.00     0.010 A 
ATOM     73  C   UNL A   1      42.092  22.664  28.519  1.00  0.00     0.010 A 
ATOM     74  C   UNL A   1      42.702  22.102  25.847  1.00  0.00     0.020 A 
ATOM     75  C   UNL A   1      41.930  21.365  28.030  1.00  0.00     0.020 A 
ATOM     76  C   UNL A   1      42.227  21.096  26.693  1.00  0.00     0.054 A 
BRANCH  76  77
ATOM     77  S   UNL A   1      42.047  19.417  26.029  1.00  0.00     0.124 S 
ATOM     78  O   UNL A   1      42.573  18.603  27.122  1.00  0.00    -0.237 OA
ATOM     79  O   UNL A   1      40.608  19.316  25.807  1.00  0.00    -0.237 OA
ATOM     80  O   UNL A   1      42.863  19.433  24.817  1.00  0.00    -0.744 OA
ENDBRANCH  76  77
ENDBRANCH  57  71
BRANCH  58  81
ATOM     81  C   UNL A   1      43.758  32.620  32.026  1.00  0.00    -0.014 A 
ATOM     82  C   UNL A   1      44.227  33.766  31.362  1.00  0.00     0.010 A 
ATOM     83  C   UNL A   1      43.444  32.705  33.395  1.00  0.00     0.010 A 
ATOM     84  C   UNL A   1      44.410  34.965  32.060  1.00  0.00     0.020 A 
ATOM     85  C   UNL A   1      43.591  33.910  34.088  1.00  0.00     0.020 A 
ATOM     86  C   UNL A   1      44.089  35.029  33.419  1.00  0.00     0.054 A 
BRANCH  86  87
ATOM     87  S   UNL A   1      44.298  36.601  34.299  1.00  0.00     0.124 S 
ATOM     88  O   UNL A   1      42.938  37.129  34.302  1.00  0.00    -0.237 OA
ATOM     89  O   UNL A   1      44.816  36.168  35.595  1.00  0.00    -0.237 OA
ATOM     90  O   UNL A   1      45.254  37.332  33.469  1.00  0.00    -0.744 OA
ENDBRANCH  86  87
ENDBRANCH  58  81
BRANCH  70  91
ATOM     91  C   UNL A   1      48.026  27.236  30.787  1.00  0.00    -0.014 A 
ATOM     92  C   UNL A   1      48.423  26.536  31.940  1.00  0.00     0.010 A 
ATOM     93  C   UNL A   1      49.007  27.665  29.874  1.00  0.00     0.010 A 
ATOM     94  C   UNL A   1      49.776  26.299  32.191  1.00  0.00     0.020 A 
ATOM     95  C   UNL A   1      50.360  27.399  30.104  1.00  0.00     0.020 A 
ATOM     96  C   UNL A   1      50.736  26.730  31.269  1.00  0.00     0.054 A 
BRANCH  96  97
ATOM     97  S   UNL A   1      52.482  26.369  31.597  1.00  0.00     0.124 S 
ATOM     98  O   UNL A   1      52.401  25.102  32.319  1.00  0.00    -0.237 OA
ATOM     99  O   UNL A   1      53.049  26.292  30.253  1.00  0.00    -0.237 OA
ATOM    100  O   UNL A   1      52.930  27.511  32.391  1.00  0.00    -0.744 OA
ENDBRANCH  96  97
ENDBRANCH  70  91
ENDBRANCH  44  45
ENDBRANCH  36  39
ENDBRANCH  34  35
ENDBRANCH   1  34
TORSDOF 19
ENDMDL
MODEL 3
REMARK VINA RESULT:     -11.9      3.349      7.838
REMARK SMILES O=C1O[C@@H](c2ccc(O)c(O)c2)[C@H](C(=O)NCCCNC(=O)c2ccc(-c3c4nc(c(-c5ccc(S(=O)(=O)[O-])cc5)c5ccc([nH]5)c(-c5ccc(S(=O)(=O)[O-])cc5)c5nc(c(-c6ccc(S(=O)(=O)[O-])cc6)c6ccc3[nH]6)C=C5)C=C4)cc2)/C1=C\c1ccc(O)c(O)c1
REMARK SMILES IDX 18 1 17 2 16 3 14 4 15 5 13 7 1 8 2 9 3 10 83 11 4 12 84 13
REMARK SMILES IDX 5 14 6 15 12 16 7 17 10 18 8 19 11 20 9 22 85 24 86 25 92 26
REMARK SMILES IDX 87 27 90 28 88 29 91 30 89 32 19 34 20 35 21 36 22 38 23 39
REMARK SMILES IDX 24 40 82 41 25 42 81 43 26 44 27 45 28 46 75 47 29 48 80 49
REMARK SMILES IDX 74 50 76 51 30 52 79 53 73 54 72 55 31 57 61 58 42 59 60 60
REMARK SMILES IDX 43 61 46 62 59 63 77 64 44 65 45 66 58 68 78 69 47 70 32 71
REMARK SMILES IDX 33 72 41 73 34 74 40 75 35 76 36 77 37 78 38 79 39 80 62 81
REMARK SMILES IDX 63 82 71 83 64 84 70 85 65 86 66 87 67 88 68 89 69 90 48 91
REMARK SMILES IDX 49 92 57 93 50 94 56 95 51 96 52 97 53 98 54 99 55 100
REMARK H PARENT 16 6 11 21 9 23 91 31 89 33 20 37 76 56 46 67
REMARK Flexibility Score: inf
ROOT
ATOM      1  C   UNL A   1      37.984  20.102  25.049  1.00  0.00     0.042 C 
ENDROOT
BRANCH   1   2
ATOM      2  C   UNL A   1      37.381  21.244  24.251  1.00  0.00     0.117 C 
BRANCH   2   3
ATOM      3  N   UNL A   1      37.146  22.448  25.029  1.00  0.00    -0.355 N 
ATOM      4  C   UNL A   1      36.018  22.947  25.615  1.00  0.00     0.231 C 
ATOM      5  O   UNL A   1      36.179  23.917  26.360  1.00  0.00    -0.274 OA
ATOM      6  H   UNL A   1      37.947  23.006  25.157  1.00  0.00     0.163 HD
BRANCH   4   7
ATOM      7  C   UNL A   1      34.630  22.397  25.270  1.00  0.00     0.161 C 
ATOM      8  O   UNL A   1      32.567  22.578  28.188  1.00  0.00    -0.247 OA
ATOM      9  C   UNL A   1      33.224  22.252  27.214  1.00  0.00     0.335 C 
ATOM     10  O   UNL A   1      33.751  21.023  27.005  1.00  0.00    -0.453 OA
ATOM     11  C   UNL A   1      33.566  23.093  26.055  1.00  0.00     0.054 C 
ATOM     12  C   UNL A   1      34.415  20.958  25.731  1.00  0.00     0.224 C 
ATOM     13  C   UNL A   1      32.907  24.246  25.863  1.00  0.00     0.020 C 
BRANCH  12  14
ATOM     14  C   UNL A   1      33.652  20.085  24.731  1.00  0.00    -0.002 A 
ATOM     15  C   UNL A   1      32.787  20.658  23.768  1.00  0.00     0.012 A 
ATOM     16  C   UNL A   1      33.856  18.697  24.683  1.00  0.00     0.057 A 
ATOM     17  C   UNL A   1      32.153  19.883  22.791  1.00  0.00     0.050 A 
ATOM     18  C   UNL A   1      33.209  17.932  23.719  1.00  0.00     0.157 A 
ATOM     19  C   UNL A   1      32.371  18.516  22.775  1.00  0.00     0.157 A 
BRANCH  18  20
ATOM     20  O   UNL A   1      33.415  16.582  23.695  1.00  0.00    -0.504 OA
ATOM     21  H   UNL A   1      33.803  16.154  24.434  1.00  0.00     0.293 HD
ENDBRANCH  18  20
BRANCH  19  22
ATOM     22  O   UNL A   1      31.791  17.703  21.843  1.00  0.00    -0.504 OA
ATOM     23  H   UNL A   1      30.861  17.705  21.734  1.00  0.00     0.293 HD
ENDBRANCH  19  22
ENDBRANCH  12  14
BRANCH  13  24
ATOM     24  C   UNL A   1      33.130  25.159  24.744  1.00  0.00    -0.021 A 
ATOM     25  C   UNL A   1      33.482  26.500  24.958  1.00  0.00     0.012 A 
ATOM     26  C   UNL A   1      33.038  24.666  23.438  1.00  0.00     0.058 A 
ATOM     27  C   UNL A   1      33.711  27.356  23.877  1.00  0.00     0.051 A 
ATOM     28  C   UNL A   1      33.277  25.520  22.371  1.00  0.00     0.157 A 
ATOM     29  C   UNL A   1      33.604  26.857  22.585  1.00  0.00     0.157 A 
BRANCH  28  30
ATOM     30  O   UNL A   1      33.190  25.037  21.096  1.00  0.00    -0.504 OA
ATOM     31  H   UNL A   1      33.624  24.238  20.868  1.00  0.00     0.293 HD
ENDBRANCH  28  30
BRANCH  29  32
ATOM     32  O   UNL A   1      33.815  27.643  21.487  1.00  0.00    -0.504 OA
ATOM     33  H   UNL A   1      34.167  28.505  21.589  1.00  0.00     0.293 HD
ENDBRANCH  29  32
ENDBRANCH  13  24
ENDBRANCH   4   7
ENDBRANCH   2   3
ENDBRANCH   1   2
BRANCH   1  34
ATOM     34  C   UNL A   1      39.200  20.502  25.871  1.00  0.00     0.118 C 
BRANCH  34  35
ATOM     35  N   UNL A   1      40.170  19.421  25.997  1.00  0.00    -0.352 N 
ATOM     36  C   UNL A   1      41.537  19.458  26.127  1.00  0.00     0.251 C 
ATOM     37  H   UNL A   1      39.782  18.517  25.989  1.00  0.00     0.163 HD
ATOM     38  O   UNL A   1      42.181  18.420  26.006  1.00  0.00    -0.269 OA
BRANCH  36  39
ATOM     39  C   UNL A   1      42.232  20.738  26.385  1.00  0.00     0.039 A 
ATOM     40  C   UNL A   1      42.730  21.470  25.304  1.00  0.00     0.014 A 
ATOM     41  C   UNL A   1      42.402  21.212  27.687  1.00  0.00     0.014 A 
ATOM     42  C   UNL A   1      43.324  22.714  25.528  1.00  0.00     0.010 A 
ATOM     43  C   UNL A   1      42.898  22.495  27.899  1.00  0.00     0.010 A 
ATOM     44  C   UNL A   1      43.368  23.259  26.822  1.00  0.00    -0.014 A 
BRANCH  44  45
ATOM     45  C   UNL A   1      43.891  24.627  27.069  1.00  0.00     0.031 A 
ATOM     46  C   UNL A   1      42.949  25.746  27.428  1.00  0.00     0.074 A 
ATOM     47  C   UNL A   1      45.205  24.877  26.893  1.00  0.00     0.049 A 
ATOM     48  N   UNL A   1      43.213  27.014  27.615  1.00  0.00    -0.248 NA
ATOM     49  C   UNL A   1      41.523  25.406  27.571  1.00  0.00     0.031 C 
ATOM     50  C   UNL A   1      46.210  23.887  26.492  1.00  0.00     0.029 A 
ATOM     51  N   UNL A   1      45.922  26.041  27.017  1.00  0.00    -0.354 N 
ATOM     52  C   UNL A   1      41.990  27.623  27.869  1.00  0.00     0.074 A 
ATOM     53  C   UNL A   1      40.976  26.596  27.770  1.00  0.00     0.031 C 
ATOM     54  C   UNL A   1      47.412  24.480  26.428  1.00  0.00     0.029 A 
ATOM     55  C   UNL A   1      47.261  25.900  26.731  1.00  0.00     0.049 A 
ATOM     56  H   UNL A   1      45.516  26.896  27.286  1.00  0.00     0.167 HD
ATOM     57  C   UNL A   1      41.735  28.918  28.172  1.00  0.00     0.031 A 
ATOM     58  C   UNL A   1      48.253  26.811  26.699  1.00  0.00     0.031 A 
ATOM     59  C   UNL A   1      42.750  29.930  28.288  1.00  0.00     0.049 A 
ATOM     60  C   UNL A   1      47.942  28.241  27.042  1.00  0.00     0.074 A 
ATOM     61  C   UNL A   1      42.601  31.251  28.674  1.00  0.00     0.029 A 
ATOM     62  N   UNL A   1      44.096  29.741  28.014  1.00  0.00    -0.354 N 
ATOM     63  N   UNL A   1      46.790  28.776  27.373  1.00  0.00    -0.248 NA
ATOM     64  C   UNL A   1      49.064  29.190  27.019  1.00  0.00     0.031 C 
ATOM     65  C   UNL A   1      43.844  31.879  28.561  1.00  0.00     0.029 A 
ATOM     66  C   UNL A   1      44.782  30.932  28.181  1.00  0.00     0.049 A 
ATOM     67  H   UNL A   1      44.504  28.888  27.742  1.00  0.00     0.167 HD
ATOM     68  C   UNL A   1      47.056  30.118  27.624  1.00  0.00     0.074 A 
ATOM     69  C   UNL A   1      48.478  30.308  27.426  1.00  0.00     0.031 C 
ATOM     70  C   UNL A   1      46.198  31.106  27.982  1.00  0.00     0.031 A 
BRANCH  57  71
ATOM     71  C   UNL A   1      40.301  29.326  28.387  1.00  0.00    -0.014 A 
ATOM     72  C   UNL A   1      39.848  29.787  29.637  1.00  0.00     0.010 A 
ATOM     73  C   UNL A   1      39.411  29.328  27.296  1.00  0.00     0.010 A 
ATOM     74  C   UNL A   1      38.528  30.215  29.797  1.00  0.00     0.020 A 
ATOM     75  C   UNL A   1      38.099  29.785  27.445  1.00  0.00     0.020 A 
ATOM     76  C   UNL A   1      37.664  30.217  28.698  1.00  0.00     0.054 A 
BRANCH  76  77
ATOM     77  S   UNL A   1      35.974  30.835  28.924  1.00  0.00     0.124 S 
ATOM     78  O   UNL A   1      35.904  30.997  30.374  1.00  0.00    -0.237 OA
ATOM     79  O   UNL A   1      35.983  32.075  28.153  1.00  0.00    -0.237 OA
ATOM     80  O   UNL A   1      35.138  29.770  28.377  1.00  0.00    -0.744 OA
ENDBRANCH  76  77
ENDBRANCH  57  71
BRANCH  58  81
ATOM     81  C   UNL A   1      49.632  26.400  26.309  1.00  0.00    -0.014 A 
ATOM     82  C   UNL A   1      50.476  25.740  27.219  1.00  0.00     0.010 A 
ATOM     83  C   UNL A   1      50.110  26.679  25.015  1.00  0.00     0.010 A 
ATOM     84  C   UNL A   1      51.782  25.395  26.853  1.00  0.00     0.020 A 
ATOM     85  C   UNL A   1      51.401  26.303  24.633  1.00  0.00     0.020 A 
ATOM     86  C   UNL A   1      52.235  25.678  25.562  1.00  0.00     0.054 A 
BRANCH  86  87
ATOM     87  S   UNL A   1      53.917  25.190  25.094  1.00  0.00     0.124 S 
ATOM     88  O   UNL A   1      54.095  25.890  23.826  1.00  0.00    -0.237 OA
ATOM     89  O   UNL A   1      54.712  25.691  26.213  1.00  0.00    -0.237 OA
ATOM     90  O   UNL A   1      53.837  23.734  25.001  1.00  0.00    -0.744 OA
ENDBRANCH  86  87
ENDBRANCH  58  81
BRANCH  70  91
ATOM     91  C   UNL A   1      46.775  32.476  28.220  1.00  0.00    -0.014 A 
ATOM     92  C   UNL A   1      46.847  33.431  27.190  1.00  0.00     0.010 A 
ATOM     93  C   UNL A   1      47.198  32.832  29.514  1.00  0.00     0.010 A 
ATOM     94  C   UNL A   1      47.361  34.704  27.443  1.00  0.00     0.020 A 
ATOM     95  C   UNL A   1      47.681  34.116  29.779  1.00  0.00     0.020 A 
ATOM     96  C   UNL A   1      47.773  35.040  28.737  1.00  0.00     0.054 A 
BRANCH  96  97
ATOM     97  S   UNL A   1      48.394  36.715  29.046  1.00  0.00     0.124 S 
ATOM     98  O   UNL A   1      47.189  37.410  29.489  1.00  0.00    -0.237 OA
ATOM     99  O   UNL A   1      49.407  36.493  30.076  1.00  0.00    -0.237 OA
ATOM    100  O   UNL A   1      48.916  37.137  27.749  1.00  0.00    -0.744 OA
ENDBRANCH  96  97
ENDBRANCH  70  91
ENDBRANCH  44  45
ENDBRANCH  36  39
ENDBRANCH  34  35
ENDBRANCH   1  34
TORSDOF 19
ENDMDL
