MODEL 1
REMARK VINA RESULT:      -9.9      0.000      0.000
REMARK SMILES CC[N@H+](Cc1cccc(C)n1)[C@H](C(=O)NCCCNC(=O)c1ccc(-c2c3nc(c(-c4ccc(S(=O)(=O)[O-])cc4)c4ccc([nH]4)c(-c4ccc(S(=O)(=O)[O-])cc4)c4nc(c(-c5ccc(S(=O)(=O)[O-])cc5)c5ccc2[nH]5)C=C4)C=C3)cc1)C(C)C
REMARK SMILES IDX 17 1 16 2 15 3 13 4 14 5 12 7 3 8 2 10 1 11 4 12 5 13 6 14
REMARK SMILES IDX 11 15 7 16 9 17 8 18 10 19 82 20 83 21 84 22 18 23 19 24
REMARK SMILES IDX 20 25 21 27 22 28 23 29 81 30 24 31 80 32 25 33 26 34 27 35
REMARK SMILES IDX 74 36 28 37 79 38 73 39 75 40 29 41 78 42 72 43 71 44 30 46
REMARK SMILES IDX 60 47 41 48 59 49 42 50 45 51 58 52 76 53 43 54 44 55 57 57
REMARK SMILES IDX 77 58 46 59 31 60 32 61 40 62 33 63 39 64 34 65 35 66 36 67
REMARK SMILES IDX 37 68 38 69 61 70 62 71 70 72 63 73 69 74 64 75 65 76 66 77
REMARK SMILES IDX 67 78 68 79 47 80 48 81 56 82 49 83 55 84 50 85 51 86 52 87
REMARK SMILES IDX 53 88 54 89
REMARK H PARENT 15 6 3 9 19 26 75 45 45 56
REMARK Flexibility Score: inf
ROOT
ATOM      1  C   UNL A   1      32.085  27.753  27.057  1.00  0.00     0.042 C 
ENDROOT
BRANCH   1   2
ATOM      2  C   UNL A   1      31.488  28.024  25.682  1.00  0.00     0.118 C 
BRANCH   2   3
ATOM      3  N   UNL A   1      30.746  26.872  25.203  1.00  0.00    -0.351 N 
ATOM      4  C   UNL A   1      31.157  25.801  24.467  1.00  0.00     0.278 C 
ATOM      5  O   UNL A   1      30.278  25.089  23.976  1.00  0.00    -0.268 OA
ATOM      6  H   UNL A   1      29.794  26.863  25.449  1.00  0.00     0.163 HD
BRANCH   4   7
ATOM      7  C   UNL A   1      32.670  25.477  24.327  1.00  0.00     0.277 C 
BRANCH   7   8
ATOM      8  N   UNL A   1      32.912  23.979  24.354  1.00  0.00    -0.320 N 
ATOM      9  H   UNL A   1      32.126  23.533  23.879  1.00  0.00     0.349 HD
BRANCH   8  10
ATOM     10  C   UNL A   1      32.905  23.397  25.714  1.00  0.00     0.259 C 
ATOM     11  C   UNL A   1      31.920  22.241  25.852  1.00  0.00     0.071 C 
ENDBRANCH   8  10
BRANCH   8  12
ATOM     12  C   UNL A   1      34.178  23.671  23.625  1.00  0.00     0.320 C 
BRANCH  12  13
ATOM     13  C   UNL A   1      35.415  23.270  24.421  1.00  0.00     0.095 A 
ATOM     14  C   UNL A   1      36.153  24.171  25.183  1.00  0.00     0.030 A 
ATOM     15  N   UNL A   1      35.775  21.960  24.321  1.00  0.00    -0.252 NA
ATOM     16  C   UNL A   1      37.354  23.751  25.747  1.00  0.00     0.004 A 
ATOM     17  C   UNL A   1      36.919  21.552  24.922  1.00  0.00     0.038 A 
ATOM     18  C   UNL A   1      37.748  22.426  25.613  1.00  0.00     0.023 A 
ATOM     19  C   UNL A   1      37.231  20.088  24.856  1.00  0.00     0.067 C 
ENDBRANCH  12  13
ENDBRANCH   8  12
ENDBRANCH   7   8
BRANCH   7  20
ATOM     20  C   UNL A   1      33.283  26.213  23.099  1.00  0.00     0.051 C 
ATOM     21  C   UNL A   1      32.234  26.506  22.013  1.00  0.00     0.014 C 
ATOM     22  C   UNL A   1      33.925  27.542  23.515  1.00  0.00     0.014 C 
ENDBRANCH   7  20
ENDBRANCH   4   7
ENDBRANCH   2   3
ENDBRANCH   1   2
BRANCH   1  23
ATOM     23  C   UNL A   1      33.470  28.362  27.255  1.00  0.00     0.118 C 
BRANCH  23  24
ATOM     24  N   UNL A   1      33.420  29.794  27.518  1.00  0.00    -0.352 N 
ATOM     25  C   UNL A   1      34.362  30.615  28.089  1.00  0.00     0.251 C 
ATOM     26  H   UNL A   1      32.586  30.240  27.246  1.00  0.00     0.163 HD
ATOM     27  O   UNL A   1      34.059  31.762  28.398  1.00  0.00    -0.269 OA
BRANCH  25  28
ATOM     28  C   UNL A   1      35.726  30.110  28.349  1.00  0.00     0.039 A 
ATOM     29  C   UNL A   1      36.656  30.114  27.307  1.00  0.00     0.014 A 
ATOM     30  C   UNL A   1      36.088  29.628  29.610  1.00  0.00     0.014 A 
ATOM     31  C   UNL A   1      37.967  29.696  27.548  1.00  0.00     0.010 A 
ATOM     32  C   UNL A   1      37.413  29.291  29.869  1.00  0.00     0.010 A 
ATOM     33  C   UNL A   1      38.367  29.319  28.841  1.00  0.00    -0.014 A 
BRANCH  33  34
ATOM     34  C   UNL A   1      39.778  28.959  29.136  1.00  0.00     0.031 A 
ATOM     35  C   UNL A   1      40.711  29.974  29.741  1.00  0.00     0.074 A 
ATOM     36  C   UNL A   1      40.237  27.736  28.799  1.00  0.00     0.049 A 
ATOM     37  N   UNL A   1      41.985  29.859  30.019  1.00  0.00    -0.248 NA
ATOM     38  C   UNL A   1      40.147  31.297  30.055  1.00  0.00     0.031 C 
ATOM     39  C   UNL A   1      39.443  26.678  28.170  1.00  0.00     0.029 A 
ATOM     40  N   UNL A   1      41.483  27.178  28.935  1.00  0.00    -0.354 N 
ATOM     41  C   UNL A   1      42.376  31.094  30.522  1.00  0.00     0.074 A 
ATOM     42  C   UNL A   1      41.219  31.960  30.464  1.00  0.00     0.031 C 
ATOM     43  C   UNL A   1      40.213  25.591  28.000  1.00  0.00     0.029 A 
ATOM     44  C   UNL A   1      41.565  25.887  28.463  1.00  0.00     0.049 A 
ATOM     45  H   UNL A   1      42.247  27.655  29.332  1.00  0.00     0.167 HD
ATOM     46  C   UNL A   1      43.584  31.469  31.006  1.00  0.00     0.031 A 
ATOM     47  C   UNL A   1      42.611  25.041  28.399  1.00  0.00     0.031 A 
ATOM     48  C   UNL A   1      44.732  30.603  31.066  1.00  0.00     0.049 A 
ATOM     49  C   UNL A   1      43.947  25.488  28.925  1.00  0.00     0.074 A 
ATOM     50  C   UNL A   1      45.985  30.872  31.590  1.00  0.00     0.029 A 
ATOM     51  N   UNL A   1      44.772  29.304  30.582  1.00  0.00    -0.354 N 
ATOM     52  N   UNL A   1      44.279  26.637  29.463  1.00  0.00    -0.248 NA
ATOM     53  C   UNL A   1      45.048  24.518  28.847  1.00  0.00     0.031 C 
ATOM     54  C   UNL A   1      46.800  29.758  31.366  1.00  0.00     0.029 A 
ATOM     55  C   UNL A   1      46.036  28.769  30.767  1.00  0.00     0.049 A 
ATOM     56  H   UNL A   1      44.014  28.832  30.168  1.00  0.00     0.167 HD
ATOM     57  C   UNL A   1      45.620  26.519  29.813  1.00  0.00     0.074 A 
ATOM     58  C   UNL A   1      46.031  25.180  29.442  1.00  0.00     0.031 C 
ATOM     59  C   UNL A   1      46.434  27.435  30.391  1.00  0.00     0.031 A 
BRANCH  46  60
ATOM     60  C   UNL A   1      43.731  32.886  31.500  1.00  0.00    -0.014 A 
ATOM     61  C   UNL A   1      43.590  33.202  32.865  1.00  0.00     0.010 A 
ATOM     62  C   UNL A   1      44.060  33.912  30.594  1.00  0.00     0.010 A 
ATOM     63  C   UNL A   1      43.735  34.519  33.307  1.00  0.00     0.020 A 
ATOM     64  C   UNL A   1      44.238  35.225  31.037  1.00  0.00     0.020 A 
ATOM     65  C   UNL A   1      44.057  35.524  32.389  1.00  0.00     0.054 A 
BRANCH  65  66
ATOM     66  S   UNL A   1      44.265  37.219  32.998  1.00  0.00     0.124 S 
ATOM     67  O   UNL A   1      42.984  37.463  33.656  1.00  0.00    -0.237 OA
ATOM     68  O   UNL A   1      45.416  37.100  33.888  1.00  0.00    -0.237 OA
ATOM     69  O   UNL A   1      44.500  37.998  31.784  1.00  0.00    -0.744 OA
ENDBRANCH  65  66
ENDBRANCH  46  60
BRANCH  47  70
ATOM     70  C   UNL A   1      42.431  23.680  27.819  1.00  0.00    -0.014 A 
ATOM     71  C   UNL A   1      42.643  23.453  26.448  1.00  0.00     0.010 A 
ATOM     72  C   UNL A   1      42.058  22.600  28.641  1.00  0.00     0.010 A 
ATOM     73  C   UNL A   1      42.467  22.175  25.906  1.00  0.00     0.020 A 
ATOM     74  C   UNL A   1      41.913  21.316  28.109  1.00  0.00     0.020 A 
ATOM     75  C   UNL A   1      42.106  21.114  26.741  1.00  0.00     0.054 A 
BRANCH  75  76
ATOM     76  S   UNL A   1      41.933  19.456  26.024  1.00  0.00     0.124 S 
ATOM     77  O   UNL A   1      42.441  18.606  27.096  1.00  0.00    -0.237 OA
ATOM     78  O   UNL A   1      40.497  19.371  25.773  1.00  0.00    -0.237 OA
ATOM     79  O   UNL A   1      42.765  19.516  24.824  1.00  0.00    -0.744 OA
ENDBRANCH  75  76
ENDBRANCH  47  70
BRANCH  59  80
ATOM     80  C   UNL A   1      47.849  27.014  30.695  1.00  0.00    -0.014 A 
ATOM     81  C   UNL A   1      48.902  27.284  29.804  1.00  0.00     0.010 A 
ATOM     82  C   UNL A   1      48.135  26.387  31.923  1.00  0.00     0.010 A 
ATOM     83  C   UNL A   1      50.210  26.903  30.119  1.00  0.00     0.020 A 
ATOM     84  C   UNL A   1      49.444  26.036  32.256  1.00  0.00     0.020 A 
ATOM     85  C   UNL A   1      50.473  26.283  31.345  1.00  0.00     0.054 A 
BRANCH  85  86
ATOM     86  S   UNL A   1      52.184  25.841  31.749  1.00  0.00     0.124 S 
ATOM     87  O   UNL A   1      52.047  24.447  32.163  1.00  0.00    -0.237 OA
ATOM     88  O   UNL A   1      52.878  26.053  30.481  1.00  0.00    -0.237 OA
ATOM     89  O   UNL A   1      52.543  26.775  32.813  1.00  0.00    -0.744 OA
ENDBRANCH  85  86
ENDBRANCH  59  80
ENDBRANCH  33  34
ENDBRANCH  25  28
ENDBRANCH  23  24
ENDBRANCH   1  23
TORSDOF 18
ENDMDL
MODEL 2
REMARK VINA RESULT:      -9.6      4.904     10.412
REMARK SMILES CC[N@H+](Cc1cccc(C)n1)[C@H](C(=O)NCCCNC(=O)c1ccc(-c2c3nc(c(-c4ccc(S(=O)(=O)[O-])cc4)c4ccc([nH]4)c(-c4ccc(S(=O)(=O)[O-])cc4)c4nc(c(-c5ccc(S(=O)(=O)[O-])cc5)c5ccc2[nH]5)C=C4)C=C3)cc1)C(C)C
REMARK SMILES IDX 17 1 16 2 15 3 13 4 14 5 12 7 3 8 2 10 1 11 4 12 5 13 6 14
REMARK SMILES IDX 11 15 7 16 9 17 8 18 10 19 82 20 83 21 84 22 18 23 19 24
REMARK SMILES IDX 20 25 21 27 22 28 23 29 81 30 24 31 80 32 25 33 26 34 27 35
REMARK SMILES IDX 74 36 28 37 79 38 73 39 75 40 29 41 78 42 72 43 71 44 30 46
REMARK SMILES IDX 60 47 41 48 59 49 42 50 45 51 58 52 76 53 43 54 44 55 57 57
REMARK SMILES IDX 77 58 46 59 31 60 32 61 40 62 33 63 39 64 34 65 35 66 36 67
REMARK SMILES IDX 37 68 38 69 61 70 62 71 70 72 63 73 69 74 64 75 65 76 66 77
REMARK SMILES IDX 67 78 68 79 47 80 48 81 56 82 49 83 55 84 50 85 51 86 52 87
REMARK SMILES IDX 53 88 54 89
REMARK H PARENT 15 6 3 9 19 26 75 45 45 56
REMARK Flexibility Score: inf
ROOT
ATOM      1  C   UNL A   1      37.139  24.305  25.860  1.00  0.00     0.042 C 
ENDROOT
BRANCH   1   2
ATOM      2  C   UNL A   1      36.548  23.017  25.302  1.00  0.00     0.118 C 
BRANCH   2   3
ATOM      3  N   UNL A   1      35.897  22.250  26.348  1.00  0.00    -0.351 N 
ATOM      4  C   UNL A   1      34.573  22.068  26.616  1.00  0.00     0.278 C 
ATOM      5  O   UNL A   1      34.285  21.581  27.713  1.00  0.00    -0.268 OA
ATOM      6  H   UNL A   1      36.510  21.788  26.963  1.00  0.00     0.163 HD
BRANCH   4   7
ATOM      7  C   UNL A   1      33.500  22.404  25.543  1.00  0.00     0.277 C 
BRANCH   7   8
ATOM      8  N   UNL A   1      33.414  21.308  24.498  1.00  0.00    -0.320 N 
ATOM      9  H   UNL A   1      34.366  21.007  24.289  1.00  0.00     0.349 HD
BRANCH   8  10
ATOM     10  C   UNL A   1      32.872  21.764  23.198  1.00  0.00     0.259 C 
ATOM     11  C   UNL A   1      33.691  22.897  22.587  1.00  0.00     0.071 C 
ENDBRANCH   8  10
BRANCH   8  12
ATOM     12  C   UNL A   1      32.635  20.161  25.050  1.00  0.00     0.320 C 
BRANCH  12  13
ATOM     13  C   UNL A   1      33.239  18.761  25.006  1.00  0.00     0.095 A 
ATOM     14  C   UNL A   1      34.508  18.498  24.500  1.00  0.00     0.030 A 
ATOM     15  N   UNL A   1      32.439  17.765  25.478  1.00  0.00    -0.252 NA
ATOM     16  C   UNL A   1      34.914  17.175  24.355  1.00  0.00     0.004 A 
ATOM     17  C   UNL A   1      32.870  16.484  25.381  1.00  0.00     0.038 A 
ATOM     18  C   UNL A   1      34.085  16.151  24.796  1.00  0.00     0.023 A 
ATOM     19  C   UNL A   1      31.996  15.430  25.989  1.00  0.00     0.067 C 
ENDBRANCH  12  13
ENDBRANCH   8  12
ENDBRANCH   7   8
BRANCH   7  20
ATOM     20  C   UNL A   1      32.144  22.774  26.213  1.00  0.00     0.051 C 
ATOM     21  C   UNL A   1      32.259  24.017  27.114  1.00  0.00     0.014 C 
ATOM     22  C   UNL A   1      31.063  23.045  25.159  1.00  0.00     0.014 C 
ENDBRANCH   7  20
ENDBRANCH   4   7
ENDBRANCH   2   3
ENDBRANCH   1   2
BRANCH   1  23
ATOM     23  C   UNL A   1      38.325  24.081  26.793  1.00  0.00     0.118 C 
BRANCH  23  24
ATOM     24  N   UNL A   1      39.606  24.209  26.113  1.00  0.00    -0.352 N 
ATOM     25  C   UNL A   1      40.630  25.099  26.328  1.00  0.00     0.251 C 
ATOM     26  H   UNL A   1      39.762  23.560  25.389  1.00  0.00     0.163 HD
ATOM     27  O   UNL A   1      41.553  25.168  25.524  1.00  0.00    -0.269 OA
BRANCH  25  28
ATOM     28  C   UNL A   1      40.606  25.984  27.512  1.00  0.00     0.039 A 
ATOM     29  C   UNL A   1      41.573  26.986  27.624  1.00  0.00     0.014 A 
ATOM     30  C   UNL A   1      39.641  25.824  28.510  1.00  0.00     0.014 A 
ATOM     31  C   UNL A   1      41.531  27.869  28.705  1.00  0.00     0.010 A 
ATOM     32  C   UNL A   1      39.552  26.755  29.541  1.00  0.00     0.010 A 
ATOM     33  C   UNL A   1      40.496  27.786  29.652  1.00  0.00    -0.014 A 
BRANCH  33  34
ATOM     34  C   UNL A   1      40.383  28.773  30.757  1.00  0.00     0.031 A 
ATOM     35  C   UNL A   1      41.242  28.639  31.987  1.00  0.00     0.074 A 
ATOM     36  C   UNL A   1      39.462  29.754  30.681  1.00  0.00     0.049 A 
ATOM     37  N   UNL A   1      41.247  29.370  33.071  1.00  0.00    -0.248 NA
ATOM     38  C   UNL A   1      42.205  27.525  32.010  1.00  0.00     0.031 C 
ATOM     39  C   UNL A   1      38.542  29.967  29.561  1.00  0.00     0.029 A 
ATOM     40  N   UNL A   1      39.143  30.755  31.565  1.00  0.00    -0.354 N 
ATOM     41  C   UNL A   1      42.196  28.798  33.910  1.00  0.00     0.074 A 
ATOM     42  C   UNL A   1      42.710  27.629  33.231  1.00  0.00     0.031 C 
ATOM     43  C   UNL A   1      37.783  31.046  29.812  1.00  0.00     0.029 A 
ATOM     44  C   UNL A   1      38.127  31.575  31.128  1.00  0.00     0.049 A 
ATOM     45  H   UNL A   1      39.598  30.875  32.429  1.00  0.00     0.167 HD
ATOM     46  C   UNL A   1      42.615  29.217  35.128  1.00  0.00     0.031 A 
ATOM     47  C   UNL A   1      37.531  32.626  31.723  1.00  0.00     0.031 A 
ATOM     48  C   UNL A   1      42.104  30.383  35.798  1.00  0.00     0.049 A 
ATOM     49  C   UNL A   1      38.001  33.060  33.084  1.00  0.00     0.074 A 
ATOM     50  C   UNL A   1      42.504  30.923  37.009  1.00  0.00     0.029 A 
ATOM     51  N   UNL A   1      41.080  31.188  35.322  1.00  0.00    -0.354 N 
ATOM     52  N   UNL A   1      38.950  32.548  33.830  1.00  0.00    -0.248 NA
ATOM     53  C   UNL A   1      37.328  34.224  33.678  1.00  0.00     0.031 C 
ATOM     54  C   UNL A   1      41.679  32.016  37.294  1.00  0.00     0.029 A 
ATOM     55  C   UNL A   1      40.813  32.201  36.227  1.00  0.00     0.049 A 
ATOM     56  H   UNL A   1      40.611  31.058  34.465  1.00  0.00     0.167 HD
ATOM     57  C   UNL A   1      39.007  33.344  34.970  1.00  0.00     0.074 A 
ATOM     58  C   UNL A   1      38.009  34.381  34.805  1.00  0.00     0.031 C 
ATOM     59  C   UNL A   1      39.815  33.226  36.053  1.00  0.00     0.031 A 
BRANCH  46  60
ATOM     60  C   UNL A   1      43.676  28.400  35.822  1.00  0.00    -0.014 A 
ATOM     61  C   UNL A   1      45.044  28.684  35.653  1.00  0.00     0.010 A 
ATOM     62  C   UNL A   1      43.298  27.362  36.694  1.00  0.00     0.010 A 
ATOM     63  C   UNL A   1      46.013  27.921  36.309  1.00  0.00     0.020 A 
ATOM     64  C   UNL A   1      44.264  26.617  37.377  1.00  0.00     0.020 A 
ATOM     65  C   UNL A   1      45.617  26.891  37.167  1.00  0.00     0.054 A 
BRANCH  65  66
ATOM     66  S   UNL A   1      46.898  25.936  38.024  1.00  0.00     0.124 S 
ATOM     67  O   UNL A   1      47.024  24.761  37.165  1.00  0.00    -0.237 OA
ATOM     68  O   UNL A   1      48.038  26.848  38.012  1.00  0.00    -0.237 OA
ATOM     69  O   UNL A   1      46.320  25.685  39.343  1.00  0.00    -0.744 OA
ENDBRANCH  65  66
ENDBRANCH  46  60
BRANCH  47  70
ATOM     70  C   UNL A   1      36.426  33.345  31.029  1.00  0.00    -0.014 A 
ATOM     71  C   UNL A   1      35.141  33.400  31.595  1.00  0.00     0.010 A 
ATOM     72  C   UNL A   1      36.659  33.989  29.799  1.00  0.00     0.010 A 
ATOM     73  C   UNL A   1      34.104  34.071  30.936  1.00  0.00     0.020 A 
ATOM     74  C   UNL A   1      35.634  34.687  29.154  1.00  0.00     0.020 A 
ATOM     75  C   UNL A   1      34.359  34.713  29.721  1.00  0.00     0.054 A 
BRANCH  75  76
ATOM     76  S   UNL A   1      33.011  35.618  28.911  1.00  0.00     0.124 S 
ATOM     77  O   UNL A   1      33.738  36.623  28.143  1.00  0.00    -0.237 OA
ATOM     78  O   UNL A   1      32.357  34.573  28.129  1.00  0.00    -0.237 OA
ATOM     79  O   UNL A   1      32.225  36.132  30.031  1.00  0.00    -0.744 OA
ENDBRANCH  75  76
ENDBRANCH  47  70
BRANCH  59  80
ATOM     80  C   UNL A   1      39.682  34.267  37.135  1.00  0.00    -0.014 A 
ATOM     81  C   UNL A   1      38.887  34.044  38.273  1.00  0.00     0.010 A 
ATOM     82  C   UNL A   1      40.413  35.466  37.034  1.00  0.00     0.010 A 
ATOM     83  C   UNL A   1      38.799  35.016  39.274  1.00  0.00     0.020 A 
ATOM     84  C   UNL A   1      40.353  36.424  38.047  1.00  0.00     0.020 A 
ATOM     85  C   UNL A   1      39.534  36.199  39.156  1.00  0.00     0.054 A 
BRANCH  85  86
ATOM     86  S   UNL A   1      39.437  37.424  40.489  1.00  0.00     0.124 S 
ATOM     87  O   UNL A   1      38.334  38.272  40.044  1.00  0.00    -0.237 OA
ATOM     88  O   UNL A   1      39.160  36.598  41.662  1.00  0.00    -0.237 OA
ATOM     89  O   UNL A   1      40.754  38.057  40.477  1.00  0.00    -0.744 OA
ENDBRANCH  85  86
ENDBRANCH  59  80
ENDBRANCH  33  34
ENDBRANCH  25  28
ENDBRANCH  23  24
ENDBRANCH   1  23
TORSDOF 18
ENDMDL
MODEL 3
REMARK VINA RESULT:      -9.6      2.519      3.215
REMARK SMILES CC[N@H+](Cc1cccc(C)n1)[C@H](C(=O)NCCCNC(=O)c1ccc(-c2c3nc(c(-c4ccc(S(=O)(=O)[O-])cc4)c4ccc([nH]4)c(-c4ccc(S(=O)(=O)[O-])cc4)c4nc(c(-c5ccc(S(=O)(=O)[O-])cc5)c5ccc2[nH]5)C=C4)C=C3)cc1)C(C)C
REMARK SMILES IDX 17 1 16 2 15 3 13 4 14 5 12 7 3 8 2 10 1 11 4 12 5 13 6 14
REMARK SMILES IDX 11 15 7 16 9 17 8 18 10 19 82 20 83 21 84 22 18 23 19 24
REMARK SMILES IDX 20 25 21 27 22 28 23 29 81 30 24 31 80 32 25 33 26 34 27 35
REMARK SMILES IDX 74 36 28 37 79 38 73 39 75 40 29 41 78 42 72 43 71 44 30 46
REMARK SMILES IDX 60 47 41 48 59 49 42 50 45 51 58 52 76 53 43 54 44 55 57 57
REMARK SMILES IDX 77 58 46 59 31 60 32 61 40 62 33 63 39 64 34 65 35 66 36 67
REMARK SMILES IDX 37 68 38 69 61 70 62 71 70 72 63 73 69 74 64 75 65 76 66 77
REMARK SMILES IDX 67 78 68 79 47 80 48 81 56 82 49 83 55 84 50 85 51 86 52 87
REMARK SMILES IDX 53 88 54 89
REMARK H PARENT 15 6 3 9 19 26 75 45 45 56
REMARK Flexibility Score: inf
ROOT
ATOM      1  C   UNL A   1      33.708  27.384  25.333  1.00  0.00     0.042 C 
ENDROOT
BRANCH   1   2
ATOM      2  C   UNL A   1      32.217  27.071  25.334  1.00  0.00     0.118 C 
BRANCH   2   3
ATOM      3  N   UNL A   1      31.894  26.093  26.356  1.00  0.00    -0.351 N 
ATOM      4  C   UNL A   1      31.878  24.731  26.301  1.00  0.00     0.278 C 
ATOM      5  O   UNL A   1      31.323  24.140  27.231  1.00  0.00    -0.268 OA
ATOM      6  H   UNL A   1      31.647  26.474  27.229  1.00  0.00     0.163 HD
BRANCH   4   7
ATOM      7  C   UNL A   1      32.594  23.982  25.143  1.00  0.00     0.277 C 
BRANCH   7   8
ATOM      8  N   UNL A   1      33.802  23.218  25.653  1.00  0.00    -0.320 N 
ATOM      9  H   UNL A   1      33.758  22.277  25.259  1.00  0.00     0.349 HD
BRANCH   8  10
ATOM     10  C   UNL A   1      33.803  23.011  27.118  1.00  0.00     0.259 C 
ATOM     11  C   UNL A   1      33.838  21.536  27.501  1.00  0.00     0.071 C 
ENDBRANCH   8  10
BRANCH   8  12
ATOM     12  C   UNL A   1      35.047  23.898  25.188  1.00  0.00     0.320 C 
BRANCH  12  13
ATOM     13  C   UNL A   1      36.401  23.280  25.522  1.00  0.00     0.095 A 
ATOM     14  C   UNL A   1      37.418  23.982  26.161  1.00  0.00     0.030 A 
ATOM     15  N   UNL A   1      36.566  21.987  25.128  1.00  0.00    -0.252 NA
ATOM     16  C   UNL A   1      38.671  23.389  26.284  1.00  0.00     0.004 A 
ATOM     17  C   UNL A   1      37.775  21.403  25.304  1.00  0.00     0.038 A 
ATOM     18  C   UNL A   1      38.857  22.084  25.846  1.00  0.00     0.023 A 
ATOM     19  C   UNL A   1      37.886  19.955  24.934  1.00  0.00     0.067 C 
ENDBRANCH  12  13
ENDBRANCH   8  12
ENDBRANCH   7   8
BRANCH   7  20
ATOM     20  C   UNL A   1      31.580  23.128  24.326  1.00  0.00     0.051 C 
ATOM     21  C   UNL A   1      30.697  23.992  23.408  1.00  0.00     0.014 C 
ATOM     22  C   UNL A   1      32.304  22.092  23.457  1.00  0.00     0.014 C 
ENDBRANCH   7  20
ENDBRANCH   4   7
ENDBRANCH   2   3
ENDBRANCH   1   2
BRANCH   1  23
ATOM     23  C   UNL A   1      34.197  28.040  26.621  1.00  0.00     0.118 C 
BRANCH  23  24
ATOM     24  N   UNL A   1      33.837  29.448  26.705  1.00  0.00    -0.352 N 
ATOM     25  C   UNL A   1      34.405  30.458  27.444  1.00  0.00     0.251 C 
ATOM     26  H   UNL A   1      33.072  29.718  26.148  1.00  0.00     0.163 HD
ATOM     27  O   UNL A   1      33.840  31.542  27.525  1.00  0.00    -0.269 OA
BRANCH  25  28
ATOM     28  C   UNL A   1      35.680  30.228  28.156  1.00  0.00     0.039 A 
ATOM     29  C   UNL A   1      35.648  29.638  29.422  1.00  0.00     0.014 A 
ATOM     30  C   UNL A   1      36.901  30.596  27.584  1.00  0.00     0.014 A 
ATOM     31  C   UNL A   1      36.845  29.358  30.084  1.00  0.00     0.010 A 
ATOM     32  C   UNL A   1      38.093  30.241  28.208  1.00  0.00     0.010 A 
ATOM     33  C   UNL A   1      38.079  29.621  29.466  1.00  0.00    -0.014 A 
BRANCH  33  34
ATOM     34  C   UNL A   1      39.362  29.246  30.117  1.00  0.00     0.031 A 
ATOM     35  C   UNL A   1      39.872  30.030  31.297  1.00  0.00     0.074 A 
ATOM     36  C   UNL A   1      40.098  28.240  29.605  1.00  0.00     0.049 A 
ATOM     37  N   UNL A   1      40.991  29.885  31.960  1.00  0.00    -0.248 NA
ATOM     38  C   UNL A   1      39.027  31.134  31.781  1.00  0.00     0.031 C 
ATOM     39  C   UNL A   1      39.732  27.430  28.440  1.00  0.00     0.029 A 
ATOM     40  N   UNL A   1      41.310  27.727  29.995  1.00  0.00    -0.354 N 
ATOM     41  C   UNL A   1      40.992  30.885  32.925  1.00  0.00     0.074 A 
ATOM     42  C   UNL A   1      39.788  31.662  32.729  1.00  0.00     0.031 C 
ATOM     43  C   UNL A   1      40.684  26.507  28.228  1.00  0.00     0.029 A 
ATOM     44  C   UNL A   1      41.749  26.686  29.210  1.00  0.00     0.049 A 
ATOM     45  H   UNL A   1      41.817  28.072  30.765  1.00  0.00     0.167 HD
ATOM     46  C   UNL A   1      41.903  31.124  33.898  1.00  0.00     0.031 A 
ATOM     47  C   UNL A   1      42.885  25.964  29.264  1.00  0.00     0.031 A 
ATOM     48  C   UNL A   1      43.097  30.345  34.092  1.00  0.00     0.049 A 
ATOM     49  C   UNL A   1      43.891  26.262  30.341  1.00  0.00     0.074 A 
ATOM     50  C   UNL A   1      44.055  30.473  35.084  1.00  0.00     0.029 A 
ATOM     51  N   UNL A   1      43.504  29.299  33.277  1.00  0.00    -0.354 N 
ATOM     52  N   UNL A   1      43.839  27.167  31.289  1.00  0.00    -0.248 NA
ATOM     53  C   UNL A   1      45.103  25.432  30.365  1.00  0.00     0.031 C 
ATOM     54  C   UNL A   1      45.071  29.545  34.832  1.00  0.00     0.029 A 
ATOM     55  C   UNL A   1      44.712  28.791  33.726  1.00  0.00     0.049 A 
ATOM     56  H   UNL A   1      43.006  28.965  32.496  1.00  0.00     0.167 HD
ATOM     57  C   UNL A   1      44.998  26.996  32.039  1.00  0.00     0.074 A 
ATOM     58  C   UNL A   1      45.721  25.891  31.444  1.00  0.00     0.031 C 
ATOM     59  C   UNL A   1      45.423  27.692  33.123  1.00  0.00     0.031 A 
BRANCH  46  60
ATOM     60  C   UNL A   1      41.649  32.286  34.825  1.00  0.00    -0.014 A 
ATOM     61  C   UNL A   1      42.118  33.578  34.521  1.00  0.00     0.010 A 
ATOM     62  C   UNL A   1      40.891  32.093  35.995  1.00  0.00     0.010 A 
ATOM     63  C   UNL A   1      41.868  34.645  35.389  1.00  0.00     0.020 A 
ATOM     64  C   UNL A   1      40.612  33.164  36.849  1.00  0.00     0.020 A 
ATOM     65  C   UNL A   1      41.117  34.430  36.549  1.00  0.00     0.054 A 
BRANCH  65  66
ATOM     66  S   UNL A   1      40.788  35.840  37.641  1.00  0.00     0.124 S 
ATOM     67  O   UNL A   1      40.373  35.176  38.874  1.00  0.00    -0.237 OA
ATOM     68  O   UNL A   1      42.084  36.512  37.695  1.00  0.00    -0.237 OA
ATOM     69  O   UNL A   1      39.736  36.579  36.947  1.00  0.00    -0.744 OA
ENDBRANCH  65  66
ENDBRANCH  46  60
BRANCH  47  70
ATOM     70  C   UNL A   1      43.127  24.883  28.267  1.00  0.00    -0.014 A 
ATOM     71  C   UNL A   1      42.800  23.549  28.564  1.00  0.00     0.010 A 
ATOM     72  C   UNL A   1      43.676  25.187  27.008  1.00  0.00     0.010 A 
ATOM     73  C   UNL A   1      43.034  22.536  27.628  1.00  0.00     0.020 A 
ATOM     74  C   UNL A   1      43.883  24.183  26.058  1.00  0.00     0.020 A 
ATOM     75  C   UNL A   1      43.571  22.861  26.379  1.00  0.00     0.054 A 
BRANCH  75  76
ATOM     76  S   UNL A   1      43.820  21.537  25.163  1.00  0.00     0.124 S 
ATOM     77  O   UNL A   1      43.815  22.275  23.905  1.00  0.00    -0.237 OA
ATOM     78  O   UNL A   1      45.107  20.978  25.566  1.00  0.00    -0.237 OA
ATOM     79  O   UNL A   1      42.673  20.657  25.378  1.00  0.00    -0.744 OA
ENDBRANCH  75  76
ENDBRANCH  47  70
BRANCH  59  80
ATOM     80  C   UNL A   1      46.715  27.257  33.765  1.00  0.00    -0.014 A 
ATOM     81  C   UNL A   1      47.952  27.784  33.354  1.00  0.00     0.010 A 
ATOM     82  C   UNL A   1      46.682  26.346  34.837  1.00  0.00     0.010 A 
ATOM     83  C   UNL A   1      49.136  27.382  33.980  1.00  0.00     0.020 A 
ATOM     84  C   UNL A   1      47.859  25.967  35.488  1.00  0.00     0.020 A 
ATOM     85  C   UNL A   1      49.081  26.477  35.045  1.00  0.00     0.054 A 
BRANCH  85  86
ATOM     86  S   UNL A   1      50.625  26.007  35.870  1.00  0.00     0.124 S 
ATOM     87  O   UNL A   1      51.207  27.308  36.191  1.00  0.00    -0.237 OA
ATOM     88  O   UNL A   1      50.153  25.231  37.015  1.00  0.00    -0.237 OA
ATOM     89  O   UNL A   1      51.342  25.237  34.856  1.00  0.00    -0.744 OA
ENDBRANCH  85  86
ENDBRANCH  59  80
ENDBRANCH  33  34
ENDBRANCH  25  28
ENDBRANCH  23  24
ENDBRANCH   1  23
TORSDOF 18
ENDMDL
