MODEL 1
REMARK VINA RESULT:     -11.5      0.000      0.000
REMARK SMILES CN(Cc1ccnn1C)C(=O)c1c(C(=O)NCCCNC(=O)c2ccc(-c3c4nc(c(-c5ccc(S(=O)(=O)[O-])cc5)c5ccc([nH]5)c(-c5ccc(S(=O)(=O)[O-])cc5)c5nc(c(-c6ccc(S(=O)(=O)[O-])cc6)c6ccc3[nH]6)C=C5)C=C4)cc2)cnn1C
REMARK SMILES IDX 17 1 16 2 14 3 15 4 13 6 12 7 85 8 83 9 84 10 86 11 10 12
REMARK SMILES IDX 11 13 2 14 1 15 3 16 4 17 5 18 8 19 6 20 7 21 9 22 18 23
REMARK SMILES IDX 19 24 20 25 21 26 22 28 23 29 24 30 82 31 25 32 81 33 26 34
REMARK SMILES IDX 27 35 28 36 75 37 29 38 80 39 74 40 76 41 30 42 79 43 73 44
REMARK SMILES IDX 72 45 31 47 61 48 42 49 60 50 43 51 46 52 59 53 77 54 44 55
REMARK SMILES IDX 45 56 58 58 78 59 47 60 32 61 33 62 41 63 34 64 40 65 35 66
REMARK SMILES IDX 36 67 37 68 38 69 39 70 62 71 63 72 71 73 64 74 70 75 65 76
REMARK SMILES IDX 66 77 67 78 68 79 69 80 48 81 49 82 57 83 50 84 56 85 51 86
REMARK SMILES IDX 52 87 53 88 54 89 55 90
REMARK H PARENT 16 5 20 27 76 46 46 57
REMARK Flexibility Score: inf
ROOT
ATOM      1  C   UNL A   1      37.702  22.710  25.938  1.00  0.00     0.118 C 
ENDROOT
BRANCH   1   2
ATOM      2  N   UNL A   1      37.367  22.843  24.539  1.00  0.00    -0.352 N 
ATOM      3  C   UNL A   1      36.241  23.083  23.809  1.00  0.00     0.255 C 
ATOM      4  O   UNL A   1      36.414  22.972  22.590  1.00  0.00    -0.269 OA
ATOM      5  H   UNL A   1      38.158  22.731  23.963  1.00  0.00     0.163 HD
BRANCH   3   6
ATOM      6  C   UNL A   1      34.914  23.449  24.298  1.00  0.00     0.090 A 
ATOM      7  C   UNL A   1      33.637  22.882  24.328  1.00  0.00     0.138 A 
ATOM      8  N   UNL A   1      32.909  23.666  25.196  1.00  0.00    -0.262 N 
ATOM      9  C   UNL A   1      34.731  24.671  25.016  1.00  0.00     0.149 A 
ATOM     10  N   UNL A   1      33.503  24.829  25.502  1.00  0.00    -0.180 NA
ATOM     11  C   UNL A   1      31.646  23.368  25.834  1.00  0.00     0.174 C 
BRANCH   7  12
ATOM     12  C   UNL A   1      33.118  21.664  23.767  1.00  0.00     0.273 C 
ATOM     13  O   UNL A   1      32.550  21.666  22.678  1.00  0.00    -0.267 OA
BRANCH  12  14
ATOM     14  N   UNL A   1      33.217  20.507  24.549  1.00  0.00    -0.334 N 
ATOM     15  C   UNL A   1      34.319  20.388  25.497  1.00  0.00     0.147 C 
BRANCH  14  16
ATOM     16  C   UNL A   1      32.272  19.387  24.516  1.00  0.00     0.175 C 
BRANCH  16  17
ATOM     17  C   UNL A   1      32.944  18.180  23.939  1.00  0.00     0.057 A 
ATOM     18  C   UNL A   1      33.452  17.912  22.679  1.00  0.00     0.047 A 
ATOM     19  N   UNL A   1      33.179  17.032  24.661  1.00  0.00    -0.271 N 
ATOM     20  C   UNL A   1      33.993  16.622  22.754  1.00  0.00     0.135 A 
ATOM     21  N   UNL A   1      33.861  16.096  23.971  1.00  0.00    -0.181 NA
ATOM     22  C   UNL A   1      32.836  16.757  26.038  1.00  0.00     0.174 C 
ENDBRANCH  16  17
ENDBRANCH  14  16
ENDBRANCH  12  14
ENDBRANCH   7  12
ENDBRANCH   3   6
ENDBRANCH   1   2
BRANCH   1  23
ATOM     23  C   UNL A   1      39.127  22.216  26.161  1.00  0.00     0.042 C 
BRANCH  23  24
ATOM     24  C   UNL A   1      40.017  23.194  26.922  1.00  0.00     0.118 C 
BRANCH  24  25
ATOM     25  N   UNL A   1      40.990  23.849  26.061  1.00  0.00    -0.352 N 
ATOM     26  C   UNL A   1      41.478  25.132  26.046  1.00  0.00     0.251 C 
ATOM     27  H   UNL A   1      41.367  23.266  25.362  1.00  0.00     0.163 HD
ATOM     28  O   UNL A   1      42.132  25.497  25.070  1.00  0.00    -0.269 OA
BRANCH  26  29
ATOM     29  C   UNL A   1      41.232  26.086  27.156  1.00  0.00     0.039 A 
ATOM     30  C   UNL A   1      42.104  27.172  27.303  1.00  0.00     0.014 A 
ATOM     31  C   UNL A   1      40.230  25.881  28.107  1.00  0.00     0.014 A 
ATOM     32  C   UNL A   1      41.947  28.066  28.367  1.00  0.00     0.010 A 
ATOM     33  C   UNL A   1      40.027  26.813  29.128  1.00  0.00     0.010 A 
ATOM     34  C   UNL A   1      40.893  27.907  29.280  1.00  0.00    -0.014 A 
BRANCH  34  35
ATOM     35  C   UNL A   1      40.711  28.847  30.416  1.00  0.00     0.031 A 
ATOM     36  C   UNL A   1      41.602  28.759  31.628  1.00  0.00     0.074 A 
ATOM     37  C   UNL A   1      39.716  29.755  30.388  1.00  0.00     0.049 A 
ATOM     38  N   UNL A   1      41.541  29.434  32.748  1.00  0.00    -0.248 NA
ATOM     39  C   UNL A   1      42.684  27.763  31.586  1.00  0.00     0.031 C 
ATOM     40  C   UNL A   1      38.750  29.926  29.302  1.00  0.00     0.029 A 
ATOM     41  N   UNL A   1      39.353  30.707  31.309  1.00  0.00    -0.354 N 
ATOM     42  C   UNL A   1      42.537  28.909  33.563  1.00  0.00     0.074 A 
ATOM     43  C   UNL A   1      43.184  27.855  32.810  1.00  0.00     0.031 C 
ATOM     44  C   UNL A   1      37.924  30.941  29.604  1.00  0.00     0.029 A 
ATOM     45  C   UNL A   1      38.287  31.477  30.912  1.00  0.00     0.049 A 
ATOM     46  H   UNL A   1      39.814  30.826  32.170  1.00  0.00     0.167 HD
ATOM     47  C   UNL A   1      42.889  29.269  34.821  1.00  0.00     0.031 A 
ATOM     48  C   UNL A   1      37.672  32.505  31.528  1.00  0.00     0.031 A 
ATOM     49  C   UNL A   1      42.292  30.349  35.558  1.00  0.00     0.049 A 
ATOM     50  C   UNL A   1      38.155  32.965  32.871  1.00  0.00     0.074 A 
ATOM     51  C   UNL A   1      42.607  30.811  36.825  1.00  0.00     0.029 A 
ATOM     52  N   UNL A   1      41.273  31.157  35.082  1.00  0.00    -0.354 N 
ATOM     53  N   UNL A   1      39.104  32.458  33.620  1.00  0.00    -0.248 NA
ATOM     54  C   UNL A   1      37.495  34.147  33.443  1.00  0.00     0.031 C 
ATOM     55  C   UNL A   1      41.776  31.902  37.115  1.00  0.00     0.029 A 
ATOM     56  C   UNL A   1      40.956  32.125  36.020  1.00  0.00     0.049 A 
ATOM     57  H   UNL A   1      40.838  31.060  34.204  1.00  0.00     0.167 HD
ATOM     58  C   UNL A   1      39.160  33.264  34.751  1.00  0.00     0.074 A 
ATOM     59  C   UNL A   1      38.161  34.299  34.580  1.00  0.00     0.031 C 
ATOM     60  C   UNL A   1      39.965  33.150  35.835  1.00  0.00     0.031 A 
BRANCH  47  61
ATOM     61  C   UNL A   1      43.970  28.459  35.480  1.00  0.00    -0.014 A 
ATOM     62  C   UNL A   1      43.657  27.324  36.249  1.00  0.00     0.010 A 
ATOM     63  C   UNL A   1      45.314  28.850  35.340  1.00  0.00     0.010 A 
ATOM     64  C   UNL A   1      44.667  26.622  36.911  1.00  0.00     0.020 A 
ATOM     65  C   UNL A   1      46.328  28.141  35.987  1.00  0.00     0.020 A 
ATOM     66  C   UNL A   1      45.995  27.045  36.789  1.00  0.00     0.054 A 
BRANCH  66  67
ATOM     67  S   UNL A   1      47.300  26.141  37.668  1.00  0.00     0.124 S 
ATOM     68  O   UNL A   1      48.361  26.101  36.664  1.00  0.00    -0.237 OA
ATOM     69  O   UNL A   1      47.566  26.987  38.828  1.00  0.00    -0.237 OA
ATOM     70  O   UNL A   1      46.677  24.855  37.970  1.00  0.00    -0.744 OA
ENDBRANCH  66  67
ENDBRANCH  47  61
BRANCH  48  71
ATOM     71  C   UNL A   1      36.548  33.195  30.848  1.00  0.00    -0.014 A 
ATOM     72  C   UNL A   1      35.297  33.290  31.481  1.00  0.00     0.010 A 
ATOM     73  C   UNL A   1      36.736  33.794  29.591  1.00  0.00     0.010 A 
ATOM     74  C   UNL A   1      34.245  33.974  30.867  1.00  0.00     0.020 A 
ATOM     75  C   UNL A   1      35.690  34.489  28.980  1.00  0.00     0.020 A 
ATOM     76  C   UNL A   1      34.449  34.570  29.619  1.00  0.00     0.054 A 
BRANCH  76  77
ATOM     77  S   UNL A   1      33.109  35.534  28.866  1.00  0.00     0.124 S 
ATOM     78  O   UNL A   1      33.846  36.583  28.169  1.00  0.00    -0.237 OA
ATOM     79  O   UNL A   1      32.440  34.554  28.013  1.00  0.00    -0.237 OA
ATOM     80  O   UNL A   1      32.327  35.973  30.021  1.00  0.00    -0.744 OA
ENDBRANCH  76  77
ENDBRANCH  48  71
BRANCH  60  81
ATOM     81  C   UNL A   1      39.807  34.188  36.907  1.00  0.00    -0.014 A 
ATOM     82  C   UNL A   1      40.458  35.430  36.805  1.00  0.00     0.010 A 
ATOM     83  C   UNL A   1      38.992  33.922  38.021  1.00  0.00     0.010 A 
ATOM     84  C   UNL A   1      40.322  36.382  37.819  1.00  0.00     0.020 A 
ATOM     85  C   UNL A   1      38.847  34.875  39.033  1.00  0.00     0.020 A 
ATOM     86  C   UNL A   1      39.526  36.092  38.932  1.00  0.00     0.054 A 
BRANCH  86  87
ATOM     87  S   UNL A   1      39.340  37.338  40.239  1.00  0.00     0.124 S 
ATOM     88  O   UNL A   1      38.685  36.572  41.296  1.00  0.00    -0.237 OA
ATOM     89  O   UNL A   1      40.717  37.739  40.515  1.00  0.00    -0.237 OA
ATOM     90  O   UNL A   1      38.515  38.368  39.609  1.00  0.00    -0.744 OA
ENDBRANCH  86  87
ENDBRANCH  60  81
ENDBRANCH  34  35
ENDBRANCH  26  29
ENDBRANCH  24  25
ENDBRANCH  23  24
ENDBRANCH   1  23
TORSDOF 17
ENDMDL
MODEL 2
REMARK VINA RESULT:     -11.3      1.753      3.149
REMARK SMILES CN(Cc1ccnn1C)C(=O)c1c(C(=O)NCCCNC(=O)c2ccc(-c3c4nc(c(-c5ccc(S(=O)(=O)[O-])cc5)c5ccc([nH]5)c(-c5ccc(S(=O)(=O)[O-])cc5)c5nc(c(-c6ccc(S(=O)(=O)[O-])cc6)c6ccc3[nH]6)C=C5)C=C4)cc2)cnn1C
REMARK SMILES IDX 17 1 16 2 14 3 15 4 13 6 12 7 85 8 83 9 84 10 86 11 10 12
REMARK SMILES IDX 11 13 2 14 1 15 3 16 4 17 5 18 8 19 6 20 7 21 9 22 18 23
REMARK SMILES IDX 19 24 20 25 21 26 22 28 23 29 24 30 82 31 25 32 81 33 26 34
REMARK SMILES IDX 27 35 28 36 75 37 29 38 80 39 74 40 76 41 30 42 79 43 73 44
REMARK SMILES IDX 72 45 31 47 61 48 42 49 60 50 43 51 46 52 59 53 77 54 44 55
REMARK SMILES IDX 45 56 58 58 78 59 47 60 32 61 33 62 41 63 34 64 40 65 35 66
REMARK SMILES IDX 36 67 37 68 38 69 39 70 62 71 63 72 71 73 64 74 70 75 65 76
REMARK SMILES IDX 66 77 67 78 68 79 69 80 48 81 49 82 57 83 50 84 56 85 51 86
REMARK SMILES IDX 52 87 53 88 54 89 55 90
REMARK H PARENT 16 5 20 27 76 46 46 57
REMARK Flexibility Score: inf
ROOT
ATOM      1  C   UNL A   1      37.873  22.593  25.627  1.00  0.00     0.118 C 
ENDROOT
BRANCH   1   2
ATOM      2  N   UNL A   1      36.984  21.524  25.233  1.00  0.00    -0.352 N 
ATOM      3  C   UNL A   1      35.684  21.181  25.462  1.00  0.00     0.255 C 
ATOM      4  O   UNL A   1      35.383  20.070  25.010  1.00  0.00    -0.269 OA
ATOM      5  H   UNL A   1      37.434  20.874  24.646  1.00  0.00     0.163 HD
BRANCH   3   6
ATOM      6  C   UNL A   1      34.657  21.961  26.149  1.00  0.00     0.090 A 
ATOM      7  C   UNL A   1      33.987  23.171  25.960  1.00  0.00     0.138 A 
ATOM      8  N   UNL A   1      32.941  23.154  26.856  1.00  0.00    -0.262 N 
ATOM      9  C   UNL A   1      34.033  21.437  27.323  1.00  0.00     0.149 A 
ATOM     10  N   UNL A   1      33.039  22.191  27.784  1.00  0.00    -0.180 NA
ATOM     11  C   UNL A   1      31.762  23.992  26.879  1.00  0.00     0.174 C 
BRANCH   7  12
ATOM     12  C   UNL A   1      34.144  24.208  24.975  1.00  0.00     0.273 C 
ATOM     13  O   UNL A   1      34.783  25.226  25.230  1.00  0.00    -0.267 OA
BRANCH  12  14
ATOM     14  N   UNL A   1      33.472  24.040  23.758  1.00  0.00    -0.334 N 
ATOM     15  C   UNL A   1      33.981  23.066  22.799  1.00  0.00     0.147 C 
BRANCH  14  16
ATOM     16  C   UNL A   1      32.257  24.758  23.364  1.00  0.00     0.175 C 
BRANCH  16  17
ATOM     17  C   UNL A   1      32.583  26.198  23.117  1.00  0.00     0.057 A 
ATOM     18  C   UNL A   1      33.451  26.816  22.232  1.00  0.00     0.047 A 
ATOM     19  N   UNL A   1      32.002  27.232  23.815  1.00  0.00    -0.271 N 
ATOM     20  C   UNL A   1      33.294  28.192  22.446  1.00  0.00     0.135 A 
ATOM     21  N   UNL A   1      32.385  28.451  23.384  1.00  0.00    -0.181 NA
ATOM     22  C   UNL A   1      31.026  27.155  24.878  1.00  0.00     0.174 C 
ENDBRANCH  16  17
ENDBRANCH  14  16
ENDBRANCH  12  14
ENDBRANCH   7  12
ENDBRANCH   3   6
ENDBRANCH   1   2
BRANCH   1  23
ATOM     23  C   UNL A   1      39.158  22.086  26.272  1.00  0.00     0.042 C 
BRANCH  23  24
ATOM     24  C   UNL A   1      39.969  23.165  26.984  1.00  0.00     0.118 C 
BRANCH  24  25
ATOM     25  N   UNL A   1      40.913  23.828  26.097  1.00  0.00    -0.352 N 
ATOM     26  C   UNL A   1      41.380  25.118  26.062  1.00  0.00     0.251 C 
ATOM     27  H   UNL A   1      41.285  23.245  25.396  1.00  0.00     0.163 HD
ATOM     28  O   UNL A   1      42.008  25.486  25.071  1.00  0.00    -0.269 OA
BRANCH  26  29
ATOM     29  C   UNL A   1      41.141  26.077  27.169  1.00  0.00     0.039 A 
ATOM     30  C   UNL A   1      42.070  27.108  27.367  1.00  0.00     0.014 A 
ATOM     31  C   UNL A   1      40.086  25.927  28.072  1.00  0.00     0.014 A 
ATOM     32  C   UNL A   1      41.918  28.002  28.431  1.00  0.00     0.010 A 
ATOM     33  C   UNL A   1      39.893  26.862  29.092  1.00  0.00     0.010 A 
ATOM     34  C   UNL A   1      40.816  27.900  29.293  1.00  0.00    -0.014 A 
BRANCH  34  35
ATOM     35  C   UNL A   1      40.639  28.842  30.430  1.00  0.00     0.031 A 
ATOM     36  C   UNL A   1      41.527  28.747  31.643  1.00  0.00     0.074 A 
ATOM     37  C   UNL A   1      39.651  29.758  30.400  1.00  0.00     0.049 A 
ATOM     38  N   UNL A   1      41.468  29.422  32.764  1.00  0.00    -0.248 NA
ATOM     39  C   UNL A   1      42.601  27.743  31.603  1.00  0.00     0.031 C 
ATOM     40  C   UNL A   1      38.688  29.936  29.312  1.00  0.00     0.029 A 
ATOM     41  N   UNL A   1      39.293  30.712  31.320  1.00  0.00    -0.354 N 
ATOM     42  C   UNL A   1      42.460  28.889  33.580  1.00  0.00     0.074 A 
ATOM     43  C   UNL A   1      43.100  27.830  32.829  1.00  0.00     0.031 C 
ATOM     44  C   UNL A   1      37.869  30.957  29.613  1.00  0.00     0.029 A 
ATOM     45  C   UNL A   1      38.233  31.490  30.922  1.00  0.00     0.049 A 
ATOM     46  H   UNL A   1      39.753  30.827  32.182  1.00  0.00     0.167 HD
ATOM     47  C   UNL A   1      42.811  29.246  34.839  1.00  0.00     0.031 A 
ATOM     48  C   UNL A   1      37.625  32.522  31.537  1.00  0.00     0.031 A 
ATOM     49  C   UNL A   1      42.222  30.331  35.575  1.00  0.00     0.049 A 
ATOM     50  C   UNL A   1      38.110  32.979  32.881  1.00  0.00     0.074 A 
ATOM     51  C   UNL A   1      42.538  30.790  36.843  1.00  0.00     0.029 A 
ATOM     52  N   UNL A   1      41.210  31.147  35.097  1.00  0.00    -0.354 N 
ATOM     53  N   UNL A   1      39.053  32.464  33.632  1.00  0.00    -0.248 NA
ATOM     54  C   UNL A   1      37.458  34.165  33.452  1.00  0.00     0.031 C 
ATOM     55  C   UNL A   1      41.714  31.887  37.131  1.00  0.00     0.029 A 
ATOM     56  C   UNL A   1      40.899  32.116  36.035  1.00  0.00     0.049 A 
ATOM     57  H   UNL A   1      40.775  31.052  34.218  1.00  0.00     0.167 HD
ATOM     58  C   UNL A   1      39.113  33.269  34.763  1.00  0.00     0.074 A 
ATOM     59  C   UNL A   1      38.123  34.312  34.591  1.00  0.00     0.031 C 
ATOM     60  C   UNL A   1      39.915  33.149  35.848  1.00  0.00     0.031 A 
BRANCH  47  61
ATOM     61  C   UNL A   1      43.886  28.428  35.500  1.00  0.00    -0.014 A 
ATOM     62  C   UNL A   1      43.563  27.287  36.256  1.00  0.00     0.010 A 
ATOM     63  C   UNL A   1      45.232  28.817  35.374  1.00  0.00     0.010 A 
ATOM     64  C   UNL A   1      44.567  26.577  36.920  1.00  0.00     0.020 A 
ATOM     65  C   UNL A   1      46.239  28.099  36.023  1.00  0.00     0.020 A 
ATOM     66  C   UNL A   1      45.896  26.998  36.813  1.00  0.00     0.054 A 
BRANCH  66  67
ATOM     67  S   UNL A   1      47.192  26.083  37.694  1.00  0.00     0.124 S 
ATOM     68  O   UNL A   1      48.348  26.957  37.512  1.00  0.00    -0.237 OA
ATOM     69  O   UNL A   1      46.674  26.003  39.057  1.00  0.00    -0.237 OA
ATOM     70  O   UNL A   1      47.253  24.810  36.981  1.00  0.00    -0.744 OA
ENDBRANCH  66  67
ENDBRANCH  47  61
BRANCH  48  71
ATOM     71  C   UNL A   1      36.508  33.221  30.856  1.00  0.00    -0.014 A 
ATOM     72  C   UNL A   1      35.217  33.186  31.409  1.00  0.00     0.010 A 
ATOM     73  C   UNL A   1      36.739  33.955  29.680  1.00  0.00     0.010 A 
ATOM     74  C   UNL A   1      34.168  33.876  30.797  1.00  0.00     0.020 A 
ATOM     75  C   UNL A   1      35.694  34.656  29.072  1.00  0.00     0.020 A 
ATOM     76  C   UNL A   1      34.414  34.607  29.631  1.00  0.00     0.054 A 
BRANCH  76  77
ATOM     77  S   UNL A   1      33.069  35.575  28.889  1.00  0.00     0.124 S 
ATOM     78  O   UNL A   1      32.374  34.568  28.096  1.00  0.00    -0.237 OA
ATOM     79  O   UNL A   1      32.344  36.075  30.056  1.00  0.00    -0.237 OA
ATOM     80  O   UNL A   1      33.780  36.600  28.127  1.00  0.00    -0.744 OA
ENDBRANCH  76  77
ENDBRANCH  48  71
BRANCH  60  81
ATOM     81  C   UNL A   1      39.764  34.188  36.920  1.00  0.00    -0.014 A 
ATOM     82  C   UNL A   1      40.379  35.446  36.794  1.00  0.00     0.010 A 
ATOM     83  C   UNL A   1      38.990  33.907  38.060  1.00  0.00     0.010 A 
ATOM     84  C   UNL A   1      40.249  36.399  37.807  1.00  0.00     0.020 A 
ATOM     85  C   UNL A   1      38.850  34.861  39.071  1.00  0.00     0.020 A 
ATOM     86  C   UNL A   1      39.495  36.094  38.945  1.00  0.00     0.054 A 
BRANCH  86  87
ATOM     87  S   UNL A   1      39.316  37.342  40.252  1.00  0.00     0.124 S 
ATOM     88  O   UNL A   1      38.510  38.362  39.587  1.00  0.00    -0.237 OA
ATOM     89  O   UNL A   1      38.643  36.608  41.321  1.00  0.00    -0.237 OA
ATOM     90  O   UNL A   1      40.696  37.726  40.544  1.00  0.00    -0.744 OA
ENDBRANCH  86  87
ENDBRANCH  60  81
ENDBRANCH  34  35
ENDBRANCH  26  29
ENDBRANCH  24  25
ENDBRANCH  23  24
ENDBRANCH   1  23
TORSDOF 17
ENDMDL
MODEL 3
REMARK VINA RESULT:     -11.0      5.938     10.886
REMARK SMILES CN(Cc1ccnn1C)C(=O)c1c(C(=O)NCCCNC(=O)c2ccc(-c3c4nc(c(-c5ccc(S(=O)(=O)[O-])cc5)c5ccc([nH]5)c(-c5ccc(S(=O)(=O)[O-])cc5)c5nc(c(-c6ccc(S(=O)(=O)[O-])cc6)c6ccc3[nH]6)C=C5)C=C4)cc2)cnn1C
REMARK SMILES IDX 17 1 16 2 14 3 15 4 13 6 12 7 85 8 83 9 84 10 86 11 10 12
REMARK SMILES IDX 11 13 2 14 1 15 3 16 4 17 5 18 8 19 6 20 7 21 9 22 18 23
REMARK SMILES IDX 19 24 20 25 21 26 22 28 23 29 24 30 82 31 25 32 81 33 26 34
REMARK SMILES IDX 27 35 28 36 75 37 29 38 80 39 74 40 76 41 30 42 79 43 73 44
REMARK SMILES IDX 72 45 31 47 61 48 42 49 60 50 43 51 46 52 59 53 77 54 44 55
REMARK SMILES IDX 45 56 58 58 78 59 47 60 32 61 33 62 41 63 34 64 40 65 35 66
REMARK SMILES IDX 36 67 37 68 38 69 39 70 62 71 63 72 71 73 64 74 70 75 65 76
REMARK SMILES IDX 66 77 67 78 68 79 69 80 48 81 49 82 57 83 50 84 56 85 51 86
REMARK SMILES IDX 52 87 53 88 54 89 55 90
REMARK H PARENT 16 5 20 27 76 46 46 57
REMARK Flexibility Score: inf
ROOT
ATOM      1  C   UNL A   1      36.676  21.248  24.810  1.00  0.00     0.118 C 
ENDROOT
BRANCH   1   2
ATOM      2  N   UNL A   1      35.979  21.373  26.070  1.00  0.00    -0.352 N 
ATOM      3  C   UNL A   1      34.717  21.689  26.477  1.00  0.00     0.255 C 
ATOM      4  O   UNL A   1      34.612  21.804  27.704  1.00  0.00    -0.269 OA
ATOM      5  H   UNL A   1      36.570  21.178  26.834  1.00  0.00     0.163 HD
BRANCH   3   6
ATOM      6  C   UNL A   1      33.530  21.891  25.650  1.00  0.00     0.090 A 
ATOM      7  C   UNL A   1      32.437  22.760  25.614  1.00  0.00     0.138 A 
ATOM      8  N   UNL A   1      31.842  22.550  24.389  1.00  0.00    -0.262 N 
ATOM      9  C   UNL A   1      33.328  21.086  24.486  1.00  0.00     0.149 A 
ATOM     10  N   UNL A   1      32.272  21.446  23.762  1.00  0.00    -0.180 NA
ATOM     11  C   UNL A   1      30.879  23.381  23.702  1.00  0.00     0.174 C 
BRANCH   7  12
ATOM     12  C   UNL A   1      32.018  23.807  26.507  1.00  0.00     0.273 C 
ATOM     13  O   UNL A   1      31.330  23.554  27.493  1.00  0.00    -0.267 OA
BRANCH  12  14
ATOM     14  N   UNL A   1      32.358  25.119  26.157  1.00  0.00    -0.334 N 
ATOM     15  C   UNL A   1      31.322  26.146  26.182  1.00  0.00     0.147 C 
BRANCH  14  16
ATOM     16  C   UNL A   1      33.701  25.568  25.779  1.00  0.00     0.175 C 
BRANCH  16  17
ATOM     17  C   UNL A   1      33.675  26.111  24.385  1.00  0.00     0.057 A 
ATOM     18  C   UNL A   1      33.603  25.491  23.147  1.00  0.00     0.047 A 
ATOM     19  N   UNL A   1      33.730  27.455  24.099  1.00  0.00    -0.271 N 
ATOM     20  C   UNL A   1      33.580  26.529  22.205  1.00  0.00     0.135 A 
ATOM     21  N   UNL A   1      33.621  27.728  22.783  1.00  0.00    -0.181 NA
ATOM     22  C   UNL A   1      33.830  28.562  25.023  1.00  0.00     0.174 C 
ENDBRANCH  16  17
ENDBRANCH  14  16
ENDBRANCH  12  14
ENDBRANCH   7  12
ENDBRANCH   3   6
ENDBRANCH   1   2
BRANCH   1  23
ATOM     23  C   UNL A   1      37.864  20.296  24.882  1.00  0.00     0.042 C 
BRANCH  23  24
ATOM     24  C   UNL A   1      38.954  20.728  25.858  1.00  0.00     0.118 C 
BRANCH  24  25
ATOM     25  N   UNL A   1      39.990  19.720  26.018  1.00  0.00    -0.352 N 
ATOM     26  C   UNL A   1      41.350  19.826  26.177  1.00  0.00     0.251 C 
ATOM     27  H   UNL A   1      39.656  18.793  26.012  1.00  0.00     0.163 HD
ATOM     28  O   UNL A   1      42.032  18.809  26.068  1.00  0.00    -0.269 OA
BRANCH  26  29
ATOM     29  C   UNL A   1      42.015  21.122  26.462  1.00  0.00     0.039 A 
ATOM     30  C   UNL A   1      42.375  21.405  27.786  1.00  0.00     0.014 A 
ATOM     31  C   UNL A   1      42.199  22.098  25.481  1.00  0.00     0.014 A 
ATOM     32  C   UNL A   1      42.953  22.636  28.114  1.00  0.00     0.010 A 
ATOM     33  C   UNL A   1      42.841  23.299  25.793  1.00  0.00     0.010 A 
ATOM     34  C   UNL A   1      43.210  23.589  27.116  1.00  0.00    -0.014 A 
BRANCH  34  35
ATOM     35  C   UNL A   1      43.823  24.902  27.446  1.00  0.00     0.031 A 
ATOM     36  C   UNL A   1      42.989  26.002  28.051  1.00  0.00     0.074 A 
ATOM     37  C   UNL A   1      45.120  25.132  27.163  1.00  0.00     0.049 A 
ATOM     38  N   UNL A   1      43.326  27.237  28.327  1.00  0.00    -0.248 NA
ATOM     39  C   UNL A   1      41.587  25.679  28.358  1.00  0.00     0.031 C 
ATOM     40  C   UNL A   1      46.037  24.178  26.538  1.00  0.00     0.029 A 
ATOM     41  N   UNL A   1      45.891  26.250  27.364  1.00  0.00    -0.354 N 
ATOM     42  C   UNL A   1      42.167  27.852  28.788  1.00  0.00     0.074 A 
ATOM     43  C   UNL A   1      41.117  26.856  28.748  1.00  0.00     0.031 C 
ATOM     44  C   UNL A   1      47.253  24.739  26.434  1.00  0.00     0.029 A 
ATOM     45  C   UNL A   1      47.196  26.098  26.964  1.00  0.00     0.049 A 
ATOM     46  H   UNL A   1      45.541  27.081  27.759  1.00  0.00     0.167 HD
ATOM     47  C   UNL A   1      41.989  29.127  29.209  1.00  0.00     0.031 A 
ATOM     48  C   UNL A   1      48.235  26.953  27.023  1.00  0.00     0.031 A 
ATOM     49  C   UNL A   1      43.034  30.109  29.306  1.00  0.00     0.049 A 
ATOM     50  C   UNL A   1      48.042  28.321  27.605  1.00  0.00     0.074 A 
ATOM     51  C   UNL A   1      42.954  31.416  29.756  1.00  0.00     0.029 A 
ATOM     52  N   UNL A   1      44.358  29.883  28.971  1.00  0.00    -0.354 N 
ATOM     53  N   UNL A   1      46.939  28.880  28.041  1.00  0.00    -0.248 NA
ATOM     54  C   UNL A   1      49.238  29.168  27.718  1.00  0.00     0.031 C 
ATOM     55  C   UNL A   1      44.235  31.982  29.693  1.00  0.00     0.029 A 
ATOM     56  C   UNL A   1      45.111  31.018  29.218  1.00  0.00     0.049 A 
ATOM     57  H   UNL A   1      44.714  29.038  28.611  1.00  0.00     0.167 HD
ATOM     58  C   UNL A   1      47.310  30.143  28.487  1.00  0.00     0.074 A 
ATOM     59  C   UNL A   1      48.739  30.260  28.282  1.00  0.00     0.031 C 
ATOM     60  C   UNL A   1      46.531  31.118  29.015  1.00  0.00     0.031 A 
BRANCH  47  61
ATOM     61  C   UNL A   1      40.589  29.527  29.584  1.00  0.00    -0.014 A 
ATOM     62  C   UNL A   1      39.672  29.953  28.606  1.00  0.00     0.010 A 
ATOM     63  C   UNL A   1      40.192  29.489  30.933  1.00  0.00     0.010 A 
ATOM     64  C   UNL A   1      38.397  30.386  28.978  1.00  0.00     0.020 A 
ATOM     65  C   UNL A   1      38.913  29.905  31.306  1.00  0.00     0.020 A 
ATOM     66  C   UNL A   1      38.032  30.375  30.328  1.00  0.00     0.054 A 
BRANCH  66  67
ATOM     67  S   UNL A   1      36.381  30.958  30.807  1.00  0.00     0.124 S 
ATOM     68  O   UNL A   1      36.647  32.351  31.153  1.00  0.00    -0.237 OA
ATOM     69  O   UNL A   1      35.592  30.752  29.595  1.00  0.00    -0.237 OA
ATOM     70  O   UNL A   1      36.028  30.091  31.928  1.00  0.00    -0.744 OA
ENDBRANCH  66  67
ENDBRANCH  47  61
BRANCH  48  71
ATOM     71  C   UNL A   1      49.569  26.512  26.546  1.00  0.00    -0.014 A 
ATOM     72  C   UNL A   1      50.401  25.755  27.390  1.00  0.00     0.010 A 
ATOM     73  C   UNL A   1      49.994  26.811  25.241  1.00  0.00     0.010 A 
ATOM     74  C   UNL A   1      51.641  25.302  26.935  1.00  0.00     0.020 A 
ATOM     75  C   UNL A   1      51.229  26.348  24.779  1.00  0.00     0.020 A 
ATOM     76  C   UNL A   1      52.047  25.601  25.632  1.00  0.00     0.054 A 
BRANCH  76  77
ATOM     77  S   UNL A   1      53.618  24.933  25.015  1.00  0.00     0.124 S 
ATOM     78  O   UNL A   1      53.690  25.515  23.679  1.00  0.00    -0.237 OA
ATOM     79  O   UNL A   1      54.591  25.441  25.981  1.00  0.00    -0.237 OA
ATOM     80  O   UNL A   1      53.406  23.488  25.065  1.00  0.00    -0.744 OA
ENDBRANCH  76  77
ENDBRANCH  48  71
BRANCH  60  81
ATOM     81  C   UNL A   1      47.220  32.387  29.424  1.00  0.00    -0.014 A 
ATOM     82  C   UNL A   1      47.279  33.487  28.550  1.00  0.00     0.010 A 
ATOM     83  C   UNL A   1      47.806  32.483  30.699  1.00  0.00     0.010 A 
ATOM     84  C   UNL A   1      47.941  34.656  28.932  1.00  0.00     0.020 A 
ATOM     85  C   UNL A   1      48.461  33.654  31.088  1.00  0.00     0.020 A 
ATOM     86  C   UNL A   1      48.538  34.727  30.195  1.00  0.00     0.054 A 
BRANCH  86  87
ATOM     87  S   UNL A   1      49.383  36.254  30.693  1.00  0.00     0.124 S 
ATOM     88  O   UNL A   1      49.019  37.167  29.613  1.00  0.00    -0.237 OA
ATOM     89  O   UNL A   1      48.790  36.553  31.995  1.00  0.00    -0.237 OA
ATOM     90  O   UNL A   1      50.791  35.864  30.735  1.00  0.00    -0.744 OA
ENDBRANCH  86  87
ENDBRANCH  60  81
ENDBRANCH  34  35
ENDBRANCH  26  29
ENDBRANCH  24  25
ENDBRANCH  23  24
ENDBRANCH   1  23
TORSDOF 17
ENDMDL
