MODEL 1
REMARK VINA RESULT:     -12.2      0.000      0.000
REMARK SMILES CC(C)n1ccc(Cn2cc(C(=O)NCCCNC(=O)c3ccc(-c4c5nc(c(-c6ccc(S(=O)(=O)[O-])cc6)c6ccc([nH]6)c(-c6ccc(S(=O)(=O)[O-])cc6)c6nc(c(-c7ccc(S(=O)(=O)[O-])cc7)c7ccc4[nH]7)C=C6)C=C5)cc3)cc2Br)n1
REMARK SMILES IDX 16 1 15 2 14 3 12 4 13 5 11 7 9 8 10 9 82 10 81 11 83 12
REMARK SMILES IDX 8 13 7 14 4 15 5 16 84 17 6 18 2 19 1 20 3 21 17 22 18 23
REMARK SMILES IDX 19 24 20 26 21 27 22 28 80 29 23 30 79 31 24 32 25 33 26 34
REMARK SMILES IDX 73 35 27 36 78 37 72 38 74 39 28 40 77 41 71 42 70 43 29 45
REMARK SMILES IDX 59 46 40 47 58 48 41 49 44 50 57 51 75 52 42 53 43 54 56 56
REMARK SMILES IDX 76 57 45 58 30 59 31 60 39 61 32 62 38 63 33 64 34 65 35 66
REMARK SMILES IDX 36 67 37 68 60 69 61 70 69 71 62 72 68 73 63 74 64 75 65 76
REMARK SMILES IDX 66 77 67 78 46 79 47 80 55 81 48 82 54 83 49 84 50 85 51 86
REMARK SMILES IDX 52 87 53 88
REMARK H PARENT 14 6 18 25 74 44 44 55
REMARK Flexibility Score: inf
ROOT
ATOM      1  C   UNL A   1      39.187  22.424  26.434  1.00  0.00     0.042 C 
ENDROOT
BRANCH   1   2
ATOM      2  C   UNL A   1      38.039  21.699  25.719  1.00  0.00     0.118 C 
BRANCH   2   3
ATOM      3  N   UNL A   1      37.777  22.237  24.395  1.00  0.00    -0.352 N 
ATOM      4  C   UNL A   1      36.602  22.637  23.798  1.00  0.00     0.252 C 
ATOM      5  O   UNL A   1      36.678  23.227  22.727  1.00  0.00    -0.269 OA
ATOM      6  H   UNL A   1      38.576  22.332  23.828  1.00  0.00     0.163 HD
BRANCH   4   7
ATOM      7  C   UNL A   1      35.315  22.423  24.457  1.00  0.00     0.058 A 
ATOM      8  N   UNL A   1      33.281  21.648  25.011  1.00  0.00    -0.335 N 
ATOM      9  C   UNL A   1      34.164  21.831  23.969  1.00  0.00     0.101 A 
ATOM     10  C   UNL A   1      33.719  22.386  26.075  1.00  0.00     0.086 A 
ATOM     11  C   UNL A   1      34.973  22.867  25.774  1.00  0.00     0.049 A 
ATOM     12  Br  UNL A   1      32.836  22.693  27.692  1.00  0.00    -0.031 Br
BRANCH   8  13
ATOM     13  C   UNL A   1      32.089  20.808  24.927  1.00  0.00     0.180 C 
BRANCH  13  14
ATOM     14  C   UNL A   1      32.446  19.386  24.591  1.00  0.00     0.082 A 
ATOM     15  N   UNL A   1      33.051  17.365  24.882  1.00  0.00    -0.270 N 
ATOM     16  C   UNL A   1      32.857  17.474  23.537  1.00  0.00     0.109 A 
ATOM     17  N   UNL A   1      32.804  18.515  25.547  1.00  0.00    -0.176 NA
ATOM     18  C   UNL A   1      32.422  18.757  23.320  1.00  0.00     0.047 A 
BRANCH  15  19
ATOM     19  C   UNL A   1      33.476  16.182  25.627  1.00  0.00     0.101 C 
ATOM     20  C   UNL A   1      32.524  14.995  25.456  1.00  0.00     0.033 C 
ATOM     21  C   UNL A   1      34.905  15.791  25.259  1.00  0.00     0.033 C 
ENDBRANCH  15  19
ENDBRANCH  13  14
ENDBRANCH   8  13
ENDBRANCH   4   7
ENDBRANCH   2   3
ENDBRANCH   1   2
BRANCH   1  22
ATOM     22  C   UNL A   1      40.315  21.472  26.787  1.00  0.00     0.118 C 
BRANCH  22  23
ATOM     23  N   UNL A   1      41.504  21.649  25.935  1.00  0.00    -0.352 N 
ATOM     24  C   UNL A   1      42.255  22.799  25.709  1.00  0.00     0.251 C 
ATOM     25  H   UNL A   1      41.811  20.842  25.462  1.00  0.00     0.163 HD
ATOM     26  O   UNL A   1      42.993  22.887  24.744  1.00  0.00    -0.269 OA
BRANCH  24  27
ATOM     27  C   UNL A   1      42.138  23.901  26.683  1.00  0.00     0.039 A 
ATOM     28  C   UNL A   1      42.725  23.894  27.952  1.00  0.00     0.014 A 
ATOM     29  C   UNL A   1      41.449  25.015  26.237  1.00  0.00     0.014 A 
ATOM     30  C   UNL A   1      42.639  25.053  28.724  1.00  0.00     0.010 A 
ATOM     31  C   UNL A   1      41.687  26.215  26.821  1.00  0.00     0.010 A 
ATOM     32  C   UNL A   1      42.113  26.212  28.134  1.00  0.00    -0.014 A 
BRANCH  32  33
ATOM     33  C   UNL A   1      41.995  27.495  28.802  1.00  0.00     0.031 A 
ATOM     34  C   UNL A   1      43.073  28.452  28.472  1.00  0.00     0.074 A 
ATOM     35  C   UNL A   1      40.843  27.872  29.403  1.00  0.00     0.049 A 
ATOM     36  N   UNL A   1      44.032  28.840  29.242  1.00  0.00    -0.248 NA
ATOM     37  C   UNL A   1      43.204  28.904  27.077  1.00  0.00     0.031 C 
ATOM     38  C   UNL A   1      39.561  27.149  29.492  1.00  0.00     0.029 A 
ATOM     39  N   UNL A   1      40.531  29.068  29.957  1.00  0.00    -0.354 N 
ATOM     40  C   UNL A   1      44.751  29.773  28.506  1.00  0.00     0.074 A 
ATOM     41  C   UNL A   1      44.341  29.600  27.134  1.00  0.00     0.031 C 
ATOM     42  C   UNL A   1      38.574  28.007  29.837  1.00  0.00     0.029 A 
ATOM     43  C   UNL A   1      39.174  29.285  30.169  1.00  0.00     0.049 A 
ATOM     44  H   UNL A   1      41.215  29.735  30.192  1.00  0.00     0.167 HD
ATOM     45  C   UNL A   1      45.422  30.790  29.115  1.00  0.00     0.031 A 
ATOM     46  C   UNL A   1      38.593  30.447  30.567  1.00  0.00     0.031 A 
ATOM     47  C   UNL A   1      45.480  30.600  30.545  1.00  0.00     0.049 A 
ATOM     48  C   UNL A   1      39.668  31.251  31.206  1.00  0.00     0.074 A 
ATOM     49  C   UNL A   1      46.001  29.625  31.372  1.00  0.00     0.029 A 
ATOM     50  N   UNL A   1      44.546  31.277  31.299  1.00  0.00    -0.354 N 
ATOM     51  N   UNL A   1      40.285  30.871  32.293  1.00  0.00    -0.248 NA
ATOM     52  C   UNL A   1      40.404  32.188  30.371  1.00  0.00     0.031 C 
ATOM     53  C   UNL A   1      45.015  29.446  32.389  1.00  0.00     0.029 A 
ATOM     54  C   UNL A   1      43.996  30.379  32.180  1.00  0.00     0.049 A 
ATOM     55  H   UNL A   1      44.315  32.230  31.221  1.00  0.00     0.167 HD
ATOM     56  C   UNL A   1      41.624  31.160  32.066  1.00  0.00     0.074 A 
ATOM     57  C   UNL A   1      41.623  32.052  30.904  1.00  0.00     0.031 C 
ATOM     58  C   UNL A   1      42.621  30.423  32.644  1.00  0.00     0.031 A 
BRANCH  45  59
ATOM     59  C   UNL A   1      45.671  32.134  28.482  1.00  0.00    -0.014 A 
ATOM     60  C   UNL A   1      46.989  32.629  28.447  1.00  0.00     0.010 A 
ATOM     61  C   UNL A   1      44.638  33.037  28.155  1.00  0.00     0.010 A 
ATOM     62  C   UNL A   1      47.252  33.976  28.165  1.00  0.00     0.020 A 
ATOM     63  C   UNL A   1      44.891  34.370  27.831  1.00  0.00     0.020 A 
ATOM     64  C   UNL A   1      46.197  34.840  27.874  1.00  0.00     0.054 A 
BRANCH  64  65
ATOM     65  S   UNL A   1      46.536  36.598  27.620  1.00  0.00     0.124 S 
ATOM     66  O   UNL A   1      47.445  36.566  26.479  1.00  0.00    -0.237 OA
ATOM     67  O   UNL A   1      45.203  37.134  27.355  1.00  0.00    -0.237 OA
ATOM     68  O   UNL A   1      47.131  37.018  28.886  1.00  0.00    -0.744 OA
ENDBRANCH  64  65
ENDBRANCH  45  59
BRANCH  46  69
ATOM     69  C   UNL A   1      37.299  31.024  30.108  1.00  0.00    -0.014 A 
ATOM     70  C   UNL A   1      36.360  31.545  31.019  1.00  0.00     0.010 A 
ATOM     71  C   UNL A   1      37.110  31.320  28.742  1.00  0.00     0.010 A 
ATOM     72  C   UNL A   1      35.309  32.378  30.585  1.00  0.00     0.020 A 
ATOM     73  C   UNL A   1      36.067  32.147  28.302  1.00  0.00     0.020 A 
ATOM     74  C   UNL A   1      35.183  32.693  29.228  1.00  0.00     0.054 A 
BRANCH  74  75
ATOM     75  S   UNL A   1      33.941  33.913  28.697  1.00  0.00     0.124 S 
ATOM     76  O   UNL A   1      33.354  34.334  29.966  1.00  0.00    -0.237 OA
ATOM     77  O   UNL A   1      34.751  34.916  28.013  1.00  0.00    -0.237 OA
ATOM     78  O   UNL A   1      33.052  33.143  27.828  1.00  0.00    -0.744 OA
ENDBRANCH  74  75
ENDBRANCH  46  69
BRANCH  58  79
ATOM     79  C   UNL A   1      42.241  29.401  33.701  1.00  0.00    -0.014 A 
ATOM     80  C   UNL A   1      41.763  28.108  33.403  1.00  0.00     0.010 A 
ATOM     81  C   UNL A   1      42.550  29.699  35.039  1.00  0.00     0.010 A 
ATOM     82  C   UNL A   1      41.582  27.151  34.416  1.00  0.00     0.020 A 
ATOM     83  C   UNL A   1      42.387  28.747  36.051  1.00  0.00     0.020 A 
ATOM     84  C   UNL A   1      41.897  27.478  35.737  1.00  0.00     0.054 A 
BRANCH  84  85
ATOM     85  S   UNL A   1      41.712  26.227  37.040  1.00  0.00     0.124 S 
ATOM     86  O   UNL A   1      40.378  26.508  37.565  1.00  0.00    -0.237 OA
ATOM     87  O   UNL A   1      41.847  24.970  36.307  1.00  0.00    -0.237 OA
ATOM     88  O   UNL A   1      42.811  26.517  37.961  1.00  0.00    -0.744 OA
ENDBRANCH  84  85
ENDBRANCH  58  79
ENDBRANCH  32  33
ENDBRANCH  24  27
ENDBRANCH  22  23
ENDBRANCH   1  22
TORSDOF 16
ENDMDL
MODEL 2
REMARK VINA RESULT:     -12.1      1.932      3.745
REMARK SMILES CC(C)n1ccc(Cn2cc(C(=O)NCCCNC(=O)c3ccc(-c4c5nc(c(-c6ccc(S(=O)(=O)[O-])cc6)c6ccc([nH]6)c(-c6ccc(S(=O)(=O)[O-])cc6)c6nc(c(-c7ccc(S(=O)(=O)[O-])cc7)c7ccc4[nH]7)C=C6)C=C5)cc3)cc2Br)n1
REMARK SMILES IDX 16 1 15 2 14 3 12 4 13 5 11 7 9 8 10 9 82 10 81 11 83 12
REMARK SMILES IDX 8 13 7 14 4 15 5 16 84 17 6 18 2 19 1 20 3 21 17 22 18 23
REMARK SMILES IDX 19 24 20 26 21 27 22 28 80 29 23 30 79 31 24 32 25 33 26 34
REMARK SMILES IDX 73 35 27 36 78 37 72 38 74 39 28 40 77 41 71 42 70 43 29 45
REMARK SMILES IDX 59 46 40 47 58 48 41 49 44 50 57 51 75 52 42 53 43 54 56 56
REMARK SMILES IDX 76 57 45 58 30 59 31 60 39 61 32 62 38 63 33 64 34 65 35 66
REMARK SMILES IDX 36 67 37 68 60 69 61 70 69 71 62 72 68 73 63 74 64 75 65 76
REMARK SMILES IDX 66 77 67 78 46 79 47 80 55 81 48 82 54 83 49 84 50 85 51 86
REMARK SMILES IDX 52 87 53 88
REMARK H PARENT 14 6 18 25 74 44 44 55
REMARK Flexibility Score: inf
ROOT
ATOM      1  C   UNL A   1      37.605  21.643  25.099  1.00  0.00     0.042 C 
ENDROOT
BRANCH   1   2
ATOM      2  C   UNL A   1      36.183  21.582  25.672  1.00  0.00     0.118 C 
BRANCH   2   3
ATOM      3  N   UNL A   1      35.483  20.362  25.307  1.00  0.00    -0.352 N 
ATOM      4  C   UNL A   1      34.173  20.145  24.945  1.00  0.00     0.252 C 
ATOM      5  O   UNL A   1      33.877  19.039  24.507  1.00  0.00    -0.269 OA
ATOM      6  H   UNL A   1      36.043  19.552  25.320  1.00  0.00     0.163 HD
BRANCH   4   7
ATOM      7  C   UNL A   1      33.187  21.221  25.018  1.00  0.00     0.058 A 
ATOM      8  N   UNL A   1      31.937  22.955  25.710  1.00  0.00    -0.335 N 
ATOM      9  C   UNL A   1      32.659  21.857  26.127  1.00  0.00     0.101 A 
ATOM     10  C   UNL A   1      31.741  22.849  24.362  1.00  0.00     0.086 A 
ATOM     11  C   UNL A   1      32.505  21.800  23.900  1.00  0.00     0.049 A 
ATOM     12  Br  UNL A   1      30.670  23.926  23.275  1.00  0.00    -0.031 Br
BRANCH   8  13
ATOM     13  C   UNL A   1      31.475  24.011  26.608  1.00  0.00     0.180 C 
BRANCH  13  14
ATOM     14  C   UNL A   1      32.231  25.291  26.378  1.00  0.00     0.082 A 
ATOM     15  N   UNL A   1      32.711  27.364  26.483  1.00  0.00    -0.270 N 
ATOM     16  C   UNL A   1      33.707  26.819  25.727  1.00  0.00     0.109 A 
ATOM     17  N   UNL A   1      31.802  26.453  26.895  1.00  0.00    -0.176 NA
ATOM     18  C   UNL A   1      33.451  25.472  25.678  1.00  0.00     0.047 A 
BRANCH  15  19
ATOM     19  C   UNL A   1      32.551  28.763  26.868  1.00  0.00     0.101 C 
ATOM     20  C   UNL A   1      33.872  29.430  27.262  1.00  0.00     0.033 C 
ATOM     21  C   UNL A   1      31.850  29.555  25.766  1.00  0.00     0.033 C 
ENDBRANCH  15  19
ENDBRANCH  13  14
ENDBRANCH   8  13
ENDBRANCH   4   7
ENDBRANCH   2   3
ENDBRANCH   1   2
BRANCH   1  22
ATOM     22  C   UNL A   1      38.491  22.579  25.899  1.00  0.00     0.118 C 
BRANCH  22  23
ATOM     23  N   UNL A   1      39.817  22.007  26.191  1.00  0.00    -0.352 N 
ATOM     24  C   UNL A   1      41.017  22.666  26.442  1.00  0.00     0.251 C 
ATOM     25  H   UNL A   1      39.860  21.023  26.211  1.00  0.00     0.163 HD
ATOM     26  O   UNL A   1      42.084  22.087  26.338  1.00  0.00    -0.269 OA
BRANCH  24  27
ATOM     27  C   UNL A   1      40.954  24.081  26.853  1.00  0.00     0.039 A 
ATOM     28  C   UNL A   1      39.912  24.950  26.516  1.00  0.00     0.014 A 
ATOM     29  C   UNL A   1      41.981  24.505  27.677  1.00  0.00     0.014 A 
ATOM     30  C   UNL A   1      39.915  26.230  27.074  1.00  0.00     0.010 A 
ATOM     31  C   UNL A   1      41.781  25.580  28.478  1.00  0.00     0.010 A 
ATOM     32  C   UNL A   1      40.865  26.526  28.062  1.00  0.00    -0.014 A 
BRANCH  32  33
ATOM     33  C   UNL A   1      40.965  27.798  28.753  1.00  0.00     0.031 A 
ATOM     34  C   UNL A   1      42.066  28.663  28.277  1.00  0.00     0.074 A 
ATOM     35  C   UNL A   1      39.952  28.261  29.522  1.00  0.00     0.049 A 
ATOM     36  N   UNL A   1      43.158  28.945  28.900  1.00  0.00    -0.248 NA
ATOM     37  C   UNL A   1      42.031  29.135  26.883  1.00  0.00     0.031 C 
ATOM     38  C   UNL A   1      38.637  27.654  29.793  1.00  0.00     0.029 A 
ATOM     39  N   UNL A   1      39.836  29.467  30.128  1.00  0.00    -0.354 N 
ATOM     40  C   UNL A   1      43.844  29.828  28.075  1.00  0.00     0.074 A 
ATOM     41  C   UNL A   1      43.223  29.725  26.778  1.00  0.00     0.031 C 
ATOM     42  C   UNL A   1      37.794  28.588  30.289  1.00  0.00     0.029 A 
ATOM     43  C   UNL A   1      38.550  29.799  30.541  1.00  0.00     0.049 A 
ATOM     44  H   UNL A   1      40.606  30.065  30.267  1.00  0.00     0.167 HD
ATOM     45  C   UNL A   1      44.687  30.766  28.588  1.00  0.00     0.031 A 
ATOM     46  C   UNL A   1      38.143  30.999  31.033  1.00  0.00     0.031 A 
ATOM     47  C   UNL A   1      44.937  30.539  29.992  1.00  0.00     0.049 A 
ATOM     48  C   UNL A   1      39.369  31.688  31.514  1.00  0.00     0.074 A 
ATOM     49  C   UNL A   1      45.482  29.501  30.722  1.00  0.00     0.029 A 
ATOM     50  N   UNL A   1      44.190  31.277  30.883  1.00  0.00    -0.354 N 
ATOM     51  N   UNL A   1      40.101  31.229  32.494  1.00  0.00    -0.248 NA
ATOM     52  C   UNL A   1      40.058  32.575  30.589  1.00  0.00     0.031 C 
ATOM     53  C   UNL A   1      44.644  29.387  31.872  1.00  0.00     0.029 A 
ATOM     54  C   UNL A   1      43.695  30.412  31.827  1.00  0.00     0.049 A 
ATOM     55  H   UNL A   1      44.038  32.249  30.849  1.00  0.00     0.167 HD
ATOM     56  C   UNL A   1      41.413  31.403  32.074  1.00  0.00     0.074 A 
ATOM     57  C   UNL A   1      41.323  32.319  30.934  1.00  0.00     0.031 C 
ATOM     58  C   UNL A   1      42.413  30.567  32.490  1.00  0.00     0.031 A 
BRANCH  45  59
ATOM     59  C   UNL A   1      44.962  32.098  27.939  1.00  0.00    -0.014 A 
ATOM     60  C   UNL A   1      46.302  32.488  27.743  1.00  0.00     0.010 A 
ATOM     61  C   UNL A   1      43.973  33.084  27.751  1.00  0.00     0.010 A 
ATOM     62  C   UNL A   1      46.634  33.814  27.441  1.00  0.00     0.020 A 
ATOM     63  C   UNL A   1      44.290  34.399  27.408  1.00  0.00     0.020 A 
ATOM     64  C   UNL A   1      45.624  34.764  27.290  1.00  0.00     0.054 A 
BRANCH  64  65
ATOM     65  S   UNL A   1      46.069  36.494  27.009  1.00  0.00     0.124 S 
ATOM     66  O   UNL A   1      46.804  36.414  25.751  1.00  0.00    -0.237 OA
ATOM     67  O   UNL A   1      44.762  37.141  26.940  1.00  0.00    -0.237 OA
ATOM     68  O   UNL A   1      46.868  36.837  28.183  1.00  0.00    -0.744 OA
ENDBRANCH  64  65
ENDBRANCH  45  59
BRANCH  46  69
ATOM     69  C   UNL A   1      36.854  31.699  30.777  1.00  0.00    -0.014 A 
ATOM     70  C   UNL A   1      36.431  32.780  31.575  1.00  0.00     0.010 A 
ATOM     71  C   UNL A   1      36.169  31.483  29.563  1.00  0.00     0.010 A 
ATOM     72  C   UNL A   1      35.403  33.644  31.146  1.00  0.00     0.020 A 
ATOM     73  C   UNL A   1      35.145  32.337  29.129  1.00  0.00     0.020 A 
ATOM     74  C   UNL A   1      34.782  33.429  29.912  1.00  0.00     0.054 A 
BRANCH  74  75
ATOM     75  S   UNL A   1      33.588  34.650  29.279  1.00  0.00     0.124 S 
ATOM     76  O   UNL A   1      34.459  35.661  28.688  1.00  0.00    -0.237 OA
ATOM     77  O   UNL A   1      32.800  33.865  28.334  1.00  0.00    -0.237 OA
ATOM     78  O   UNL A   1      32.865  35.077  30.477  1.00  0.00    -0.744 OA
ENDBRANCH  74  75
ENDBRANCH  46  69
BRANCH  58  79
ATOM     79  C   UNL A   1      42.100  29.558  33.580  1.00  0.00    -0.014 A 
ATOM     80  C   UNL A   1      41.527  28.293  33.336  1.00  0.00     0.010 A 
ATOM     81  C   UNL A   1      42.568  29.831  34.877  1.00  0.00     0.010 A 
ATOM     82  C   UNL A   1      41.411  27.339  34.361  1.00  0.00     0.020 A 
ATOM     83  C   UNL A   1      42.470  28.882  35.899  1.00  0.00     0.020 A 
ATOM     84  C   UNL A   1      41.886  27.641  35.640  1.00  0.00     0.054 A 
BRANCH  84  85
ATOM     85  S   UNL A   1      41.781  26.392  36.954  1.00  0.00     0.124 S 
ATOM     86  O   UNL A   1      42.960  26.683  37.765  1.00  0.00    -0.237 OA
ATOM     87  O   UNL A   1      40.496  26.688  37.584  1.00  0.00    -0.237 OA
ATOM     88  O   UNL A   1      41.828  25.121  36.231  1.00  0.00    -0.744 OA
ENDBRANCH  84  85
ENDBRANCH  58  79
ENDBRANCH  32  33
ENDBRANCH  24  27
ENDBRANCH  22  23
ENDBRANCH   1  22
TORSDOF 16
ENDMDL
MODEL 3
REMARK VINA RESULT:     -12.0      4.541     10.304
REMARK SMILES CC(C)n1ccc(Cn2cc(C(=O)NCCCNC(=O)c3ccc(-c4c5nc(c(-c6ccc(S(=O)(=O)[O-])cc6)c6ccc([nH]6)c(-c6ccc(S(=O)(=O)[O-])cc6)c6nc(c(-c7ccc(S(=O)(=O)[O-])cc7)c7ccc4[nH]7)C=C6)C=C5)cc3)cc2Br)n1
REMARK SMILES IDX 16 1 15 2 14 3 12 4 13 5 11 7 9 8 10 9 82 10 81 11 83 12
REMARK SMILES IDX 8 13 7 14 4 15 5 16 84 17 6 18 2 19 1 20 3 21 17 22 18 23
REMARK SMILES IDX 19 24 20 26 21 27 22 28 80 29 23 30 79 31 24 32 25 33 26 34
REMARK SMILES IDX 73 35 27 36 78 37 72 38 74 39 28 40 77 41 71 42 70 43 29 45
REMARK SMILES IDX 59 46 40 47 58 48 41 49 44 50 57 51 75 52 42 53 43 54 56 56
REMARK SMILES IDX 76 57 45 58 30 59 31 60 39 61 32 62 38 63 33 64 34 65 35 66
REMARK SMILES IDX 36 67 37 68 60 69 61 70 69 71 62 72 68 73 63 74 64 75 65 76
REMARK SMILES IDX 66 77 67 78 46 79 47 80 55 81 48 82 54 83 49 84 50 85 51 86
REMARK SMILES IDX 52 87 53 88
REMARK H PARENT 14 6 18 25 74 44 44 55
REMARK Flexibility Score: inf
ROOT
ATOM      1  C   UNL A   1      33.804  31.716  27.580  1.00  0.00     0.042 C 
ENDROOT
BRANCH   1   2
ATOM      2  C   UNL A   1      33.506  30.388  26.874  1.00  0.00     0.118 C 
BRANCH   2   3
ATOM      3  N   UNL A   1      32.562  29.563  27.609  1.00  0.00    -0.352 N 
ATOM      4  C   UNL A   1      31.843  28.452  27.227  1.00  0.00     0.252 C 
ATOM      5  O   UNL A   1      31.248  27.830  28.099  1.00  0.00    -0.269 OA
ATOM      6  H   UNL A   1      32.410  29.847  28.539  1.00  0.00     0.163 HD
BRANCH   4   7
ATOM      7  C   UNL A   1      31.850  27.996  25.838  1.00  0.00     0.058 A 
ATOM      8  N   UNL A   1      31.408  27.749  23.649  1.00  0.00    -0.335 N 
ATOM      9  C   UNL A   1      30.878  28.131  24.864  1.00  0.00     0.101 A 
ATOM     10  C   UNL A   1      32.581  27.088  23.886  1.00  0.00     0.086 A 
ATOM     11  C   UNL A   1      32.890  27.230  25.221  1.00  0.00     0.049 A 
ATOM     12  Br  UNL A   1      33.643  26.170  22.655  1.00  0.00    -0.031 Br
BRANCH   8  13
ATOM     13  C   UNL A   1      30.770  28.019  22.364  1.00  0.00     0.180 C 
BRANCH  13  14
ATOM     14  C   UNL A   1      29.558  28.894  22.530  1.00  0.00     0.082 A 
ATOM     15  N   UNL A   1      28.340  30.640  22.461  1.00  0.00    -0.270 N 
ATOM     16  C   UNL A   1      27.533  29.681  22.999  1.00  0.00     0.109 A 
ATOM     17  N   UNL A   1      29.576  30.185  22.163  1.00  0.00    -0.176 NA
ATOM     18  C   UNL A   1      28.277  28.528  23.017  1.00  0.00     0.047 A 
BRANCH  15  19
ATOM     19  C   UNL A   1      28.003  32.036  22.189  1.00  0.00     0.101 C 
ATOM     20  C   UNL A   1      28.913  33.023  22.925  1.00  0.00     0.033 C 
ATOM     21  C   UNL A   1      28.001  32.313  20.688  1.00  0.00     0.033 C 
ENDBRANCH  15  19
ENDBRANCH  13  14
ENDBRANCH   8  13
ENDBRANCH   4   7
ENDBRANCH   2   3
ENDBRANCH   1   2
BRANCH   1  22
ATOM     22  C   UNL A   1      35.039  31.618  28.457  1.00  0.00     0.118 C 
BRANCH  22  23
ATOM     23  N   UNL A   1      34.895  32.335  29.736  1.00  0.00    -0.352 N 
ATOM     24  C   UNL A   1      35.408  32.003  30.987  1.00  0.00     0.251 C 
ATOM     25  H   UNL A   1      34.364  33.163  29.701  1.00  0.00     0.163 HD
ATOM     26  O   UNL A   1      34.944  32.489  32.004  1.00  0.00    -0.269 OA
BRANCH  24  27
ATOM     27  C   UNL A   1      36.538  31.056  31.040  1.00  0.00     0.039 A 
ATOM     28  C   UNL A   1      36.404  29.668  30.951  1.00  0.00     0.014 A 
ATOM     29  C   UNL A   1      37.792  31.636  31.115  1.00  0.00     0.014 A 
ATOM     30  C   UNL A   1      37.566  28.897  30.888  1.00  0.00     0.010 A 
ATOM     31  C   UNL A   1      38.870  30.931  30.692  1.00  0.00     0.010 A 
ATOM     32  C   UNL A   1      38.798  29.553  30.758  1.00  0.00    -0.014 A 
BRANCH  32  33
ATOM     33  C   UNL A   1      40.080  28.883  30.647  1.00  0.00     0.031 A 
ATOM     34  C   UNL A   1      40.752  28.640  31.941  1.00  0.00     0.074 A 
ATOM     35  C   UNL A   1      40.453  28.263  29.503  1.00  0.00     0.049 A 
ATOM     36  N   UNL A   1      41.802  29.233  32.397  1.00  0.00    -0.248 NA
ATOM     37  C   UNL A   1      40.090  27.759  32.918  1.00  0.00     0.031 C 
ATOM     38  C   UNL A   1      39.710  28.121  28.238  1.00  0.00     0.029 A 
ATOM     39  N   UNL A   1      41.547  27.497  29.275  1.00  0.00    -0.354 N 
ATOM     40  C   UNL A   1      42.076  28.628  33.617  1.00  0.00     0.074 A 
ATOM     41  C   UNL A   1      40.881  27.908  33.982  1.00  0.00     0.031 C 
ATOM     42  C   UNL A   1      40.258  27.135  27.492  1.00  0.00     0.029 A 
ATOM     43  C   UNL A   1      41.485  26.704  28.134  1.00  0.00     0.049 A 
ATOM     44  H   UNL A   1      42.328  27.502  29.873  1.00  0.00     0.167 HD
ATOM     45  C   UNL A   1      43.348  28.547  34.097  1.00  0.00     0.031 A 
ATOM     46  C   UNL A   1      42.376  25.746  27.767  1.00  0.00     0.031 A 
ATOM     47  C   UNL A   1      44.256  29.359  33.323  1.00  0.00     0.049 A 
ATOM     48  C   UNL A   1      43.636  26.049  28.496  1.00  0.00     0.074 A 
ATOM     49  C   UNL A   1      44.342  30.706  33.033  1.00  0.00     0.029 A 
ATOM     50  N   UNL A   1      44.990  28.715  32.351  1.00  0.00    -0.354 N 
ATOM     51  N   UNL A   1      44.321  27.143  28.302  1.00  0.00    -0.248 NA
ATOM     52  C   UNL A   1      43.846  25.406  29.784  1.00  0.00     0.031 C 
ATOM     53  C   UNL A   1      44.692  30.759  31.650  1.00  0.00     0.029 A 
ATOM     54  C   UNL A   1      44.887  29.451  31.197  1.00  0.00     0.049 A 
ATOM     55  H   UNL A   1      45.497  27.879  32.463  1.00  0.00     0.167 HD
ATOM     56  C   UNL A   1      44.698  27.562  29.571  1.00  0.00     0.074 A 
ATOM     57  C   UNL A   1      44.455  26.403  30.435  1.00  0.00     0.031 C 
ATOM     58  C   UNL A   1      44.888  28.885  29.860  1.00  0.00     0.031 A 
BRANCH  45  59
ATOM     59  C   UNL A   1      43.841  27.443  34.996  1.00  0.00    -0.014 A 
ATOM     60  C   UNL A   1      44.375  27.786  36.254  1.00  0.00     0.010 A 
ATOM     61  C   UNL A   1      44.037  26.118  34.555  1.00  0.00     0.010 A 
ATOM     62  C   UNL A   1      45.124  26.867  36.999  1.00  0.00     0.020 A 
ATOM     63  C   UNL A   1      44.746  25.181  35.308  1.00  0.00     0.020 A 
ATOM     64  C   UNL A   1      45.316  25.574  36.512  1.00  0.00     0.054 A 
BRANCH  64  65
ATOM     65  S   UNL A   1      46.376  24.431  37.428  1.00  0.00     0.124 S 
ATOM     66  O   UNL A   1      45.410  23.450  37.913  1.00  0.00    -0.237 OA
ATOM     67  O   UNL A   1      47.291  23.961  36.391  1.00  0.00    -0.237 OA
ATOM     68  O   UNL A   1      46.985  25.275  38.453  1.00  0.00    -0.744 OA
ENDBRANCH  64  65
ENDBRANCH  45  59
BRANCH  46  69
ATOM     69  C   UNL A   1      42.090  24.429  27.134  1.00  0.00    -0.014 A 
ATOM     70  C   UNL A   1      43.078  23.721  26.423  1.00  0.00     0.010 A 
ATOM     71  C   UNL A   1      40.911  23.732  27.473  1.00  0.00     0.010 A 
ATOM     72  C   UNL A   1      42.918  22.355  26.117  1.00  0.00     0.020 A 
ATOM     73  C   UNL A   1      40.744  22.372  27.171  1.00  0.00     0.020 A 
ATOM     74  C   UNL A   1      41.758  21.683  26.515  1.00  0.00     0.054 A 
BRANCH  74  75
ATOM     75  S   UNL A   1      41.636  19.881  26.282  1.00  0.00     0.124 S 
ATOM     76  O   UNL A   1      42.530  19.651  25.151  1.00  0.00    -0.237 OA
ATOM     77  O   UNL A   1      42.097  19.361  27.566  1.00  0.00    -0.237 OA
ATOM     78  O   UNL A   1      40.216  19.665  26.006  1.00  0.00    -0.744 OA
ENDBRANCH  74  75
ENDBRANCH  46  69
BRANCH  58  79
ATOM     79  C   UNL A   1      44.872  29.881  28.714  1.00  0.00    -0.014 A 
ATOM     80  C   UNL A   1      43.702  30.263  28.025  1.00  0.00     0.010 A 
ATOM     81  C   UNL A   1      46.056  30.587  28.447  1.00  0.00     0.010 A 
ATOM     82  C   UNL A   1      43.723  31.307  27.084  1.00  0.00     0.020 A 
ATOM     83  C   UNL A   1      46.082  31.638  27.523  1.00  0.00     0.020 A 
ATOM     84  C   UNL A   1      44.918  31.990  26.840  1.00  0.00     0.054 A 
BRANCH  84  85
ATOM     85  S   UNL A   1      44.936  33.372  25.662  1.00  0.00     0.124 S 
ATOM     86  O   UNL A   1      44.291  32.796  24.485  1.00  0.00    -0.237 OA
ATOM     87  O   UNL A   1      44.169  34.404  26.357  1.00  0.00    -0.237 OA
ATOM     88  O   UNL A   1      46.358  33.673  25.501  1.00  0.00    -0.744 OA
ENDBRANCH  84  85
ENDBRANCH  58  79
ENDBRANCH  32  33
ENDBRANCH  24  27
ENDBRANCH  22  23
ENDBRANCH   1  22
TORSDOF 16
ENDMDL
