MODEL 1
REMARK VINA RESULT:     -12.4      0.000      0.000
REMARK SMILES COC(=O)c1ccc2c(c1)=N[C@H](c1cn(CCC(=O)NCCCNC(=O)c3ccc(-c4c5nc(c(-c6ccc(S(=O)(=O)[O-])cc6)c6ccc([nH]6)c(-c6ccc(S(=O)(=O)[O-])cc6)c6nc(c(-c7ccc(S(=O)(=O)[O-])cc7)c7ccc4[nH]7)C=C6)C=C5)cc3)c3ccccc13)N=2
REMARK SMILES IDX 21 1 20 2 18 3 19 4 17 6 16 7 15 8 13 9 14 10 92 11 87 12
REMARK SMILES IDX 91 13 88 14 90 15 89 16 12 17 5 18 6 19 10 20 7 21 9 22 8 23
REMARK SMILES IDX 11 24 93 25 3 26 4 27 2 28 1 29 22 30 23 31 24 32 25 33
REMARK SMILES IDX 26 35 27 36 28 37 86 38 29 39 85 40 30 41 31 42 32 43 79 44
REMARK SMILES IDX 33 45 84 46 78 47 80 48 34 49 83 50 77 51 76 52 35 54 65 55
REMARK SMILES IDX 46 56 64 57 47 58 50 59 63 60 81 61 48 62 49 63 62 65 82 66
REMARK SMILES IDX 51 67 36 68 37 69 45 70 38 71 44 72 39 73 40 74 41 75 42 76
REMARK SMILES IDX 43 77 66 78 67 79 75 80 68 81 74 82 69 83 70 84 71 85 72 86
REMARK SMILES IDX 73 87 52 88 53 89 61 90 54 91 60 92 55 93 56 94 57 95 58 96
REMARK SMILES IDX 59 97
REMARK H PARENT 20 5 24 34 80 53 50 64
REMARK Flexibility Score: inf
ROOT
ATOM      1  C   UNL A   1      40.340  21.406  27.223  1.00  0.00     0.117 C 
ENDROOT
BRANCH   1   2
ATOM      2  N   UNL A   1      39.622  22.599  26.762  1.00  0.00    -0.356 N 
ATOM      3  C   UNL A   1      38.481  22.799  26.035  1.00  0.00     0.221 C 
ATOM      4  O   UNL A   1      38.067  23.962  25.960  1.00  0.00    -0.275 OA
ATOM      5  H   UNL A   1      40.056  23.439  27.038  1.00  0.00     0.163 HD
BRANCH   3   6
ATOM      6  C   UNL A   1      37.682  21.677  25.394  1.00  0.00     0.122 C 
BRANCH   6   7
ATOM      7  C   UNL A   1      36.191  21.678  25.831  1.00  0.00     0.132 C 
BRANCH   7   8
ATOM      8  N   UNL A   1      35.393  22.790  25.290  1.00  0.00    -0.347 N 
ATOM      9  C   UNL A   1      33.350  23.358  25.874  1.00  0.00     0.024 A 
ATOM     10  C   UNL A   1      34.699  23.582  26.169  1.00  0.00     0.094 A 
ATOM     11  C   UNL A   1      33.359  22.275  24.899  1.00  0.00     0.007 A 
ATOM     12  C   UNL A   1      34.520  22.658  24.223  1.00  0.00     0.048 A 
ATOM     13  C   UNL A   1      32.451  21.595  24.074  1.00  0.00     0.011 A 
ATOM     14  C   UNL A   1      34.363  23.231  22.945  1.00  0.00     0.027 A 
ATOM     15  C   UNL A   1      32.345  21.922  22.730  1.00  0.00     0.001 A 
ATOM     16  C   UNL A   1      33.206  22.876  22.222  1.00  0.00     0.002 A 
BRANCH   9  17
ATOM     17  C   UNL A   1      32.328  24.340  26.355  1.00  0.00     0.255 C 
ATOM     18  C   UNL A   1      30.856  27.629  23.711  1.00  0.00     0.062 A 
ATOM     19  C   UNL A   1      29.589  27.047  24.127  1.00  0.00     0.018 A 
ATOM     20  C   UNL A   1      32.001  27.312  24.341  1.00  0.00     0.046 A 
ATOM     21  C   UNL A   1      29.491  25.974  24.924  1.00  0.00     0.031 A 
ATOM     22  C   UNL A   1      31.955  26.167  25.254  1.00  0.00     0.087 A 
ATOM     23  C   UNL A   1      30.733  25.353  25.352  1.00  0.00     0.086 A 
ATOM     24  N   UNL A   1      32.898  25.666  25.959  1.00  0.00    -0.252 NA
ATOM     25  N   UNL A   1      30.948  24.180  25.838  1.00  0.00    -0.252 NA
BRANCH  18  26
ATOM     26  C   UNL A   1      30.935  28.640  22.619  1.00  0.00     0.337 C 
ATOM     27  O   UNL A   1      31.968  29.226  22.288  1.00  0.00    -0.246 OA
BRANCH  26  28
ATOM     28  O   UNL A   1      29.728  28.785  22.020  1.00  0.00    -0.465 OA
ATOM     29  C   UNL A   1      29.036  30.008  22.287  1.00  0.00     0.282 C 
ENDBRANCH  26  28
ENDBRANCH  18  26
ENDBRANCH   9  17
ENDBRANCH   7   8
ENDBRANCH   6   7
ENDBRANCH   3   6
ENDBRANCH   1   2
BRANCH   1  30
ATOM     30  C   UNL A   1      41.145  20.591  26.173  1.00  0.00     0.042 C 
BRANCH  30  31
ATOM     31  C   UNL A   1      42.668  20.758  26.086  1.00  0.00     0.118 C 
BRANCH  31  32
ATOM     32  N   UNL A   1      43.202  21.567  25.013  1.00  0.00    -0.352 N 
ATOM     33  C   UNL A   1      43.475  22.909  24.901  1.00  0.00     0.251 C 
ATOM     34  H   UNL A   1      43.410  21.053  24.199  1.00  0.00     0.163 HD
ATOM     35  O   UNL A   1      44.213  23.250  23.974  1.00  0.00    -0.269 OA
BRANCH  33  36
ATOM     36  C   UNL A   1      42.849  23.977  25.724  1.00  0.00     0.039 A 
ATOM     37  C   UNL A   1      42.084  25.046  25.266  1.00  0.00     0.014 A 
ATOM     38  C   UNL A   1      43.023  23.834  27.110  1.00  0.00     0.014 A 
ATOM     39  C   UNL A   1      41.680  26.046  26.165  1.00  0.00     0.010 A 
ATOM     40  C   UNL A   1      42.619  24.831  27.996  1.00  0.00     0.010 A 
ATOM     41  C   UNL A   1      42.076  26.017  27.511  1.00  0.00    -0.014 A 
BRANCH  41  42
ATOM     42  C   UNL A   1      42.001  27.230  28.375  1.00  0.00     0.031 A 
ATOM     43  C   UNL A   1      43.024  28.315  28.201  1.00  0.00     0.074 A 
ATOM     44  C   UNL A   1      40.991  27.396  29.272  1.00  0.00     0.049 A 
ATOM     45  N   UNL A   1      43.625  29.015  29.121  1.00  0.00    -0.248 NA
ATOM     46  C   UNL A   1      43.472  28.630  26.836  1.00  0.00     0.031 C 
ATOM     47  C   UNL A   1      39.835  26.515  29.489  1.00  0.00     0.029 A 
ATOM     48  N   UNL A   1      40.703  28.456  30.096  1.00  0.00    -0.354 N 
ATOM     49  C   UNL A   1      44.437  29.934  28.457  1.00  0.00     0.074 A 
ATOM     50  C   UNL A   1      44.360  29.599  27.055  1.00  0.00     0.031 C 
ATOM     51  C   UNL A   1      38.859  27.196  30.122  1.00  0.00     0.029 A 
ATOM     52  C   UNL A   1      39.360  28.505  30.483  1.00  0.00     0.049 A 
ATOM     53  H   UNL A   1      41.375  29.114  30.386  1.00  0.00     0.167 HD
ATOM     54  C   UNL A   1      45.041  31.003  29.053  1.00  0.00     0.031 A 
ATOM     55  C   UNL A   1      38.659  29.571  30.956  1.00  0.00     0.031 A 
ATOM     56  C   UNL A   1      45.209  30.865  30.470  1.00  0.00     0.049 A 
ATOM     57  C   UNL A   1      39.638  30.520  31.525  1.00  0.00     0.074 A 
ATOM     58  C   UNL A   1      46.023  30.137  31.310  1.00  0.00     0.029 A 
ATOM     59  N   UNL A   1      44.305  31.456  31.309  1.00  0.00    -0.354 N 
ATOM     60  N   UNL A   1      40.342  30.290  32.595  1.00  0.00    -0.248 NA
ATOM     61  C   UNL A   1      40.134  31.562  30.643  1.00  0.00     0.031 C 
ATOM     62  C   UNL A   1      45.219  29.842  32.440  1.00  0.00     0.029 A 
ATOM     63  C   UNL A   1      44.026  30.544  32.294  1.00  0.00     0.049 A 
ATOM     64  H   UNL A   1      43.928  32.362  31.222  1.00  0.00     0.167 HD
ATOM     65  C   UNL A   1      41.582  30.834  32.311  1.00  0.00     0.074 A 
ATOM     66  C   UNL A   1      41.374  31.654  31.117  1.00  0.00     0.031 C 
ATOM     67  C   UNL A   1      42.724  30.376  32.899  1.00  0.00     0.031 A 
BRANCH  54  68
ATOM     68  C   UNL A   1      45.266  32.308  28.335  1.00  0.00    -0.014 A 
ATOM     69  C   UNL A   1      44.300  33.335  28.348  1.00  0.00     0.010 A 
ATOM     70  C   UNL A   1      46.544  32.639  27.841  1.00  0.00     0.010 A 
ATOM     71  C   UNL A   1      44.567  34.614  27.862  1.00  0.00     0.020 A 
ATOM     72  C   UNL A   1      46.837  33.936  27.389  1.00  0.00     0.020 A 
ATOM     73  C   UNL A   1      45.841  34.911  27.396  1.00  0.00     0.054 A 
BRANCH  73  74
ATOM     74  S   UNL A   1      46.176  36.614  26.882  1.00  0.00     0.124 S 
ATOM     75  O   UNL A   1      46.893  37.140  28.041  1.00  0.00    -0.237 OA
ATOM     76  O   UNL A   1      46.977  36.426  25.676  1.00  0.00    -0.237 OA
ATOM     77  O   UNL A   1      44.844  37.173  26.663  1.00  0.00    -0.744 OA
ENDBRANCH  73  74
ENDBRANCH  54  68
BRANCH  55  78
ATOM     78  C   UNL A   1      37.355  30.054  30.397  1.00  0.00    -0.014 A 
ATOM     79  C   UNL A   1      37.121  30.029  29.008  1.00  0.00     0.010 A 
ATOM     80  C   UNL A   1      36.492  30.846  31.188  1.00  0.00     0.010 A 
ATOM     81  C   UNL A   1      36.150  30.839  28.415  1.00  0.00     0.020 A 
ATOM     82  C   UNL A   1      35.520  31.673  30.596  1.00  0.00     0.020 A 
ATOM     83  C   UNL A   1      35.389  31.694  29.208  1.00  0.00     0.054 A 
BRANCH  83  84
ATOM     84  S   UNL A   1      34.324  32.899  28.369  1.00  0.00     0.124 S 
ATOM     85  O   UNL A   1      33.421  32.029  27.619  1.00  0.00    -0.237 OA
ATOM     86  O   UNL A   1      33.716  33.616  29.487  1.00  0.00    -0.237 OA
ATOM     87  O   UNL A   1      35.255  33.682  27.562  1.00  0.00    -0.744 OA
ENDBRANCH  83  84
ENDBRANCH  55  78
BRANCH  67  88
ATOM     88  C   UNL A   1      42.656  29.435  34.089  1.00  0.00    -0.014 A 
ATOM     89  C   UNL A   1      42.934  28.074  33.849  1.00  0.00     0.010 A 
ATOM     90  C   UNL A   1      42.151  29.792  35.356  1.00  0.00     0.010 A 
ATOM     91  C   UNL A   1      42.677  27.097  34.811  1.00  0.00     0.020 A 
ATOM     92  C   UNL A   1      41.922  28.816  36.343  1.00  0.00     0.020 A 
ATOM     93  C   UNL A   1      42.164  27.471  36.053  1.00  0.00     0.054 A 
BRANCH  93  94
ATOM     94  S   UNL A   1      41.813  26.160  37.257  1.00  0.00     0.124 S 
ATOM     95  O   UNL A   1      40.483  26.530  37.737  1.00  0.00    -0.237 OA
ATOM     96  O   UNL A   1      41.864  24.950  36.438  1.00  0.00    -0.237 OA
ATOM     97  O   UNL A   1      42.886  26.286  38.240  1.00  0.00    -0.744 OA
ENDBRANCH  93  94
ENDBRANCH  67  88
ENDBRANCH  41  42
ENDBRANCH  33  36
ENDBRANCH  31  32
ENDBRANCH  30  31
ENDBRANCH   1  30
TORSDOF 18
ENDMDL
MODEL 2
REMARK VINA RESULT:     -12.2      2.720      9.311
REMARK SMILES COC(=O)c1ccc2c(c1)=N[C@H](c1cn(CCC(=O)NCCCNC(=O)c3ccc(-c4c5nc(c(-c6ccc(S(=O)(=O)[O-])cc6)c6ccc([nH]6)c(-c6ccc(S(=O)(=O)[O-])cc6)c6nc(c(-c7ccc(S(=O)(=O)[O-])cc7)c7ccc4[nH]7)C=C6)C=C5)cc3)c3ccccc13)N=2
REMARK SMILES IDX 21 1 20 2 18 3 19 4 17 6 16 7 15 8 13 9 14 10 92 11 87 12
REMARK SMILES IDX 91 13 88 14 90 15 89 16 12 17 5 18 6 19 10 20 7 21 9 22 8 23
REMARK SMILES IDX 11 24 93 25 3 26 4 27 2 28 1 29 22 30 23 31 24 32 25 33
REMARK SMILES IDX 26 35 27 36 28 37 86 38 29 39 85 40 30 41 31 42 32 43 79 44
REMARK SMILES IDX 33 45 84 46 78 47 80 48 34 49 83 50 77 51 76 52 35 54 65 55
REMARK SMILES IDX 46 56 64 57 47 58 50 59 63 60 81 61 48 62 49 63 62 65 82 66
REMARK SMILES IDX 51 67 36 68 37 69 45 70 38 71 44 72 39 73 40 74 41 75 42 76
REMARK SMILES IDX 43 77 66 78 67 79 75 80 68 81 74 82 69 83 70 84 71 85 72 86
REMARK SMILES IDX 73 87 52 88 53 89 61 90 54 91 60 92 55 93 56 94 57 95 58 96
REMARK SMILES IDX 59 97
REMARK H PARENT 20 5 24 34 80 53 50 64
REMARK Flexibility Score: inf
ROOT
ATOM      1  C   UNL A   1      34.682  31.011  27.713  1.00  0.00     0.117 C 
ENDROOT
BRANCH   1   2
ATOM      2  N   UNL A   1      33.316  31.203  27.215  1.00  0.00    -0.356 N 
ATOM      3  C   UNL A   1      32.536  30.545  26.306  1.00  0.00     0.221 C 
ATOM      4  O   UNL A   1      31.349  30.888  26.239  1.00  0.00    -0.275 OA
ATOM      5  H   UNL A   1      32.861  31.974  27.627  1.00  0.00     0.163 HD
BRANCH   3   6
ATOM      6  C   UNL A   1      33.030  29.394  25.446  1.00  0.00     0.122 C 
BRANCH   6   7
ATOM      7  C   UNL A   1      31.870  28.533  24.874  1.00  0.00     0.132 C 
BRANCH   7   8
ATOM      8  N   UNL A   1      31.843  27.141  25.354  1.00  0.00    -0.347 N 
ATOM      9  C   UNL A   1      33.507  25.703  25.332  1.00  0.00     0.024 A 
ATOM     10  C   UNL A   1      32.897  26.694  26.109  1.00  0.00     0.094 A 
ATOM     11  C   UNL A   1      32.819  25.765  24.049  1.00  0.00     0.007 A 
ATOM     12  C   UNL A   1      31.547  26.058  24.546  1.00  0.00     0.048 A 
ATOM     13  C   UNL A   1      32.779  25.050  22.842  1.00  0.00     0.011 A 
ATOM     14  C   UNL A   1      30.591  25.022  24.521  1.00  0.00     0.027 A 
ATOM     15  C   UNL A   1      31.759  24.141  22.600  1.00  0.00     0.001 A 
ATOM     16  C   UNL A   1      30.757  24.020  23.545  1.00  0.00     0.002 A 
BRANCH   9  17
ATOM     17  C   UNL A   1      34.433  24.729  25.991  1.00  0.00     0.255 C 
ATOM     18  C   UNL A   1      34.268  20.368  25.026  1.00  0.00     0.062 A 
ATOM     19  C   UNL A   1      35.685  20.625  24.816  1.00  0.00     0.018 A 
ATOM     20  C   UNL A   1      33.490  21.265  25.657  1.00  0.00     0.046 A 
ATOM     21  C   UNL A   1      36.248  21.833  24.948  1.00  0.00     0.031 A 
ATOM     22  C   UNL A   1      34.059  22.600  25.863  1.00  0.00     0.087 A 
ATOM     23  C   UNL A   1      35.367  22.940  25.282  1.00  0.00     0.086 A 
ATOM     24  N   UNL A   1      33.527  23.619  26.424  1.00  0.00    -0.252 NA
ATOM     25  N   UNL A   1      35.553  24.210  25.171  1.00  0.00    -0.252 NA
BRANCH  18  26
ATOM     26  C   UNL A   1      33.632  19.086  24.609  1.00  0.00     0.337 C 
ATOM     27  O   UNL A   1      34.180  17.984  24.681  1.00  0.00    -0.246 OA
BRANCH  26  28
ATOM     28  O   UNL A   1      32.362  19.302  24.189  1.00  0.00    -0.465 OA
ATOM     29  C   UNL A   1      32.216  19.791  22.852  1.00  0.00     0.282 C 
ENDBRANCH  26  28
ENDBRANCH  18  26
ENDBRANCH   9  17
ENDBRANCH   7   8
ENDBRANCH   6   7
ENDBRANCH   3   6
ENDBRANCH   1   2
BRANCH   1  30
ATOM     30  C   UNL A   1      35.515  32.277  28.055  1.00  0.00     0.042 C 
BRANCH  30  31
ATOM     31  C   UNL A   1      34.924  33.351  28.978  1.00  0.00     0.118 C 
BRANCH  31  32
ATOM     32  N   UNL A   1      34.322  32.920  30.221  1.00  0.00    -0.352 N 
ATOM     33  C   UNL A   1      34.849  32.484  31.412  1.00  0.00     0.251 C 
ATOM     34  H   UNL A   1      33.338  32.944  30.210  1.00  0.00     0.163 HD
ATOM     35  O   UNL A   1      34.094  32.485  32.388  1.00  0.00    -0.269 OA
BRANCH  33  36
ATOM     36  C   UNL A   1      36.204  31.893  31.579  1.00  0.00     0.039 A 
ATOM     37  C   UNL A   1      37.359  32.553  31.988  1.00  0.00     0.014 A 
ATOM     38  C   UNL A   1      36.280  30.512  31.339  1.00  0.00     0.014 A 
ATOM     39  C   UNL A   1      38.590  31.878  31.960  1.00  0.00     0.010 A 
ATOM     40  C   UNL A   1      37.506  29.850  31.313  1.00  0.00     0.010 A 
ATOM     41  C   UNL A   1      38.689  30.565  31.478  1.00  0.00    -0.014 A 
BRANCH  41  42
ATOM     42  C   UNL A   1      39.997  29.976  31.075  1.00  0.00     0.031 A 
ATOM     43  C   UNL A   1      41.034  29.709  32.128  1.00  0.00     0.074 A 
ATOM     44  C   UNL A   1      40.245  29.622  29.784  1.00  0.00     0.049 A 
ATOM     45  N   UNL A   1      42.321  29.900  32.062  1.00  0.00    -0.248 NA
ATOM     46  C   UNL A   1      40.579  29.212  33.435  1.00  0.00     0.031 C 
ATOM     47  C   UNL A   1      39.315  29.682  28.648  1.00  0.00     0.029 A 
ATOM     48  N   UNL A   1      41.339  29.007  29.227  1.00  0.00    -0.354 N 
ATOM     49  C   UNL A   1      42.855  29.444  33.268  1.00  0.00     0.074 A 
ATOM     50  C   UNL A   1      41.727  29.103  34.103  1.00  0.00     0.031 C 
ATOM     51  C   UNL A   1      39.751  28.873  27.661  1.00  0.00     0.029 A 
ATOM     52  C   UNL A   1      41.052  28.351  28.026  1.00  0.00     0.049 A 
ATOM     53  H   UNL A   1      42.236  29.026  29.633  1.00  0.00     0.167 HD
ATOM     54  C   UNL A   1      44.185  29.245  33.498  1.00  0.00     0.031 A 
ATOM     55  C   UNL A   1      41.759  27.360  27.418  1.00  0.00     0.031 A 
ATOM     56  C   UNL A   1      45.047  29.986  32.625  1.00  0.00     0.049 A 
ATOM     57  C   UNL A   1      43.149  27.452  27.908  1.00  0.00     0.074 A 
ATOM     58  C   UNL A   1      45.429  31.302  32.484  1.00  0.00     0.029 A 
ATOM     59  N   UNL A   1      45.584  29.363  31.531  1.00  0.00    -0.354 N 
ATOM     60  N   UNL A   1      43.958  28.433  27.630  1.00  0.00    -0.248 NA
ATOM     61  C   UNL A   1      43.495  26.642  29.063  1.00  0.00     0.031 C 
ATOM     62  C   UNL A   1      45.602  31.490  31.089  1.00  0.00     0.029 A 
ATOM     63  C   UNL A   1      45.478  30.242  30.484  1.00  0.00     0.049 A 
ATOM     64  H   UNL A   1      45.970  28.458  31.502  1.00  0.00     0.167 HD
ATOM     65  C   UNL A   1      44.659  28.639  28.805  1.00  0.00     0.074 A 
ATOM     66  C   UNL A   1      44.371  27.468  29.633  1.00  0.00     0.031 C 
ATOM     67  C   UNL A   1      45.199  29.851  29.121  1.00  0.00     0.031 A 
BRANCH  54  68
ATOM     68  C   UNL A   1      44.695  28.153  34.402  1.00  0.00    -0.014 A 
ATOM     69  C   UNL A   1      44.927  28.378  35.775  1.00  0.00     0.010 A 
ATOM     70  C   UNL A   1      44.717  26.814  33.961  1.00  0.00     0.010 A 
ATOM     71  C   UNL A   1      45.207  27.340  36.662  1.00  0.00     0.020 A 
ATOM     72  C   UNL A   1      44.955  25.757  34.854  1.00  0.00     0.020 A 
ATOM     73  C   UNL A   1      45.207  26.031  36.198  1.00  0.00     0.054 A 
BRANCH  73  74
ATOM     74  S   UNL A   1      45.460  24.707  37.405  1.00  0.00     0.124 S 
ATOM     75  O   UNL A   1      44.244  24.798  38.208  1.00  0.00    -0.237 OA
ATOM     76  O   UNL A   1      45.569  23.525  36.556  1.00  0.00    -0.237 OA
ATOM     77  O   UNL A   1      46.691  25.098  38.088  1.00  0.00    -0.744 OA
ENDBRANCH  73  74
ENDBRANCH  54  68
BRANCH  55  78
ATOM     78  C   UNL A   1      41.185  26.048  26.974  1.00  0.00    -0.014 A 
ATOM     79  C   UNL A   1      40.284  25.347  27.799  1.00  0.00     0.010 A 
ATOM     80  C   UNL A   1      41.781  25.335  25.909  1.00  0.00     0.010 A 
ATOM     81  C   UNL A   1      40.069  23.975  27.648  1.00  0.00     0.020 A 
ATOM     82  C   UNL A   1      41.578  23.952  25.758  1.00  0.00     0.020 A 
ATOM     83  C   UNL A   1      40.757  23.276  26.660  1.00  0.00     0.054 A 
BRANCH  83  84
ATOM     84  S   UNL A   1      40.636  21.466  26.667  1.00  0.00     0.124 S 
ATOM     85  O   UNL A   1      40.705  21.167  28.096  1.00  0.00    -0.237 OA
ATOM     86  O   UNL A   1      39.336  21.234  26.042  1.00  0.00    -0.237 OA
ATOM     87  O   UNL A   1      41.788  21.037  25.880  1.00  0.00    -0.744 OA
ENDBRANCH  83  84
ENDBRANCH  55  78
BRANCH  67  88
ATOM     88  C   UNL A   1      45.291  30.951  28.078  1.00  0.00    -0.014 A 
ATOM     89  C   UNL A   1      46.571  31.248  27.569  1.00  0.00     0.010 A 
ATOM     90  C   UNL A   1      44.228  31.811  27.736  1.00  0.00     0.010 A 
ATOM     91  C   UNL A   1      46.799  32.383  26.788  1.00  0.00     0.020 A 
ATOM     92  C   UNL A   1      44.444  32.938  26.921  1.00  0.00     0.020 A 
ATOM     93  C   UNL A   1      45.736  33.228  26.474  1.00  0.00     0.054 A 
BRANCH  93  94
ATOM     94  S   UNL A   1      46.090  34.708  25.487  1.00  0.00     0.124 S 
ATOM     95  O   UNL A   1      47.524  34.576  25.236  1.00  0.00    -0.237 OA
ATOM     96  O   UNL A   1      45.234  34.525  24.315  1.00  0.00    -0.237 OA
ATOM     97  O   UNL A   1      45.711  35.816  26.360  1.00  0.00    -0.744 OA
ENDBRANCH  93  94
ENDBRANCH  67  88
ENDBRANCH  41  42
ENDBRANCH  33  36
ENDBRANCH  31  32
ENDBRANCH  30  31
ENDBRANCH   1  30
TORSDOF 18
ENDMDL
MODEL 3
REMARK VINA RESULT:     -11.9      3.183      9.563
REMARK SMILES COC(=O)c1ccc2c(c1)=N[C@H](c1cn(CCC(=O)NCCCNC(=O)c3ccc(-c4c5nc(c(-c6ccc(S(=O)(=O)[O-])cc6)c6ccc([nH]6)c(-c6ccc(S(=O)(=O)[O-])cc6)c6nc(c(-c7ccc(S(=O)(=O)[O-])cc7)c7ccc4[nH]7)C=C6)C=C5)cc3)c3ccccc13)N=2
REMARK SMILES IDX 21 1 20 2 18 3 19 4 17 6 16 7 15 8 13 9 14 10 92 11 87 12
REMARK SMILES IDX 91 13 88 14 90 15 89 16 12 17 5 18 6 19 10 20 7 21 9 22 8 23
REMARK SMILES IDX 11 24 93 25 3 26 4 27 2 28 1 29 22 30 23 31 24 32 25 33
REMARK SMILES IDX 26 35 27 36 28 37 86 38 29 39 85 40 30 41 31 42 32 43 79 44
REMARK SMILES IDX 33 45 84 46 78 47 80 48 34 49 83 50 77 51 76 52 35 54 65 55
REMARK SMILES IDX 46 56 64 57 47 58 50 59 63 60 81 61 48 62 49 63 62 65 82 66
REMARK SMILES IDX 51 67 36 68 37 69 45 70 38 71 44 72 39 73 40 74 41 75 42 76
REMARK SMILES IDX 43 77 66 78 67 79 75 80 68 81 74 82 69 83 70 84 71 85 72 86
REMARK SMILES IDX 73 87 52 88 53 89 61 90 54 91 60 92 55 93 56 94 57 95 58 96
REMARK SMILES IDX 59 97
REMARK H PARENT 20 5 24 34 80 53 50 64
REMARK Flexibility Score: inf
ROOT
ATOM      1  C   UNL A   1      34.306  29.155  27.565  1.00  0.00     0.117 C 
ENDROOT
BRANCH   1   2
ATOM      2  N   UNL A   1      33.187  30.077  27.346  1.00  0.00    -0.356 N 
ATOM      3  C   UNL A   1      32.282  30.248  26.336  1.00  0.00     0.221 C 
ATOM      4  O   UNL A   1      31.353  31.036  26.550  1.00  0.00    -0.275 OA
ATOM      5  H   UNL A   1      33.060  30.710  28.090  1.00  0.00     0.163 HD
BRANCH   3   6
ATOM      6  C   UNL A   1      32.324  29.481  25.025  1.00  0.00     0.122 C 
BRANCH   6   7
ATOM      7  C   UNL A   1      30.909  29.215  24.442  1.00  0.00     0.132 C 
BRANCH   7   8
ATOM      8  N   UNL A   1      30.653  27.814  24.068  1.00  0.00    -0.347 N 
ATOM      9  C   UNL A   1      31.270  26.017  25.175  1.00  0.00     0.024 A 
ATOM     10  C   UNL A   1      30.233  26.946  25.044  1.00  0.00     0.094 A 
ATOM     11  C   UNL A   1      32.340  26.534  24.332  1.00  0.00     0.007 A 
ATOM     12  C   UNL A   1      31.529  27.050  23.317  1.00  0.00     0.048 A 
ATOM     13  C   UNL A   1      33.600  26.132  23.866  1.00  0.00     0.011 A 
ATOM     14  C   UNL A   1      31.495  26.343  22.098  1.00  0.00     0.027 A 
ATOM     15  C   UNL A   1      33.741  25.607  22.589  1.00  0.00     0.001 A 
ATOM     16  C   UNL A   1      32.624  25.565  21.776  1.00  0.00     0.002 A 
BRANCH   9  17
ATOM     17  C   UNL A   1      30.995  24.711  25.852  1.00  0.00     0.255 C 
ATOM     18  C   UNL A   1      33.894  21.319  25.597  1.00  0.00     0.062 A 
ATOM     19  C   UNL A   1      33.715  21.397  27.039  1.00  0.00     0.018 A 
ATOM     20  C   UNL A   1      33.060  21.964  24.762  1.00  0.00     0.046 A 
ATOM     21  C   UNL A   1      32.940  22.308  27.643  1.00  0.00     0.031 A 
ATOM     22  C   UNL A   1      32.162  22.953  25.364  1.00  0.00     0.087 A 
ATOM     23  C   UNL A   1      32.285  23.286  26.791  1.00  0.00     0.086 A 
ATOM     24  N   UNL A   1      31.291  23.695  24.792  1.00  0.00    -0.252 NA
ATOM     25  N   UNL A   1      31.757  24.423  27.090  1.00  0.00    -0.252 NA
BRANCH  18  26
ATOM     26  C   UNL A   1      34.962  20.480  24.983  1.00  0.00     0.337 C 
ATOM     27  O   UNL A   1      36.098  20.882  24.723  1.00  0.00    -0.246 OA
BRANCH  26  28
ATOM     28  O   UNL A   1      34.520  19.212  24.798  1.00  0.00    -0.465 OA
ATOM     29  C   UNL A   1      33.119  19.064  24.546  1.00  0.00     0.282 C 
ENDBRANCH  26  28
ENDBRANCH  18  26
ENDBRANCH   9  17
ENDBRANCH   7   8
ENDBRANCH   6   7
ENDBRANCH   3   6
ENDBRANCH   1   2
BRANCH   1  30
ATOM     30  C   UNL A   1      35.745  29.742  27.553  1.00  0.00     0.042 C 
BRANCH  30  31
ATOM     31  C   UNL A   1      36.027  31.076  28.256  1.00  0.00     0.118 C 
BRANCH  31  32
ATOM     32  N   UNL A   1      35.472  31.278  29.576  1.00  0.00    -0.352 N 
ATOM     33  C   UNL A   1      36.023  31.263  30.835  1.00  0.00     0.251 C 
ATOM     34  H   UNL A   1      34.505  31.463  29.572  1.00  0.00     0.163 HD
ATOM     35  O   UNL A   1      35.360  31.776  31.739  1.00  0.00    -0.269 OA
BRANCH  33  36
ATOM     36  C   UNL A   1      37.283  30.564  31.203  1.00  0.00     0.039 A 
ATOM     37  C   UNL A   1      38.445  31.145  31.705  1.00  0.00     0.014 A 
ATOM     38  C   UNL A   1      37.247  29.168  31.068  1.00  0.00     0.014 A 
ATOM     39  C   UNL A   1      39.597  30.358  31.872  1.00  0.00     0.010 A 
ATOM     40  C   UNL A   1      38.394  28.395  31.236  1.00  0.00     0.010 A 
ATOM     41  C   UNL A   1      39.616  29.007  31.495  1.00  0.00    -0.014 A 
BRANCH  41  42
ATOM     42  C   UNL A   1      40.896  28.270  31.294  1.00  0.00     0.031 A 
ATOM     43  C   UNL A   1      41.698  27.857  32.495  1.00  0.00     0.074 A 
ATOM     44  C   UNL A   1      41.318  27.913  30.050  1.00  0.00     0.049 A 
ATOM     45  N   UNL A   1      42.990  27.890  32.654  1.00  0.00    -0.248 NA
ATOM     46  C   UNL A   1      40.969  27.395  33.686  1.00  0.00     0.031 C 
ATOM     47  C   UNL A   1      40.610  28.109  28.777  1.00  0.00     0.029 A 
ATOM     48  N   UNL A   1      42.411  27.179  29.661  1.00  0.00    -0.354 N 
ATOM     49  C   UNL A   1      43.252  27.348  33.913  1.00  0.00     0.074 A 
ATOM     50  C   UNL A   1      41.965  27.133  34.532  1.00  0.00     0.031 C 
ATOM     51  C   UNL A   1      41.111  27.273  27.846  1.00  0.00     0.029 A 
ATOM     52  C   UNL A   1      42.259  26.587  28.403  1.00  0.00     0.049 A 
ATOM     53  H   UNL A   1      43.221  27.081  30.211  1.00  0.00     0.167 HD
ATOM     54  C   UNL A   1      44.490  26.982  34.355  1.00  0.00     0.031 A 
ATOM     55  C   UNL A   1      42.938  25.529  27.883  1.00  0.00     0.031 A 
ATOM     56  C   UNL A   1      45.570  27.629  33.669  1.00  0.00     0.049 A 
ATOM     57  C   UNL A   1      44.224  25.439  28.603  1.00  0.00     0.074 A 
ATOM     58  C   UNL A   1      46.123  28.891  33.647  1.00  0.00     0.029 A 
ATOM     59  N   UNL A   1      46.209  26.966  32.657  1.00  0.00    -0.354 N 
ATOM     60  N   UNL A   1      45.179  26.318  28.504  1.00  0.00    -0.248 NA
ATOM     61  C   UNL A   1      44.269  24.571  29.766  1.00  0.00     0.031 C 
ATOM     62  C   UNL A   1      46.554  29.082  32.310  1.00  0.00     0.029 A 
ATOM     63  C   UNL A   1      46.389  27.871  31.643  1.00  0.00     0.049 A 
ATOM     64  H   UNL A   1      46.485  26.021  32.657  1.00  0.00     0.167 HD
ATOM     65  C   UNL A   1      45.687  26.415  29.788  1.00  0.00     0.074 A 
ATOM     66  C   UNL A   1      45.125  25.272  30.508  1.00  0.00     0.031 C 
ATOM     67  C   UNL A   1      46.305  27.544  30.238  1.00  0.00     0.031 A 
BRANCH  54  68
ATOM     68  C   UNL A   1      44.704  25.818  35.287  1.00  0.00    -0.014 A 
ATOM     69  C   UNL A   1      44.670  24.486  34.825  1.00  0.00     0.010 A 
ATOM     70  C   UNL A   1      45.191  26.031  36.593  1.00  0.00     0.010 A 
ATOM     71  C   UNL A   1      45.058  23.412  35.625  1.00  0.00     0.020 A 
ATOM     72  C   UNL A   1      45.626  24.961  37.391  1.00  0.00     0.020 A 
ATOM     73  C   UNL A   1      45.548  23.657  36.901  1.00  0.00     0.054 A 
BRANCH  73  74
ATOM     74  S   UNL A   1      46.149  22.245  37.861  1.00  0.00     0.124 S 
ATOM     75  O   UNL A   1      45.425  22.410  39.119  1.00  0.00    -0.237 OA
ATOM     76  O   UNL A   1      45.737  21.110  37.040  1.00  0.00    -0.237 OA
ATOM     77  O   UNL A   1      47.590  22.470  37.934  1.00  0.00    -0.744 OA
ENDBRANCH  73  74
ENDBRANCH  54  68
BRANCH  55  78
ATOM     78  C   UNL A   1      42.298  24.306  27.297  1.00  0.00    -0.014 A 
ATOM     79  C   UNL A   1      41.432  23.512  28.073  1.00  0.00     0.010 A 
ATOM     80  C   UNL A   1      42.803  23.743  26.103  1.00  0.00     0.010 A 
ATOM     81  C   UNL A   1      41.168  22.181  27.743  1.00  0.00     0.020 A 
ATOM     82  C   UNL A   1      42.550  22.400  25.771  1.00  0.00     0.020 A 
ATOM     83  C   UNL A   1      41.769  21.618  26.621  1.00  0.00     0.054 A 
BRANCH  83  84
ATOM     84  S   UNL A   1      41.595  19.828  26.378  1.00  0.00     0.124 S 
ATOM     85  O   UNL A   1      42.471  19.595  25.232  1.00  0.00    -0.237 OA
ATOM     86  O   UNL A   1      42.072  19.289  27.650  1.00  0.00    -0.237 OA
ATOM     87  O   UNL A   1      40.169  19.650  26.124  1.00  0.00    -0.744 OA
ENDBRANCH  83  84
ENDBRANCH  55  78
BRANCH  67  88
ATOM     88  C   UNL A   1      46.702  28.644  29.271  1.00  0.00    -0.014 A 
ATOM     89  C   UNL A   1      48.078  28.798  29.002  1.00  0.00     0.010 A 
ATOM     90  C   UNL A   1      45.821  29.631  28.783  1.00  0.00     0.010 A 
ATOM     91  C   UNL A   1      48.568  29.911  28.318  1.00  0.00     0.020 A 
ATOM     92  C   UNL A   1      46.304  30.739  28.062  1.00  0.00     0.020 A 
ATOM     93  C   UNL A   1      47.679  30.882  27.857  1.00  0.00     0.054 A 
BRANCH  93  94
ATOM     94  S   UNL A   1      48.367  32.328  27.005  1.00  0.00     0.124 S 
ATOM     95  O   UNL A   1      49.551  31.769  26.355  1.00  0.00    -0.237 OA
ATOM     96  O   UNL A   1      47.285  32.712  26.101  1.00  0.00    -0.237 OA
ATOM     97  O   UNL A   1      48.640  33.277  28.081  1.00  0.00    -0.744 OA
ENDBRANCH  93  94
ENDBRANCH  67  88
ENDBRANCH  41  42
ENDBRANCH  33  36
ENDBRANCH  31  32
ENDBRANCH  30  31
ENDBRANCH   1  30
TORSDOF 18
ENDMDL
