MODEL 1
REMARK VINA RESULT:     -12.0      0.000      0.000
REMARK SMILES CC(C)c1cc(N2CCC(C(=O)NCCCNC(=O)c3ccc(-c4c5nc(c(-c6ccc(S(=O)(=O)[O-])cc6)c6ccc([nH]6)c(-c6ccc(S(=O)(=O)[O-])cc6)c6nc(c(-c7ccc(S(=O)(=O)[O-])cc7)c7ccc4[nH]7)C=C6)C=C5)cc3)CC2)nc(-c2ccc(F)cc2)n1
REMARK SMILES IDX 15 1 14 2 13 3 11 4 12 5 10 7 7 8 8 9 81 10 9 11 80 12 6 13
REMARK SMILES IDX 4 14 5 15 91 16 83 17 82 18 2 19 1 20 3 21 84 22 85 23 90 24
REMARK SMILES IDX 86 25 89 26 87 27 88 28 16 29 17 30 18 31 19 33 20 34 21 35
REMARK SMILES IDX 79 36 22 37 78 38 23 39 24 40 25 41 72 42 26 43 77 44 71 45
REMARK SMILES IDX 73 46 27 47 76 48 70 49 69 50 28 52 58 53 39 54 57 55 40 56
REMARK SMILES IDX 43 57 56 58 74 59 41 60 42 61 55 63 75 64 44 65 29 66 30 67
REMARK SMILES IDX 38 68 31 69 37 70 32 71 33 72 34 73 35 74 36 75 59 76 60 77
REMARK SMILES IDX 68 78 61 79 67 80 62 81 63 82 64 83 65 84 66 85 45 86 46 87
REMARK SMILES IDX 54 88 47 89 53 90 48 91 49 92 50 93 51 94 52 95
REMARK H PARENT 13 6 17 32 73 51 43 62
REMARK Flexibility Score: inf
ROOT
ATOM      1  C   UNL A   1      36.220  23.551  24.454  1.00  0.00     0.042 C 
ENDROOT
BRANCH   1   2
ATOM      2  C   UNL A   1      34.768  23.225  24.125  1.00  0.00     0.117 C 
BRANCH   2   3
ATOM      3  N   UNL A   1      34.406  21.848  24.443  1.00  0.00    -0.356 N 
ATOM      4  C   UNL A   1      33.191  21.271  24.667  1.00  0.00     0.223 C 
ATOM      5  O   UNL A   1      33.161  20.055  24.878  1.00  0.00    -0.275 OA
ATOM      6  H   UNL A   1      35.169  21.230  24.506  1.00  0.00     0.163 HD
BRANCH   4   7
ATOM      7  C   UNL A   1      31.902  22.079  24.656  1.00  0.00     0.082 C 
ATOM      8  N   UNL A   1      31.002  24.725  24.380  1.00  0.00    -0.356 N 
ATOM      9  C   UNL A   1      30.856  24.154  25.708  1.00  0.00     0.119 C 
ATOM     10  C   UNL A   1      30.676  23.866  23.263  1.00  0.00     0.119 C 
ATOM     11  C   UNL A   1      31.868  23.036  25.859  1.00  0.00     0.035 C 
ATOM     12  C   UNL A   1      31.647  22.688  23.262  1.00  0.00     0.035 C 
BRANCH   8  13
ATOM     13  C   UNL A   1      30.917  26.097  24.307  1.00  0.00     0.132 A 
ATOM     14  C   UNL A   1      29.916  28.096  23.550  1.00  0.00     0.049 A 
ATOM     15  C   UNL A   1      30.011  26.719  23.472  1.00  0.00     0.071 A 
ATOM     16  N   UNL A   1      30.706  28.816  24.366  1.00  0.00    -0.233 NA
ATOM     17  C   UNL A   1      31.575  28.132  25.130  1.00  0.00     0.161 A 
ATOM     18  N   UNL A   1      31.711  26.796  25.134  1.00  0.00    -0.211 NA
BRANCH  14  19
ATOM     19  C   UNL A   1      28.923  28.846  22.686  1.00  0.00     0.032 C 
ATOM     20  C   UNL A   1      27.478  28.614  23.136  1.00  0.00     0.014 C 
ATOM     21  C   UNL A   1      29.251  30.339  22.680  1.00  0.00     0.014 C 
ENDBRANCH  14  19
BRANCH  17  22
ATOM     22  C   UNL A   1      32.464  28.918  25.990  1.00  0.00     0.019 A 
ATOM     23  C   UNL A   1      32.119  30.223  26.393  1.00  0.00     0.015 A 
ATOM     24  C   UNL A   1      33.703  28.397  26.409  1.00  0.00     0.015 A 
ATOM     25  C   UNL A   1      32.983  30.985  27.186  1.00  0.00     0.040 A 
ATOM     26  C   UNL A   1      34.575  29.165  27.186  1.00  0.00     0.040 A 
ATOM     27  C   UNL A   1      34.207  30.450  27.567  1.00  0.00     0.123 A 
ATOM     28  F   UNL A   1      35.051  31.178  28.309  1.00  0.00    -0.207 F 
ENDBRANCH  17  22
ENDBRANCH   8  13
ENDBRANCH   4   7
ENDBRANCH   2   3
ENDBRANCH   1   2
BRANCH   1  29
ATOM     29  C   UNL A   1      36.619  23.260  25.895  1.00  0.00     0.118 C 
BRANCH  29  30
ATOM     30  N   UNL A   1      37.831  22.457  25.997  1.00  0.00    -0.352 N 
ATOM     31  C   UNL A   1      39.108  22.817  26.355  1.00  0.00     0.251 C 
ATOM     32  H   UNL A   1      37.716  21.505  25.773  1.00  0.00     0.163 HD
ATOM     33  O   UNL A   1      40.030  22.021  26.192  1.00  0.00    -0.269 OA
BRANCH  31  34
ATOM     34  C   UNL A   1      39.380  24.162  26.906  1.00  0.00     0.039 A 
ATOM     35  C   UNL A   1      38.977  24.453  28.212  1.00  0.00     0.014 A 
ATOM     36  C   UNL A   1      40.033  25.134  26.144  1.00  0.00     0.014 A 
ATOM     37  C   UNL A   1      39.321  25.680  28.787  1.00  0.00     0.010 A 
ATOM     38  C   UNL A   1      40.442  26.323  26.741  1.00  0.00     0.010 A 
ATOM     39  C   UNL A   1      40.107  26.601  28.075  1.00  0.00    -0.014 A 
BRANCH  39  40
ATOM     40  C   UNL A   1      40.643  27.828  28.719  1.00  0.00     0.031 A 
ATOM     41  C   UNL A   1      42.041  27.852  29.273  1.00  0.00     0.074 A 
ATOM     42  C   UNL A   1      39.829  28.890  28.891  1.00  0.00     0.049 A 
ATOM     43  N   UNL A   1      42.636  28.789  29.966  1.00  0.00    -0.248 NA
ATOM     44  C   UNL A   1      42.872  26.661  29.034  1.00  0.00     0.031 C 
ATOM     45  C   UNL A   1      38.443  28.980  28.426  1.00  0.00     0.029 A 
ATOM     46  N   UNL A   1      40.044  30.092  29.518  1.00  0.00    -0.354 N 
ATOM     47  C   UNL A   1      43.902  28.297  30.260  1.00  0.00     0.074 A 
ATOM     48  C   UNL A   1      43.975  26.962  29.706  1.00  0.00     0.031 C 
ATOM     49  C   UNL A   1      37.939  30.176  28.767  1.00  0.00     0.029 A 
ATOM     50  C   UNL A   1      38.942  30.916  29.524  1.00  0.00     0.049 A 
ATOM     51  H   UNL A   1      40.905  30.342  29.925  1.00  0.00     0.167 HD
ATOM     52  C   UNL A   1      44.915  28.907  30.920  1.00  0.00     0.031 A 
ATOM     53  C   UNL A   1      38.748  32.121  30.096  1.00  0.00     0.031 A 
ATOM     54  C   UNL A   1      44.836  30.235  31.471  1.00  0.00     0.049 A 
ATOM     55  C   UNL A   1      39.871  32.755  30.869  1.00  0.00     0.074 A 
ATOM     56  C   UNL A   1      45.827  30.962  32.107  1.00  0.00     0.029 A 
ATOM     57  N   UNL A   1      43.700  31.030  31.465  1.00  0.00    -0.354 N 
ATOM     58  N   UNL A   1      41.086  32.305  31.074  1.00  0.00    -0.248 NA
ATOM     59  C   UNL A   1      39.599  34.059  31.489  1.00  0.00     0.031 C 
ATOM     60  C   UNL A   1      45.272  32.169  32.543  1.00  0.00     0.029 A 
ATOM     61  C   UNL A   1      43.953  32.223  32.122  1.00  0.00     0.049 A 
ATOM     62  H   UNL A   1      42.840  30.784  31.053  1.00  0.00     0.167 HD
ATOM     63  C   UNL A   1      41.727  33.277  31.832  1.00  0.00     0.074 A 
ATOM     64  C   UNL A   1      40.774  34.349  32.032  1.00  0.00     0.031 C 
ATOM     65  C   UNL A   1      42.992  33.278  32.321  1.00  0.00     0.031 A 
BRANCH  52  66
ATOM     66  C   UNL A   1      46.200  28.138  31.098  1.00  0.00    -0.014 A 
ATOM     67  C   UNL A   1      46.397  27.298  32.208  1.00  0.00     0.010 A 
ATOM     68  C   UNL A   1      47.203  28.216  30.115  1.00  0.00     0.010 A 
ATOM     69  C   UNL A   1      47.589  26.582  32.352  1.00  0.00     0.020 A 
ATOM     70  C   UNL A   1      48.384  27.479  30.239  1.00  0.00     0.020 A 
ATOM     71  C   UNL A   1      48.576  26.678  31.367  1.00  0.00     0.054 A 
BRANCH  71  72
ATOM     72  S   UNL A   1      50.102  25.718  31.569  1.00  0.00     0.124 S 
ATOM     73  O   UNL A   1      50.343  25.245  30.208  1.00  0.00    -0.237 OA
ATOM     74  O   UNL A   1      51.045  26.719  32.062  1.00  0.00    -0.237 OA
ATOM     75  O   UNL A   1      49.736  24.682  32.531  1.00  0.00    -0.744 OA
ENDBRANCH  71  72
ENDBRANCH  52  66
BRANCH  53  76
ATOM     76  C   UNL A   1      37.426  32.795  29.974  1.00  0.00    -0.014 A 
ATOM     77  C   UNL A   1      36.457  32.658  30.983  1.00  0.00     0.010 A 
ATOM     78  C   UNL A   1      37.136  33.597  28.854  1.00  0.00     0.010 A 
ATOM     79  C   UNL A   1      35.219  33.299  30.869  1.00  0.00     0.020 A 
ATOM     80  C   UNL A   1      35.911  34.262  28.750  1.00  0.00     0.020 A 
ATOM     81  C   UNL A   1      34.956  34.101  29.754  1.00  0.00     0.054 A 
BRANCH  81  82
ATOM     82  S   UNL A   1      33.367  34.971  29.655  1.00  0.00     0.124 S 
ATOM     83  O   UNL A   1      33.772  36.291  29.184  1.00  0.00    -0.237 OA
ATOM     84  O   UNL A   1      32.620  34.157  28.699  1.00  0.00    -0.237 OA
ATOM     85  O   UNL A   1      32.864  34.920  31.027  1.00  0.00    -0.744 OA
ENDBRANCH  81  82
ENDBRANCH  53  76
BRANCH  65  86
ATOM     86  C   UNL A   1      43.430  34.480  33.117  1.00  0.00    -0.014 A 
ATOM     87  C   UNL A   1      43.797  35.677  32.477  1.00  0.00     0.010 A 
ATOM     88  C   UNL A   1      43.395  34.438  34.523  1.00  0.00     0.010 A 
ATOM     89  C   UNL A   1      44.135  36.806  33.228  1.00  0.00     0.020 A 
ATOM     90  C   UNL A   1      43.704  35.573  35.277  1.00  0.00     0.020 A 
ATOM     91  C   UNL A   1      44.080  36.749  34.624  1.00  0.00     0.054 A 
BRANCH  91  92
ATOM     92  S   UNL A   1      44.451  38.250  35.571  1.00  0.00     0.124 S 
ATOM     93  O   UNL A   1      45.908  38.212  35.646  1.00  0.00    -0.237 OA
ATOM     94  O   UNL A   1      43.893  39.305  34.729  1.00  0.00    -0.237 OA
ATOM     95  O   UNL A   1      43.756  38.041  36.840  1.00  0.00    -0.744 OA
ENDBRANCH  91  92
ENDBRANCH  65  86
ENDBRANCH  39  40
ENDBRANCH  31  34
ENDBRANCH  29  30
ENDBRANCH   1  29
TORSDOF 16
ENDMDL
MODEL 2
REMARK VINA RESULT:     -11.5      3.292      4.001
REMARK SMILES CC(C)c1cc(N2CCC(C(=O)NCCCNC(=O)c3ccc(-c4c5nc(c(-c6ccc(S(=O)(=O)[O-])cc6)c6ccc([nH]6)c(-c6ccc(S(=O)(=O)[O-])cc6)c6nc(c(-c7ccc(S(=O)(=O)[O-])cc7)c7ccc4[nH]7)C=C6)C=C5)cc3)CC2)nc(-c2ccc(F)cc2)n1
REMARK SMILES IDX 15 1 14 2 13 3 11 4 12 5 10 7 7 8 8 9 81 10 9 11 80 12 6 13
REMARK SMILES IDX 4 14 5 15 91 16 83 17 82 18 2 19 1 20 3 21 84 22 85 23 90 24
REMARK SMILES IDX 86 25 89 26 87 27 88 28 16 29 17 30 18 31 19 33 20 34 21 35
REMARK SMILES IDX 79 36 22 37 78 38 23 39 24 40 25 41 72 42 26 43 77 44 71 45
REMARK SMILES IDX 73 46 27 47 76 48 70 49 69 50 28 52 58 53 39 54 57 55 40 56
REMARK SMILES IDX 43 57 56 58 74 59 41 60 42 61 55 63 75 64 44 65 29 66 30 67
REMARK SMILES IDX 38 68 31 69 37 70 32 71 33 72 34 73 35 74 36 75 59 76 60 77
REMARK SMILES IDX 68 78 61 79 67 80 62 81 63 82 64 83 65 84 66 85 45 86 46 87
REMARK SMILES IDX 54 88 47 89 53 90 48 91 49 92 50 93 51 94 52 95
REMARK H PARENT 13 6 17 32 73 51 43 62
REMARK Flexibility Score: inf
ROOT
ATOM      1  C   UNL A   1      36.978  24.122  25.756  1.00  0.00     0.042 C 
ENDROOT
BRANCH   1   2
ATOM      2  C   UNL A   1      35.775  23.434  26.390  1.00  0.00     0.117 C 
BRANCH   2   3
ATOM      3  N   UNL A   1      35.720  22.004  26.106  1.00  0.00    -0.356 N 
ATOM      4  C   UNL A   1      34.996  21.300  25.190  1.00  0.00     0.223 C 
ATOM      5  O   UNL A   1      35.172  20.080  25.131  1.00  0.00    -0.275 OA
ATOM      6  H   UNL A   1      36.304  21.453  26.675  1.00  0.00     0.163 HD
BRANCH   4   7
ATOM      7  C   UNL A   1      34.005  21.978  24.255  1.00  0.00     0.082 C 
ATOM      8  N   UNL A   1      32.725  24.449  23.871  1.00  0.00    -0.356 N 
ATOM      9  C   UNL A   1      31.864  23.363  24.306  1.00  0.00     0.119 C 
ATOM     10  C   UNL A   1      33.717  24.130  22.868  1.00  0.00     0.119 C 
ATOM     11  C   UNL A   1      32.718  22.333  25.018  1.00  0.00     0.035 C 
ATOM     12  C   UNL A   1      34.687  23.108  23.456  1.00  0.00     0.035 C 
BRANCH   8  13
ATOM     13  C   UNL A   1      32.215  25.717  24.029  1.00  0.00     0.132 A 
ATOM     14  C   UNL A   1      30.559  27.366  23.692  1.00  0.00     0.049 A 
ATOM     15  C   UNL A   1      31.061  26.115  23.384  1.00  0.00     0.071 A 
ATOM     16  N   UNL A   1      31.189  28.192  24.546  1.00  0.00    -0.233 NA
ATOM     17  C   UNL A   1      32.317  27.732  25.115  1.00  0.00     0.161 A 
ATOM     18  N   UNL A   1      32.856  26.523  24.891  1.00  0.00    -0.211 NA
BRANCH  14  19
ATOM     19  C   UNL A   1      29.281  27.860  23.045  1.00  0.00     0.032 C 
ATOM     20  C   UNL A   1      28.037  27.236  23.682  1.00  0.00     0.014 C 
ATOM     21  C   UNL A   1      29.212  29.385  23.111  1.00  0.00     0.014 C 
ENDBRANCH  14  19
BRANCH  17  22
ATOM     22  C   UNL A   1      33.026  28.646  26.015  1.00  0.00     0.019 A 
ATOM     23  C   UNL A   1      32.442  29.860  26.426  1.00  0.00     0.015 A 
ATOM     24  C   UNL A   1      34.325  28.347  26.466  1.00  0.00     0.015 A 
ATOM     25  C   UNL A   1      33.132  30.747  27.258  1.00  0.00     0.040 A 
ATOM     26  C   UNL A   1      35.023  29.241  27.282  1.00  0.00     0.040 A 
ATOM     27  C   UNL A   1      34.419  30.432  27.671  1.00  0.00     0.123 A 
ATOM     28  F   UNL A   1      35.098  31.283  28.451  1.00  0.00    -0.207 F 
ENDBRANCH  17  22
ENDBRANCH   8  13
ENDBRANCH   4   7
ENDBRANCH   2   3
ENDBRANCH   1   2
BRANCH   1  29
ATOM     29  C   UNL A   1      38.164  24.305  26.693  1.00  0.00     0.118 C 
BRANCH  29  30
ATOM     30  N   UNL A   1      39.438  24.380  25.989  1.00  0.00    -0.352 N 
ATOM     31  C   UNL A   1      40.539  25.169  26.225  1.00  0.00     0.251 C 
ATOM     32  H   UNL A   1      39.524  23.770  25.221  1.00  0.00     0.163 HD
ATOM     33  O   UNL A   1      41.443  25.213  25.394  1.00  0.00    -0.269 OA
BRANCH  31  34
ATOM     34  C   UNL A   1      40.626  25.984  27.457  1.00  0.00     0.039 A 
ATOM     35  C   UNL A   1      41.708  26.854  27.617  1.00  0.00     0.014 A 
ATOM     36  C   UNL A   1      39.648  25.895  28.451  1.00  0.00     0.014 A 
ATOM     37  C   UNL A   1      41.752  27.710  28.721  1.00  0.00     0.010 A 
ATOM     38  C   UNL A   1      39.652  26.800  29.508  1.00  0.00     0.010 A 
ATOM     39  C   UNL A   1      40.694  27.730  29.644  1.00  0.00    -0.014 A 
BRANCH  39  40
ATOM     40  C   UNL A   1      40.622  28.750  30.722  1.00  0.00     0.031 A 
ATOM     41  C   UNL A   1      41.470  28.618  31.958  1.00  0.00     0.074 A 
ATOM     42  C   UNL A   1      39.716  29.745  30.628  1.00  0.00     0.049 A 
ATOM     43  N   UNL A   1      41.459  29.344  33.046  1.00  0.00    -0.248 NA
ATOM     44  C   UNL A   1      42.444  27.515  31.981  1.00  0.00     0.031 C 
ATOM     45  C   UNL A   1      38.813  29.965  29.495  1.00  0.00     0.029 A 
ATOM     46  N   UNL A   1      39.392  30.749  31.506  1.00  0.00    -0.354 N 
ATOM     47  C   UNL A   1      42.408  28.779  33.888  1.00  0.00     0.074 A 
ATOM     48  C   UNL A   1      42.947  27.625  33.202  1.00  0.00     0.031 C 
ATOM     49  C   UNL A   1      38.053  31.044  29.738  1.00  0.00     0.029 A 
ATOM     50  C   UNL A   1      38.370  31.559  31.066  1.00  0.00     0.049 A 
ATOM     51  H   UNL A   1      39.847  30.879  32.370  1.00  0.00     0.167 HD
ATOM     52  C   UNL A   1      42.803  29.192  35.117  1.00  0.00     0.031 A 
ATOM     53  C   UNL A   1      37.738  32.584  31.671  1.00  0.00     0.031 A 
ATOM     54  C   UNL A   1      42.261  30.340  35.795  1.00  0.00     0.049 A 
ATOM     55  C   UNL A   1      38.159  32.991  33.056  1.00  0.00     0.074 A 
ATOM     56  C   UNL A   1      42.636  30.872  37.016  1.00  0.00     0.029 A 
ATOM     57  N   UNL A   1      41.222  31.125  35.320  1.00  0.00    -0.354 N 
ATOM     58  N   UNL A   1      39.110  32.489  33.808  1.00  0.00    -0.248 NA
ATOM     59  C   UNL A   1      37.423  34.101  33.676  1.00  0.00     0.031 C 
ATOM     60  C   UNL A   1      41.780  31.938  37.309  1.00  0.00     0.029 A 
ATOM     61  C   UNL A   1      40.914  32.112  36.242  1.00  0.00     0.049 A 
ATOM     62  H   UNL A   1      40.769  31.000  34.454  1.00  0.00     0.167 HD
ATOM     63  C   UNL A   1      39.096  33.233  34.982  1.00  0.00     0.074 A 
ATOM     64  C   UNL A   1      38.058  34.231  34.834  1.00  0.00     0.031 C 
ATOM     65  C   UNL A   1      39.872  33.096  36.085  1.00  0.00     0.031 A 
BRANCH  52  66
ATOM     66  C   UNL A   1      43.868  28.387  35.818  1.00  0.00    -0.014 A 
ATOM     67  C   UNL A   1      45.230  28.705  35.679  1.00  0.00     0.010 A 
ATOM     68  C   UNL A   1      43.498  27.329  36.669  1.00  0.00     0.010 A 
ATOM     69  C   UNL A   1      46.205  27.957  36.347  1.00  0.00     0.020 A 
ATOM     70  C   UNL A   1      44.466  26.597  37.361  1.00  0.00     0.020 A 
ATOM     71  C   UNL A   1      45.816  26.906  37.183  1.00  0.00     0.054 A 
BRANCH  71  72
ATOM     72  S   UNL A   1      47.101  25.968  38.053  1.00  0.00     0.124 S 
ATOM     73  O   UNL A   1      46.942  24.634  37.480  1.00  0.00    -0.237 OA
ATOM     74  O   UNL A   1      48.324  26.673  37.673  1.00  0.00    -0.237 OA
ATOM     75  O   UNL A   1      46.728  26.089  39.460  1.00  0.00    -0.744 OA
ENDBRANCH  71  72
ENDBRANCH  52  66
BRANCH  53  76
ATOM     76  C   UNL A   1      36.624  33.284  30.972  1.00  0.00    -0.014 A 
ATOM     77  C   UNL A   1      36.856  33.980  29.774  1.00  0.00     0.010 A 
ATOM     78  C   UNL A   1      35.317  33.239  31.493  1.00  0.00     0.010 A 
ATOM     79  C   UNL A   1      35.806  34.630  29.116  1.00  0.00     0.020 A 
ATOM     80  C   UNL A   1      34.260  33.862  30.824  1.00  0.00     0.020 A 
ATOM     81  C   UNL A   1      34.513  34.562  29.644  1.00  0.00     0.054 A 
BRANCH  81  82
ATOM     82  S   UNL A   1      33.155  35.361  28.744  1.00  0.00     0.124 S 
ATOM     83  O   UNL A   1      33.863  36.357  27.947  1.00  0.00    -0.237 OA
ATOM     84  O   UNL A   1      32.573  34.248  27.998  1.00  0.00    -0.237 OA
ATOM     85  O   UNL A   1      32.308  35.895  29.809  1.00  0.00    -0.744 OA
ENDBRANCH  81  82
ENDBRANCH  53  76
BRANCH  65  86
ATOM     86  C   UNL A   1      39.640  34.055  37.223  1.00  0.00    -0.014 A 
ATOM     87  C   UNL A   1      38.911  33.665  38.361  1.00  0.00     0.010 A 
ATOM     88  C   UNL A   1      40.227  35.333  37.190  1.00  0.00     0.010 A 
ATOM     89  C   UNL A   1      38.762  34.542  39.439  1.00  0.00     0.020 A 
ATOM     90  C   UNL A   1      40.104  36.201  38.277  1.00  0.00     0.020 A 
ATOM     91  C   UNL A   1      39.365  35.802  39.393  1.00  0.00     0.054 A 
BRANCH  91  92
ATOM     92  S   UNL A   1      39.218  36.890  40.837  1.00  0.00     0.124 S 
ATOM     93  O   UNL A   1      38.502  36.042  41.786  1.00  0.00    -0.237 OA
ATOM     94  O   UNL A   1      40.612  37.167  41.171  1.00  0.00    -0.237 OA
ATOM     95  O   UNL A   1      38.464  38.036  40.334  1.00  0.00    -0.744 OA
ENDBRANCH  91  92
ENDBRANCH  65  86
ENDBRANCH  39  40
ENDBRANCH  31  34
ENDBRANCH  29  30
ENDBRANCH   1  29
TORSDOF 16
ENDMDL
MODEL 3
REMARK VINA RESULT:     -10.9      3.672      5.306
REMARK SMILES CC(C)c1cc(N2CCC(C(=O)NCCCNC(=O)c3ccc(-c4c5nc(c(-c6ccc(S(=O)(=O)[O-])cc6)c6ccc([nH]6)c(-c6ccc(S(=O)(=O)[O-])cc6)c6nc(c(-c7ccc(S(=O)(=O)[O-])cc7)c7ccc4[nH]7)C=C6)C=C5)cc3)CC2)nc(-c2ccc(F)cc2)n1
REMARK SMILES IDX 15 1 14 2 13 3 11 4 12 5 10 7 7 8 8 9 81 10 9 11 80 12 6 13
REMARK SMILES IDX 4 14 5 15 91 16 83 17 82 18 2 19 1 20 3 21 84 22 85 23 90 24
REMARK SMILES IDX 86 25 89 26 87 27 88 28 16 29 17 30 18 31 19 33 20 34 21 35
REMARK SMILES IDX 79 36 22 37 78 38 23 39 24 40 25 41 72 42 26 43 77 44 71 45
REMARK SMILES IDX 73 46 27 47 76 48 70 49 69 50 28 52 58 53 39 54 57 55 40 56
REMARK SMILES IDX 43 57 56 58 74 59 41 60 42 61 55 63 75 64 44 65 29 66 30 67
REMARK SMILES IDX 38 68 31 69 37 70 32 71 33 72 34 73 35 74 36 75 59 76 60 77
REMARK SMILES IDX 68 78 61 79 67 80 62 81 63 82 64 83 65 84 66 85 45 86 46 87
REMARK SMILES IDX 54 88 47 89 53 90 48 91 49 92 50 93 51 94 52 95
REMARK H PARENT 13 6 17 32 73 51 43 62
REMARK Flexibility Score: inf
ROOT
ATOM      1  C   UNL A   1      37.803  21.023  25.237  1.00  0.00     0.042 C 
ENDROOT
BRANCH   1   2
ATOM      2  C   UNL A   1      36.755  22.121  25.373  1.00  0.00     0.117 C 
BRANCH   2   3
ATOM      3  N   UNL A   1      35.872  21.929  26.519  1.00  0.00    -0.356 N 
ATOM      4  C   UNL A   1      34.609  22.381  26.760  1.00  0.00     0.223 C 
ATOM      5  O   UNL A   1      34.063  22.031  27.811  1.00  0.00    -0.275 OA
ATOM      6  H   UNL A   1      36.254  21.381  27.241  1.00  0.00     0.163 HD
BRANCH   4   7
ATOM      7  C   UNL A   1      33.874  23.280  25.778  1.00  0.00     0.082 C 
ATOM      8  N   UNL A   1      33.213  25.982  25.386  1.00  0.00    -0.356 N 
ATOM      9  C   UNL A   1      32.099  25.111  25.715  1.00  0.00     0.119 C 
ATOM     10  C   UNL A   1      34.188  25.467  24.451  1.00  0.00     0.119 C 
ATOM     11  C   UNL A   1      32.641  23.902  26.452  1.00  0.00     0.035 C 
ATOM     12  C   UNL A   1      34.854  24.242  25.074  1.00  0.00     0.035 C 
BRANCH   8  13
ATOM     13  C   UNL A   1      32.987  27.330  25.549  1.00  0.00     0.132 A 
ATOM     14  C   UNL A   1      33.597  29.479  26.312  1.00  0.00     0.049 A 
ATOM     15  C   UNL A   1      33.837  28.117  26.299  1.00  0.00     0.071 A 
ATOM     16  N   UNL A   1      32.550  30.020  25.664  1.00  0.00    -0.233 NA
ATOM     17  C   UNL A   1      31.761  29.179  24.975  1.00  0.00     0.161 A 
ATOM     18  N   UNL A   1      31.939  27.851  24.889  1.00  0.00    -0.211 NA
BRANCH  14  19
ATOM     19  C   UNL A   1      34.505  30.410  27.089  1.00  0.00     0.032 C 
ATOM     20  C   UNL A   1      33.719  31.498  27.826  1.00  0.00     0.014 C 
ATOM     21  C   UNL A   1      35.365  29.611  28.068  1.00  0.00     0.014 C 
ENDBRANCH  14  19
BRANCH  17  22
ATOM     22  C   UNL A   1      30.597  29.762  24.302  1.00  0.00     0.019 A 
ATOM     23  C   UNL A   1      30.175  31.075  24.587  1.00  0.00     0.015 A 
ATOM     24  C   UNL A   1      29.850  29.009  23.376  1.00  0.00     0.015 A 
ATOM     25  C   UNL A   1      29.044  31.619  23.969  1.00  0.00     0.040 A 
ATOM     26  C   UNL A   1      28.709  29.545  22.773  1.00  0.00     0.040 A 
ATOM     27  C   UNL A   1      28.318  30.845  23.075  1.00  0.00     0.123 A 
ATOM     28  F   UNL A   1      27.221  31.348  22.493  1.00  0.00    -0.207 F 
ENDBRANCH  17  22
ENDBRANCH   8  13
ENDBRANCH   4   7
ENDBRANCH   2   3
ENDBRANCH   1   2
BRANCH   1  29
ATOM     29  C   UNL A   1      39.125  21.326  25.930  1.00  0.00     0.118 C 
BRANCH  29  30
ATOM     30  N   UNL A   1      39.996  20.161  26.025  1.00  0.00    -0.352 N 
ATOM     31  C   UNL A   1      41.362  20.082  26.164  1.00  0.00     0.251 C 
ATOM     32  H   UNL A   1      39.534  19.293  25.980  1.00  0.00     0.163 HD
ATOM     33  O   UNL A   1      41.922  18.996  26.031  1.00  0.00    -0.269 OA
BRANCH  31  34
ATOM     34  C   UNL A   1      42.158  21.297  26.442  1.00  0.00     0.039 A 
ATOM     35  C   UNL A   1      42.506  22.136  25.380  1.00  0.00     0.014 A 
ATOM     36  C   UNL A   1      42.560  21.613  27.742  1.00  0.00     0.014 A 
ATOM     37  C   UNL A   1      43.164  23.342  25.636  1.00  0.00     0.010 A 
ATOM     38  C   UNL A   1      43.144  22.849  28.005  1.00  0.00     0.010 A 
ATOM     39  C   UNL A   1      43.435  23.735  26.957  1.00  0.00    -0.014 A 
BRANCH  39  40
ATOM     40  C   UNL A   1      43.965  25.086  27.273  1.00  0.00     0.031 A 
ATOM     41  C   UNL A   1      45.426  25.396  27.094  1.00  0.00     0.074 A 
ATOM     42  C   UNL A   1      43.141  26.006  27.816  1.00  0.00     0.049 A 
ATOM     43  N   UNL A   1      46.085  26.476  27.424  1.00  0.00    -0.248 NA
ATOM     44  C   UNL A   1      46.258  24.347  26.483  1.00  0.00     0.031 C 
ATOM     45  C   UNL A   1      41.710  25.819  28.069  1.00  0.00     0.029 A 
ATOM     46  N   UNL A   1      43.391  27.277  28.270  1.00  0.00    -0.354 N 
ATOM     47  C   UNL A   1      47.409  26.234  27.076  1.00  0.00     0.074 A 
ATOM     48  C   UNL A   1      47.466  24.888  26.549  1.00  0.00     0.031 C 
ATOM     49  C   UNL A   1      41.207  26.937  28.613  1.00  0.00     0.029 A 
ATOM     50  C   UNL A   1      42.286  27.900  28.804  1.00  0.00     0.049 A 
ATOM     51  H   UNL A   1      44.277  27.704  28.219  1.00  0.00     0.167 HD
ATOM     52  C   UNL A   1      48.476  27.063  27.177  1.00  0.00     0.031 A 
ATOM     53  C   UNL A   1      42.157  29.100  29.404  1.00  0.00     0.031 A 
ATOM     54  C   UNL A   1      48.413  28.401  27.704  1.00  0.00     0.049 A 
ATOM     55  C   UNL A   1      43.367  29.980  29.551  1.00  0.00     0.074 A 
ATOM     56  C   UNL A   1      49.427  29.338  27.795  1.00  0.00     0.029 A 
ATOM     57  N   UNL A   1      47.278  28.988  28.244  1.00  0.00    -0.354 N 
ATOM     58  N   UNL A   1      44.597  29.762  29.150  1.00  0.00    -0.248 NA
ATOM     59  C   UNL A   1      43.174  31.268  30.231  1.00  0.00     0.031 C 
ATOM     60  C   UNL A   1      48.922  30.467  28.447  1.00  0.00     0.029 A 
ATOM     61  C   UNL A   1      47.577  30.259  28.706  1.00  0.00     0.049 A 
ATOM     62  H   UNL A   1      46.390  28.565  28.290  1.00  0.00     0.167 HD
ATOM     63  C   UNL A   1      45.320  30.892  29.515  1.00  0.00     0.074 A 
ATOM     64  C   UNL A   1      44.387  31.799  30.150  1.00  0.00     0.031 C 
ATOM     65  C   UNL A   1      46.640  31.150  29.343  1.00  0.00     0.031 A 
BRANCH  52  66
ATOM     66  C   UNL A   1      49.814  26.541  26.718  1.00  0.00    -0.014 A 
ATOM     67  C   UNL A   1      50.678  25.875  27.605  1.00  0.00     0.010 A 
ATOM     68  C   UNL A   1      50.190  26.673  25.368  1.00  0.00     0.010 A 
ATOM     69  C   UNL A   1      51.911  25.385  27.160  1.00  0.00     0.020 A 
ATOM     70  C   UNL A   1      51.408  26.159  24.913  1.00  0.00     0.020 A 
ATOM     71  C   UNL A   1      52.268  25.533  25.817  1.00  0.00     0.054 A 
BRANCH  71  72
ATOM     72  S   UNL A   1      53.862  24.867  25.265  1.00  0.00     0.124 S 
ATOM     73  O   UNL A   1      54.720  25.147  26.414  1.00  0.00    -0.237 OA
ATOM     74  O   UNL A   1      53.558  23.456  25.039  1.00  0.00    -0.237 OA
ATOM     75  O   UNL A   1      54.164  25.637  24.061  1.00  0.00    -0.744 OA
ENDBRANCH  71  72
ENDBRANCH  52  66
BRANCH  53  76
ATOM     76  C   UNL A   1      40.830  29.527  29.930  1.00  0.00    -0.014 A 
ATOM     77  C   UNL A   1      40.512  29.360  31.288  1.00  0.00     0.010 A 
ATOM     78  C   UNL A   1      39.884  30.123  29.075  1.00  0.00     0.010 A 
ATOM     79  C   UNL A   1      39.268  29.769  31.781  1.00  0.00     0.020 A 
ATOM     80  C   UNL A   1      38.652  30.560  29.569  1.00  0.00     0.020 A 
ATOM     81  C   UNL A   1      38.347  30.370  30.917  1.00  0.00     0.054 A 
BRANCH  81  82
ATOM     82  S   UNL A   1      36.764  30.948  31.588  1.00  0.00     0.124 S 
ATOM     83  O   UNL A   1      37.163  31.499  32.878  1.00  0.00    -0.237 OA
ATOM     84  O   UNL A   1      36.333  31.921  30.588  1.00  0.00    -0.237 OA
ATOM     85  O   UNL A   1      35.955  29.732  31.648  1.00  0.00    -0.744 OA
ENDBRANCH  81  82
ENDBRANCH  53  76
BRANCH  65  86
ATOM     86  C   UNL A   1      47.161  32.473  29.838  1.00  0.00    -0.014 A 
ATOM     87  C   UNL A   1      47.707  32.600  31.128  1.00  0.00     0.010 A 
ATOM     88  C   UNL A   1      47.179  33.585  28.975  1.00  0.00     0.010 A 
ATOM     89  C   UNL A   1      48.249  33.816  31.550  1.00  0.00     0.020 A 
ATOM     90  C   UNL A   1      47.746  34.794  29.383  1.00  0.00     0.020 A 
ATOM     91  C   UNL A   1      48.272  34.904  30.672  1.00  0.00     0.054 A 
BRANCH  91  92
ATOM     92  S   UNL A   1      49.050  36.448  31.221  1.00  0.00     0.124 S 
ATOM     93  O   UNL A   1      50.238  36.509  30.375  1.00  0.00    -0.237 OA
ATOM     94  O   UNL A   1      48.022  37.444  30.931  1.00  0.00    -0.237 OA
ATOM     95  O   UNL A   1      49.307  36.222  32.642  1.00  0.00    -0.744 OA
ENDBRANCH  91  92
ENDBRANCH  65  86
ENDBRANCH  39  40
ENDBRANCH  31  34
ENDBRANCH  29  30
ENDBRANCH   1  29
TORSDOF 16
ENDMDL
