MODEL 1
REMARK VINA RESULT:     -12.5      0.000      0.000
REMARK SMILES C[C@@]1(CN2C(=O)c3ccc(C(=O)NCCCNC(=O)c4ccc(-c5c6nc(c(-c7ccc(S(=O)(=O)[O-])cc7)c7ccc([nH]7)c(-c7ccc(S(=O)(=O)[O-])cc7)c7nc(c(-c8ccc(S(=O)(=O)[O-])cc8)c8ccc5[nH]8)C=C7)C=C6)cc4)cc3C2=O)CCCO1
REMARK SMILES IDX 15 1 14 2 13 3 11 4 12 5 10 7 4 8 5 9 82 10 6 11 7 12 81 13
REMARK SMILES IDX 83 14 8 15 80 16 9 17 3 18 2 19 1 20 84 21 87 22 85 23 86 24
REMARK SMILES IDX 16 25 17 26 18 27 19 29 20 30 21 31 79 32 22 33 78 34 23 35
REMARK SMILES IDX 24 36 25 37 72 38 26 39 77 40 71 41 73 42 27 43 76 44 70 45
REMARK SMILES IDX 69 46 28 48 58 49 39 50 57 51 40 52 43 53 56 54 74 55 41 56
REMARK SMILES IDX 42 57 55 59 75 60 44 61 29 62 30 63 38 64 31 65 37 66 32 67
REMARK SMILES IDX 33 68 34 69 35 70 36 71 59 72 60 73 68 74 61 75 67 76 62 77
REMARK SMILES IDX 63 78 64 79 65 80 66 81 45 82 46 83 54 84 47 85 53 86 48 87
REMARK SMILES IDX 49 88 50 89 51 90 52 91
REMARK H PARENT 13 6 17 28 73 47 43 58
REMARK Flexibility Score: inf
ROOT
ATOM      1  C   UNL A   1      39.172  22.181  26.463  1.00  0.00     0.042 C 
ENDROOT
BRANCH   1   2
ATOM      2  C   UNL A   1      37.941  22.227  25.556  1.00  0.00     0.118 C 
BRANCH   2   3
ATOM      3  N   UNL A   1      36.761  21.717  26.231  1.00  0.00    -0.352 N 
ATOM      4  C   UNL A   1      35.422  21.947  26.057  1.00  0.00     0.251 C 
ATOM      5  O   UNL A   1      34.638  21.279  26.730  1.00  0.00    -0.269 OA
ATOM      6  H   UNL A   1      36.963  21.081  26.955  1.00  0.00     0.163 HD
BRANCH   4   7
ATOM      7  C   UNL A   1      34.867  22.935  25.086  1.00  0.00     0.040 A 
ATOM      8  N   UNL A   1      33.395  27.073  23.690  1.00  0.00    -0.271 N 
ATOM      9  C   UNL A   1      33.546  26.140  22.706  1.00  0.00     0.261 C 
ATOM     10  C   UNL A   1      33.720  26.569  24.924  1.00  0.00     0.261 C 
ATOM     11  O   UNL A   1      33.433  26.259  21.500  1.00  0.00    -0.269 OA
ATOM     12  C   UNL A   1      33.955  24.905  23.363  1.00  0.00     0.053 A 
ATOM     13  C   UNL A   1      34.074  25.163  24.714  1.00  0.00     0.054 A 
ATOM     14  O   UNL A   1      33.784  27.133  25.996  1.00  0.00    -0.269 OA
ATOM     15  C   UNL A   1      34.276  23.682  22.820  1.00  0.00     0.015 A 
ATOM     16  C   UNL A   1      34.527  24.203  25.600  1.00  0.00     0.028 A 
ATOM     17  C   UNL A   1      34.755  22.701  23.696  1.00  0.00     0.015 A 
BRANCH   8  18
ATOM     18  C   UNL A   1      33.065  28.466  23.444  1.00  0.00     0.164 C 
BRANCH  18  19
ATOM     19  C   UNL A   1      31.669  28.905  23.962  1.00  0.00     0.084 C 
ATOM     20  C   UNL A   1      31.748  29.728  25.248  1.00  0.00     0.044 C 
ATOM     21  C   UNL A   1      30.774  27.675  24.162  1.00  0.00     0.039 C 
ATOM     22  O   UNL A   1      31.011  29.704  22.954  1.00  0.00    -0.373 OA
ATOM     23  C   UNL A   1      30.116  27.516  22.813  1.00  0.00     0.031 C 
ATOM     24  C   UNL A   1      29.934  28.954  22.381  1.00  0.00     0.161 C 
ENDBRANCH  18  19
ENDBRANCH   8  18
ENDBRANCH   4   7
ENDBRANCH   2   3
ENDBRANCH   1   2
BRANCH   1  25
ATOM     25  C   UNL A   1      39.643  23.557  26.926  1.00  0.00     0.118 C 
BRANCH  25  26
ATOM     26  N   UNL A   1      40.628  24.126  26.018  1.00  0.00    -0.352 N 
ATOM     27  C   UNL A   1      41.198  25.374  26.004  1.00  0.00     0.251 C 
ATOM     28  H   UNL A   1      40.932  23.521  25.303  1.00  0.00     0.163 HD
ATOM     29  O   UNL A   1      41.816  25.737  25.007  1.00  0.00    -0.269 OA
BRANCH  27  30
ATOM     30  C   UNL A   1      41.073  26.281  27.167  1.00  0.00     0.039 A 
ATOM     31  C   UNL A   1      41.895  27.410  27.232  1.00  0.00     0.014 A 
ATOM     32  C   UNL A   1      40.199  25.996  28.220  1.00  0.00     0.014 A 
ATOM     33  C   UNL A   1      41.807  28.275  28.325  1.00  0.00     0.010 A 
ATOM     34  C   UNL A   1      40.064  26.894  29.277  1.00  0.00     0.010 A 
ATOM     35  C   UNL A   1      40.872  28.037  29.345  1.00  0.00    -0.014 A 
BRANCH  35  36
ATOM     36  C   UNL A   1      40.730  28.971  30.492  1.00  0.00     0.031 A 
ATOM     37  C   UNL A   1      41.610  28.822  31.704  1.00  0.00     0.074 A 
ATOM     38  C   UNL A   1      39.766  29.912  30.467  1.00  0.00     0.049 A 
ATOM     39  N   UNL A   1      41.589  29.497  32.826  1.00  0.00    -0.248 NA
ATOM     40  C   UNL A   1      42.631  27.763  31.661  1.00  0.00     0.031 C 
ATOM     41  C   UNL A   1      38.826  30.132  29.364  1.00  0.00     0.029 A 
ATOM     42  N   UNL A   1      39.410  30.854  31.399  1.00  0.00    -0.354 N 
ATOM     43  C   UNL A   1      42.576  28.932  33.626  1.00  0.00     0.074 A 
ATOM     44  C   UNL A   1      43.148  27.833  32.879  1.00  0.00     0.031 C 
ATOM     45  C   UNL A   1      38.017  31.157  29.675  1.00  0.00     0.029 A 
ATOM     46  C   UNL A   1      38.351  31.641  31.010  1.00  0.00     0.049 A 
ATOM     47  H   UNL A   1      39.868  30.957  32.263  1.00  0.00     0.167 HD
ATOM     48  C   UNL A   1      42.981  29.305  34.865  1.00  0.00     0.031 A 
ATOM     49  C   UNL A   1      37.714  32.635  31.658  1.00  0.00     0.031 A 
ATOM     50  C   UNL A   1      42.417  30.406  35.599  1.00  0.00     0.049 A 
ATOM     51  C   UNL A   1      38.179  33.029  33.033  1.00  0.00     0.074 A 
ATOM     52  C   UNL A   1      42.793  30.899  36.837  1.00  0.00     0.029 A 
ATOM     53  N   UNL A   1      41.356  31.187  35.164  1.00  0.00    -0.354 N 
ATOM     54  N   UNL A   1      39.155  32.521  33.749  1.00  0.00    -0.248 NA
ATOM     55  C   UNL A   1      37.466  34.138  33.682  1.00  0.00     0.031 C 
ATOM     56  C   UNL A   1      41.929  31.948  37.171  1.00  0.00     0.029 A 
ATOM     57  C   UNL A   1      41.050  32.144  36.117  1.00  0.00     0.049 A 
ATOM     58  H   UNL A   1      40.889  31.077  34.304  1.00  0.00     0.167 HD
ATOM     59  C   UNL A   1      39.187  33.265  34.923  1.00  0.00     0.074 A 
ATOM     60  C   UNL A   1      38.146  34.266  34.815  1.00  0.00     0.031 C 
ATOM     61  C   UNL A   1      40.008  33.131  35.994  1.00  0.00     0.031 A 
BRANCH  48  62
ATOM     62  C   UNL A   1      44.086  28.507  35.506  1.00  0.00    -0.014 A 
ATOM     63  C   UNL A   1      45.434  28.881  35.355  1.00  0.00     0.010 A 
ATOM     64  C   UNL A   1      43.772  27.388  36.299  1.00  0.00     0.010 A 
ATOM     65  C   UNL A   1      46.449  28.124  35.949  1.00  0.00     0.020 A 
ATOM     66  C   UNL A   1      44.783  26.646  36.918  1.00  0.00     0.020 A 
ATOM     67  C   UNL A   1      46.117  27.010  36.723  1.00  0.00     0.054 A 
BRANCH  67  68
ATOM     68  S   UNL A   1      47.454  26.057  37.496  1.00  0.00     0.124 S 
ATOM     69  O   UNL A   1      48.273  25.699  36.340  1.00  0.00    -0.237 OA
ATOM     70  O   UNL A   1      48.051  27.026  38.411  1.00  0.00    -0.237 OA
ATOM     71  O   UNL A   1      46.761  24.943  38.137  1.00  0.00    -0.744 OA
ENDBRANCH  67  68
ENDBRANCH  48  62
BRANCH  49  72
ATOM     72  C   UNL A   1      36.576  33.336  31.005  1.00  0.00    -0.014 A 
ATOM     73  C   UNL A   1      35.309  33.356  31.613  1.00  0.00     0.010 A 
ATOM     74  C   UNL A   1      36.759  34.007  29.782  1.00  0.00     0.010 A 
ATOM     75  C   UNL A   1      34.241  34.020  31.003  1.00  0.00     0.020 A 
ATOM     76  C   UNL A   1      35.701  34.695  29.182  1.00  0.00     0.020 A 
ATOM     77  C   UNL A   1      34.444  34.687  29.791  1.00  0.00     0.054 A 
BRANCH  77  78
ATOM     78  S   UNL A   1      33.058  35.592  29.046  1.00  0.00     0.124 S 
ATOM     79  O   UNL A   1      32.446  34.568  28.206  1.00  0.00    -0.237 OA
ATOM     80  O   UNL A   1      32.284  36.002  30.214  1.00  0.00    -0.237 OA
ATOM     81  O   UNL A   1      33.712  36.684  28.328  1.00  0.00    -0.744 OA
ENDBRANCH  77  78
ENDBRANCH  49  72
BRANCH  61  82
ATOM     82  C   UNL A   1      39.834  34.111  37.124  1.00  0.00    -0.014 A 
ATOM     83  C   UNL A   1      40.448  35.375  37.093  1.00  0.00     0.010 A 
ATOM     84  C   UNL A   1      39.000  33.778  38.207  1.00  0.00     0.010 A 
ATOM     85  C   UNL A   1      40.256  36.278  38.141  1.00  0.00     0.020 A 
ATOM     86  C   UNL A   1      38.784  34.689  39.243  1.00  0.00     0.020 A 
ATOM     87  C   UNL A   1      39.425  35.928  39.210  1.00  0.00     0.054 A 
BRANCH  87  88
ATOM     88  S   UNL A   1      39.156  37.135  40.538  1.00  0.00     0.124 S 
ATOM     89  O   UNL A   1      38.591  36.302  41.596  1.00  0.00    -0.237 OA
ATOM     90  O   UNL A   1      40.503  37.643  40.789  1.00  0.00    -0.237 OA
ATOM     91  O   UNL A   1      38.233  38.102  39.945  1.00  0.00    -0.744 OA
ENDBRANCH  87  88
ENDBRANCH  61  82
ENDBRANCH  35  36
ENDBRANCH  27  30
ENDBRANCH  25  26
ENDBRANCH   1  25
TORSDOF 15
ENDMDL
MODEL 2
REMARK VINA RESULT:     -12.3      5.961     10.705
REMARK SMILES C[C@@]1(CN2C(=O)c3ccc(C(=O)NCCCNC(=O)c4ccc(-c5c6nc(c(-c7ccc(S(=O)(=O)[O-])cc7)c7ccc([nH]7)c(-c7ccc(S(=O)(=O)[O-])cc7)c7nc(c(-c8ccc(S(=O)(=O)[O-])cc8)c8ccc5[nH]8)C=C7)C=C6)cc4)cc3C2=O)CCCO1
REMARK SMILES IDX 15 1 14 2 13 3 11 4 12 5 10 7 4 8 5 9 82 10 6 11 7 12 81 13
REMARK SMILES IDX 83 14 8 15 80 16 9 17 3 18 2 19 1 20 84 21 87 22 85 23 86 24
REMARK SMILES IDX 16 25 17 26 18 27 19 29 20 30 21 31 79 32 22 33 78 34 23 35
REMARK SMILES IDX 24 36 25 37 72 38 26 39 77 40 71 41 73 42 27 43 76 44 70 45
REMARK SMILES IDX 69 46 28 48 58 49 39 50 57 51 40 52 43 53 56 54 74 55 41 56
REMARK SMILES IDX 42 57 55 59 75 60 44 61 29 62 30 63 38 64 31 65 37 66 32 67
REMARK SMILES IDX 33 68 34 69 35 70 36 71 59 72 60 73 68 74 61 75 67 76 62 77
REMARK SMILES IDX 63 78 64 79 65 80 66 81 45 82 46 83 54 84 47 85 53 86 48 87
REMARK SMILES IDX 49 88 50 89 51 90 52 91
REMARK H PARENT 13 6 17 28 73 47 43 58
REMARK Flexibility Score: inf
ROOT
ATOM      1  C   UNL A   1      37.761  20.094  24.885  1.00  0.00     0.042 C 
ENDROOT
BRANCH   1   2
ATOM      2  C   UNL A   1      36.473  20.895  25.081  1.00  0.00     0.118 C 
BRANCH   2   3
ATOM      3  N   UNL A   1      35.331  20.025  25.301  1.00  0.00    -0.352 N 
ATOM      4  C   UNL A   1      33.987  20.192  25.099  1.00  0.00     0.251 C 
ATOM      5  O   UNL A   1      33.258  19.219  25.291  1.00  0.00    -0.269 OA
ATOM      6  H   UNL A   1      35.571  19.143  25.666  1.00  0.00     0.163 HD
BRANCH   4   7
ATOM      7  C   UNL A   1      33.367  21.469  24.639  1.00  0.00     0.040 A 
ATOM      8  N   UNL A   1      31.326  25.568  25.158  1.00  0.00    -0.271 N 
ATOM      9  C   UNL A   1      31.745  25.276  23.893  1.00  0.00     0.261 C 
ATOM     10  C   UNL A   1      31.607  24.551  26.035  1.00  0.00     0.261 C 
ATOM     11  O   UNL A   1      31.739  25.971  22.893  1.00  0.00    -0.269 OA
ATOM     12  C   UNL A   1      32.299  23.929  23.940  1.00  0.00     0.053 A 
ATOM     13  C   UNL A   1      32.228  23.486  25.244  1.00  0.00     0.054 A 
ATOM     14  O   UNL A   1      31.456  24.505  27.238  1.00  0.00    -0.269 OA
ATOM     15  C   UNL A   1      32.890  23.184  22.944  1.00  0.00     0.015 A 
ATOM     16  C   UNL A   1      32.752  22.265  25.627  1.00  0.00     0.028 A 
ATOM     17  C   UNL A   1      33.444  21.953  23.312  1.00  0.00     0.015 A 
BRANCH   8  18
ATOM     18  C   UNL A   1      30.778  26.853  25.555  1.00  0.00     0.164 C 
BRANCH  18  19
ATOM     19  C   UNL A   1      31.817  27.857  26.121  1.00  0.00     0.084 C 
ATOM     20  C   UNL A   1      31.712  28.025  27.638  1.00  0.00     0.044 C 
ATOM     21  C   UNL A   1      31.674  29.213  25.417  1.00  0.00     0.039 C 
ATOM     22  O   UNL A   1      33.151  27.397  25.809  1.00  0.00    -0.373 OA
ATOM     23  C   UNL A   1      32.598  29.073  24.232  1.00  0.00     0.031 C 
ATOM     24  C   UNL A   1      33.723  28.244  24.807  1.00  0.00     0.161 C 
ENDBRANCH  18  19
ENDBRANCH   8  18
ENDBRANCH   4   7
ENDBRANCH   2   3
ENDBRANCH   1   2
BRANCH   1  25
ATOM     25  C   UNL A   1      38.921  20.576  25.754  1.00  0.00     0.118 C 
BRANCH  25  26
ATOM     26  N   UNL A   1      39.919  19.536  25.949  1.00  0.00    -0.352 N 
ATOM     27  C   UNL A   1      41.276  19.637  26.129  1.00  0.00     0.251 C 
ATOM     28  H   UNL A   1      39.566  18.617  25.953  1.00  0.00     0.163 HD
ATOM     29  O   UNL A   1      41.969  18.629  26.024  1.00  0.00    -0.269 OA
BRANCH  27  30
ATOM     30  C   UNL A   1      41.906  20.939  26.443  1.00  0.00     0.039 A 
ATOM     31  C   UNL A   1      42.270  21.783  25.389  1.00  0.00     0.014 A 
ATOM     32  C   UNL A   1      42.197  21.307  27.760  1.00  0.00     0.014 A 
ATOM     33  C   UNL A   1      42.879  23.011  25.657  1.00  0.00     0.010 A 
ATOM     34  C   UNL A   1      42.743  22.560  28.030  1.00  0.00     0.010 A 
ATOM     35  C   UNL A   1      43.098  23.420  26.982  1.00  0.00    -0.014 A 
BRANCH  35  36
ATOM     36  C   UNL A   1      43.701  24.743  27.289  1.00  0.00     0.031 A 
ATOM     37  C   UNL A   1      42.836  25.878  27.770  1.00  0.00     0.074 A 
ATOM     38  C   UNL A   1      45.017  24.939  27.075  1.00  0.00     0.049 A 
ATOM     39  N   UNL A   1      43.169  27.118  28.025  1.00  0.00    -0.248 NA
ATOM     40  C   UNL A   1      41.406  25.588  27.968  1.00  0.00     0.031 C 
ATOM     41  C   UNL A   1      45.953  23.928  26.577  1.00  0.00     0.029 A 
ATOM     42  N   UNL A   1      45.794  26.057  27.241  1.00  0.00    -0.354 N 
ATOM     43  C   UNL A   1      41.992  27.759  28.393  1.00  0.00     0.074 A 
ATOM     44  C   UNL A   1      40.929  26.782  28.286  1.00  0.00     0.031 C 
ATOM     45  C   UNL A   1      47.180  24.467  26.498  1.00  0.00     0.029 A 
ATOM     46  C   UNL A   1      47.113  25.868  26.901  1.00  0.00     0.049 A 
ATOM     47  H   UNL A   1      45.441  26.915  27.572  1.00  0.00     0.167 HD
ATOM     48  C   UNL A   1      41.813  29.039  28.797  1.00  0.00     0.031 A 
ATOM     49  C   UNL A   1      48.152  26.726  26.905  1.00  0.00     0.031 A 
ATOM     50  C   UNL A   1      42.875  30.004  28.913  1.00  0.00     0.049 A 
ATOM     51  C   UNL A   1      47.928  28.143  27.355  1.00  0.00     0.074 A 
ATOM     52  C   UNL A   1      42.807  31.310  29.366  1.00  0.00     0.029 A 
ATOM     53  N   UNL A   1      44.199  29.767  28.573  1.00  0.00    -0.354 N 
ATOM     54  N   UNL A   1      46.817  28.714  27.756  1.00  0.00    -0.248 NA
ATOM     55  C   UNL A   1      49.101  29.028  27.365  1.00  0.00     0.031 C 
ATOM     56  C   UNL A   1      44.081  31.877  29.255  1.00  0.00     0.029 A 
ATOM     57  C   UNL A   1      44.953  30.908  28.785  1.00  0.00     0.049 A 
ATOM     58  H   UNL A   1      44.551  28.913  28.231  1.00  0.00     0.167 HD
ATOM     59  C   UNL A   1      47.162  30.019  28.089  1.00  0.00     0.074 A 
ATOM     60  C   UNL A   1      48.586  30.148  27.858  1.00  0.00     0.031 C 
ATOM     61  C   UNL A   1      46.370  31.020  28.547  1.00  0.00     0.031 A 
BRANCH  48  62
ATOM     62  C   UNL A   1      40.412  29.473  29.140  1.00  0.00    -0.014 A 
ATOM     63  C   UNL A   1      39.995  29.596  30.478  1.00  0.00     0.010 A 
ATOM     64  C   UNL A   1      39.508  29.796  28.111  1.00  0.00     0.010 A 
ATOM     65  C   UNL A   1      38.688  29.991  30.780  1.00  0.00     0.020 A 
ATOM     66  C   UNL A   1      38.209  30.218  28.409  1.00  0.00     0.020 A 
ATOM     67  C   UNL A   1      37.802  30.295  29.743  1.00  0.00     0.054 A 
BRANCH  67  68
ATOM     68  S   UNL A   1      36.118  30.821  30.164  1.00  0.00     0.124 S 
ATOM     69  O   UNL A   1      35.355  30.329  29.019  1.00  0.00    -0.237 OA
ATOM     70  O   UNL A   1      35.870  30.129  31.426  1.00  0.00    -0.237 OA
ATOM     71  O   UNL A   1      36.223  32.274  30.264  1.00  0.00    -0.744 OA
ENDBRANCH  67  68
ENDBRANCH  48  62
BRANCH  49  72
ATOM     72  C   UNL A   1      49.499  26.260  26.480  1.00  0.00    -0.014 A 
ATOM     73  C   UNL A   1      49.936  26.457  25.158  1.00  0.00     0.010 A 
ATOM     74  C   UNL A   1      50.362  25.639  27.401  1.00  0.00     0.010 A 
ATOM     75  C   UNL A   1      51.206  26.026  24.761  1.00  0.00     0.020 A 
ATOM     76  C   UNL A   1      51.642  25.231  27.015  1.00  0.00     0.020 A 
ATOM     77  C   UNL A   1      52.051  25.417  25.693  1.00  0.00     0.054 A 
BRANCH  77  78
ATOM     78  S   UNL A   1      53.716  24.917  25.170  1.00  0.00     0.124 S 
ATOM     79  O   UNL A   1      53.858  25.622  23.901  1.00  0.00    -0.237 OA
ATOM     80  O   UNL A   1      54.551  25.405  26.265  1.00  0.00    -0.237 OA
ATOM     81  O   UNL A   1      53.619  23.463  25.073  1.00  0.00    -0.744 OA
ENDBRANCH  77  78
ENDBRANCH  49  72
BRANCH  61  82
ATOM     82  C   UNL A   1      47.031  32.336  28.858  1.00  0.00    -0.014 A 
ATOM     83  C   UNL A   1      47.116  33.354  27.893  1.00  0.00     0.010 A 
ATOM     84  C   UNL A   1      47.528  32.573  30.153  1.00  0.00     0.010 A 
ATOM     85  C   UNL A   1      47.714  34.577  28.209  1.00  0.00     0.020 A 
ATOM     86  C   UNL A   1      48.101  33.803  30.480  1.00  0.00     0.020 A 
ATOM     87  C   UNL A   1      48.203  34.793  29.501  1.00  0.00     0.054 A 
BRANCH  87  88
ATOM     88  S   UNL A   1      48.935  36.404  29.899  1.00  0.00     0.124 S 
ATOM     89  O   UNL A   1      49.662  36.112  31.131  1.00  0.00    -0.237 OA
ATOM     90  O   UNL A   1      49.766  36.678  28.729  1.00  0.00    -0.237 OA
ATOM     91  O   UNL A   1      47.777  37.283  30.051  1.00  0.00    -0.744 OA
ENDBRANCH  87  88
ENDBRANCH  61  82
ENDBRANCH  35  36
ENDBRANCH  27  30
ENDBRANCH  25  26
ENDBRANCH   1  25
TORSDOF 15
ENDMDL
MODEL 3
REMARK VINA RESULT:     -12.2      6.012     10.812
REMARK SMILES C[C@@]1(CN2C(=O)c3ccc(C(=O)NCCCNC(=O)c4ccc(-c5c6nc(c(-c7ccc(S(=O)(=O)[O-])cc7)c7ccc([nH]7)c(-c7ccc(S(=O)(=O)[O-])cc7)c7nc(c(-c8ccc(S(=O)(=O)[O-])cc8)c8ccc5[nH]8)C=C7)C=C6)cc4)cc3C2=O)CCCO1
REMARK SMILES IDX 15 1 14 2 13 3 11 4 12 5 10 7 4 8 5 9 82 10 6 11 7 12 81 13
REMARK SMILES IDX 83 14 8 15 80 16 9 17 3 18 2 19 1 20 84 21 87 22 85 23 86 24
REMARK SMILES IDX 16 25 17 26 18 27 19 29 20 30 21 31 79 32 22 33 78 34 23 35
REMARK SMILES IDX 24 36 25 37 72 38 26 39 77 40 71 41 73 42 27 43 76 44 70 45
REMARK SMILES IDX 69 46 28 48 58 49 39 50 57 51 40 52 43 53 56 54 74 55 41 56
REMARK SMILES IDX 42 57 55 59 75 60 44 61 29 62 30 63 38 64 31 65 37 66 32 67
REMARK SMILES IDX 33 68 34 69 35 70 36 71 59 72 60 73 68 74 61 75 67 76 62 77
REMARK SMILES IDX 63 78 64 79 65 80 66 81 45 82 46 83 54 84 47 85 53 86 48 87
REMARK SMILES IDX 49 88 50 89 51 90 52 91
REMARK H PARENT 13 6 17 28 73 47 43 58
REMARK Flexibility Score: inf
ROOT
ATOM      1  C   UNL A   1      38.358  19.859  25.027  1.00  0.00     0.042 C 
ENDROOT
BRANCH   1   2
ATOM      2  C   UNL A   1      37.498  21.074  24.676  1.00  0.00     0.118 C 
BRANCH   2   3
ATOM      3  N   UNL A   1      37.993  22.281  25.315  1.00  0.00    -0.352 N 
ATOM      4  C   UNL A   1      37.360  23.374  25.846  1.00  0.00     0.251 C 
ATOM      5  O   UNL A   1      38.057  24.210  26.420  1.00  0.00    -0.269 OA
ATOM      6  H   UNL A   1      38.974  22.321  25.379  1.00  0.00     0.163 HD
BRANCH   4   7
ATOM      7  C   UNL A   1      35.885  23.590  25.790  1.00  0.00     0.040 A 
ATOM      8  N   UNL A   1      31.923  25.023  23.924  1.00  0.00    -0.271 N 
ATOM      9  C   UNL A   1      31.800  24.242  25.037  1.00  0.00     0.261 C 
ATOM     10  C   UNL A   1      33.237  25.224  23.586  1.00  0.00     0.261 C 
ATOM     11  O   UNL A   1      30.799  23.794  25.564  1.00  0.00    -0.269 OA
ATOM     12  C   UNL A   1      33.154  23.955  25.493  1.00  0.00     0.053 A 
ATOM     13  C   UNL A   1      34.034  24.541  24.607  1.00  0.00     0.054 A 
ATOM     14  O   UNL A   1      33.708  25.788  22.620  1.00  0.00    -0.269 OA
ATOM     15  C   UNL A   1      33.583  23.178  26.545  1.00  0.00     0.015 A 
ATOM     16  C   UNL A   1      35.402  24.378  24.725  1.00  0.00     0.028 A 
ATOM     17  C   UNL A   1      34.963  22.984  26.674  1.00  0.00     0.015 A 
BRANCH   8  18
ATOM     18  C   UNL A   1      30.800  25.469  23.118  1.00  0.00     0.164 C 
BRANCH  18  19
ATOM     19  C   UNL A   1      30.094  26.750  23.637  1.00  0.00     0.084 C 
ATOM     20  C   UNL A   1      28.643  26.499  24.050  1.00  0.00     0.044 C 
ATOM     21  C   UNL A   1      30.170  27.856  22.576  1.00  0.00     0.039 C 
ATOM     22  O   UNL A   1      30.808  27.262  24.784  1.00  0.00    -0.373 OA
ATOM     23  C   UNL A   1      31.467  28.552  22.911  1.00  0.00     0.031 C 
ATOM     24  C   UNL A   1      31.487  28.469  24.420  1.00  0.00     0.161 C 
ENDBRANCH  18  19
ENDBRANCH   8  18
ENDBRANCH   4   7
ENDBRANCH   2   3
ENDBRANCH   1   2
BRANCH   1  25
ATOM     25  C   UNL A   1      39.364  20.123  26.145  1.00  0.00     0.118 C 
BRANCH  25  26
ATOM     26  N   UNL A   1      40.489  19.202  26.089  1.00  0.00    -0.352 N 
ATOM     27  C   UNL A   1      41.837  19.456  26.044  1.00  0.00     0.251 C 
ATOM     28  H   UNL A   1      40.245  18.248  26.083  1.00  0.00     0.163 HD
ATOM     29  O   UNL A   1      42.606  18.547  25.746  1.00  0.00    -0.269 OA
BRANCH  27  30
ATOM     30  C   UNL A   1      42.367  20.805  26.344  1.00  0.00     0.039 A 
ATOM     31  C   UNL A   1      42.550  21.174  27.680  1.00  0.00     0.014 A 
ATOM     32  C   UNL A   1      42.626  21.728  25.326  1.00  0.00     0.014 A 
ATOM     33  C   UNL A   1      43.035  22.446  27.992  1.00  0.00     0.010 A 
ATOM     34  C   UNL A   1      43.174  22.971  25.635  1.00  0.00     0.010 A 
ATOM     35  C   UNL A   1      43.375  23.347  26.970  1.00  0.00    -0.014 A 
BRANCH  35  36
ATOM     36  C   UNL A   1      43.938  24.686  27.280  1.00  0.00     0.031 A 
ATOM     37  C   UNL A   1      43.036  25.802  27.734  1.00  0.00     0.074 A 
ATOM     38  C   UNL A   1      45.254  24.914  27.091  1.00  0.00     0.049 A 
ATOM     39  N   UNL A   1      43.333  27.052  27.987  1.00  0.00    -0.248 NA
ATOM     40  C   UNL A   1      41.610  25.478  27.906  1.00  0.00     0.031 C 
ATOM     41  C   UNL A   1      46.225  23.924  26.619  1.00  0.00     0.029 A 
ATOM     42  N   UNL A   1      45.999  26.053  27.263  1.00  0.00    -0.354 N 
ATOM     43  C   UNL A   1      42.132  27.665  28.325  1.00  0.00     0.074 A 
ATOM     44  C   UNL A   1      41.097  26.662  28.205  1.00  0.00     0.031 C 
ATOM     45  C   UNL A   1      47.440  24.492  26.561  1.00  0.00     0.029 A 
ATOM     46  C   UNL A   1      47.329  25.894  26.952  1.00  0.00     0.049 A 
ATOM     47  H   UNL A   1      45.618  26.903  27.581  1.00  0.00     0.167 HD
ATOM     48  C   UNL A   1      41.913  28.944  28.717  1.00  0.00     0.031 A 
ATOM     49  C   UNL A   1      48.345  26.778  26.970  1.00  0.00     0.031 A 
ATOM     50  C   UNL A   1      42.949  29.936  28.846  1.00  0.00     0.049 A 
ATOM     51  C   UNL A   1      48.077  28.192  27.405  1.00  0.00     0.074 A 
ATOM     52  C   UNL A   1      42.838  31.243  29.288  1.00  0.00     0.029 A 
ATOM     53  N   UNL A   1      44.285  29.730  28.535  1.00  0.00    -0.354 N 
ATOM     54  N   UNL A   1      46.944  28.738  27.779  1.00  0.00    -0.248 NA
ATOM     55  C   UNL A   1      49.226  29.107  27.432  1.00  0.00     0.031 C 
ATOM     56  C   UNL A   1      44.100  31.842  29.198  1.00  0.00     0.029 A 
ATOM     57  C   UNL A   1      45.005  30.891  28.754  1.00  0.00     0.049 A 
ATOM     58  H   UNL A   1      44.664  28.883  28.206  1.00  0.00     0.167 HD
ATOM     59  C   UNL A   1      47.250  30.053  28.109  1.00  0.00     0.074 A 
ATOM     60  C   UNL A   1      48.674  30.217  27.905  1.00  0.00     0.031 C 
ATOM     61  C   UNL A   1      46.424  31.037  28.543  1.00  0.00     0.031 A 
BRANCH  48  62
ATOM     62  C   UNL A   1      40.495  29.344  29.028  1.00  0.00    -0.014 A 
ATOM     63  C   UNL A   1      40.045  29.455  30.356  1.00  0.00     0.010 A 
ATOM     64  C   UNL A   1      39.608  29.649  27.978  1.00  0.00     0.010 A 
ATOM     65  C   UNL A   1      38.723  29.819  30.628  1.00  0.00     0.020 A 
ATOM     66  C   UNL A   1      38.293  30.041  28.247  1.00  0.00     0.020 A 
ATOM     67  C   UNL A   1      37.854  30.105  29.572  1.00  0.00     0.054 A 
BRANCH  67  68
ATOM     68  S   UNL A   1      36.149  30.591  29.955  1.00  0.00     0.124 S 
ATOM     69  O   UNL A   1      35.394  29.868  28.934  1.00  0.00    -0.237 OA
ATOM     70  O   UNL A   1      35.976  30.108  31.322  1.00  0.00    -0.237 OA
ATOM     71  O   UNL A   1      36.160  32.044  29.807  1.00  0.00    -0.744 OA
ENDBRANCH  67  68
ENDBRANCH  48  62
BRANCH  49  72
ATOM     72  C   UNL A   1      49.712  26.344  26.576  1.00  0.00    -0.014 A 
ATOM     73  C   UNL A   1      50.603  25.837  27.538  1.00  0.00     0.010 A 
ATOM     74  C   UNL A   1      50.123  26.414  25.232  1.00  0.00     0.010 A 
ATOM     75  C   UNL A   1      51.885  25.422  27.166  1.00  0.00     0.020 A 
ATOM     76  C   UNL A   1      51.395  25.975  24.852  1.00  0.00     0.020 A 
ATOM     77  C   UNL A   1      52.273  25.492  25.825  1.00  0.00     0.054 A 
BRANCH  77  78
ATOM     78  S   UNL A   1      53.921  24.895  25.357  1.00  0.00     0.124 S 
ATOM     79  O   UNL A   1      54.344  25.903  24.391  1.00  0.00    -0.237 OA
ATOM     80  O   UNL A   1      54.633  24.900  26.632  1.00  0.00    -0.237 OA
ATOM     81  O   UNL A   1      53.658  23.568  24.805  1.00  0.00    -0.744 OA
ENDBRANCH  77  78
ENDBRANCH  49  72
BRANCH  61  82
ATOM     82  C   UNL A   1      47.045  32.372  28.858  1.00  0.00    -0.014 A 
ATOM     83  C   UNL A   1      47.577  32.645  30.130  1.00  0.00     0.010 A 
ATOM     84  C   UNL A   1      47.143  33.346  27.847  1.00  0.00     0.010 A 
ATOM     85  C   UNL A   1      48.170  33.883  30.395  1.00  0.00     0.020 A 
ATOM     86  C   UNL A   1      47.759  34.573  28.101  1.00  0.00     0.020 A 
ATOM     87  C   UNL A   1      48.256  34.839  29.378  1.00  0.00     0.054 A 
BRANCH  87  88
ATOM     88  S   UNL A   1      49.070  36.420  29.733  1.00  0.00     0.124 S 
ATOM     89  O   UNL A   1      50.459  36.133  29.387  1.00  0.00    -0.237 OA
ATOM     90  O   UNL A   1      48.378  37.346  28.839  1.00  0.00    -0.237 OA
ATOM     91  O   UNL A   1      48.812  36.631  31.156  1.00  0.00    -0.744 OA
ENDBRANCH  87  88
ENDBRANCH  61  82
ENDBRANCH  35  36
ENDBRANCH  27  30
ENDBRANCH  25  26
ENDBRANCH   1  25
TORSDOF 15
ENDMDL
