MODEL 1
REMARK VINA RESULT:     -11.1      0.000      0.000
REMARK SMILES CC(C)[C@H](NS(=O)(=O)N1C[C@@H](C)O[C@H](C)C1)C(=O)NCCCNC(=O)c1ccc(-c2c3nc(c(-c4ccc(S(=O)(=O)[O-])cc4)c4ccc([nH]4)c(-c4ccc(S(=O)(=O)[O-])cc4)c4nc(c(-c5ccc(S(=O)(=O)[O-])cc5)c5ccc2[nH]5)C=C4)C=C3)cc1
REMARK SMILES IDX 21 1 20 2 19 3 17 4 18 5 4 7 2 8 1 9 3 10 5 11 6 13 7 14
REMARK SMILES IDX 8 15 9 16 10 17 16 18 11 19 14 20 12 21 13 22 15 23 22 24
REMARK SMILES IDX 23 25 24 26 25 28 26 29 27 30 85 31 28 32 84 33 29 34 30 35
REMARK SMILES IDX 31 36 78 37 32 38 83 39 77 40 79 41 33 42 82 43 76 44 75 45
REMARK SMILES IDX 34 47 64 48 45 49 63 50 46 51 49 52 62 53 80 54 47 55 48 56
REMARK SMILES IDX 61 58 81 59 50 60 35 61 36 62 44 63 37 64 43 65 38 66 39 67
REMARK SMILES IDX 40 68 41 69 42 70 65 71 66 72 74 73 67 74 73 75 68 76 69 77
REMARK SMILES IDX 70 78 71 79 72 80 51 81 52 82 60 83 53 84 59 85 54 86 55 87
REMARK SMILES IDX 56 88 57 89 58 90
REMARK H PARENT 19 6 5 12 23 27 79 46 49 57
REMARK Flexibility Score: inf
ROOT
ATOM      1  C   UNL A   1      38.755  22.029  26.009  1.00  0.00     0.042 C 
ENDROOT
BRANCH   1   2
ATOM      2  C   UNL A   1      37.313  21.948  25.456  1.00  0.00     0.117 C 
BRANCH   2   3
ATOM      3  N   UNL A   1      36.148  21.837  26.349  1.00  0.00    -0.355 N 
ATOM      4  C   UNL A   1      34.789  21.688  26.294  1.00  0.00     0.238 C 
ATOM      5  O   UNL A   1      34.283  21.449  27.408  1.00  0.00    -0.273 OA
ATOM      6  H   UNL A   1      36.441  21.882  27.288  1.00  0.00     0.163 HD
BRANCH   4   7
ATOM      7  C   UNL A   1      33.817  21.799  25.080  1.00  0.00     0.162 C 
BRANCH   7   8
ATOM      8  C   UNL A   1      33.284  20.359  24.791  1.00  0.00     0.010 C 
ATOM      9  C   UNL A   1      32.334  20.240  23.603  1.00  0.00     0.009 C 
ATOM     10  C   UNL A   1      34.349  19.274  24.697  1.00  0.00     0.009 C 
ENDBRANCH   7   8
BRANCH   7  11
ATOM     11  N   UNL A   1      34.195  22.648  23.840  1.00  0.00    -0.189 NA
ATOM     12  H   UNL A   1      33.592  22.333  23.079  1.00  0.00     0.143 HD
BRANCH  11  13
ATOM     13  S   UNL A   1      34.083  24.385  23.875  1.00  0.00     0.280 S 
ATOM     14  O   UNL A   1      35.166  24.774  24.738  1.00  0.00    -0.195 OA
ATOM     15  O   UNL A   1      34.039  24.844  22.499  1.00  0.00    -0.195 OA
BRANCH  13  16
ATOM     16  N   UNL A   1      32.664  24.885  24.626  1.00  0.00    -0.184 NA
ATOM     17  C   UNL A   1      32.603  25.264  26.057  1.00  0.00     0.135 C 
ATOM     18  C   UNL A   1      31.385  25.295  23.943  1.00  0.00     0.135 C 
ATOM     19  C   UNL A   1      32.445  26.782  26.100  1.00  0.00     0.130 C 
ATOM     20  C   UNL A   1      31.151  26.825  24.071  1.00  0.00     0.130 C 
ATOM     21  C   UNL A   1      33.652  27.314  25.433  1.00  0.00     0.040 C 
ATOM     22  O   UNL A   1      31.284  27.273  25.440  1.00  0.00    -0.373 OA
ATOM     23  C   UNL A   1      29.785  27.349  23.641  1.00  0.00     0.040 C 
ENDBRANCH  13  16
ENDBRANCH  11  13
ENDBRANCH   7  11
ENDBRANCH   4   7
ENDBRANCH   2   3
ENDBRANCH   1   2
BRANCH   1  24
ATOM     24  C   UNL A   1      39.296  23.344  26.592  1.00  0.00     0.118 C 
BRANCH  24  25
ATOM     25  N   UNL A   1      40.632  23.668  26.161  1.00  0.00    -0.352 N 
ATOM     26  C   UNL A   1      41.433  24.741  26.446  1.00  0.00     0.251 C 
ATOM     27  H   UNL A   1      41.039  23.005  25.557  1.00  0.00     0.163 HD
ATOM     28  O   UNL A   1      42.462  24.878  25.785  1.00  0.00    -0.269 OA
BRANCH  26  29
ATOM     29  C   UNL A   1      41.105  25.743  27.494  1.00  0.00     0.039 A 
ATOM     30  C   UNL A   1      42.006  26.799  27.665  1.00  0.00     0.014 A 
ATOM     31  C   UNL A   1      40.042  25.607  28.395  1.00  0.00     0.014 A 
ATOM     32  C   UNL A   1      41.849  27.708  28.716  1.00  0.00     0.010 A 
ATOM     33  C   UNL A   1      39.854  26.552  29.419  1.00  0.00     0.010 A 
ATOM     34  C   UNL A   1      40.767  27.604  29.605  1.00  0.00    -0.014 A 
BRANCH  34  35
ATOM     35  C   UNL A   1      40.615  28.586  30.720  1.00  0.00     0.031 A 
ATOM     36  C   UNL A   1      41.479  28.502  31.956  1.00  0.00     0.074 A 
ATOM     37  C   UNL A   1      39.699  29.574  30.624  1.00  0.00     0.049 A 
ATOM     38  N   UNL A   1      41.488  29.278  33.012  1.00  0.00    -0.248 NA
ATOM     39  C   UNL A   1      42.451  27.398  32.023  1.00  0.00     0.031 C 
ATOM     40  C   UNL A   1      38.787  29.771  29.495  1.00  0.00     0.029 A 
ATOM     41  N   UNL A   1      39.384  30.600  31.484  1.00  0.00    -0.354 N 
ATOM     42  C   UNL A   1      42.450  28.752  33.870  1.00  0.00     0.074 A 
ATOM     43  C   UNL A   1      42.979  27.568  33.228  1.00  0.00     0.031 C 
ATOM     44  C   UNL A   1      38.033  30.860  29.722  1.00  0.00     0.029 A 
ATOM     45  C   UNL A   1      38.373  31.416  31.028  1.00  0.00     0.049 A 
ATOM     46  H   UNL A   1      39.839  30.737  32.346  1.00  0.00     0.167 HD
ATOM     47  C   UNL A   1      42.864  29.216  35.075  1.00  0.00     0.031 A 
ATOM     48  C   UNL A   1      37.773  32.481  31.596  1.00  0.00     0.031 A 
ATOM     49  C   UNL A   1      42.349  30.401  35.713  1.00  0.00     0.049 A 
ATOM     50  C   UNL A   1      38.233  32.957  32.949  1.00  0.00     0.074 A 
ATOM     51  C   UNL A   1      42.753  30.977  36.907  1.00  0.00     0.029 A 
ATOM     52  N   UNL A   1      41.320  31.188  35.222  1.00  0.00    -0.354 N 
ATOM     53  N   UNL A   1      39.194  32.484  33.705  1.00  0.00    -0.248 NA
ATOM     54  C   UNL A   1      37.537  34.120  33.519  1.00  0.00     0.031 C 
ATOM     55  C   UNL A   1      41.923  32.070  37.171  1.00  0.00     0.029 A 
ATOM     56  C   UNL A   1      41.051  32.222  36.105  1.00  0.00     0.049 A 
ATOM     57  H   UNL A   1      40.849  31.037  34.370  1.00  0.00     0.167 HD
ATOM     58  C   UNL A   1      39.235  33.310  34.826  1.00  0.00     0.074 A 
ATOM     59  C   UNL A   1      38.219  34.323  34.638  1.00  0.00     0.031 C 
ATOM     60  C   UNL A   1      40.042  33.232  35.911  1.00  0.00     0.031 A 
BRANCH  47  61
ATOM     61  C   UNL A   1      43.927  28.438  35.812  1.00  0.00    -0.014 A 
ATOM     62  C   UNL A   1      45.291  28.752  35.673  1.00  0.00     0.010 A 
ATOM     63  C   UNL A   1      43.548  27.443  36.733  1.00  0.00     0.010 A 
ATOM     64  C   UNL A   1      46.254  28.071  36.423  1.00  0.00     0.020 A 
ATOM     65  C   UNL A   1      44.505  26.780  37.506  1.00  0.00     0.020 A 
ATOM     66  C   UNL A   1      45.856  27.093  37.339  1.00  0.00     0.054 A 
BRANCH  66  67
ATOM     67  S   UNL A   1      47.126  26.268  38.339  1.00  0.00     0.124 S 
ATOM     68  O   UNL A   1      46.467  26.165  39.639  1.00  0.00    -0.237 OA
ATOM     69  O   UNL A   1      47.317  25.005  37.631  1.00  0.00    -0.237 OA
ATOM     70  O   UNL A   1      48.261  27.186  38.288  1.00  0.00    -0.744 OA
ENDBRANCH  66  67
ENDBRANCH  47  61
BRANCH  48  71
ATOM     71  C   UNL A   1      36.644  33.165  30.900  1.00  0.00    -0.014 A 
ATOM     72  C   UNL A   1      36.879  34.037  29.821  1.00  0.00     0.010 A 
ATOM     73  C   UNL A   1      35.321  32.967  31.339  1.00  0.00     0.010 A 
ATOM     74  C   UNL A   1      35.818  34.722  29.218  1.00  0.00     0.020 A 
ATOM     75  C   UNL A   1      34.255  33.621  30.715  1.00  0.00     0.020 A 
ATOM     76  C   UNL A   1      34.513  34.510  29.670  1.00  0.00     0.054 A 
BRANCH  76  77
ATOM     77  S   UNL A   1      33.149  35.391  28.861  1.00  0.00     0.124 S 
ATOM     78  O   UNL A   1      33.863  36.357  28.032  1.00  0.00    -0.237 OA
ATOM     79  O   UNL A   1      32.467  34.319  28.140  1.00  0.00    -0.237 OA
ATOM     80  O   UNL A   1      32.398  35.957  29.979  1.00  0.00    -0.744 OA
ENDBRANCH  76  77
ENDBRANCH  48  71
BRANCH  60  81
ATOM     81  C   UNL A   1      39.895  34.295  36.971  1.00  0.00    -0.014 A 
ATOM     82  C   UNL A   1      40.531  35.543  36.852  1.00  0.00     0.010 A 
ATOM     83  C   UNL A   1      39.057  34.059  38.078  1.00  0.00     0.010 A 
ATOM     84  C   UNL A   1      40.360  36.521  37.836  1.00  0.00     0.020 A 
ATOM     85  C   UNL A   1      38.857  35.045  39.045  1.00  0.00     0.020 A 
ATOM     86  C   UNL A   1      39.521  36.267  38.926  1.00  0.00     0.054 A 
BRANCH  86  87
ATOM     87  S   UNL A   1      39.280  37.570  40.165  1.00  0.00     0.124 S 
ATOM     88  O   UNL A   1      40.607  38.174  40.233  1.00  0.00    -0.237 OA
ATOM     89  O   UNL A   1      38.242  38.401  39.556  1.00  0.00    -0.237 OA
ATOM     90  O   UNL A   1      38.865  36.842  41.360  1.00  0.00    -0.744 OA
ENDBRANCH  86  87
ENDBRANCH  60  81
ENDBRANCH  34  35
ENDBRANCH  26  29
ENDBRANCH  24  25
ENDBRANCH   1  24
TORSDOF 17
ENDMDL
MODEL 2
REMARK VINA RESULT:     -10.9      2.880      9.474
REMARK SMILES CC(C)[C@H](NS(=O)(=O)N1C[C@@H](C)O[C@H](C)C1)C(=O)NCCCNC(=O)c1ccc(-c2c3nc(c(-c4ccc(S(=O)(=O)[O-])cc4)c4ccc([nH]4)c(-c4ccc(S(=O)(=O)[O-])cc4)c4nc(c(-c5ccc(S(=O)(=O)[O-])cc5)c5ccc2[nH]5)C=C4)C=C3)cc1
REMARK SMILES IDX 21 1 20 2 19 3 17 4 18 5 4 7 2 8 1 9 3 10 5 11 6 13 7 14
REMARK SMILES IDX 8 15 9 16 10 17 16 18 11 19 14 20 12 21 13 22 15 23 22 24
REMARK SMILES IDX 23 25 24 26 25 28 26 29 27 30 85 31 28 32 84 33 29 34 30 35
REMARK SMILES IDX 31 36 78 37 32 38 83 39 77 40 79 41 33 42 82 43 76 44 75 45
REMARK SMILES IDX 34 47 64 48 45 49 63 50 46 51 49 52 62 53 80 54 47 55 48 56
REMARK SMILES IDX 61 58 81 59 50 60 35 61 36 62 44 63 37 64 43 65 38 66 39 67
REMARK SMILES IDX 40 68 41 69 42 70 65 71 66 72 74 73 67 74 73 75 68 76 69 77
REMARK SMILES IDX 70 78 71 79 72 80 51 81 52 82 60 83 53 84 59 85 54 86 55 87
REMARK SMILES IDX 56 88 57 89 58 90
REMARK H PARENT 19 6 5 12 23 27 79 46 49 57
REMARK Flexibility Score: inf
ROOT
ATOM      1  C   UNL A   1      33.242  28.759  24.188  1.00  0.00     0.042 C 
ENDROOT
BRANCH   1   2
ATOM      2  C   UNL A   1      33.840  27.891  23.058  1.00  0.00     0.117 C 
BRANCH   2   3
ATOM      3  N   UNL A   1      32.984  27.186  22.089  1.00  0.00    -0.355 N 
ATOM      4  C   UNL A   1      31.946  26.295  22.054  1.00  0.00     0.238 C 
ATOM      5  O   UNL A   1      31.453  26.173  20.916  1.00  0.00    -0.273 OA
ATOM      6  H   UNL A   1      33.240  27.436  21.173  1.00  0.00     0.163 HD
BRANCH   4   7
ATOM      7  C   UNL A   1      31.332  25.426  23.194  1.00  0.00     0.162 C 
BRANCH   7   8
ATOM      8  C   UNL A   1      30.738  26.413  24.250  1.00  0.00     0.010 C 
ATOM      9  C   UNL A   1      29.604  27.302  23.746  1.00  0.00     0.009 C 
ATOM     10  C   UNL A   1      30.338  25.787  25.579  1.00  0.00     0.009 C 
ENDBRANCH   7   8
BRANCH   7  11
ATOM     11  N   UNL A   1      32.103  24.206  23.759  1.00  0.00    -0.189 NA
ATOM     12  H   UNL A   1      32.030  23.468  23.058  1.00  0.00     0.143 HD
BRANCH  11  13
ATOM     13  S   UNL A   1      33.788  24.327  24.180  1.00  0.00     0.280 S 
ATOM     14  O   UNL A   1      34.447  24.414  22.905  1.00  0.00    -0.195 OA
ATOM     15  O   UNL A   1      33.917  25.400  25.149  1.00  0.00    -0.195 OA
BRANCH  13  16
ATOM     16  N   UNL A   1      34.333  22.912  24.908  1.00  0.00    -0.184 NA
ATOM     17  C   UNL A   1      34.932  22.885  26.261  1.00  0.00     0.135 C 
ATOM     18  C   UNL A   1      34.040  21.504  24.459  1.00  0.00     0.135 C 
ATOM     19  C   UNL A   1      33.898  22.242  27.183  1.00  0.00     0.130 C 
ATOM     20  C   UNL A   1      33.073  20.796  25.446  1.00  0.00     0.130 C 
ATOM     21  C   UNL A   1      32.717  23.129  27.114  1.00  0.00     0.040 C 
ATOM     22  O   UNL A   1      33.521  20.921  26.816  1.00  0.00    -0.373 OA
ATOM     23  C   UNL A   1      32.875  19.295  25.258  1.00  0.00     0.040 C 
ENDBRANCH  13  16
ENDBRANCH  11  13
ENDBRANCH   7  11
ENDBRANCH   4   7
ENDBRANCH   2   3
ENDBRANCH   1   2
BRANCH   1  24
ATOM     24  C   UNL A   1      33.942  28.858  25.553  1.00  0.00     0.118 C 
BRANCH  24  25
ATOM     25  N   UNL A   1      33.619  30.053  26.291  1.00  0.00    -0.352 N 
ATOM     26  C   UNL A   1      34.228  30.635  27.369  1.00  0.00     0.251 C 
ATOM     27  H   UNL A   1      32.824  30.532  25.964  1.00  0.00     0.163 HD
ATOM     28  O   UNL A   1      33.632  31.549  27.939  1.00  0.00    -0.269 OA
BRANCH  26  29
ATOM     29  C   UNL A   1      35.554  30.202  27.884  1.00  0.00     0.039 A 
ATOM     30  C   UNL A   1      35.587  29.659  29.173  1.00  0.00     0.014 A 
ATOM     31  C   UNL A   1      36.762  30.439  27.218  1.00  0.00     0.014 A 
ATOM     32  C   UNL A   1      36.805  29.355  29.788  1.00  0.00     0.010 A 
ATOM     33  C   UNL A   1      37.984  30.082  27.815  1.00  0.00     0.010 A 
ATOM     34  C   UNL A   1      38.022  29.553  29.117  1.00  0.00    -0.014 A 
BRANCH  34  35
ATOM     35  C   UNL A   1      39.314  29.219  29.789  1.00  0.00     0.031 A 
ATOM     36  C   UNL A   1      39.789  29.997  30.993  1.00  0.00     0.074 A 
ATOM     37  C   UNL A   1      40.068  28.200  29.325  1.00  0.00     0.049 A 
ATOM     38  N   UNL A   1      40.878  29.834  31.706  1.00  0.00    -0.248 NA
ATOM     39  C   UNL A   1      38.942  31.110  31.453  1.00  0.00     0.031 C 
ATOM     40  C   UNL A   1      39.741  27.369  28.164  1.00  0.00     0.029 A 
ATOM     41  N   UNL A   1      41.263  27.684  29.771  1.00  0.00    -0.354 N 
ATOM     42  C   UNL A   1      40.853  30.825  32.682  1.00  0.00     0.074 A 
ATOM     43  C   UNL A   1      39.659  31.610  32.450  1.00  0.00     0.031 C 
ATOM     44  C   UNL A   1      40.696  26.439  28.003  1.00  0.00     0.029 A 
ATOM     45  C   UNL A   1      41.727  26.629  29.019  1.00  0.00     0.049 A 
ATOM     46  H   UNL A   1      41.741  28.038  30.555  1.00  0.00     0.167 HD
ATOM     47  C   UNL A   1      41.735  31.056  33.687  1.00  0.00     0.031 A 
ATOM     48  C   UNL A   1      42.858  25.902  29.119  1.00  0.00     0.031 A 
ATOM     49  C   UNL A   1      42.917  30.269  33.930  1.00  0.00     0.049 A 
ATOM     50  C   UNL A   1      43.834  26.199  30.228  1.00  0.00     0.074 A 
ATOM     51  C   UNL A   1      43.835  30.396  34.960  1.00  0.00     0.029 A 
ATOM     52  N   UNL A   1      43.354  29.219  33.138  1.00  0.00    -0.354 N 
ATOM     53  N   UNL A   1      43.750  27.095  31.181  1.00  0.00    -0.248 NA
ATOM     54  C   UNL A   1      45.051  25.376  30.283  1.00  0.00     0.031 C 
ATOM     55  C   UNL A   1      44.860  29.470  34.752  1.00  0.00     0.029 A 
ATOM     56  C   UNL A   1      44.545  28.714  33.635  1.00  0.00     0.049 A 
ATOM     57  H   UNL A   1      42.887  28.881  32.339  1.00  0.00     0.167 HD
ATOM     58  C   UNL A   1      44.888  26.924  31.964  1.00  0.00     0.074 A 
ATOM     59  C   UNL A   1      45.633  25.826  31.386  1.00  0.00     0.031 C 
ATOM     60  C   UNL A   1      45.280  27.617  33.060  1.00  0.00     0.031 A 
BRANCH  47  61
ATOM     61  C   UNL A   1      41.474  32.220  34.611  1.00  0.00    -0.014 A 
ATOM     62  C   UNL A   1      41.996  33.499  34.340  1.00  0.00     0.010 A 
ATOM     63  C   UNL A   1      40.612  32.056  35.711  1.00  0.00     0.010 A 
ATOM     64  C   UNL A   1      41.679  34.582  35.166  1.00  0.00     0.020 A 
ATOM     65  C   UNL A   1      40.269  33.142  36.522  1.00  0.00     0.020 A 
ATOM     66  C   UNL A   1      40.813  34.398  36.248  1.00  0.00     0.054 A 
BRANCH  66  67
ATOM     67  S   UNL A   1      40.376  35.835  37.266  1.00  0.00     0.124 S 
ATOM     68  O   UNL A   1      41.678  36.244  37.787  1.00  0.00    -0.237 OA
ATOM     69  O   UNL A   1      39.776  36.744  36.293  1.00  0.00    -0.237 OA
ATOM     70  O   UNL A   1      39.452  35.292  38.259  1.00  0.00    -0.744 OA
ENDBRANCH  66  67
ENDBRANCH  47  61
BRANCH  48  71
ATOM     71  C   UNL A   1      43.152  24.831  28.124  1.00  0.00    -0.014 A 
ATOM     72  C   UNL A   1      42.760  23.499  28.355  1.00  0.00     0.010 A 
ATOM     73  C   UNL A   1      43.856  25.137  26.944  1.00  0.00     0.010 A 
ATOM     74  C   UNL A   1      43.097  22.492  27.444  1.00  0.00     0.020 A 
ATOM     75  C   UNL A   1      44.163  24.140  26.014  1.00  0.00     0.020 A 
ATOM     76  C   UNL A   1      43.798  22.819  26.280  1.00  0.00     0.054 A 
BRANCH  76  77
ATOM     77  S   UNL A   1      44.207  21.502  25.101  1.00  0.00     0.124 S 
ATOM     78  O   UNL A   1      45.564  21.148  25.501  1.00  0.00    -0.237 OA
ATOM     79  O   UNL A   1      43.181  20.501  25.382  1.00  0.00    -0.237 OA
ATOM     80  O   UNL A   1      44.086  22.159  23.801  1.00  0.00    -0.744 OA
ENDBRANCH  76  77
ENDBRANCH  48  71
BRANCH  60  81
ATOM     81  C   UNL A   1      46.554  27.187  33.743  1.00  0.00    -0.014 A 
ATOM     82  C   UNL A   1      47.796  27.752  33.403  1.00  0.00     0.010 A 
ATOM     83  C   UNL A   1      46.497  26.241  34.784  1.00  0.00     0.010 A 
ATOM     84  C   UNL A   1      48.960  27.355  34.067  1.00  0.00     0.020 A 
ATOM     85  C   UNL A   1      47.653  25.866  35.473  1.00  0.00     0.020 A 
ATOM     86  C   UNL A   1      48.880  26.415  35.101  1.00  0.00     0.054 A 
BRANCH  86  87
ATOM     87  S   UNL A   1      50.400  25.952  35.977  1.00  0.00     0.124 S 
ATOM     88  O   UNL A   1      51.358  26.923  35.459  1.00  0.00    -0.237 OA
ATOM     89  O   UNL A   1      50.025  26.125  37.379  1.00  0.00    -0.237 OA
ATOM     90  O   UNL A   1      50.630  24.569  35.566  1.00  0.00    -0.744 OA
ENDBRANCH  86  87
ENDBRANCH  60  81
ENDBRANCH  34  35
ENDBRANCH  26  29
ENDBRANCH  24  25
ENDBRANCH   1  24
TORSDOF 17
ENDMDL
MODEL 3
REMARK VINA RESULT:     -10.8      3.387      4.460
REMARK SMILES CC(C)[C@H](NS(=O)(=O)N1C[C@@H](C)O[C@H](C)C1)C(=O)NCCCNC(=O)c1ccc(-c2c3nc(c(-c4ccc(S(=O)(=O)[O-])cc4)c4ccc([nH]4)c(-c4ccc(S(=O)(=O)[O-])cc4)c4nc(c(-c5ccc(S(=O)(=O)[O-])cc5)c5ccc2[nH]5)C=C4)C=C3)cc1
REMARK SMILES IDX 21 1 20 2 19 3 17 4 18 5 4 7 2 8 1 9 3 10 5 11 6 13 7 14
REMARK SMILES IDX 8 15 9 16 10 17 16 18 11 19 14 20 12 21 13 22 15 23 22 24
REMARK SMILES IDX 23 25 24 26 25 28 26 29 27 30 85 31 28 32 84 33 29 34 30 35
REMARK SMILES IDX 31 36 78 37 32 38 83 39 77 40 79 41 33 42 82 43 76 44 75 45
REMARK SMILES IDX 34 47 64 48 45 49 63 50 46 51 49 52 62 53 80 54 47 55 48 56
REMARK SMILES IDX 61 58 81 59 50 60 35 61 36 62 44 63 37 64 43 65 38 66 39 67
REMARK SMILES IDX 40 68 41 69 42 70 65 71 66 72 74 73 67 74 73 75 68 76 69 77
REMARK SMILES IDX 70 78 71 79 72 80 51 81 52 82 60 83 53 84 59 85 54 86 55 87
REMARK SMILES IDX 56 88 57 89 58 90
REMARK H PARENT 19 6 5 12 23 27 79 46 49 57
REMARK Flexibility Score: inf
ROOT
ATOM      1  C   UNL A   1      35.663  23.452  25.986  1.00  0.00     0.042 C 
ENDROOT
BRANCH   1   2
ATOM      2  C   UNL A   1      34.240  23.619  25.405  1.00  0.00     0.117 C 
BRANCH   2   3
ATOM      3  N   UNL A   1      33.062  23.767  26.276  1.00  0.00    -0.355 N 
ATOM      4  C   UNL A   1      32.010  24.616  26.490  1.00  0.00     0.238 C 
ATOM      5  O   UNL A   1      31.159  24.143  27.269  1.00  0.00    -0.273 OA
ATOM      6  H   UNL A   1      33.016  23.012  26.906  1.00  0.00     0.163 HD
BRANCH   4   7
ATOM      7  C   UNL A   1      31.751  26.050  25.936  1.00  0.00     0.162 C 
BRANCH   7   8
ATOM      8  C   UNL A   1      32.535  27.041  26.856  1.00  0.00     0.010 C 
ATOM      9  C   UNL A   1      33.788  27.654  26.238  1.00  0.00     0.009 C 
ATOM     10  C   UNL A   1      31.698  28.141  27.497  1.00  0.00     0.009 C 
ENDBRANCH   7   8
BRANCH   7  11
ATOM     11  N   UNL A   1      30.326  26.490  25.518  1.00  0.00    -0.189 NA
ATOM     12  H   UNL A   1      30.291  27.503  25.630  1.00  0.00     0.143 HD
BRANCH  11  13
ATOM     13  S   UNL A   1      29.713  26.147  23.925  1.00  0.00     0.280 S 
ATOM     14  O   UNL A   1      30.082  24.774  23.712  1.00  0.00    -0.195 OA
ATOM     15  O   UNL A   1      28.317  26.544  23.902  1.00  0.00    -0.195 OA
BRANCH  13  16
ATOM     16  N   UNL A   1      30.520  27.050  22.758  1.00  0.00    -0.184 NA
ATOM     17  C   UNL A   1      29.970  28.301  22.188  1.00  0.00     0.135 C 
ATOM     18  C   UNL A   1      31.966  26.908  22.358  1.00  0.00     0.135 C 
ATOM     19  C   UNL A   1      30.794  29.446  22.773  1.00  0.00     0.130 C 
ATOM     20  C   UNL A   1      32.801  28.121  22.852  1.00  0.00     0.130 C 
ATOM     21  C   UNL A   1      30.587  29.361  24.235  1.00  0.00     0.040 C 
ATOM     22  O   UNL A   1      32.185  29.378  22.486  1.00  0.00    -0.373 OA
ATOM     23  C   UNL A   1      34.225  28.238  22.318  1.00  0.00     0.040 C 
ENDBRANCH  13  16
ENDBRANCH  11  13
ENDBRANCH   7  11
ENDBRANCH   4   7
ENDBRANCH   2   3
ENDBRANCH   1   2
BRANCH   1  24
ATOM     24  C   UNL A   1      36.900  23.743  25.122  1.00  0.00     0.118 C 
BRANCH  24  25
ATOM     25  N   UNL A   1      38.024  22.886  25.401  1.00  0.00    -0.352 N 
ATOM     26  C   UNL A   1      39.197  23.129  26.063  1.00  0.00     0.251 C 
ATOM     27  H   UNL A   1      37.933  21.968  25.056  1.00  0.00     0.163 HD
ATOM     28  O   UNL A   1      40.082  22.277  25.988  1.00  0.00    -0.269 OA
BRANCH  26  29
ATOM     29  C   UNL A   1      39.447  24.369  26.843  1.00  0.00     0.039 A 
ATOM     30  C   UNL A   1      40.341  25.294  26.293  1.00  0.00     0.014 A 
ATOM     31  C   UNL A   1      38.957  24.587  28.136  1.00  0.00     0.014 A 
ATOM     32  C   UNL A   1      40.741  26.419  27.020  1.00  0.00     0.010 A 
ATOM     33  C   UNL A   1      39.316  25.747  28.845  1.00  0.00     0.010 A 
ATOM     34  C   UNL A   1      40.229  26.669  28.303  1.00  0.00    -0.014 A 
BRANCH  34  35
ATOM     35  C   UNL A   1      40.665  27.879  29.063  1.00  0.00     0.031 A 
ATOM     36  C   UNL A   1      42.025  27.941  29.716  1.00  0.00     0.074 A 
ATOM     37  C   UNL A   1      39.837  28.942  29.164  1.00  0.00     0.049 A 
ATOM     38  N   UNL A   1      42.569  28.917  30.402  1.00  0.00    -0.248 NA
ATOM     39  C   UNL A   1      42.885  26.752  29.594  1.00  0.00     0.031 C 
ATOM     40  C   UNL A   1      38.490  29.019  28.595  1.00  0.00     0.029 A 
ATOM     41  N   UNL A   1      40.007  30.163  29.775  1.00  0.00    -0.354 N 
ATOM     42  C   UNL A   1      43.819  28.457  30.803  1.00  0.00     0.074 A 
ATOM     43  C   UNL A   1      43.942  27.101  30.314  1.00  0.00     0.031 C 
ATOM     44  C   UNL A   1      37.965  30.226  28.865  1.00  0.00     0.029 A 
ATOM     45  C   UNL A   1      38.916  30.996  29.662  1.00  0.00     0.049 A 
ATOM     46  H   UNL A   1      40.830  30.416  30.250  1.00  0.00     0.167 HD
ATOM     47  C   UNL A   1      44.783  29.106  31.503  1.00  0.00     0.031 A 
ATOM     48  C   UNL A   1      38.693  32.232  30.152  1.00  0.00     0.031 A 
ATOM     49  C   UNL A   1      44.672  30.461  31.980  1.00  0.00     0.049 A 
ATOM     50  C   UNL A   1      39.771  32.917  30.950  1.00  0.00     0.074 A 
ATOM     51  C   UNL A   1      45.622  31.216  32.647  1.00  0.00     0.029 A 
ATOM     52  N   UNL A   1      43.547  31.261  31.853  1.00  0.00    -0.354 N 
ATOM     53  N   UNL A   1      40.971  32.487  31.253  1.00  0.00    -0.248 NA
ATOM     54  C   UNL A   1      39.467  34.262  31.462  1.00  0.00     0.031 C 
ATOM     55  C   UNL A   1      45.050  32.446  32.983  1.00  0.00     0.029 A 
ATOM     56  C   UNL A   1      43.768  32.487  32.461  1.00  0.00     0.049 A 
ATOM     57  H   UNL A   1      42.714  30.998  31.399  1.00  0.00     0.167 HD
ATOM     58  C   UNL A   1      41.575  33.520  31.965  1.00  0.00     0.074 A 
ATOM     59  C   UNL A   1      40.616  34.602  32.030  1.00  0.00     0.031 C 
ATOM     60  C   UNL A   1      42.812  33.564  32.517  1.00  0.00     0.031 A 
BRANCH  47  61
ATOM     61  C   UNL A   1      46.058  28.362  31.819  1.00  0.00    -0.014 A 
ATOM     62  C   UNL A   1      47.180  28.445  30.974  1.00  0.00     0.010 A 
ATOM     63  C   UNL A   1      46.167  27.651  33.028  1.00  0.00     0.010 A 
ATOM     64  C   UNL A   1      48.377  27.812  31.323  1.00  0.00     0.020 A 
ATOM     65  C   UNL A   1      47.371  27.041  33.395  1.00  0.00     0.020 A 
ATOM     66  C   UNL A   1      48.467  27.119  32.534  1.00  0.00     0.054 A 
BRANCH  66  67
ATOM     67  S   UNL A   1      50.051  26.357  32.985  1.00  0.00     0.124 S 
ATOM     68  O   UNL A   1      49.696  24.942  33.059  1.00  0.00    -0.237 OA
ATOM     69  O   UNL A   1      50.913  26.730  31.867  1.00  0.00    -0.237 OA
ATOM     70  O   UNL A   1      50.388  26.981  34.262  1.00  0.00    -0.744 OA
ENDBRANCH  66  67
ENDBRANCH  47  61
BRANCH  48  71
ATOM     71  C   UNL A   1      37.380  32.902  29.926  1.00  0.00    -0.014 A 
ATOM     72  C   UNL A   1      36.333  32.778  30.858  1.00  0.00     0.010 A 
ATOM     73  C   UNL A   1      37.161  33.649  28.754  1.00  0.00     0.010 A 
ATOM     74  C   UNL A   1      35.085  33.358  30.605  1.00  0.00     0.020 A 
ATOM     75  C   UNL A   1      35.927  34.261  28.514  1.00  0.00     0.020 A 
ATOM     76  C   UNL A   1      34.891  34.095  29.433  1.00  0.00     0.054 A 
BRANCH  76  77
ATOM     77  S   UNL A   1      33.271  34.857  29.134  1.00  0.00     0.124 S 
ATOM     78  O   UNL A   1      32.671  34.823  30.463  1.00  0.00    -0.237 OA
ATOM     79  O   UNL A   1      33.635  36.181  28.635  1.00  0.00    -0.237 OA
ATOM     80  O   UNL A   1      32.657  33.974  28.145  1.00  0.00    -0.744 OA
ENDBRANCH  76  77
ENDBRANCH  48  71
BRANCH  60  81
ATOM     81  C   UNL A   1      43.227  34.840  33.207  1.00  0.00    -0.014 A 
ATOM     82  C   UNL A   1      43.050  35.016  34.591  1.00  0.00     0.010 A 
ATOM     83  C   UNL A   1      43.858  35.856  32.464  1.00  0.00     0.010 A 
ATOM     84  C   UNL A   1      43.465  36.198  35.212  1.00  0.00     0.020 A 
ATOM     85  C   UNL A   1      44.304  37.023  33.087  1.00  0.00     0.020 A 
ATOM     86  C   UNL A   1      44.092  37.194  34.456  1.00  0.00     0.054 A 
BRANCH  86  87
ATOM     87  S   UNL A   1      44.662  38.698  35.295  1.00  0.00     0.124 S 
ATOM     88  O   UNL A   1      44.329  38.414  36.688  1.00  0.00    -0.237 OA
ATOM     89  O   UNL A   1      46.090  38.717  34.982  1.00  0.00    -0.237 OA
ATOM     90  O   UNL A   1      43.880  39.761  34.671  1.00  0.00    -0.744 OA
ENDBRANCH  86  87
ENDBRANCH  60  81
ENDBRANCH  34  35
ENDBRANCH  26  29
ENDBRANCH  24  25
ENDBRANCH   1  24
TORSDOF 17
ENDMDL
