MODEL 1
REMARK VINA RESULT:     -11.5      0.000      0.000
REMARK SMILES CC1(C)CCSC[C@@]1(Nc1ccccc1Br)C(=O)NCCCNC(=O)c1ccc(-c2c3nc(c(-c4ccc(S(=O)(=O)[O-])cc4)c4ccc([nH]4)c(-c4ccc(S(=O)(=O)[O-])cc4)c4nc(c(-c5ccc(S(=O)(=O)[O-])cc5)c5ccc2[nH]5)C=C4)C=C3)cc1
REMARK SMILES IDX 21 1 20 2 19 3 17 4 18 5 8 7 1 8 2 9 3 10 4 11 5 12 7 13
REMARK SMILES IDX 6 14 9 15 10 17 11 18 15 19 12 20 14 21 16 22 13 23 22 24
REMARK SMILES IDX 23 25 24 26 25 28 26 29 27 30 85 31 28 32 84 33 29 34 30 35
REMARK SMILES IDX 31 36 78 37 32 38 83 39 77 40 79 41 33 42 82 43 76 44 75 45
REMARK SMILES IDX 34 47 64 48 45 49 63 50 46 51 49 52 62 53 80 54 47 55 48 56
REMARK SMILES IDX 61 58 81 59 50 60 35 61 36 62 44 63 37 64 43 65 38 66 39 67
REMARK SMILES IDX 40 68 41 69 42 70 65 71 66 72 74 73 67 74 73 75 68 76 69 77
REMARK SMILES IDX 70 78 71 79 72 80 51 81 52 82 60 83 53 84 59 85 54 86 55 87
REMARK SMILES IDX 56 88 57 89 58 90
REMARK H PARENT 19 6 9 16 23 27 79 46 49 57
REMARK Flexibility Score: inf
ROOT
ATOM      1  C   UNL A   1      33.885  29.999  27.353  1.00  0.00     0.042 C 
ENDROOT
BRANCH   1   2
ATOM      2  C   UNL A   1      33.921  28.897  26.292  1.00  0.00     0.117 C 
BRANCH   2   3
ATOM      3  N   UNL A   1      33.388  27.623  26.768  1.00  0.00    -0.354 N 
ATOM      4  C   UNL A   1      32.331  26.894  26.296  1.00  0.00     0.247 C 
ATOM      5  O   UNL A   1      31.432  26.710  27.127  1.00  0.00    -0.272 OA
ATOM      6  H   UNL A   1      33.856  27.233  27.541  1.00  0.00     0.163 HD
BRANCH   4   7
ATOM      7  C   UNL A   1      32.249  26.284  24.831  1.00  0.00     0.131 C 
ATOM      8  C   UNL A   1      30.806  28.390  24.268  1.00  0.00     0.014 C 
ATOM      9  C   UNL A   1      30.916  26.855  24.125  1.00  0.00    -0.002 C 
ATOM     10  C   UNL A   1      29.604  26.288  24.747  1.00  0.00     0.014 C 
ATOM     11  C   UNL A   1      30.852  26.509  22.607  1.00  0.00     0.020 C 
ATOM     12  C   UNL A   1      32.015  27.017  21.768  1.00  0.00     0.070 C 
ATOM     13  C   UNL A   1      33.535  26.595  24.013  1.00  0.00     0.108 C 
ATOM     14  S   UNL A   1      33.535  26.167  22.234  1.00  0.00    -0.159 SA
BRANCH   7  15
ATOM     15  N   UNL A   1      32.083  24.778  24.961  1.00  0.00    -0.369 N 
ATOM     16  H   UNL A   1      31.474  24.343  24.322  1.00  0.00     0.161 HD
BRANCH  15  17
ATOM     17  C   UNL A   1      32.706  23.952  25.893  1.00  0.00     0.049 A 
ATOM     18  C   UNL A   1      34.108  23.834  25.825  1.00  0.00     0.027 A 
ATOM     19  C   UNL A   1      32.056  23.165  26.860  1.00  0.00     0.041 A 
ATOM     20  C   UNL A   1      34.837  23.034  26.709  1.00  0.00     0.002 A 
ATOM     21  C   UNL A   1      32.786  22.353  27.747  1.00  0.00     0.018 A 
ATOM     22  Br  UNL A   1      30.171  22.986  26.976  1.00  0.00    -0.049 Br
ATOM     23  C   UNL A   1      34.174  22.296  27.679  1.00  0.00     0.001 A 
ENDBRANCH  15  17
ENDBRANCH   7  15
ENDBRANCH   4   7
ENDBRANCH   2   3
ENDBRANCH   1   2
BRANCH   1  24
ATOM     24  C   UNL A   1      35.253  30.507  27.789  1.00  0.00     0.118 C 
BRANCH  24  25
ATOM     25  N   UNL A   1      35.262  30.915  29.184  1.00  0.00    -0.352 N 
ATOM     26  C   UNL A   1      36.238  30.765  30.140  1.00  0.00     0.251 C 
ATOM     27  H   UNL A   1      34.446  31.370  29.490  1.00  0.00     0.163 HD
ATOM     28  O   UNL A   1      35.948  30.961  31.322  1.00  0.00    -0.269 OA
BRANCH  26  29
ATOM     29  C   UNL A   1      37.616  30.357  29.780  1.00  0.00     0.039 A 
ATOM     30  C   UNL A   1      38.542  30.128  30.804  1.00  0.00     0.014 A 
ATOM     31  C   UNL A   1      38.025  30.257  28.448  1.00  0.00     0.014 A 
ATOM     32  C   UNL A   1      39.854  29.747  30.493  1.00  0.00     0.010 A 
ATOM     33  C   UNL A   1      39.309  29.806  28.140  1.00  0.00     0.010 A 
ATOM     34  C   UNL A   1      40.242  29.556  29.158  1.00  0.00    -0.014 A 
BRANCH  34  35
ATOM     35  C   UNL A   1      41.618  29.115  28.803  1.00  0.00     0.031 A 
ATOM     36  C   UNL A   1      42.745  30.116  28.758  1.00  0.00     0.074 A 
ATOM     37  C   UNL A   1      41.847  27.833  28.455  1.00  0.00     0.049 A 
ATOM     38  N   UNL A   1      43.985  29.944  28.375  1.00  0.00    -0.248 NA
ATOM     39  C   UNL A   1      42.432  31.493  29.173  1.00  0.00     0.031 C 
ATOM     40  C   UNL A   1      40.840  26.769  28.420  1.00  0.00     0.029 A 
ATOM     41  N   UNL A   1      43.000  27.207  28.046  1.00  0.00    -0.354 N 
ATOM     42  C   UNL A   1      44.590  31.193  28.475  1.00  0.00     0.074 A 
ATOM     43  C   UNL A   1      43.575  32.119  28.925  1.00  0.00     0.031 C 
ATOM     44  C   UNL A   1      41.421  25.624  28.025  1.00  0.00     0.029 A 
ATOM     45  C   UNL A   1      42.830  25.877  27.742  1.00  0.00     0.049 A 
ATOM     46  H   UNL A   1      43.867  27.669  27.979  1.00  0.00     0.167 HD
ATOM     47  C   UNL A   1      45.876  31.536  28.227  1.00  0.00     0.031 A 
ATOM     48  C   UNL A   1      43.704  24.965  27.273  1.00  0.00     0.031 A 
ATOM     49  C   UNL A   1      46.898  30.610  27.815  1.00  0.00     0.049 A 
ATOM     50  C   UNL A   1      45.131  25.370  27.020  1.00  0.00     0.074 A 
ATOM     51  C   UNL A   1      48.245  30.854  27.612  1.00  0.00     0.029 A 
ATOM     52  N   UNL A   1      46.689  29.267  27.549  1.00  0.00    -0.354 N 
ATOM     53  N   UNL A   1      45.694  26.544  27.179  1.00  0.00    -0.248 NA
ATOM     54  C   UNL A   1      46.042  24.325  26.530  1.00  0.00     0.031 C 
ATOM     55  C   UNL A   1      48.845  29.666  27.184  1.00  0.00     0.029 A 
ATOM     56  C   UNL A   1      47.879  28.673  27.164  1.00  0.00     0.049 A 
ATOM     57  H   UNL A   1      45.824  28.804  27.622  1.00  0.00     0.167 HD
ATOM     58  C   UNL A   1      47.029  26.371  26.832  1.00  0.00     0.074 A 
ATOM     59  C   UNL A   1      47.193  24.979  26.469  1.00  0.00     0.031 C 
ATOM     60  C   UNL A   1      48.030  27.286  26.813  1.00  0.00     0.031 A 
BRANCH  47  61
ATOM     61  C   UNL A   1      46.264  32.980  28.397  1.00  0.00    -0.014 A 
ATOM     62  C   UNL A   1      46.759  33.457  29.624  1.00  0.00     0.010 A 
ATOM     63  C   UNL A   1      46.205  33.853  27.296  1.00  0.00     0.010 A 
ATOM     64  C   UNL A   1      47.165  34.788  29.752  1.00  0.00     0.020 A 
ATOM     65  C   UNL A   1      46.631  35.179  27.414  1.00  0.00     0.020 A 
ATOM     66  C   UNL A   1      47.099  35.641  28.646  1.00  0.00     0.054 A 
BRANCH  66  67
ATOM     67  S   UNL A   1      47.682  37.349  28.826  1.00  0.00     0.124 S 
ATOM     68  O   UNL A   1      48.502  37.261  30.032  1.00  0.00    -0.237 OA
ATOM     69  O   UNL A   1      48.418  37.571  27.584  1.00  0.00    -0.237 OA
ATOM     70  O   UNL A   1      46.452  38.123  28.964  1.00  0.00    -0.744 OA
ENDBRANCH  66  67
ENDBRANCH  47  61
BRANCH  48  71
ATOM     71  C   UNL A   1      43.258  23.572  27.001  1.00  0.00    -0.014 A 
ATOM     72  C   UNL A   1      43.178  22.631  28.042  1.00  0.00     0.010 A 
ATOM     73  C   UNL A   1      42.927  23.175  25.692  1.00  0.00     0.010 A 
ATOM     74  C   UNL A   1      42.804  21.310  27.776  1.00  0.00     0.020 A 
ATOM     75  C   UNL A   1      42.529  21.862  25.428  1.00  0.00     0.020 A 
ATOM     76  C   UNL A   1      42.486  20.933  26.469  1.00  0.00     0.054 A 
BRANCH  76  77
ATOM     77  S   UNL A   1      41.971  19.223  26.146  1.00  0.00     0.124 S 
ATOM     78  O   UNL A   1      42.793  18.874  24.993  1.00  0.00    -0.237 OA
ATOM     79  O   UNL A   1      42.310  18.546  27.395  1.00  0.00    -0.237 OA
ATOM     80  O   UNL A   1      40.538  19.346  25.883  1.00  0.00    -0.744 OA
ENDBRANCH  76  77
ENDBRANCH  48  71
BRANCH  60  81
ATOM     81  C   UNL A   1      49.399  26.805  26.419  1.00  0.00    -0.014 A 
ATOM     82  C   UNL A   1      50.249  26.191  27.356  1.00  0.00     0.010 A 
ATOM     83  C   UNL A   1      49.819  26.923  25.082  1.00  0.00     0.010 A 
ATOM     84  C   UNL A   1      51.510  25.731  26.967  1.00  0.00     0.020 A 
ATOM     85  C   UNL A   1      51.069  26.442  24.685  1.00  0.00     0.020 A 
ATOM     86  C   UNL A   1      51.912  25.862  25.635  1.00  0.00     0.054 A 
BRANCH  86  87
ATOM     87  S   UNL A   1      53.536  25.218  25.142  1.00  0.00     0.124 S 
ATOM     88  O   UNL A   1      53.342  23.777  25.271  1.00  0.00    -0.237 OA
ATOM     89  O   UNL A   1      53.679  25.713  23.775  1.00  0.00    -0.237 OA
ATOM     90  O   UNL A   1      54.452  25.813  26.112  1.00  0.00    -0.744 OA
ENDBRANCH  86  87
ENDBRANCH  60  81
ENDBRANCH  34  35
ENDBRANCH  26  29
ENDBRANCH  24  25
ENDBRANCH   1  24
TORSDOF 15
ENDMDL
MODEL 2
REMARK VINA RESULT:     -11.4      3.141      3.983
REMARK SMILES CC1(C)CCSC[C@@]1(Nc1ccccc1Br)C(=O)NCCCNC(=O)c1ccc(-c2c3nc(c(-c4ccc(S(=O)(=O)[O-])cc4)c4ccc([nH]4)c(-c4ccc(S(=O)(=O)[O-])cc4)c4nc(c(-c5ccc(S(=O)(=O)[O-])cc5)c5ccc2[nH]5)C=C4)C=C3)cc1
REMARK SMILES IDX 21 1 20 2 19 3 17 4 18 5 8 7 1 8 2 9 3 10 4 11 5 12 7 13
REMARK SMILES IDX 6 14 9 15 10 17 11 18 15 19 12 20 14 21 16 22 13 23 22 24
REMARK SMILES IDX 23 25 24 26 25 28 26 29 27 30 85 31 28 32 84 33 29 34 30 35
REMARK SMILES IDX 31 36 78 37 32 38 83 39 77 40 79 41 33 42 82 43 76 44 75 45
REMARK SMILES IDX 34 47 64 48 45 49 63 50 46 51 49 52 62 53 80 54 47 55 48 56
REMARK SMILES IDX 61 58 81 59 50 60 35 61 36 62 44 63 37 64 43 65 38 66 39 67
REMARK SMILES IDX 40 68 41 69 42 70 65 71 66 72 74 73 67 74 73 75 68 76 69 77
REMARK SMILES IDX 70 78 71 79 72 80 51 81 52 82 60 83 53 84 59 85 54 86 55 87
REMARK SMILES IDX 56 88 57 89 58 90
REMARK H PARENT 19 6 9 16 23 27 79 46 49 57
REMARK Flexibility Score: inf
ROOT
ATOM      1  C   UNL A   1      33.777  28.649  24.674  1.00  0.00     0.042 C 
ENDROOT
BRANCH   1   2
ATOM      2  C   UNL A   1      33.997  27.322  23.946  1.00  0.00     0.117 C 
BRANCH   2   3
ATOM      3  N   UNL A   1      32.758  26.726  23.451  1.00  0.00    -0.354 N 
ATOM      4  C   UNL A   1      32.438  25.407  23.277  1.00  0.00     0.247 C 
ATOM      5  O   UNL A   1      32.152  25.106  22.111  1.00  0.00    -0.272 OA
ATOM      6  H   UNL A   1      32.051  27.367  23.206  1.00  0.00     0.163 HD
BRANCH   4   7
ATOM      7  C   UNL A   1      32.382  24.339  24.452  1.00  0.00     0.131 C 
ATOM      8  C   UNL A   1      29.927  25.168  24.799  1.00  0.00     0.014 C 
ATOM      9  C   UNL A   1      31.256  24.810  25.505  1.00  0.00    -0.002 C 
ATOM     10  C   UNL A   1      31.659  26.090  26.299  1.00  0.00     0.014 C 
ATOM     11  C   UNL A   1      30.951  23.722  26.577  1.00  0.00     0.020 C 
ATOM     12  C   UNL A   1      30.477  22.381  26.037  1.00  0.00     0.070 C 
ATOM     13  C   UNL A   1      32.123  22.906  23.905  1.00  0.00     0.108 C 
ATOM     14  S   UNL A   1      31.805  21.576  25.121  1.00  0.00    -0.159 SA
BRANCH   7  15
ATOM     15  N   UNL A   1      33.720  24.370  25.175  1.00  0.00    -0.369 N 
ATOM     16  H   UNL A   1      33.829  25.053  25.875  1.00  0.00     0.161 HD
BRANCH  15  17
ATOM     17  C   UNL A   1      34.807  23.529  24.947  1.00  0.00     0.049 A 
ATOM     18  C   UNL A   1      35.442  23.611  23.693  1.00  0.00     0.027 A 
ATOM     19  C   UNL A   1      35.290  22.550  25.832  1.00  0.00     0.041 A 
ATOM     20  C   UNL A   1      36.541  22.816  23.355  1.00  0.00     0.002 A 
ATOM     21  C   UNL A   1      36.391  21.744  25.493  1.00  0.00     0.018 A 
ATOM     22  Br  UNL A   1      34.444  22.105  27.471  1.00  0.00    -0.049 Br
ATOM     23  C   UNL A   1      37.022  21.884  24.262  1.00  0.00     0.001 A 
ENDBRANCH  15  17
ENDBRANCH   7  15
ENDBRANCH   4   7
ENDBRANCH   2   3
ENDBRANCH   1   2
BRANCH   1  24
ATOM     24  C   UNL A   1      34.067  28.609  26.169  1.00  0.00     0.118 C 
BRANCH  24  25
ATOM     25  N   UNL A   1      33.784  29.881  26.812  1.00  0.00    -0.352 N 
ATOM     26  C   UNL A   1      34.489  30.557  27.779  1.00  0.00     0.251 C 
ATOM     27  H   UNL A   1      32.963  30.329  26.507  1.00  0.00     0.163 HD
ATOM     28  O   UNL A   1      33.948  31.498  28.363  1.00  0.00    -0.269 OA
BRANCH  26  29
ATOM     29  C   UNL A   1      35.871  30.164  28.144  1.00  0.00     0.039 A 
ATOM     30  C   UNL A   1      36.111  29.639  29.418  1.00  0.00     0.014 A 
ATOM     31  C   UNL A   1      36.943  30.364  27.270  1.00  0.00     0.014 A 
ATOM     32  C   UNL A   1      37.407  29.265  29.792  1.00  0.00     0.010 A 
ATOM     33  C   UNL A   1      38.221  29.923  27.614  1.00  0.00     0.010 A 
ATOM     34  C   UNL A   1      38.471  29.378  28.882  1.00  0.00    -0.014 A 
BRANCH  34  35
ATOM     35  C   UNL A   1      39.851  28.953  29.243  1.00  0.00     0.031 A 
ATOM     36  C   UNL A   1      40.794  29.926  29.905  1.00  0.00     0.074 A 
ATOM     37  C   UNL A   1      40.283  27.719  28.914  1.00  0.00     0.049 A 
ATOM     38  N   UNL A   1      42.060  29.774  30.202  1.00  0.00    -0.248 NA
ATOM     39  C   UNL A   1      40.250  31.248  30.258  1.00  0.00     0.031 C 
ATOM     40  C   UNL A   1      39.487  26.691  28.238  1.00  0.00     0.029 A 
ATOM     41  N   UNL A   1      41.508  27.122  29.091  1.00  0.00    -0.354 N 
ATOM     42  C   UNL A   1      42.470  30.986  30.746  1.00  0.00     0.074 A 
ATOM     43  C   UNL A   1      41.328  31.873  30.712  1.00  0.00     0.031 C 
ATOM     44  C   UNL A   1      40.239  25.591  28.070  1.00  0.00     0.029 A 
ATOM     45  C   UNL A   1      41.579  25.844  28.589  1.00  0.00     0.049 A 
ATOM     46  H   UNL A   1      42.264  27.569  29.538  1.00  0.00     0.167 HD
ATOM     47  C   UNL A   1      43.683  31.327  31.243  1.00  0.00     0.031 A 
ATOM     48  C   UNL A   1      42.610  24.978  28.536  1.00  0.00     0.031 A 
ATOM     49  C   UNL A   1      44.811  30.437  31.314  1.00  0.00     0.049 A 
ATOM     50  C   UNL A   1      43.942  25.378  29.108  1.00  0.00     0.074 A 
ATOM     51  C   UNL A   1      46.057  30.672  31.867  1.00  0.00     0.029 A 
ATOM     52  N   UNL A   1      44.829  29.142  30.822  1.00  0.00    -0.354 N 
ATOM     53  N   UNL A   1      44.289  26.509  29.672  1.00  0.00    -0.248 NA
ATOM     54  C   UNL A   1      45.021  24.380  29.041  1.00  0.00     0.031 C 
ATOM     55  C   UNL A   1      46.844  29.533  31.675  1.00  0.00     0.029 A 
ATOM     56  C   UNL A   1      46.072  28.572  31.041  1.00  0.00     0.049 A 
ATOM     57  H   UNL A   1      44.072  28.693  30.381  1.00  0.00     0.167 HD
ATOM     58  C   UNL A   1      45.618  26.350  30.048  1.00  0.00     0.074 A 
ATOM     59  C   UNL A   1      46.008  25.010  29.662  1.00  0.00     0.031 C 
ATOM     60  C   UNL A   1      46.444  27.237  30.658  1.00  0.00     0.031 A 
BRANCH  47  61
ATOM     61  C   UNL A   1      43.863  32.730  31.758  1.00  0.00    -0.014 A 
ATOM     62  C   UNL A   1      44.320  33.758  30.914  1.00  0.00     0.010 A 
ATOM     63  C   UNL A   1      43.497  33.040  33.081  1.00  0.00     0.010 A 
ATOM     64  C   UNL A   1      44.432  35.066  31.392  1.00  0.00     0.020 A 
ATOM     65  C   UNL A   1      43.587  34.352  33.555  1.00  0.00     0.020 A 
ATOM     66  C   UNL A   1      44.064  35.355  32.710  1.00  0.00     0.054 A 
BRANCH  66  67
ATOM     67  S   UNL A   1      44.169  37.072  33.288  1.00  0.00     0.124 S 
ATOM     68  O   UNL A   1      43.194  37.083  34.376  1.00  0.00    -0.237 OA
ATOM     69  O   UNL A   1      45.566  37.188  33.698  1.00  0.00    -0.237 OA
ATOM     70  O   UNL A   1      43.801  37.857  32.114  1.00  0.00    -0.744 OA
ENDBRANCH  66  67
ENDBRANCH  47  61
BRANCH  48  71
ATOM     71  C   UNL A   1      42.430  23.639  27.911  1.00  0.00    -0.014 A 
ATOM     72  C   UNL A   1      41.905  22.568  28.654  1.00  0.00     0.010 A 
ATOM     73  C   UNL A   1      42.801  23.427  26.570  1.00  0.00     0.010 A 
ATOM     74  C   UNL A   1      41.782  21.300  28.078  1.00  0.00     0.020 A 
ATOM     75  C   UNL A   1      42.655  22.167  25.984  1.00  0.00     0.020 A 
ATOM     76  C   UNL A   1      42.162  21.106  26.747  1.00  0.00     0.054 A 
BRANCH  76  77
ATOM     77  S   UNL A   1      41.965  19.462  26.004  1.00  0.00     0.124 S 
ATOM     78  O   UNL A   1      40.539  19.440  25.697  1.00  0.00    -0.237 OA
ATOM     79  O   UNL A   1      42.860  19.523  24.852  1.00  0.00    -0.237 OA
ATOM     80  O   UNL A   1      42.393  18.557  27.068  1.00  0.00    -0.744 OA
ENDBRANCH  76  77
ENDBRANCH  48  71
BRANCH  60  81
ATOM     81  C   UNL A   1      47.839  26.776  30.976  1.00  0.00    -0.014 A 
ATOM     82  C   UNL A   1      48.888  26.951  30.057  1.00  0.00     0.010 A 
ATOM     83  C   UNL A   1      48.113  26.208  32.234  1.00  0.00     0.010 A 
ATOM     84  C   UNL A   1      50.183  26.537  30.379  1.00  0.00     0.020 A 
ATOM     85  C   UNL A   1      49.411  25.814  32.567  1.00  0.00     0.020 A 
ATOM     86  C   UNL A   1      50.436  25.969  31.631  1.00  0.00     0.054 A 
BRANCH  86  87
ATOM     87  S   UNL A   1      52.133  25.478  32.045  1.00  0.00     0.124 S 
ATOM     88  O   UNL A   1      52.879  25.965  30.888  1.00  0.00    -0.237 OA
ATOM     89  O   UNL A   1      52.379  26.189  33.297  1.00  0.00    -0.237 OA
ATOM     90  O   UNL A   1      52.052  24.024  32.167  1.00  0.00    -0.744 OA
ENDBRANCH  86  87
ENDBRANCH  60  81
ENDBRANCH  34  35
ENDBRANCH  26  29
ENDBRANCH  24  25
ENDBRANCH   1  24
TORSDOF 15
ENDMDL
MODEL 3
REMARK VINA RESULT:     -11.4      4.122      9.931
REMARK SMILES CC1(C)CCSC[C@@]1(Nc1ccccc1Br)C(=O)NCCCNC(=O)c1ccc(-c2c3nc(c(-c4ccc(S(=O)(=O)[O-])cc4)c4ccc([nH]4)c(-c4ccc(S(=O)(=O)[O-])cc4)c4nc(c(-c5ccc(S(=O)(=O)[O-])cc5)c5ccc2[nH]5)C=C4)C=C3)cc1
REMARK SMILES IDX 21 1 20 2 19 3 17 4 18 5 8 7 1 8 2 9 3 10 4 11 5 12 7 13
REMARK SMILES IDX 6 14 9 15 10 17 11 18 15 19 12 20 14 21 16 22 13 23 22 24
REMARK SMILES IDX 23 25 24 26 25 28 26 29 27 30 85 31 28 32 84 33 29 34 30 35
REMARK SMILES IDX 31 36 78 37 32 38 83 39 77 40 79 41 33 42 82 43 76 44 75 45
REMARK SMILES IDX 34 47 64 48 45 49 63 50 46 51 49 52 62 53 80 54 47 55 48 56
REMARK SMILES IDX 61 58 81 59 50 60 35 61 36 62 44 63 37 64 43 65 38 66 39 67
REMARK SMILES IDX 40 68 41 69 42 70 65 71 66 72 74 73 67 74 73 75 68 76 69 77
REMARK SMILES IDX 70 78 71 79 72 80 51 81 52 82 60 83 53 84 59 85 54 86 55 87
REMARK SMILES IDX 56 88 57 89 58 90
REMARK H PARENT 19 6 9 16 23 27 79 46 49 57
REMARK Flexibility Score: inf
ROOT
ATOM      1  C   UNL A   1      35.162  22.663  26.588  1.00  0.00     0.042 C 
ENDROOT
BRANCH   1   2
ATOM      2  C   UNL A   1      33.909  23.530  26.727  1.00  0.00     0.117 C 
BRANCH   2   3
ATOM      3  N   UNL A   1      32.827  23.125  25.832  1.00  0.00    -0.354 N 
ATOM      4  C   UNL A   1      31.864  23.890  25.234  1.00  0.00     0.247 C 
ATOM      5  O   UNL A   1      30.706  23.572  25.536  1.00  0.00    -0.272 OA
ATOM      6  H   UNL A   1      32.785  22.162  25.631  1.00  0.00     0.163 HD
BRANCH   4   7
ATOM      7  C   UNL A   1      32.164  25.060  24.202  1.00  0.00     0.131 C 
ATOM      8  C   UNL A   1      32.220  23.166  22.401  1.00  0.00     0.014 C 
ATOM      9  C   UNL A   1      32.938  24.425  22.936  1.00  0.00    -0.002 C 
ATOM     10  C   UNL A   1      34.386  23.961  23.276  1.00  0.00     0.014 C 
ATOM     11  C   UNL A   1      33.078  25.435  21.758  1.00  0.00     0.020 C 
ATOM     12  C   UNL A   1      31.773  25.990  21.210  1.00  0.00     0.070 C 
ATOM     13  C   UNL A   1      30.862  25.804  23.791  1.00  0.00     0.108 C 
ATOM     14  S   UNL A   1      30.975  27.036  22.442  1.00  0.00    -0.159 SA
BRANCH   7  15
ATOM     15  N   UNL A   1      33.117  26.039  24.871  1.00  0.00    -0.369 N 
ATOM     16  H   UNL A   1      34.076  25.824  24.825  1.00  0.00     0.161 HD
BRANCH  15  17
ATOM     17  C   UNL A   1      32.768  27.209  25.542  1.00  0.00     0.049 A 
ATOM     18  C   UNL A   1      31.991  27.083  26.709  1.00  0.00     0.027 A 
ATOM     19  C   UNL A   1      33.065  28.517  25.122  1.00  0.00     0.041 A 
ATOM     20  C   UNL A   1      31.584  28.189  27.462  1.00  0.00     0.002 A 
ATOM     21  C   UNL A   1      32.651  29.632  25.873  1.00  0.00     0.018 A 
ATOM     22  Br  UNL A   1      33.892  28.929  23.465  1.00  0.00    -0.049 Br
ATOM     23  C   UNL A   1      31.922  29.468  27.046  1.00  0.00     0.001 A 
ENDBRANCH  15  17
ENDBRANCH   7  15
ENDBRANCH   4   7
ENDBRANCH   2   3
ENDBRANCH   1   2
BRANCH   1  24
ATOM     24  C   UNL A   1      36.413  23.418  26.161  1.00  0.00     0.118 C 
BRANCH  24  25
ATOM     25  N   UNL A   1      37.577  22.550  26.096  1.00  0.00    -0.352 N 
ATOM     26  C   UNL A   1      38.905  22.838  26.297  1.00  0.00     0.251 C 
ATOM     27  H   UNL A   1      37.384  21.610  25.876  1.00  0.00     0.163 HD
ATOM     28  O   UNL A   1      39.753  22.013  25.951  1.00  0.00    -0.269 OA
BRANCH  26  29
ATOM     29  C   UNL A   1      39.334  24.123  26.899  1.00  0.00     0.039 A 
ATOM     30  C   UNL A   1      38.962  24.409  28.217  1.00  0.00     0.014 A 
ATOM     31  C   UNL A   1      40.045  25.075  26.164  1.00  0.00     0.014 A 
ATOM     32  C   UNL A   1      39.348  25.617  28.810  1.00  0.00     0.010 A 
ATOM     33  C   UNL A   1      40.493  26.245  26.777  1.00  0.00     0.010 A 
ATOM     34  C   UNL A   1      40.141  26.535  28.104  1.00  0.00    -0.014 A 
BRANCH  34  35
ATOM     35  C   UNL A   1      40.595  27.809  28.725  1.00  0.00     0.031 A 
ATOM     36  C   UNL A   1      41.980  27.913  29.313  1.00  0.00     0.074 A 
ATOM     37  C   UNL A   1      39.746  28.851  28.824  1.00  0.00     0.049 A 
ATOM     38  N   UNL A   1      42.520  28.900  29.983  1.00  0.00    -0.248 NA
ATOM     39  C   UNL A   1      42.864  26.747  29.149  1.00  0.00     0.031 C 
ATOM     40  C   UNL A   1      38.366  28.874  28.330  1.00  0.00     0.029 A 
ATOM     41  N   UNL A   1      39.912  30.092  29.390  1.00  0.00    -0.354 N 
ATOM     42  C   UNL A   1      43.790  28.465  30.344  1.00  0.00     0.074 A 
ATOM     43  C   UNL A   1      43.931  27.114  29.846  1.00  0.00     0.031 C 
ATOM     44  C   UNL A   1      37.819  30.070  28.603  1.00  0.00     0.029 A 
ATOM     45  C   UNL A   1      38.791  30.886  29.324  1.00  0.00     0.049 A 
ATOM     46  H   UNL A   1      40.757  30.386  29.802  1.00  0.00     0.167 HD
ATOM     47  C   UNL A   1      44.757  29.132  31.017  1.00  0.00     0.031 A 
ATOM     48  C   UNL A   1      38.563  32.125  29.803  1.00  0.00     0.031 A 
ATOM     49  C   UNL A   1      44.635  30.489  31.480  1.00  0.00     0.049 A 
ATOM     50  C   UNL A   1      39.660  32.848  30.534  1.00  0.00     0.074 A 
ATOM     51  C   UNL A   1      45.589  31.271  32.107  1.00  0.00     0.029 A 
ATOM     52  N   UNL A   1      43.493  31.265  31.365  1.00  0.00    -0.354 N 
ATOM     53  N   UNL A   1      40.874  32.438  30.811  1.00  0.00    -0.248 NA
ATOM     54  C   UNL A   1      39.357  34.206  31.012  1.00  0.00     0.031 C 
ATOM     55  C   UNL A   1      45.012  32.509  32.407  1.00  0.00     0.029 A 
ATOM     56  C   UNL A   1      43.713  32.512  31.927  1.00  0.00     0.049 A 
ATOM     57  H   UNL A   1      42.651  30.974  30.947  1.00  0.00     0.167 HD
ATOM     58  C   UNL A   1      41.486  33.496  31.474  1.00  0.00     0.074 A 
ATOM     59  C   UNL A   1      40.516  34.568  31.543  1.00  0.00     0.031 C 
ATOM     60  C   UNL A   1      42.741  33.571  31.983  1.00  0.00     0.031 A 
BRANCH  47  61
ATOM     61  C   UNL A   1      46.047  28.409  31.295  1.00  0.00    -0.014 A 
ATOM     62  C   UNL A   1      46.145  27.483  32.349  1.00  0.00     0.010 A 
ATOM     63  C   UNL A   1      47.152  28.600  30.446  1.00  0.00     0.010 A 
ATOM     64  C   UNL A   1      47.333  26.779  32.563  1.00  0.00     0.020 A 
ATOM     65  C   UNL A   1      48.335  27.882  30.643  1.00  0.00     0.020 A 
ATOM     66  C   UNL A   1      48.421  26.983  31.708  1.00  0.00     0.054 A 
BRANCH  66  67
ATOM     67  S   UNL A   1      49.933  26.018  31.977  1.00  0.00     0.124 S 
ATOM     68  O   UNL A   1      49.837  25.010  30.924  1.00  0.00    -0.237 OA
ATOM     69  O   UNL A   1      50.987  27.013  31.796  1.00  0.00    -0.237 OA
ATOM     70  O   UNL A   1      49.786  25.512  33.338  1.00  0.00    -0.744 OA
ENDBRANCH  66  67
ENDBRANCH  47  61
BRANCH  48  71
ATOM     71  C   UNL A   1      37.233  32.766  29.614  1.00  0.00    -0.014 A 
ATOM     72  C   UNL A   1      36.933  33.452  28.424  1.00  0.00     0.010 A 
ATOM     73  C   UNL A   1      36.266  32.708  30.634  1.00  0.00     0.010 A 
ATOM     74  C   UNL A   1      35.701  34.094  28.269  1.00  0.00     0.020 A 
ATOM     75  C   UNL A   1      35.024  33.327  30.471  1.00  0.00     0.020 A 
ATOM     76  C   UNL A   1      34.755  34.031  29.295  1.00  0.00     0.054 A 
BRANCH  76  77
ATOM     77  S   UNL A   1      33.148  34.842  29.064  1.00  0.00     0.124 S 
ATOM     78  O   UNL A   1      32.512  33.975  28.078  1.00  0.00    -0.237 OA
ATOM     79  O   UNL A   1      32.574  34.802  30.407  1.00  0.00    -0.237 OA
ATOM     80  O   UNL A   1      33.508  36.176  28.589  1.00  0.00    -0.744 OA
ENDBRANCH  76  77
ENDBRANCH  48  71
BRANCH  60  81
ATOM     81  C   UNL A   1      43.150  34.866  32.628  1.00  0.00    -0.014 A 
ATOM     82  C   UNL A   1      43.648  35.933  31.861  1.00  0.00     0.010 A 
ATOM     83  C   UNL A   1      42.983  35.033  34.015  1.00  0.00     0.010 A 
ATOM     84  C   UNL A   1      44.002  37.138  32.476  1.00  0.00     0.020 A 
ATOM     85  C   UNL A   1      43.314  36.244  34.629  1.00  0.00     0.020 A 
ATOM     86  C   UNL A   1      43.835  37.284  33.856  1.00  0.00     0.054 A 
BRANCH  86  87
ATOM     87  S   UNL A   1      44.261  38.870  34.627  1.00  0.00     0.124 S 
ATOM     88  O   UNL A   1      43.279  39.770  34.029  1.00  0.00    -0.237 OA
ATOM     89  O   UNL A   1      44.077  38.597  36.051  1.00  0.00    -0.237 OA
ATOM     90  O   UNL A   1      45.645  39.094  34.216  1.00  0.00    -0.744 OA
ENDBRANCH  86  87
ENDBRANCH  60  81
ENDBRANCH  34  35
ENDBRANCH  26  29
ENDBRANCH  24  25
ENDBRANCH   1  24
TORSDOF 15
ENDMDL
