MODEL 1
REMARK VINA RESULT:     -11.2      0.000      0.000
REMARK SMILES CCCCCCNC(=O)Oc1cccc(-c2ccc([C@@H](C)C(=O)NCCCNC(=O)c3ccc(-c4c5nc(c(-c6ccc(S(=O)(=O)[O-])cc6)c6ccc([nH]6)c(-c6ccc(S(=O)(=O)[O-])cc6)c6nc(c(-c7ccc(S(=O)(=O)[O-])cc7)c7ccc4[nH]7)C=C6)C=C5)cc3)cc2C(F)(F)F)c1
REMARK SMILES IDX 20 1 21 2 19 3 16 4 17 5 92 6 18 7 91 8 15 9 11 10 12 11
REMARK SMILES IDX 97 12 13 13 14 14 10 15 8 16 7 17 9 19 6 20 5 21 4 22 3 23
REMARK SMILES IDX 2 24 1 25 93 26 94 27 95 28 96 29 22 30 23 31 24 32 25 34
REMARK SMILES IDX 26 35 27 36 28 37 29 38 30 40 31 41 32 42 90 43 33 44 89 45
REMARK SMILES IDX 34 46 35 47 36 48 83 49 37 50 88 51 82 52 84 53 38 54 87 55
REMARK SMILES IDX 81 56 80 57 39 59 69 60 50 61 68 62 51 63 54 64 67 65 85 66
REMARK SMILES IDX 52 67 53 68 66 70 86 71 55 72 40 73 41 74 49 75 42 76 48 77
REMARK SMILES IDX 43 78 44 79 45 80 46 81 47 82 70 83 71 84 79 85 72 86 78 87
REMARK SMILES IDX 73 88 74 89 75 90 76 91 77 92 56 93 57 94 65 95 58 96 64 97
REMARK SMILES IDX 59 98 60 99 61 100 62 101 63 102
REMARK H PARENT 7 18 24 33 28 39 84 58 54 69
REMARK Flexibility Score: inf
ROOT
ATOM      1  C   UNL A   1      35.467  22.205  23.862  1.00  0.00     0.105 C 
ATOM      2  C   UNL A   1      36.709  22.802  23.202  1.00  0.00     0.023 C 
ENDROOT
BRANCH   1   3
ATOM      3  C   UNL A   1      34.249  23.115  23.883  1.00  0.00    -0.035 A 
ATOM      4  C   UNL A   1      32.056  24.964  23.813  1.00  0.00    -0.006 A 
ATOM      5  C   UNL A   1      31.986  23.686  23.223  1.00  0.00     0.009 A 
ATOM      6  C   UNL A   1      33.226  25.273  24.536  1.00  0.00     0.064 A 
ATOM      7  C   UNL A   1      33.033  22.766  23.308  1.00  0.00     0.005 A 
ATOM      8  C   UNL A   1      34.322  24.370  24.505  1.00  0.00     0.018 A 
BRANCH   4   9
ATOM      9  C   UNL A   1      30.907  25.878  23.627  1.00  0.00    -0.014 A 
ATOM     10  C   UNL A   1      29.892  27.862  22.655  1.00  0.00     0.133 A 
ATOM     11  C   UNL A   1      28.682  27.596  23.286  1.00  0.00     0.047 A 
ATOM     12  C   UNL A   1      30.990  27.009  22.798  1.00  0.00     0.056 A 
ATOM     13  C   UNL A   1      28.566  26.458  24.075  1.00  0.00     0.004 A 
ATOM     14  C   UNL A   1      29.670  25.619  24.255  1.00  0.00     0.009 A 
BRANCH  10  15
ATOM     15  O   UNL A   1      30.006  29.110  22.017  1.00  0.00    -0.410 OA
BRANCH  15  16
ATOM     16  C   UNL A   1      29.513  30.250  22.631  1.00  0.00     0.412 C 
ATOM     17  N   UNL A   1      30.221  30.596  23.750  1.00  0.00    -0.321 N 
ATOM     18  H   UNL A   1      29.881  31.358  24.270  1.00  0.00     0.167 HD
ATOM     19  O   UNL A   1      28.561  30.920  22.251  1.00  0.00    -0.224 OA
BRANCH  17  20
ATOM     20  C   UNL A   1      31.421  29.953  24.247  1.00  0.00     0.119 C 
BRANCH  20  21
ATOM     21  C   UNL A   1      31.335  29.677  25.750  1.00  0.00     0.021 C 
BRANCH  21  22
ATOM     22  C   UNL A   1      32.331  30.468  26.606  1.00  0.00     0.002 C 
BRANCH  22  23
ATOM     23  C   UNL A   1      33.204  29.629  27.544  1.00  0.00    -0.000 C 
BRANCH  23  24
ATOM     24  C   UNL A   1      34.713  29.837  27.394  1.00  0.00    -0.003 C 
ATOM     25  C   UNL A   1      35.146  31.277  27.627  1.00  0.00     0.004 C 
ENDBRANCH  23  24
ENDBRANCH  22  23
ENDBRANCH  21  22
ENDBRANCH  20  21
ENDBRANCH  17  20
ENDBRANCH  15  16
ENDBRANCH  10  15
ENDBRANCH   4   9
BRANCH   6  26
ATOM     26  C   UNL A   1      33.407  26.503  25.402  1.00  0.00     0.417 C 
ATOM     27  F   UNL A   1      33.623  27.619  24.638  1.00  0.00    -0.166 F 
ATOM     28  F   UNL A   1      32.297  26.787  26.139  1.00  0.00    -0.166 F 
ATOM     29  F   UNL A   1      34.447  26.483  26.275  1.00  0.00    -0.166 F 
ENDBRANCH   6  26
ENDBRANCH   1   3
BRANCH   1  30
ATOM     30  C   UNL A   1      35.735  21.473  25.186  1.00  0.00     0.227 C 
ATOM     31  O   UNL A   1      34.823  20.835  25.728  1.00  0.00    -0.274 OA
ATOM     32  N   UNL A   1      36.938  21.448  25.819  1.00  0.00    -0.356 N 
ATOM     33  H   UNL A   1      36.958  20.870  26.617  1.00  0.00     0.163 HD
BRANCH  32  34
ATOM     34  C   UNL A   1      38.197  22.111  25.544  1.00  0.00     0.117 C 
BRANCH  34  35
ATOM     35  C   UNL A   1      38.431  23.305  26.464  1.00  0.00     0.042 C 
BRANCH  35  36
ATOM     36  C   UNL A   1      39.767  23.267  27.187  1.00  0.00     0.118 C 
BRANCH  36  37
ATOM     37  N   UNL A   1      40.869  23.662  26.318  1.00  0.00    -0.352 N 
ATOM     38  C   UNL A   1      41.598  24.827  26.293  1.00  0.00     0.251 C 
ATOM     39  H   UNL A   1      41.132  22.991  25.648  1.00  0.00     0.163 HD
ATOM     40  O   UNL A   1      42.337  25.051  25.337  1.00  0.00    -0.269 OA
BRANCH  38  41
ATOM     41  C   UNL A   1      41.489  25.811  27.394  1.00  0.00     0.039 A 
ATOM     42  C   UNL A   1      42.557  26.680  27.642  1.00  0.00     0.014 A 
ATOM     43  C   UNL A   1      40.352  25.861  28.203  1.00  0.00     0.014 A 
ATOM     44  C   UNL A   1      42.459  27.630  28.663  1.00  0.00     0.010 A 
ATOM     45  C   UNL A   1      40.219  26.865  29.155  1.00  0.00     0.010 A 
ATOM     46  C   UNL A   1      41.277  27.750  29.409  1.00  0.00    -0.014 A 
BRANCH  46  47
ATOM     47  C   UNL A   1      41.124  28.755  30.492  1.00  0.00     0.031 A 
ATOM     48  C   UNL A   1      42.004  28.671  31.711  1.00  0.00     0.074 A 
ATOM     49  C   UNL A   1      40.147  29.681  30.424  1.00  0.00     0.049 A 
ATOM     50  N   UNL A   1      41.939  29.349  32.828  1.00  0.00    -0.248 NA
ATOM     51  C   UNL A   1      43.082  27.667  31.681  1.00  0.00     0.031 C 
ATOM     52  C   UNL A   1      39.211  29.850  29.311  1.00  0.00     0.029 A 
ATOM     53  N   UNL A   1      39.767  30.646  31.324  1.00  0.00    -0.354 N 
ATOM     54  C   UNL A   1      42.941  28.831  33.642  1.00  0.00     0.074 A 
ATOM     55  C   UNL A   1      43.568  27.754  32.911  1.00  0.00     0.031 C 
ATOM     56  C   UNL A   1      38.377  30.867  29.586  1.00  0.00     0.029 A 
ATOM     57  C   UNL A   1      38.686  31.389  30.914  1.00  0.00     0.049 A 
ATOM     58  H   UNL A   1      40.226  30.792  32.183  1.00  0.00     0.167 HD
ATOM     59  C   UNL A   1      43.319  29.230  34.880  1.00  0.00     0.031 A 
ATOM     60  C   UNL A   1      38.007  32.370  31.541  1.00  0.00     0.031 A 
ATOM     61  C   UNL A   1      42.705  30.317  35.594  1.00  0.00     0.049 A 
ATOM     62  C   UNL A   1      38.440  32.793  32.920  1.00  0.00     0.074 A 
ATOM     63  C   UNL A   1      43.043  30.831  36.834  1.00  0.00     0.029 A 
ATOM     64  N   UNL A   1      41.634  31.063  35.128  1.00  0.00    -0.354 N 
ATOM     65  N   UNL A   1      39.418  32.319  33.659  1.00  0.00    -0.248 NA
ATOM     66  C   UNL A   1      37.687  33.887  33.547  1.00  0.00     0.031 C 
ATOM     67  C   UNL A   1      42.147  31.861  37.136  1.00  0.00     0.029 A 
ATOM     68  C   UNL A   1      41.289  32.027  36.060  1.00  0.00     0.049 A 
ATOM     69  H   UNL A   1      41.184  30.927  34.263  1.00  0.00     0.167 HD
ATOM     70  C   UNL A   1      39.419  33.085  34.819  1.00  0.00     0.074 A 
ATOM     71  C   UNL A   1      38.351  34.053  34.684  1.00  0.00     0.031 C 
ATOM     72  C   UNL A   1      40.235  32.996  35.899  1.00  0.00     0.031 A 
BRANCH  59  73
ATOM     73  C   UNL A   1      44.447  28.482  35.539  1.00  0.00    -0.014 A 
ATOM     74  C   UNL A   1      45.770  28.958  35.475  1.00  0.00     0.010 A 
ATOM     75  C   UNL A   1      44.181  27.301  36.258  1.00  0.00     0.010 A 
ATOM     76  C   UNL A   1      46.810  28.246  36.077  1.00  0.00     0.020 A 
ATOM     77  C   UNL A   1      45.215  26.602  36.888  1.00  0.00     0.020 A 
ATOM     78  C   UNL A   1      46.526  27.070  36.778  1.00  0.00     0.054 A 
BRANCH  78  79
ATOM     79  S   UNL A   1      47.893  26.177  37.566  1.00  0.00     0.124 S 
ATOM     80  O   UNL A   1      48.128  25.090  36.619  1.00  0.00    -0.237 OA
ATOM     81  O   UNL A   1      48.943  27.190  37.631  1.00  0.00    -0.237 OA
ATOM     82  O   UNL A   1      47.345  25.770  38.857  1.00  0.00    -0.744 OA
ENDBRANCH  78  79
ENDBRANCH  59  73
BRANCH  60  83
ATOM     83  C   UNL A   1      36.857  33.032  30.866  1.00  0.00    -0.014 A 
ATOM     84  C   UNL A   1      35.539  32.756  31.273  1.00  0.00     0.010 A 
ATOM     85  C   UNL A   1      37.070  33.947  29.819  1.00  0.00     0.010 A 
ATOM     86  C   UNL A   1      34.456  33.365  30.632  1.00  0.00     0.020 A 
ATOM     87  C   UNL A   1      35.992  34.580  29.195  1.00  0.00     0.020 A 
ATOM     88  C   UNL A   1      34.690  34.275  29.597  1.00  0.00     0.054 A 
BRANCH  88  89
ATOM     89  S   UNL A   1      33.271  35.089  28.811  1.00  0.00     0.124 S 
ATOM     90  O   UNL A   1      32.721  34.015  27.991  1.00  0.00    -0.237 OA
ATOM     91  O   UNL A   1      32.461  35.491  29.958  1.00  0.00    -0.237 OA
ATOM     92  O   UNL A   1      33.879  36.194  28.072  1.00  0.00    -0.744 OA
ENDBRANCH  88  89
ENDBRANCH  60  83
BRANCH  72  93
ATOM     93  C   UNL A   1      40.052  34.009  36.997  1.00  0.00    -0.014 A 
ATOM     94  C   UNL A   1      40.767  35.219  37.006  1.00  0.00     0.010 A 
ATOM     95  C   UNL A   1      39.087  33.773  37.993  1.00  0.00     0.010 A 
ATOM     96  C   UNL A   1      40.534  36.166  38.006  1.00  0.00     0.020 A 
ATOM     97  C   UNL A   1      38.831  34.730  38.978  1.00  0.00     0.020 A 
ATOM     98  C   UNL A   1      39.564  35.917  38.984  1.00  0.00     0.054 A 
BRANCH  98  99
ATOM     99  S   UNL A   1      39.236  37.190  40.234  1.00  0.00     0.124 S 
ATOM    100  O   UNL A   1      38.504  36.438  41.249  1.00  0.00    -0.237 OA
ATOM    101  O   UNL A   1      40.580  37.618  40.616  1.00  0.00    -0.237 OA
ATOM    102  O   UNL A   1      38.453  38.190  39.512  1.00  0.00    -0.744 OA
ENDBRANCH  98  99
ENDBRANCH  72  93
ENDBRANCH  46  47
ENDBRANCH  38  41
ENDBRANCH  36  37
ENDBRANCH  35  36
ENDBRANCH  34  35
ENDBRANCH  32  34
ENDBRANCH   1  30
TORSDOF 23
ENDMDL
MODEL 2
REMARK VINA RESULT:     -11.1      2.389      8.643
REMARK SMILES CCCCCCNC(=O)Oc1cccc(-c2ccc([C@@H](C)C(=O)NCCCNC(=O)c3ccc(-c4c5nc(c(-c6ccc(S(=O)(=O)[O-])cc6)c6ccc([nH]6)c(-c6ccc(S(=O)(=O)[O-])cc6)c6nc(c(-c7ccc(S(=O)(=O)[O-])cc7)c7ccc4[nH]7)C=C6)C=C5)cc3)cc2C(F)(F)F)c1
REMARK SMILES IDX 20 1 21 2 19 3 16 4 17 5 92 6 18 7 91 8 15 9 11 10 12 11
REMARK SMILES IDX 97 12 13 13 14 14 10 15 8 16 7 17 9 19 6 20 5 21 4 22 3 23
REMARK SMILES IDX 2 24 1 25 93 26 94 27 95 28 96 29 22 30 23 31 24 32 25 34
REMARK SMILES IDX 26 35 27 36 28 37 29 38 30 40 31 41 32 42 90 43 33 44 89 45
REMARK SMILES IDX 34 46 35 47 36 48 83 49 37 50 88 51 82 52 84 53 38 54 87 55
REMARK SMILES IDX 81 56 80 57 39 59 69 60 50 61 68 62 51 63 54 64 67 65 85 66
REMARK SMILES IDX 52 67 53 68 66 70 86 71 55 72 40 73 41 74 49 75 42 76 48 77
REMARK SMILES IDX 43 78 44 79 45 80 46 81 47 82 70 83 71 84 79 85 72 86 78 87
REMARK SMILES IDX 73 88 74 89 75 90 76 91 77 92 56 93 57 94 65 95 58 96 64 97
REMARK SMILES IDX 59 98 60 99 61 100 62 101 63 102
REMARK H PARENT 7 18 24 33 28 39 84 58 54 69
REMARK Flexibility Score: inf
ROOT
ATOM      1  C   UNL A   1      41.483  22.461  27.186  1.00  0.00     0.105 C 
ATOM      2  C   UNL A   1      41.639  22.442  28.705  1.00  0.00     0.023 C 
ENDROOT
BRANCH   1   3
ATOM      3  C   UNL A   1      40.090  22.811  26.685  1.00  0.00    -0.035 A 
ATOM      4  C   UNL A   1      37.389  23.342  25.878  1.00  0.00    -0.006 A 
ATOM      5  C   UNL A   1      38.217  24.332  26.444  1.00  0.00     0.009 A 
ATOM      6  C   UNL A   1      37.973  22.083  25.627  1.00  0.00     0.064 A 
ATOM      7  C   UNL A   1      39.549  24.087  26.784  1.00  0.00     0.005 A 
ATOM      8  C   UNL A   1      39.291  21.824  26.091  1.00  0.00     0.018 A 
BRANCH   4   9
ATOM      9  C   UNL A   1      35.979  23.694  25.595  1.00  0.00    -0.014 A 
ATOM     10  C   UNL A   1      34.239  24.497  24.101  1.00  0.00     0.133 A 
ATOM     11  C   UNL A   1      33.270  24.343  25.088  1.00  0.00     0.047 A 
ATOM     12  C   UNL A   1      35.574  24.157  24.333  1.00  0.00     0.056 A 
ATOM     13  C   UNL A   1      33.643  23.844  26.329  1.00  0.00     0.004 A 
ATOM     14  C   UNL A   1      34.984  23.538  26.583  1.00  0.00     0.009 A 
BRANCH  10  15
ATOM     15  O   UNL A   1      33.840  25.167  22.931  1.00  0.00    -0.410 OA
BRANCH  15  16
ATOM     16  C   UNL A   1      33.090  24.505  21.972  1.00  0.00     0.412 C 
ATOM     17  N   UNL A   1      31.970  25.200  21.605  1.00  0.00    -0.321 N 
ATOM     18  H   UNL A   1      31.359  24.753  20.977  1.00  0.00     0.167 HD
ATOM     19  O   UNL A   1      33.360  23.424  21.467  1.00  0.00    -0.224 OA
BRANCH  17  20
ATOM     20  C   UNL A   1      31.591  26.527  22.049  1.00  0.00     0.119 C 
BRANCH  20  21
ATOM     21  C   UNL A   1      30.648  26.474  23.253  1.00  0.00     0.021 C 
BRANCH  21  22
ATOM     22  C   UNL A   1      29.774  27.720  23.440  1.00  0.00     0.002 C 
BRANCH  22  23
ATOM     23  C   UNL A   1      30.018  28.851  22.436  1.00  0.00    -0.000 C 
BRANCH  23  24
ATOM     24  C   UNL A   1      29.201  30.123  22.672  1.00  0.00    -0.003 C 
ATOM     25  C   UNL A   1      27.961  30.211  21.795  1.00  0.00     0.004 C 
ENDBRANCH  23  24
ENDBRANCH  22  23
ENDBRANCH  21  22
ENDBRANCH  20  21
ENDBRANCH  17  20
ENDBRANCH  15  16
ENDBRANCH  10  15
ENDBRANCH   4   9
BRANCH   6  26
ATOM     26  C   UNL A   1      37.314  20.965  24.848  1.00  0.00     0.417 C 
ATOM     27  F   UNL A   1      37.109  21.325  23.542  1.00  0.00    -0.166 F 
ATOM     28  F   UNL A   1      38.089  19.845  24.789  1.00  0.00    -0.166 F 
ATOM     29  F   UNL A   1      36.094  20.558  25.283  1.00  0.00    -0.166 F 
ENDBRANCH   6  26
ENDBRANCH   1   3
BRANCH   1  30
ATOM     30  C   UNL A   1      42.139  21.276  26.460  1.00  0.00     0.227 C 
ATOM     31  O   UNL A   1      41.751  20.125  26.692  1.00  0.00    -0.274 OA
ATOM     32  N   UNL A   1      43.129  21.397  25.534  1.00  0.00    -0.356 N 
ATOM     33  H   UNL A   1      43.385  20.546  25.109  1.00  0.00     0.163 HD
BRANCH  32  34
ATOM     34  C   UNL A   1      43.879  22.541  25.054  1.00  0.00     0.117 C 
BRANCH  34  35
ATOM     35  C   UNL A   1      44.787  23.124  26.130  1.00  0.00     0.042 C 
BRANCH  35  36
ATOM     36  C   UNL A   1      44.350  24.494  26.623  1.00  0.00     0.118 C 
BRANCH  36  37
ATOM     37  N   UNL A   1      43.797  25.310  25.550  1.00  0.00    -0.352 N 
ATOM     38  C   UNL A   1      42.952  26.393  25.609  1.00  0.00     0.251 C 
ATOM     39  H   UNL A   1      44.071  25.046  24.642  1.00  0.00     0.163 HD
ATOM     40  O   UNL A   1      42.426  26.800  24.577  1.00  0.00    -0.269 OA
BRANCH  38  41
ATOM     41  C   UNL A   1      42.664  27.055  26.902  1.00  0.00     0.039 A 
ATOM     42  C   UNL A   1      43.359  28.221  27.241  1.00  0.00     0.014 A 
ATOM     43  C   UNL A   1      41.737  26.515  27.795  1.00  0.00     0.014 A 
ATOM     44  C   UNL A   1      43.080  28.872  28.447  1.00  0.00     0.010 A 
ATOM     45  C   UNL A   1      41.396  27.211  28.949  1.00  0.00     0.010 A 
ATOM     46  C   UNL A   1      42.075  28.388  29.298  1.00  0.00    -0.014 A 
BRANCH  46  47
ATOM     47  C   UNL A   1      41.736  29.055  30.581  1.00  0.00     0.031 A 
ATOM     48  C   UNL A   1      40.562  29.997  30.640  1.00  0.00     0.074 A 
ATOM     49  C   UNL A   1      42.525  28.887  31.661  1.00  0.00     0.049 A 
ATOM     50  N   UNL A   1      40.184  30.790  31.609  1.00  0.00    -0.248 NA
ATOM     51  C   UNL A   1      39.719  30.080  29.434  1.00  0.00     0.031 C 
ATOM     52  C   UNL A   1      43.707  28.025  31.726  1.00  0.00     0.029 A 
ATOM     53  N   UNL A   1      42.460  29.453  32.910  1.00  0.00    -0.354 N 
ATOM     54  C   UNL A   1      39.085  31.487  31.119  1.00  0.00     0.074 A 
ATOM     55  C   UNL A   1      38.886  31.059  29.753  1.00  0.00     0.031 C 
ATOM     56  C   UNL A   1      44.245  28.106  32.954  1.00  0.00     0.029 A 
ATOM     57  C   UNL A   1      43.478  29.061  33.748  1.00  0.00     0.049 A 
ATOM     58  H   UNL A   1      41.752  30.081  33.182  1.00  0.00     0.167 HD
ATOM     59  C   UNL A   1      38.300  32.389  31.754  1.00  0.00     0.031 A 
ATOM     60  C   UNL A   1      43.772  29.440  35.007  1.00  0.00     0.031 A 
ATOM     61  C   UNL A   1      38.490  32.795  33.121  1.00  0.00     0.049 A 
ATOM     62  C   UNL A   1      42.889  30.450  35.693  1.00  0.00     0.074 A 
ATOM     63  C   UNL A   1      37.723  33.666  33.874  1.00  0.00     0.029 A 
ATOM     64  N   UNL A   1      39.514  32.350  33.942  1.00  0.00    -0.354 N 
ATOM     65  N   UNL A   1      41.829  31.068  35.227  1.00  0.00    -0.248 NA
ATOM     66  C   UNL A   1      43.235  30.805  37.076  1.00  0.00     0.031 C 
ATOM     67  C   UNL A   1      38.310  33.781  35.138  1.00  0.00     0.029 A 
ATOM     68  C   UNL A   1      39.407  32.936  35.190  1.00  0.00     0.049 A 
ATOM     69  H   UNL A   1      40.215  31.711  33.676  1.00  0.00     0.167 HD
ATOM     70  C   UNL A   1      41.360  31.855  36.273  1.00  0.00     0.074 A 
ATOM     71  C   UNL A   1      42.249  31.632  37.395  1.00  0.00     0.031 C 
ATOM     72  C   UNL A   1      40.289  32.686  36.302  1.00  0.00     0.031 A 
BRANCH  59  73
ATOM     73  C   UNL A   1      37.165  32.998  30.973  1.00  0.00    -0.014 A 
ATOM     74  C   UNL A   1      37.400  33.694  29.773  1.00  0.00     0.010 A 
ATOM     75  C   UNL A   1      35.842  32.849  31.429  1.00  0.00     0.010 A 
ATOM     76  C   UNL A   1      36.340  34.267  29.066  1.00  0.00     0.020 A 
ATOM     77  C   UNL A   1      34.775  33.396  30.709  1.00  0.00     0.020 A 
ATOM     78  C   UNL A   1      35.034  34.118  29.541  1.00  0.00     0.054 A 
BRANCH  78  79
ATOM     79  S   UNL A   1      33.676  34.856  28.593  1.00  0.00     0.124 S 
ATOM     80  O   UNL A   1      34.085  36.256  28.522  1.00  0.00    -0.237 OA
ATOM     81  O   UNL A   1      33.728  34.122  27.331  1.00  0.00    -0.237 OA
ATOM     82  O   UNL A   1      32.496  34.594  29.413  1.00  0.00    -0.744 OA
ENDBRANCH  78  79
ENDBRANCH  59  73
BRANCH  60  83
ATOM     83  C   UNL A   1      44.946  28.851  35.709  1.00  0.00    -0.014 A 
ATOM     84  C   UNL A   1      44.829  27.621  36.382  1.00  0.00     0.010 A 
ATOM     85  C   UNL A   1      46.189  29.509  35.703  1.00  0.00     0.010 A 
ATOM     86  C   UNL A   1      45.925  27.072  37.053  1.00  0.00     0.020 A 
ATOM     87  C   UNL A   1      47.295  28.950  36.348  1.00  0.00     0.020 A 
ATOM     88  C   UNL A   1      47.153  27.740  37.030  1.00  0.00     0.054 A 
BRANCH  88  89
ATOM     89  S   UNL A   1      48.575  26.986  37.868  1.00  0.00     0.124 S 
ATOM     90  O   UNL A   1      49.460  26.681  36.749  1.00  0.00    -0.237 OA
ATOM     91  O   UNL A   1      49.022  28.055  38.758  1.00  0.00    -0.237 OA
ATOM     92  O   UNL A   1      47.996  25.826  38.544  1.00  0.00    -0.744 OA
ENDBRANCH  88  89
ENDBRANCH  60  83
BRANCH  72  93
ATOM     93  C   UNL A   1      39.972  33.371  37.605  1.00  0.00    -0.014 A 
ATOM     94  C   UNL A   1      40.660  34.527  38.013  1.00  0.00     0.010 A 
ATOM     95  C   UNL A   1      38.910  32.888  38.392  1.00  0.00     0.010 A 
ATOM     96  C   UNL A   1      40.304  35.175  39.199  1.00  0.00     0.020 A 
ATOM     97  C   UNL A   1      38.534  33.550  39.563  1.00  0.00     0.020 A 
ATOM     98  C   UNL A   1      39.241  34.684  39.964  1.00  0.00     0.054 A 
BRANCH  98  99
ATOM     99  S   UNL A   1      38.758  35.581  41.465  1.00  0.00     0.124 S 
ATOM    100  O   UNL A   1      37.447  35.008  41.754  1.00  0.00    -0.237 OA
ATOM    101  O   UNL A   1      39.819  35.227  42.405  1.00  0.00    -0.237 OA
ATOM    102  O   UNL A   1      38.749  36.980  41.046  1.00  0.00    -0.744 OA
ENDBRANCH  98  99
ENDBRANCH  72  93
ENDBRANCH  46  47
ENDBRANCH  38  41
ENDBRANCH  36  37
ENDBRANCH  35  36
ENDBRANCH  34  35
ENDBRANCH  32  34
ENDBRANCH   1  30
TORSDOF 23
ENDMDL
MODEL 3
REMARK VINA RESULT:     -11.0      6.374     11.502
REMARK SMILES CCCCCCNC(=O)Oc1cccc(-c2ccc([C@@H](C)C(=O)NCCCNC(=O)c3ccc(-c4c5nc(c(-c6ccc(S(=O)(=O)[O-])cc6)c6ccc([nH]6)c(-c6ccc(S(=O)(=O)[O-])cc6)c6nc(c(-c7ccc(S(=O)(=O)[O-])cc7)c7ccc4[nH]7)C=C6)C=C5)cc3)cc2C(F)(F)F)c1
REMARK SMILES IDX 20 1 21 2 19 3 16 4 17 5 92 6 18 7 91 8 15 9 11 10 12 11
REMARK SMILES IDX 97 12 13 13 14 14 10 15 8 16 7 17 9 19 6 20 5 21 4 22 3 23
REMARK SMILES IDX 2 24 1 25 93 26 94 27 95 28 96 29 22 30 23 31 24 32 25 34
REMARK SMILES IDX 26 35 27 36 28 37 29 38 30 40 31 41 32 42 90 43 33 44 89 45
REMARK SMILES IDX 34 46 35 47 36 48 83 49 37 50 88 51 82 52 84 53 38 54 87 55
REMARK SMILES IDX 81 56 80 57 39 59 69 60 50 61 68 62 51 63 54 64 67 65 85 66
REMARK SMILES IDX 52 67 53 68 66 70 86 71 55 72 40 73 41 74 49 75 42 76 48 77
REMARK SMILES IDX 43 78 44 79 45 80 46 81 47 82 70 83 71 84 79 85 72 86 78 87
REMARK SMILES IDX 73 88 74 89 75 90 76 91 77 92 56 93 57 94 65 95 58 96 64 97
REMARK SMILES IDX 59 98 60 99 61 100 62 101 63 102
REMARK H PARENT 7 18 24 33 28 39 84 58 54 69
REMARK Flexibility Score: inf
ROOT
ATOM      1  C   UNL A   1      34.098  35.002  28.940  1.00  0.00     0.105 C 
ATOM      2  C   UNL A   1      34.405  36.138  27.968  1.00  0.00     0.023 C 
ENDROOT
BRANCH   1   3
ATOM      3  C   UNL A   1      33.730  33.678  28.289  1.00  0.00    -0.035 A 
ATOM      4  C   UNL A   1      33.042  31.096  27.243  1.00  0.00    -0.006 A 
ATOM      5  C   UNL A   1      32.166  32.197  27.173  1.00  0.00     0.009 A 
ATOM      6  C   UNL A   1      34.330  31.334  27.766  1.00  0.00     0.064 A 
ATOM      7  C   UNL A   1      32.524  33.467  27.631  1.00  0.00     0.005 A 
ATOM      8  C   UNL A   1      34.627  32.601  28.334  1.00  0.00     0.018 A 
BRANCH   4   9
ATOM      9  C   UNL A   1      32.548  29.784  26.768  1.00  0.00    -0.014 A 
ATOM     10  C   UNL A   1      32.304  28.094  25.039  1.00  0.00     0.133 A 
ATOM     11  C   UNL A   1      31.599  27.261  25.902  1.00  0.00     0.047 A 
ATOM     12  C   UNL A   1      32.797  29.331  25.462  1.00  0.00     0.056 A 
ATOM     13  C   UNL A   1      31.382  27.672  27.211  1.00  0.00     0.004 A 
ATOM     14  C   UNL A   1      31.837  28.925  27.632  1.00  0.00     0.009 A 
BRANCH  10  15
ATOM     15  O   UNL A   1      32.340  27.708  23.687  1.00  0.00    -0.410 OA
BRANCH  15  16
ATOM     16  C   UNL A   1      32.718  28.620  22.715  1.00  0.00     0.412 C 
ATOM     17  N   UNL A   1      31.649  29.245  22.133  1.00  0.00    -0.321 N 
ATOM     18  H   UNL A   1      31.846  29.856  21.387  1.00  0.00     0.167 HD
ATOM     19  O   UNL A   1      33.866  28.887  22.383  1.00  0.00    -0.224 OA
BRANCH  17  20
ATOM     20  C   UNL A   1      30.255  29.097  22.502  1.00  0.00     0.119 C 
BRANCH  20  21
ATOM     21  C   UNL A   1      29.807  30.191  23.474  1.00  0.00     0.021 C 
BRANCH  21  22
ATOM     22  C   UNL A   1      28.343  30.622  23.326  1.00  0.00     0.002 C 
BRANCH  22  23
ATOM     23  C   UNL A   1      27.984  31.286  21.993  1.00  0.00    -0.000 C 
BRANCH  23  24
ATOM     24  C   UNL A   1      28.518  32.709  21.806  1.00  0.00    -0.003 C 
ATOM     25  C   UNL A   1      28.756  33.438  23.120  1.00  0.00     0.004 C 
ENDBRANCH  23  24
ENDBRANCH  22  23
ENDBRANCH  21  22
ENDBRANCH  20  21
ENDBRANCH  17  20
ENDBRANCH  15  16
ENDBRANCH  10  15
ENDBRANCH   4   9
BRANCH   6  26
ATOM     26  C   UNL A   1      35.471  30.338  27.737  1.00  0.00     0.417 C 
ATOM     27  F   UNL A   1      36.674  30.956  27.958  1.00  0.00    -0.166 F 
ATOM     28  F   UNL A   1      35.369  29.401  28.721  1.00  0.00    -0.166 F 
ATOM     29  F   UNL A   1      35.650  29.652  26.578  1.00  0.00    -0.166 F 
ENDBRANCH   6  26
ENDBRANCH   1   3
BRANCH   1  30
ATOM     30  C   UNL A   1      33.202  35.397  30.125  1.00  0.00     0.227 C 
ATOM     31  O   UNL A   1      32.384  36.316  29.993  1.00  0.00    -0.274 OA
ATOM     32  N   UNL A   1      33.219  34.782  31.338  1.00  0.00    -0.356 N 
ATOM     33  H   UNL A   1      32.529  35.108  31.961  1.00  0.00     0.163 HD
BRANCH  32  34
ATOM     34  C   UNL A   1      34.061  33.739  31.889  1.00  0.00     0.117 C 
BRANCH  34  35
ATOM     35  C   UNL A   1      35.368  34.292  32.447  1.00  0.00     0.042 C 
BRANCH  35  36
ATOM     36  C   UNL A   1      36.095  33.328  33.370  1.00  0.00     0.118 C 
BRANCH  36  37
ATOM     37  N   UNL A   1      35.803  31.937  33.048  1.00  0.00    -0.352 N 
ATOM     38  C   UNL A   1      36.487  31.055  32.247  1.00  0.00     0.251 C 
ATOM     39  H   UNL A   1      34.991  31.574  33.470  1.00  0.00     0.163 HD
ATOM     40  O   UNL A   1      35.952  29.995  31.928  1.00  0.00    -0.269 OA
BRANCH  38  41
ATOM     41  C   UNL A   1      37.847  31.376  31.758  1.00  0.00     0.039 A 
ATOM     42  C   UNL A   1      38.948  31.121  32.583  1.00  0.00     0.014 A 
ATOM     43  C   UNL A   1      38.041  31.959  30.504  1.00  0.00     0.014 A 
ATOM     44  C   UNL A   1      40.240  31.397  32.126  1.00  0.00     0.010 A 
ATOM     45  C   UNL A   1      39.329  32.148  30.016  1.00  0.00     0.010 A 
ATOM     46  C   UNL A   1      40.443  31.886  30.826  1.00  0.00    -0.014 A 
BRANCH  46  47
ATOM     47  C   UNL A   1      41.799  32.179  30.295  1.00  0.00     0.031 A 
ATOM     48  C   UNL A   1      42.340  33.582  30.377  1.00  0.00     0.074 A 
ATOM     49  C   UNL A   1      42.502  31.217  29.665  1.00  0.00     0.049 A 
ATOM     50  N   UNL A   1      43.425  34.084  29.848  1.00  0.00    -0.248 NA
ATOM     51  C   UNL A   1      41.534  34.559  31.130  1.00  0.00     0.031 C 
ATOM     52  C   UNL A   1      42.078  29.826  29.494  1.00  0.00     0.029 A 
ATOM     53  N   UNL A   1      43.720  31.271  29.033  1.00  0.00    -0.354 N 
ATOM     54  C   UNL A   1      43.415  35.436  30.173  1.00  0.00     0.074 A 
ATOM     55  C   UNL A   1      42.193  35.686  30.905  1.00  0.00     0.031 C 
ATOM     56  C   UNL A   1      43.026  29.155  28.819  1.00  0.00     0.029 A 
ATOM     57  C   UNL A   1      44.102  30.078  28.466  1.00  0.00     0.049 A 
ATOM     58  H   UNL A   1      44.269  32.087  28.990  1.00  0.00     0.167 HD
ATOM     59  C   UNL A   1      44.346  36.381  29.905  1.00  0.00     0.031 A 
ATOM     60  C   UNL A   1      45.186  29.764  27.731  1.00  0.00     0.031 A 
ATOM     61  C   UNL A   1      45.570  36.121  29.196  1.00  0.00     0.049 A 
ATOM     62  C   UNL A   1      46.206  30.832  27.438  1.00  0.00     0.074 A 
ATOM     63  C   UNL A   1      46.603  36.998  28.912  1.00  0.00     0.029 A 
ATOM     64  N   UNL A   1      45.930  34.892  28.667  1.00  0.00    -0.354 N 
ATOM     65  N   UNL A   1      46.199  32.097  27.791  1.00  0.00    -0.248 NA
ATOM     66  C   UNL A   1      47.385  30.430  26.659  1.00  0.00     0.031 C 
ATOM     67  C   UNL A   1      47.568  36.308  28.173  1.00  0.00     0.029 A 
ATOM     68  C   UNL A   1      47.164  34.988  28.048  1.00  0.00     0.049 A 
ATOM     69  H   UNL A   1      45.388  34.072  28.722  1.00  0.00     0.167 HD
ATOM     70  C   UNL A   1      47.389  32.630  27.309  1.00  0.00     0.074 A 
ATOM     71  C   UNL A   1      48.093  31.552  26.645  1.00  0.00     0.031 C 
ATOM     72  C   UNL A   1      47.859  33.898  27.410  1.00  0.00     0.031 A 
BRANCH  59  73
ATOM     73  C   UNL A   1      44.073  37.784  30.381  1.00  0.00    -0.014 A 
ATOM     74  C   UNL A   1      43.448  38.726  29.543  1.00  0.00     0.010 A 
ATOM     75  C   UNL A   1      44.419  38.159  31.692  1.00  0.00     0.010 A 
ATOM     76  C   UNL A   1      43.215  40.029  29.991  1.00  0.00     0.020 A 
ATOM     77  C   UNL A   1      44.160  39.453  32.155  1.00  0.00     0.020 A 
ATOM     78  C   UNL A   1      43.576  40.385  31.294  1.00  0.00     0.054 A 
BRANCH  78  79
ATOM     79  S   UNL A   1      43.244  42.077  31.855  1.00  0.00     0.124 S 
ATOM     80  O   UNL A   1      41.918  41.940  32.454  1.00  0.00    -0.237 OA
ATOM     81  O   UNL A   1      44.334  42.324  32.795  1.00  0.00    -0.237 OA
ATOM     82  O   UNL A   1      43.292  42.867  30.628  1.00  0.00    -0.744 OA
ENDBRANCH  78  79
ENDBRANCH  59  73
BRANCH  60  83
ATOM     83  C   UNL A   1      45.372  28.373  27.232  1.00  0.00    -0.014 A 
ATOM     84  C   UNL A   1      45.979  27.400  28.047  1.00  0.00     0.010 A 
ATOM     85  C   UNL A   1      44.938  28.009  25.945  1.00  0.00     0.010 A 
ATOM     86  C   UNL A   1      46.167  26.097  27.577  1.00  0.00     0.020 A 
ATOM     87  C   UNL A   1      45.098  26.700  25.481  1.00  0.00     0.020 A 
ATOM     88  C   UNL A   1      45.724  25.756  26.296  1.00  0.00     0.054 A 
BRANCH  88  89
ATOM     89  S   UNL A   1      45.937  24.046  25.724  1.00  0.00     0.124 S 
ATOM     90  O   UNL A   1      47.164  23.649  26.406  1.00  0.00    -0.237 OA
ATOM     91  O   UNL A   1      44.713  23.401  26.192  1.00  0.00    -0.237 OA
ATOM     92  O   UNL A   1      46.042  24.184  24.273  1.00  0.00    -0.744 OA
ENDBRANCH  88  89
ENDBRANCH  60  83
BRANCH  72  93
ATOM     93  C   UNL A   1      49.225  34.184  26.847  1.00  0.00    -0.014 A 
ATOM     94  C   UNL A   1      50.393  33.918  27.583  1.00  0.00     0.010 A 
ATOM     95  C   UNL A   1      49.338  34.652  25.524  1.00  0.00     0.010 A 
ATOM     96  C   UNL A   1      51.650  34.138  27.012  1.00  0.00     0.020 A 
ATOM     97  C   UNL A   1      50.592  34.846  24.941  1.00  0.00     0.020 A 
ATOM     98  C   UNL A   1      51.741  34.597  25.694  1.00  0.00     0.054 A 
BRANCH  98  99
ATOM     99  S   UNL A   1      53.384  34.813  24.956  1.00  0.00     0.124 S 
ATOM    100  O   UNL A   1      53.210  34.200  23.642  1.00  0.00    -0.237 OA
ATOM    101  O   UNL A   1      53.546  36.264  24.955  1.00  0.00    -0.237 OA
ATOM    102  O   UNL A   1      54.271  34.094  25.867  1.00  0.00    -0.744 OA
ENDBRANCH  98  99
ENDBRANCH  72  93
ENDBRANCH  46  47
ENDBRANCH  38  41
ENDBRANCH  36  37
ENDBRANCH  35  36
ENDBRANCH  34  35
ENDBRANCH  32  34
ENDBRANCH   1  30
TORSDOF 23
ENDMDL
