MODEL 1
REMARK VINA RESULT:     -12.4      0.000      0.000
REMARK SMILES CC(C)[C@H](NC(=O)[C@H]1CC(=O)N(c2ccc(F)cc2)C1)C(=O)N1CCC[C@@H]1C(=O)NCCCNC(=O)c1ccc(-c2c3nc(c(-c4ccc(S(=O)(=O)[O-])cc4)c4ccc([nH]4)c(-c4ccc(S(=O)(=O)[O-])cc4)c4nc(c(-c5ccc(S(=O)(=O)[O-])cc5)c5ccc2[nH]5)C=C4)C=C3)cc1
REMARK SMILES IDX 31 1 30 2 28 3 29 4 27 6 23 7 24 8 25 9 26 10 21 11 22 12
REMARK SMILES IDX 4 13 2 14 1 15 3 16 5 17 6 18 7 20 8 21 9 22 20 23 10 24
REMARK SMILES IDX 12 25 11 26 13 27 14 28 19 29 15 30 18 31 16 32 17 33 32 34
REMARK SMILES IDX 33 35 34 36 35 37 36 39 37 40 38 41 96 42 39 43 95 44 40 45
REMARK SMILES IDX 41 46 42 47 89 48 43 49 94 50 88 51 90 52 44 53 93 54 87 55
REMARK SMILES IDX 86 56 45 58 75 59 56 60 74 61 57 62 60 63 73 64 91 65 58 66
REMARK SMILES IDX 59 67 72 69 92 70 61 71 46 72 47 73 55 74 48 75 54 76 49 77
REMARK SMILES IDX 50 78 51 79 52 80 53 81 76 82 77 83 85 84 78 85 84 86 79 87
REMARK SMILES IDX 80 88 81 89 82 90 83 91 62 92 63 93 71 94 64 95 70 96 65 97
REMARK SMILES IDX 66 98 67 99 68 100 69 101
REMARK H PARENT 30 5 5 19 34 38 90 57 60 68
REMARK Flexibility Score: inf
ROOT
ATOM      1  C   UNL A   1      37.258  22.587  25.272  1.00  0.00     0.117 C 
ENDROOT
BRANCH   1   2
ATOM      2  N   UNL A   1      36.169  22.674  26.216  1.00  0.00    -0.354 N 
ATOM      3  C   UNL A   1      34.895  22.214  26.089  1.00  0.00     0.242 C 
ATOM      4  O   UNL A   1      34.079  22.526  26.962  1.00  0.00    -0.273 OA
ATOM      5  H   UNL A   1      36.377  23.125  27.065  1.00  0.00     0.163 HD
BRANCH   3   6
ATOM      6  C   UNL A   1      34.434  21.486  24.810  1.00  0.00     0.174 C 
ATOM      7  N   UNL A   1      33.407  22.143  23.992  1.00  0.00    -0.329 N 
ATOM      8  C   UNL A   1      32.434  21.175  23.519  1.00  0.00     0.120 C 
ATOM      9  C   UNL A   1      32.472  20.048  24.536  1.00  0.00     0.024 C 
ATOM     10  C   UNL A   1      33.875  20.097  25.140  1.00  0.00     0.037 C 
BRANCH   7  11
ATOM     11  C   UNL A   1      33.644  23.421  23.543  1.00  0.00     0.246 C 
ATOM     12  O   UNL A   1      34.273  23.591  22.492  1.00  0.00    -0.272 OA
BRANCH  11  13
ATOM     13  C   UNL A   1      33.221  24.686  24.345  1.00  0.00     0.174 C 
BRANCH  13  14
ATOM     14  C   UNL A   1      31.671  24.857  24.386  1.00  0.00     0.015 C 
ATOM     15  C   UNL A   1      30.965  24.530  23.068  1.00  0.00     0.010 C 
ATOM     16  C   UNL A   1      31.021  24.098  25.554  1.00  0.00     0.010 C 
ENDBRANCH  13  14
BRANCH  13  17
ATOM     17  N   UNL A   1      33.912  25.946  24.026  1.00  0.00    -0.344 N 
ATOM     18  C   UNL A   1      33.483  27.220  23.837  1.00  0.00     0.226 C 
ATOM     19  H   UNL A   1      34.885  25.843  23.929  1.00  0.00     0.164 HD
ATOM     20  O   UNL A   1      34.273  27.955  23.228  1.00  0.00    -0.275 OA
BRANCH  18  21
ATOM     21  C   UNL A   1      32.194  27.841  24.366  1.00  0.00     0.107 C 
ATOM     22  C   UNL A   1      32.474  28.983  25.342  1.00  0.00     0.116 C 
ATOM     23  C   UNL A   1      31.200  28.428  23.411  1.00  0.00     0.139 C 
ATOM     24  C   UNL A   1      31.326  29.953  25.158  1.00  0.00     0.227 C 
ATOM     25  N   UNL A   1      30.564  29.529  24.073  1.00  0.00    -0.312 N 
ATOM     26  O   UNL A   1      31.156  30.941  25.858  1.00  0.00    -0.274 OA
BRANCH  25  27
ATOM     27  C   UNL A   1      29.634  30.298  23.328  1.00  0.00     0.044 A 
ATOM     28  C   UNL A   1      29.025  31.428  23.882  1.00  0.00     0.029 A 
ATOM     29  C   UNL A   1      29.452  30.033  21.958  1.00  0.00     0.029 A 
ATOM     30  C   UNL A   1      28.309  32.311  23.066  1.00  0.00     0.041 A 
ATOM     31  C   UNL A   1      28.717  30.902  21.150  1.00  0.00     0.041 A 
ATOM     32  C   UNL A   1      28.166  32.044  21.710  1.00  0.00     0.123 A 
ATOM     33  F   UNL A   1      27.496  32.904  20.932  1.00  0.00    -0.207 F 
ENDBRANCH  25  27
ENDBRANCH  18  21
ENDBRANCH  13  17
ENDBRANCH  11  13
ENDBRANCH   7  11
ENDBRANCH   3   6
ENDBRANCH   1   2
BRANCH   1  34
ATOM     34  C   UNL A   1      37.998  21.276  25.366  1.00  0.00     0.042 C 
BRANCH  34  35
ATOM     35  C   UNL A   1      39.292  21.410  26.144  1.00  0.00     0.118 C 
BRANCH  35  36
ATOM     36  N   UNL A   1      40.073  20.175  26.156  1.00  0.00    -0.352 N 
ATOM     37  C   UNL A   1      41.438  20.006  26.172  1.00  0.00     0.251 C 
ATOM     38  H   UNL A   1      39.546  19.343  26.152  1.00  0.00     0.163 HD
ATOM     39  O   UNL A   1      41.928  18.898  25.981  1.00  0.00    -0.269 OA
BRANCH  37  40
ATOM     40  C   UNL A   1      42.298  21.187  26.387  1.00  0.00     0.039 A 
ATOM     41  C   UNL A   1      42.665  21.984  25.303  1.00  0.00     0.014 A 
ATOM     42  C   UNL A   1      42.662  21.548  27.685  1.00  0.00     0.014 A 
ATOM     43  C   UNL A   1      43.308  23.200  25.537  1.00  0.00     0.010 A 
ATOM     44  C   UNL A   1      43.170  22.814  27.922  1.00  0.00     0.010 A 
ATOM     45  C   UNL A   1      43.511  23.652  26.852  1.00  0.00    -0.014 A 
BRANCH  45  46
ATOM     46  C   UNL A   1      44.092  24.986  27.148  1.00  0.00     0.031 A 
ATOM     47  C   UNL A   1      43.199  26.088  27.659  1.00  0.00     0.074 A 
ATOM     48  C   UNL A   1      45.388  25.234  26.869  1.00  0.00     0.049 A 
ATOM     49  N   UNL A   1      43.481  27.347  27.868  1.00  0.00    -0.248 NA
ATOM     50  C   UNL A   1      41.792  25.738  27.923  1.00  0.00     0.031 C 
ATOM     51  C   UNL A   1      46.339  24.269  26.309  1.00  0.00     0.029 A 
ATOM     52  N   UNL A   1      46.129  26.381  27.011  1.00  0.00    -0.354 N 
ATOM     53  C   UNL A   1      42.284  27.940  28.253  1.00  0.00     0.074 A 
ATOM     54  C   UNL A   1      41.262  26.923  28.183  1.00  0.00     0.031 C 
ATOM     55  C   UNL A   1      47.543  24.853  26.195  1.00  0.00     0.029 A 
ATOM     56  C   UNL A   1      47.442  26.242  26.627  1.00  0.00     0.049 A 
ATOM     57  H   UNL A   1      45.754  27.223  27.356  1.00  0.00     0.167 HD
ATOM     58  C   UNL A   1      42.058  29.212  28.659  1.00  0.00     0.031 A 
ATOM     59  C   UNL A   1      48.451  27.135  26.623  1.00  0.00     0.031 A 
ATOM     60  C   UNL A   1      43.088  30.208  28.768  1.00  0.00     0.049 A 
ATOM     61  C   UNL A   1      48.186  28.534  27.108  1.00  0.00     0.074 A 
ATOM     62  C   UNL A   1      42.984  31.504  29.239  1.00  0.00     0.029 A 
ATOM     63  N   UNL A   1      44.412  30.015  28.406  1.00  0.00    -0.354 N 
ATOM     64  N   UNL A   1      47.060  29.057  27.533  1.00  0.00    -0.248 NA
ATOM     65  C   UNL A   1      49.327  29.458  27.124  1.00  0.00     0.031 C 
ATOM     66  C   UNL A   1      44.239  32.110  29.123  1.00  0.00     0.029 A 
ATOM     67  C   UNL A   1      45.135  31.174  28.630  1.00  0.00     0.049 A 
ATOM     68  H   UNL A   1      44.784  29.179  28.046  1.00  0.00     0.167 HD
ATOM     69  C   UNL A   1      47.364  30.365  27.894  1.00  0.00     0.074 A 
ATOM     70  C   UNL A   1      48.781  30.547  27.650  1.00  0.00     0.031 C 
ATOM     71  C   UNL A   1      46.546  31.329  28.383  1.00  0.00     0.031 A 
BRANCH  58  72
ATOM     72  C   UNL A   1      40.646  29.584  29.026  1.00  0.00    -0.014 A 
ATOM     73  C   UNL A   1      39.598  29.463  28.094  1.00  0.00     0.010 A 
ATOM     74  C   UNL A   1      40.357  30.042  30.324  1.00  0.00     0.010 A 
ATOM     75  C   UNL A   1      38.298  29.840  28.437  1.00  0.00     0.020 A 
ATOM     76  C   UNL A   1      39.052  30.390  30.681  1.00  0.00     0.020 A 
ATOM     77  C   UNL A   1      38.034  30.304  29.729  1.00  0.00     0.054 A 
BRANCH  77  78
ATOM     78  S   UNL A   1      36.332  30.767  30.152  1.00  0.00     0.124 S 
ATOM     79  O   UNL A   1      35.648  30.603  28.871  1.00  0.00    -0.237 OA
ATOM     80  O   UNL A   1      35.980  29.791  31.181  1.00  0.00    -0.237 OA
ATOM     81  O   UNL A   1      36.455  32.146  30.621  1.00  0.00    -0.744 OA
ENDBRANCH  77  78
ENDBRANCH  58  72
BRANCH  59  82
ATOM     82  C   UNL A   1      49.809  26.725  26.172  1.00  0.00    -0.014 A 
ATOM     83  C   UNL A   1      50.259  27.052  24.881  1.00  0.00     0.010 A 
ATOM     84  C   UNL A   1      50.668  26.021  27.035  1.00  0.00     0.010 A 
ATOM     85  C   UNL A   1      51.534  26.669  24.454  1.00  0.00     0.020 A 
ATOM     86  C   UNL A   1      51.953  25.659  26.623  1.00  0.00     0.020 A 
ATOM     87  C   UNL A   1      52.375  25.975  25.329  1.00  0.00     0.054 A 
BRANCH  87  88
ATOM     88  S   UNL A   1      54.046  25.536  24.775  1.00  0.00     0.124 S 
ATOM     89  O   UNL A   1      54.879  26.174  25.788  1.00  0.00    -0.237 OA
ATOM     90  O   UNL A   1      54.015  24.075  24.807  1.00  0.00    -0.237 OA
ATOM     91  O   UNL A   1      54.124  26.119  23.437  1.00  0.00    -0.744 OA
ENDBRANCH  87  88
ENDBRANCH  59  82
BRANCH  71  92
ATOM     92  C   UNL A   1      47.167  32.656  28.723  1.00  0.00    -0.014 A 
ATOM     93  C   UNL A   1      47.770  32.880  29.973  1.00  0.00     0.010 A 
ATOM     94  C   UNL A   1      47.200  33.673  27.750  1.00  0.00     0.010 A 
ATOM     95  C   UNL A   1      48.371  34.109  30.253  1.00  0.00     0.020 A 
ATOM     96  C   UNL A   1      47.825  34.892  28.018  1.00  0.00     0.020 A 
ATOM     97  C   UNL A   1      48.395  35.107  29.274  1.00  0.00     0.054 A 
BRANCH  97  98
ATOM     98  S   UNL A   1      49.224  36.676  29.647  1.00  0.00     0.124 S 
ATOM     99  O   UNL A   1      49.362  37.269  28.321  1.00  0.00    -0.237 OA
ATOM    100  O   UNL A   1      48.272  37.338  30.537  1.00  0.00    -0.237 OA
ATOM    101  O   UNL A   1      50.475  36.264  30.280  1.00  0.00    -0.744 OA
ENDBRANCH  97  98
ENDBRANCH  71  92
ENDBRANCH  45  46
ENDBRANCH  37  40
ENDBRANCH  35  36
ENDBRANCH  34  35
ENDBRANCH   1  34
TORSDOF 19
ENDMDL
MODEL 2
REMARK VINA RESULT:     -12.3      2.782      8.945
REMARK SMILES CC(C)[C@H](NC(=O)[C@H]1CC(=O)N(c2ccc(F)cc2)C1)C(=O)N1CCC[C@@H]1C(=O)NCCCNC(=O)c1ccc(-c2c3nc(c(-c4ccc(S(=O)(=O)[O-])cc4)c4ccc([nH]4)c(-c4ccc(S(=O)(=O)[O-])cc4)c4nc(c(-c5ccc(S(=O)(=O)[O-])cc5)c5ccc2[nH]5)C=C4)C=C3)cc1
REMARK SMILES IDX 31 1 30 2 28 3 29 4 27 6 23 7 24 8 25 9 26 10 21 11 22 12
REMARK SMILES IDX 4 13 2 14 1 15 3 16 5 17 6 18 7 20 8 21 9 22 20 23 10 24
REMARK SMILES IDX 12 25 11 26 13 27 14 28 19 29 15 30 18 31 16 32 17 33 32 34
REMARK SMILES IDX 33 35 34 36 35 37 36 39 37 40 38 41 96 42 39 43 95 44 40 45
REMARK SMILES IDX 41 46 42 47 89 48 43 49 94 50 88 51 90 52 44 53 93 54 87 55
REMARK SMILES IDX 86 56 45 58 75 59 56 60 74 61 57 62 60 63 73 64 91 65 58 66
REMARK SMILES IDX 59 67 72 69 92 70 61 71 46 72 47 73 55 74 48 75 54 76 49 77
REMARK SMILES IDX 50 78 51 79 52 80 53 81 76 82 77 83 85 84 78 85 84 86 79 87
REMARK SMILES IDX 80 88 81 89 82 90 83 91 62 92 63 93 71 94 64 95 70 96 65 97
REMARK SMILES IDX 66 98 67 99 68 100 69 101
REMARK H PARENT 30 5 5 19 34 38 90 57 60 68
REMARK Flexibility Score: inf
ROOT
ATOM      1  C   UNL A   1      34.261  29.227  26.840  1.00  0.00     0.117 C 
ENDROOT
BRANCH   1   2
ATOM      2  N   UNL A   1      33.231  28.623  27.651  1.00  0.00    -0.354 N 
ATOM      3  C   UNL A   1      32.040  28.094  27.258  1.00  0.00     0.242 C 
ATOM      4  O   UNL A   1      31.239  27.762  28.137  1.00  0.00    -0.273 OA
ATOM      5  H   UNL A   1      33.415  28.590  28.617  1.00  0.00     0.163 HD
BRANCH   3   6
ATOM      6  C   UNL A   1      31.626  28.080  25.774  1.00  0.00     0.174 C 
ATOM      7  N   UNL A   1      32.561  27.477  24.817  1.00  0.00    -0.329 N 
ATOM      8  C   UNL A   1      32.637  28.272  23.605  1.00  0.00     0.120 C 
ATOM      9  C   UNL A   1      32.260  29.680  24.033  1.00  0.00     0.024 C 
ATOM     10  C   UNL A   1      31.371  29.503  25.262  1.00  0.00     0.037 C 
BRANCH   7  11
ATOM     11  C   UNL A   1      32.970  26.181  25.027  1.00  0.00     0.246 C 
ATOM     12  O   UNL A   1      34.162  25.948  25.268  1.00  0.00    -0.272 OA
BRANCH  11  13
ATOM     13  C   UNL A   1      32.009  24.964  24.898  1.00  0.00     0.174 C 
BRANCH  13  14
ATOM     14  C   UNL A   1      30.991  25.149  23.730  1.00  0.00     0.015 C 
ATOM     15  C   UNL A   1      30.686  23.868  22.950  1.00  0.00     0.010 C 
ATOM     16  C   UNL A   1      29.691  25.835  24.179  1.00  0.00     0.010 C 
ENDBRANCH  13  14
BRANCH  13  17
ATOM     17  N   UNL A   1      31.362  24.483  26.129  1.00  0.00    -0.344 N 
ATOM     18  C   UNL A   1      31.465  23.337  26.849  1.00  0.00     0.226 C 
ATOM     19  H   UNL A   1      30.721  25.126  26.509  1.00  0.00     0.164 HD
ATOM     20  O   UNL A   1      30.519  23.112  27.616  1.00  0.00    -0.275 OA
BRANCH  18  21
ATOM     21  C   UNL A   1      32.645  22.371  26.868  1.00  0.00     0.107 C 
ATOM     22  C   UNL A   1      32.634  21.437  25.659  1.00  0.00     0.116 C 
ATOM     23  C   UNL A   1      34.047  22.901  26.893  1.00  0.00     0.139 C 
ATOM     24  C   UNL A   1      34.092  21.156  25.359  1.00  0.00     0.227 C 
ATOM     25  N   UNL A   1      34.871  21.974  26.173  1.00  0.00    -0.312 N 
ATOM     26  O   UNL A   1      34.468  20.354  24.517  1.00  0.00    -0.274 OA
BRANCH  25  27
ATOM     27  C   UNL A   1      36.236  22.312  25.991  1.00  0.00     0.044 A 
ATOM     28  C   UNL A   1      36.700  23.606  26.251  1.00  0.00     0.029 A 
ATOM     29  C   UNL A   1      37.174  21.298  25.719  1.00  0.00     0.029 A 
ATOM     30  C   UNL A   1      38.074  23.861  26.307  1.00  0.00     0.041 A 
ATOM     31  C   UNL A   1      38.544  21.560  25.751  1.00  0.00     0.041 A 
ATOM     32  C   UNL A   1      38.982  22.837  26.063  1.00  0.00     0.123 A 
ATOM     33  F   UNL A   1      40.296  23.085  26.138  1.00  0.00    -0.207 F 
ENDBRANCH  25  27
ENDBRANCH  18  21
ENDBRANCH  13  17
ENDBRANCH  11  13
ENDBRANCH   7  11
ENDBRANCH   3   6
ENDBRANCH   1   2
BRANCH   1  34
ATOM     34  C   UNL A   1      35.615  29.186  27.504  1.00  0.00     0.042 C 
BRANCH  34  35
ATOM     35  C   UNL A   1      35.925  30.475  28.239  1.00  0.00     0.118 C 
BRANCH  35  36
ATOM     36  N   UNL A   1      35.699  30.372  29.679  1.00  0.00    -0.352 N 
ATOM     37  C   UNL A   1      36.577  30.020  30.677  1.00  0.00     0.251 C 
ATOM     38  H   UNL A   1      34.785  30.585  29.978  1.00  0.00     0.163 HD
ATOM     39  O   UNL A   1      36.168  29.793  31.811  1.00  0.00    -0.269 OA
BRANCH  37  40
ATOM     40  C   UNL A   1      38.011  29.887  30.349  1.00  0.00     0.039 A 
ATOM     41  C   UNL A   1      38.872  29.256  31.247  1.00  0.00     0.014 A 
ATOM     42  C   UNL A   1      38.475  30.311  29.103  1.00  0.00     0.014 A 
ATOM     43  C   UNL A   1      40.176  28.959  30.847  1.00  0.00     0.010 A 
ATOM     44  C   UNL A   1      39.718  29.891  28.660  1.00  0.00     0.010 A 
ATOM     45  C   UNL A   1      40.589  29.220  29.529  1.00  0.00    -0.014 A 
BRANCH  45  46
ATOM     46  C   UNL A   1      41.929  28.823  29.029  1.00  0.00     0.031 A 
ATOM     47  C   UNL A   1      43.021  29.856  28.929  1.00  0.00     0.074 A 
ATOM     48  C   UNL A   1      42.134  27.569  28.576  1.00  0.00     0.049 A 
ATOM     49  N   UNL A   1      44.218  29.744  28.415  1.00  0.00    -0.248 NA
ATOM     50  C   UNL A   1      42.710  31.206  29.431  1.00  0.00     0.031 C 
ATOM     51  C   UNL A   1      41.137  26.494  28.557  1.00  0.00     0.029 A 
ATOM     52  N   UNL A   1      43.254  26.986  28.035  1.00  0.00    -0.354 N 
ATOM     53  C   UNL A   1      44.783  31.011  28.500  1.00  0.00     0.074 A 
ATOM     54  C   UNL A   1      43.779  31.890  29.051  1.00  0.00     0.031 C 
ATOM     55  C   UNL A   1      41.701  25.377  28.070  1.00  0.00     0.029 A 
ATOM     56  C   UNL A   1      43.082  25.663  27.700  1.00  0.00     0.049 A 
ATOM     57  H   UNL A   1      44.099  27.471  27.900  1.00  0.00     0.167 HD
ATOM     58  C   UNL A   1      46.038  31.405  28.179  1.00  0.00     0.031 A 
ATOM     59  C   UNL A   1      43.941  24.781  27.153  1.00  0.00     0.031 A 
ATOM     60  C   UNL A   1      47.047  30.517  27.671  1.00  0.00     0.049 A 
ATOM     61  C   UNL A   1      45.340  25.231  26.832  1.00  0.00     0.074 A 
ATOM     62  C   UNL A   1      48.370  30.793  27.383  1.00  0.00     0.029 A 
ATOM     63  N   UNL A   1      46.843  29.175  27.382  1.00  0.00    -0.354 N 
ATOM     64  N   UNL A   1      45.877  26.419  26.985  1.00  0.00    -0.248 NA
ATOM     65  C   UNL A   1      46.251  24.222  26.278  1.00  0.00     0.031 C 
ATOM     66  C   UNL A   1      48.958  29.628  26.879  1.00  0.00     0.029 A 
ATOM     67  C   UNL A   1      48.014  28.614  26.906  1.00  0.00     0.049 A 
ATOM     68  H   UNL A   1      45.993  28.694  27.501  1.00  0.00     0.167 HD
ATOM     69  C   UNL A   1      47.197  26.292  26.571  1.00  0.00     0.074 A 
ATOM     70  C   UNL A   1      47.381  24.910  26.176  1.00  0.00     0.031 C 
ATOM     71  C   UNL A   1      48.173  27.234  26.522  1.00  0.00     0.031 A 
BRANCH  58  72
ATOM     72  C   UNL A   1      46.384  32.856  28.382  1.00  0.00    -0.014 A 
ATOM     73  C   UNL A   1      46.066  33.821  27.408  1.00  0.00     0.010 A 
ATOM     74  C   UNL A   1      47.018  33.265  29.568  1.00  0.00     0.010 A 
ATOM     75  C   UNL A   1      46.419  35.159  27.595  1.00  0.00     0.020 A 
ATOM     76  C   UNL A   1      47.346  34.609  29.773  1.00  0.00     0.020 A 
ATOM     77  C   UNL A   1      47.060  35.544  28.776  1.00  0.00     0.054 A 
BRANCH  77  78
ATOM     78  S   UNL A   1      47.489  37.292  29.000  1.00  0.00     0.124 S 
ATOM     79  O   UNL A   1      47.747  37.717  27.626  1.00  0.00    -0.237 OA
ATOM     80  O   UNL A   1      46.282  37.843  29.611  1.00  0.00    -0.237 OA
ATOM     81  O   UNL A   1      48.662  37.252  29.870  1.00  0.00    -0.744 OA
ENDBRANCH  77  78
ENDBRANCH  58  72
BRANCH  59  82
ATOM     82  C   UNL A   1      43.511  23.378  26.903  1.00  0.00    -0.014 A 
ATOM     83  C   UNL A   1      43.541  22.846  25.602  1.00  0.00     0.010 A 
ATOM     84  C   UNL A   1      43.088  22.558  27.965  1.00  0.00     0.010 A 
ATOM     85  C   UNL A   1      43.138  21.529  25.364  1.00  0.00     0.020 A 
ATOM     86  C   UNL A   1      42.710  21.232  27.736  1.00  0.00     0.020 A 
ATOM     87  C   UNL A   1      42.727  20.728  26.433  1.00  0.00     0.054 A 
BRANCH  87  88
ATOM     88  S   UNL A   1      42.262  19.005  26.110  1.00  0.00     0.124 S 
ATOM     89  O   UNL A   1      43.157  18.649  25.014  1.00  0.00    -0.237 OA
ATOM     90  O   UNL A   1      42.540  18.357  27.391  1.00  0.00    -0.237 OA
ATOM     91  O   UNL A   1      40.845  19.094  25.762  1.00  0.00    -0.744 OA
ENDBRANCH  87  88
ENDBRANCH  59  82
BRANCH  71  92
ATOM     92  C   UNL A   1      49.534  26.795  26.059  1.00  0.00    -0.014 A 
ATOM     93  C   UNL A   1      49.982  27.067  24.755  1.00  0.00     0.010 A 
ATOM     94  C   UNL A   1      50.401  26.157  26.967  1.00  0.00     0.010 A 
ATOM     95  C   UNL A   1      51.265  26.682  24.357  1.00  0.00     0.020 A 
ATOM     96  C   UNL A   1      51.692  25.796  26.580  1.00  0.00     0.020 A 
ATOM     97  C   UNL A   1      52.112  26.049  25.273  1.00  0.00     0.054 A 
BRANCH  97  98
ATOM     98  S   UNL A   1      53.788  25.601  24.745  1.00  0.00     0.124 S 
ATOM     99  O   UNL A   1      53.792  26.035  23.351  1.00  0.00    -0.237 OA
ATOM    100  O   UNL A   1      54.628  26.382  25.650  1.00  0.00    -0.237 OA
ATOM    101  O   UNL A   1      53.840  24.155  24.948  1.00  0.00    -0.744 OA
ENDBRANCH  97  98
ENDBRANCH  71  92
ENDBRANCH  45  46
ENDBRANCH  37  40
ENDBRANCH  35  36
ENDBRANCH  34  35
ENDBRANCH   1  34
TORSDOF 19
ENDMDL
MODEL 3
REMARK VINA RESULT:     -11.6      3.668      8.794
REMARK SMILES CC(C)[C@H](NC(=O)[C@H]1CC(=O)N(c2ccc(F)cc2)C1)C(=O)N1CCC[C@@H]1C(=O)NCCCNC(=O)c1ccc(-c2c3nc(c(-c4ccc(S(=O)(=O)[O-])cc4)c4ccc([nH]4)c(-c4ccc(S(=O)(=O)[O-])cc4)c4nc(c(-c5ccc(S(=O)(=O)[O-])cc5)c5ccc2[nH]5)C=C4)C=C3)cc1
REMARK SMILES IDX 31 1 30 2 28 3 29 4 27 6 23 7 24 8 25 9 26 10 21 11 22 12
REMARK SMILES IDX 4 13 2 14 1 15 3 16 5 17 6 18 7 20 8 21 9 22 20 23 10 24
REMARK SMILES IDX 12 25 11 26 13 27 14 28 19 29 15 30 18 31 16 32 17 33 32 34
REMARK SMILES IDX 33 35 34 36 35 37 36 39 37 40 38 41 96 42 39 43 95 44 40 45
REMARK SMILES IDX 41 46 42 47 89 48 43 49 94 50 88 51 90 52 44 53 93 54 87 55
REMARK SMILES IDX 86 56 45 58 75 59 56 60 74 61 57 62 60 63 73 64 91 65 58 66
REMARK SMILES IDX 59 67 72 69 92 70 61 71 46 72 47 73 55 74 48 75 54 76 49 77
REMARK SMILES IDX 50 78 51 79 52 80 53 81 76 82 77 83 85 84 78 85 84 86 79 87
REMARK SMILES IDX 80 88 81 89 82 90 83 91 62 92 63 93 71 94 64 95 70 96 65 97
REMARK SMILES IDX 66 98 67 99 68 100 69 101
REMARK H PARENT 30 5 5 19 34 38 90 57 60 68
REMARK Flexibility Score: inf
ROOT
ATOM      1  C   UNL A   1      32.128  27.952  25.786  1.00  0.00     0.117 C 
ENDROOT
BRANCH   1   2
ATOM      2  N   UNL A   1      31.041  28.594  25.086  1.00  0.00    -0.354 N 
ATOM      3  C   UNL A   1      30.799  28.635  23.747  1.00  0.00     0.242 C 
ATOM      4  O   UNL A   1      29.889  29.369  23.349  1.00  0.00    -0.273 OA
ATOM      5  H   UNL A   1      30.389  29.064  25.653  1.00  0.00     0.163 HD
BRANCH   3   6
ATOM      6  C   UNL A   1      31.741  27.940  22.745  1.00  0.00     0.174 C 
ATOM      7  N   UNL A   1      32.253  26.612  23.108  1.00  0.00    -0.329 N 
ATOM      8  C   UNL A   1      33.656  26.492  22.759  1.00  0.00     0.120 C 
ATOM      9  C   UNL A   1      34.189  27.914  22.771  1.00  0.00     0.024 C 
ATOM     10  C   UNL A   1      32.982  28.799  22.471  1.00  0.00     0.037 C 
BRANCH   7  11
ATOM     11  C   UNL A   1      31.348  25.621  23.408  1.00  0.00     0.246 C 
ATOM     12  O   UNL A   1      30.135  25.860  23.338  1.00  0.00    -0.272 OA
BRANCH  11  13
ATOM     13  C   UNL A   1      31.778  24.214  23.915  1.00  0.00     0.174 C 
BRANCH  13  14
ATOM     14  C   UNL A   1      32.195  23.276  22.740  1.00  0.00     0.015 C 
ATOM     15  C   UNL A   1      33.694  22.973  22.677  1.00  0.00     0.010 C 
ATOM     16  C   UNL A   1      31.376  21.976  22.699  1.00  0.00     0.010 C 
ENDBRANCH  13  14
BRANCH  13  17
ATOM     17  N   UNL A   1      30.886  23.543  24.874  1.00  0.00    -0.344 N 
ATOM     18  C   UNL A   1      31.017  22.436  25.650  1.00  0.00     0.226 C 
ATOM     19  H   UNL A   1      30.014  23.987  24.972  1.00  0.00     0.164 HD
ATOM     20  O   UNL A   1      29.953  21.951  26.056  1.00  0.00    -0.275 OA
BRANCH  18  21
ATOM     21  C   UNL A   1      32.319  21.803  26.129  1.00  0.00     0.107 C 
ATOM     22  C   UNL A   1      32.690  20.573  25.303  1.00  0.00     0.116 C 
ATOM     23  C   UNL A   1      33.582  22.610  26.148  1.00  0.00     0.139 C 
ATOM     24  C   UNL A   1      34.204  20.542  25.292  1.00  0.00     0.227 C 
ATOM     25  N   UNL A   1      34.670  21.715  25.880  1.00  0.00    -0.312 N 
ATOM     26  O   UNL A   1      34.860  19.628  24.814  1.00  0.00    -0.274 OA
BRANCH  25  27
ATOM     27  C   UNL A   1      35.968  22.274  25.765  1.00  0.00     0.044 A 
ATOM     28  C   UNL A   1      36.192  23.634  26.001  1.00  0.00     0.029 A 
ATOM     29  C   UNL A   1      37.077  21.426  25.586  1.00  0.00     0.029 A 
ATOM     30  C   UNL A   1      37.497  24.119  26.127  1.00  0.00     0.041 A 
ATOM     31  C   UNL A   1      38.380  21.916  25.688  1.00  0.00     0.041 A 
ATOM     32  C   UNL A   1      38.577  23.257  25.975  1.00  0.00     0.123 A 
ATOM     33  F   UNL A   1      39.824  23.726  26.117  1.00  0.00    -0.207 F 
ENDBRANCH  25  27
ENDBRANCH  18  21
ENDBRANCH  13  17
ENDBRANCH  11  13
ENDBRANCH   7  11
ENDBRANCH   3   6
ENDBRANCH   1   2
BRANCH   1  34
ATOM     34  C   UNL A   1      32.215  28.379  27.230  1.00  0.00     0.042 C 
BRANCH  34  35
ATOM     35  C   UNL A   1      33.621  28.794  27.616  1.00  0.00     0.118 C 
BRANCH  35  36
ATOM     36  N   UNL A   1      33.719  30.213  27.952  1.00  0.00    -0.352 N 
ATOM     37  C   UNL A   1      34.774  30.911  28.491  1.00  0.00     0.251 C 
ATOM     38  H   UNL A   1      32.913  30.746  27.765  1.00  0.00     0.163 HD
ATOM     39  O   UNL A   1      34.617  32.059  28.892  1.00  0.00    -0.269 OA
BRANCH  37  40
ATOM     40  C   UNL A   1      36.084  30.239  28.610  1.00  0.00     0.039 A 
ATOM     41  C   UNL A   1      36.975  30.262  27.537  1.00  0.00     0.014 A 
ATOM     42  C   UNL A   1      36.457  29.667  29.827  1.00  0.00     0.014 A 
ATOM     43  C   UNL A   1      38.279  29.801  27.723  1.00  0.00     0.010 A 
ATOM     44  C   UNL A   1      37.786  29.343  30.048  1.00  0.00     0.010 A 
ATOM     45  C   UNL A   1      38.711  29.394  28.997  1.00  0.00    -0.014 A 
BRANCH  45  46
ATOM     46  C   UNL A   1      40.117  29.000  29.265  1.00  0.00     0.031 A 
ATOM     47  C   UNL A   1      41.068  30.003  29.866  1.00  0.00     0.074 A 
ATOM     48  C   UNL A   1      40.561  27.785  28.883  1.00  0.00     0.049 A 
ATOM     49  N   UNL A   1      42.354  29.899  30.073  1.00  0.00    -0.248 NA
ATOM     50  C   UNL A   1      40.506  31.313  30.242  1.00  0.00     0.031 C 
ATOM     51  C   UNL A   1      39.755  26.749  28.230  1.00  0.00     0.029 A 
ATOM     52  N   UNL A   1      41.807  27.218  28.982  1.00  0.00    -0.354 N 
ATOM     53  C   UNL A   1      42.757  31.135  30.565  1.00  0.00     0.074 A 
ATOM     54  C   UNL A   1      41.596  31.993  30.564  1.00  0.00     0.031 C 
ATOM     55  C   UNL A   1      40.516  25.662  28.025  1.00  0.00     0.029 A 
ATOM     56  C   UNL A   1      41.872  25.935  28.487  1.00  0.00     0.049 A 
ATOM     57  H   UNL A   1      42.581  27.685  29.370  1.00  0.00     0.167 HD
ATOM     58  C   UNL A   1      43.977  31.515  31.010  1.00  0.00     0.031 A 
ATOM     59  C   UNL A   1      42.908  25.079  28.413  1.00  0.00     0.031 A 
ATOM     60  C   UNL A   1      45.119  30.644  31.048  1.00  0.00     0.049 A 
ATOM     61  C   UNL A   1      44.249  25.511  28.942  1.00  0.00     0.074 A 
ATOM     62  C   UNL A   1      46.382  30.903  31.548  1.00  0.00     0.029 A 
ATOM     63  N   UNL A   1      45.132  29.341  30.574  1.00  0.00    -0.354 N 
ATOM     64  N   UNL A   1      44.593  26.663  29.468  1.00  0.00    -0.248 NA
ATOM     65  C   UNL A   1      45.336  24.526  28.878  1.00  0.00     0.031 C 
ATOM     66  C   UNL A   1      47.173  29.769  31.338  1.00  0.00     0.029 A 
ATOM     67  C   UNL A   1      46.387  28.786  30.757  1.00  0.00     0.049 A 
ATOM     68  H   UNL A   1      44.363  28.879  30.171  1.00  0.00     0.167 HD
ATOM     69  C   UNL A   1      45.930  26.531  29.823  1.00  0.00     0.074 A 
ATOM     70  C   UNL A   1      46.327  25.184  29.466  1.00  0.00     0.031 C 
ATOM     71  C   UNL A   1      46.756  27.441  30.395  1.00  0.00     0.031 A 
BRANCH  58  72
ATOM     72  C   UNL A   1      44.128  32.931  31.500  1.00  0.00    -0.014 A 
ATOM     73  C   UNL A   1      44.513  33.965  30.625  1.00  0.00     0.010 A 
ATOM     74  C   UNL A   1      43.864  33.239  32.846  1.00  0.00     0.010 A 
ATOM     75  C   UNL A   1      44.679  35.268  31.097  1.00  0.00     0.020 A 
ATOM     76  C   UNL A   1      43.998  34.549  33.316  1.00  0.00     0.020 A 
ATOM     77  C   UNL A   1      44.423  35.551  32.442  1.00  0.00     0.054 A 
BRANCH  77  78
ATOM     78  S   UNL A   1      44.626  37.257  33.023  1.00  0.00     0.124 S 
ATOM     79  O   UNL A   1      44.083  38.023  31.904  1.00  0.00    -0.237 OA
ATOM     80  O   UNL A   1      43.826  37.278  34.245  1.00  0.00    -0.237 OA
ATOM     81  O   UNL A   1      46.068  37.385  33.224  1.00  0.00    -0.744 OA
ENDBRANCH  77  78
ENDBRANCH  58  72
BRANCH  59  82
ATOM     82  C   UNL A   1      42.712  23.717  27.844  1.00  0.00    -0.014 A 
ATOM     83  C   UNL A   1      42.141  22.695  28.623  1.00  0.00     0.010 A 
ATOM     84  C   UNL A   1      43.076  23.438  26.514  1.00  0.00     0.010 A 
ATOM     85  C   UNL A   1      41.955  21.416  28.091  1.00  0.00     0.020 A 
ATOM     86  C   UNL A   1      42.867  22.168  25.969  1.00  0.00     0.020 A 
ATOM     87  C   UNL A   1      42.318  21.160  26.766  1.00  0.00     0.054 A 
BRANCH  87  88
ATOM     88  S   UNL A   1      42.016  19.509  26.078  1.00  0.00     0.124 S 
ATOM     89  O   UNL A   1      40.573  19.527  25.866  1.00  0.00    -0.237 OA
ATOM     90  O   UNL A   1      42.835  19.517  24.867  1.00  0.00    -0.237 OA
ATOM     91  O   UNL A   1      42.487  18.611  27.131  1.00  0.00    -0.744 OA
ENDBRANCH  87  88
ENDBRANCH  59  82
BRANCH  71  92
ATOM     92  C   UNL A   1      48.161  27.003  30.703  1.00  0.00    -0.014 A 
ATOM     93  C   UNL A   1      49.213  27.242  29.801  1.00  0.00     0.010 A 
ATOM     94  C   UNL A   1      48.441  26.399  31.944  1.00  0.00     0.010 A 
ATOM     95  C   UNL A   1      50.517  26.857  30.124  1.00  0.00     0.020 A 
ATOM     96  C   UNL A   1      49.746  26.038  32.280  1.00  0.00     0.020 A 
ATOM     97  C   UNL A   1      50.775  26.258  31.361  1.00  0.00     0.054 A 
BRANCH  97  98
ATOM     98  S   UNL A   1      52.483  25.811  31.774  1.00  0.00     0.124 S 
ATOM     99  O   UNL A   1      52.335  24.431  32.226  1.00  0.00    -0.237 OA
ATOM    100  O   UNL A   1      53.177  25.985  30.500  1.00  0.00    -0.237 OA
ATOM    101  O   UNL A   1      52.851  26.771  32.812  1.00  0.00    -0.744 OA
ENDBRANCH  97  98
ENDBRANCH  71  92
ENDBRANCH  45  46
ENDBRANCH  37  40
ENDBRANCH  35  36
ENDBRANCH  34  35
ENDBRANCH   1  34
TORSDOF 19
ENDMDL
