MODEL 1
REMARK VINA RESULT:     -12.2      0.000      0.000
REMARK SMILES O=C(NCCCNC(=O)[C@@]12CN(CC3CC3)C(=O)[C@@H]1CN(c1nc3ccccc3o1)C2)c1ccc(-c2c3nc(c(-c4ccc(S(=O)(=O)[O-])cc4)c4ccc([nH]4)c(-c4ccc(S(=O)(=O)[O-])cc4)c4nc(c(-c5ccc(S(=O)(=O)[O-])cc5)c5ccc2[nH]5)C=C4)C=C3)cc1
REMARK SMILES IDX 4 1 3 2 1 3 2 4 32 6 33 7 91 8 34 9 90 10 35 11 36 12 37 13
REMARK SMILES IDX 84 14 38 15 89 16 83 17 85 18 39 19 88 20 82 21 81 22 40 24
REMARK SMILES IDX 70 25 51 26 69 27 52 28 55 29 68 30 86 31 53 32 54 33 67 35
REMARK SMILES IDX 87 36 56 37 41 38 42 39 50 40 43 41 49 42 44 43 45 44 46 45
REMARK SMILES IDX 47 46 48 47 71 48 72 49 80 50 73 51 79 52 74 53 75 54 76 55
REMARK SMILES IDX 77 56 78 57 57 58 58 59 66 60 59 61 65 62 60 63 61 64 62 65
REMARK SMILES IDX 63 66 64 67 5 68 6 69 7 70 8 71 9 73 10 74 11 75 19 76 31 77
REMARK SMILES IDX 12 78 17 79 20 80 21 81 18 82 13 83 14 84 15 85 16 86 22 87
REMARK SMILES IDX 23 88 30 89 24 90 29 91 25 92 28 93 26 94 27 95
REMARK H PARENT 3 5 85 23 55 34 7 72
REMARK Flexibility Score: inf
ROOT
ATOM      1  C   UNL A   1      36.583  23.932  25.913  1.00  0.00     0.118 C 
ENDROOT
BRANCH   1   2
ATOM      2  N   UNL A   1      37.587  22.874  25.984  1.00  0.00    -0.352 N 
ATOM      3  O   UNL A   1      39.650  21.983  26.133  1.00  0.00    -0.269 OA
ATOM      4  C   UNL A   1      38.911  22.939  26.346  1.00  0.00     0.251 C 
ATOM      5  H   UNL A   1      37.266  21.978  25.734  1.00  0.00     0.163 HD
BRANCH   4   6
ATOM      6  C   UNL A   1      39.433  24.170  26.972  1.00  0.00     0.039 A 
ATOM      7  C   UNL A   1      39.259  24.383  28.338  1.00  0.00     0.014 A 
ATOM      8  C   UNL A   1      40.096  25.121  26.192  1.00  0.00     0.014 A 
ATOM      9  C   UNL A   1      39.561  25.618  28.885  1.00  0.00     0.010 A 
ATOM     10  C   UNL A   1      40.520  26.318  26.776  1.00  0.00     0.010 A 
ATOM     11  C   UNL A   1      40.225  26.590  28.121  1.00  0.00    -0.014 A 
BRANCH  11  12
ATOM     12  C   UNL A   1      40.666  27.836  28.792  1.00  0.00     0.031 A 
ATOM     13  C   UNL A   1      42.078  28.013  29.273  1.00  0.00     0.074 A 
ATOM     14  C   UNL A   1      39.771  28.838  28.911  1.00  0.00     0.049 A 
ATOM     15  N   UNL A   1      42.620  29.056  29.847  1.00  0.00    -0.248 NA
ATOM     16  C   UNL A   1      42.998  26.878  29.102  1.00  0.00     0.031 C 
ATOM     17  C   UNL A   1      38.368  28.771  28.483  1.00  0.00     0.029 A 
ATOM     18  N   UNL A   1      39.906  30.114  29.390  1.00  0.00    -0.354 N 
ATOM     19  C   UNL A   1      43.930  28.695  30.138  1.00  0.00     0.074 A 
ATOM     20  C   UNL A   1      44.101  27.332  29.684  1.00  0.00     0.031 C 
ATOM     21  C   UNL A   1      37.797  29.970  28.651  1.00  0.00     0.029 A 
ATOM     22  C   UNL A   1      38.762  30.866  29.274  1.00  0.00     0.049 A 
ATOM     23  H   UNL A   1      40.743  30.459  29.780  1.00  0.00     0.167 HD
ATOM     24  C   UNL A   1      44.897  29.435  30.731  1.00  0.00     0.031 A 
ATOM     25  C   UNL A   1      38.503  32.133  29.644  1.00  0.00     0.031 A 
ATOM     26  C   UNL A   1      44.717  30.798  31.164  1.00  0.00     0.049 A 
ATOM     27  C   UNL A   1      39.592  32.928  30.295  1.00  0.00     0.074 A 
ATOM     28  C   UNL A   1      45.643  31.644  31.750  1.00  0.00     0.029 A 
ATOM     29  N   UNL A   1      43.532  31.513  31.061  1.00  0.00    -0.354 N 
ATOM     30  N   UNL A   1      40.827  32.570  30.549  1.00  0.00    -0.248 NA
ATOM     31  C   UNL A   1      39.253  34.293  30.715  1.00  0.00     0.031 C 
ATOM     32  C   UNL A   1      45.006  32.855  32.040  1.00  0.00     0.029 A 
ATOM     33  C   UNL A   1      43.698  32.782  31.590  1.00  0.00     0.049 A 
ATOM     34  H   UNL A   1      42.697  31.169  30.668  1.00  0.00     0.167 HD
ATOM     35  C   UNL A   1      41.417  33.668  31.160  1.00  0.00     0.074 A 
ATOM     36  C   UNL A   1      40.410  34.710  31.211  1.00  0.00     0.031 C 
ATOM     37  C   UNL A   1      42.678  33.798  31.643  1.00  0.00     0.031 A 
BRANCH  24  38
ATOM     38  C   UNL A   1      46.230  28.779  30.981  1.00  0.00    -0.014 A 
ATOM     39  C   UNL A   1      47.281  28.876  30.052  1.00  0.00     0.010 A 
ATOM     40  C   UNL A   1      46.448  28.099  32.193  1.00  0.00     0.010 A 
ATOM     41  C   UNL A   1      48.516  28.277  30.317  1.00  0.00     0.020 A 
ATOM     42  C   UNL A   1      47.689  27.517  32.472  1.00  0.00     0.020 A 
ATOM     43  C   UNL A   1      48.711  27.598  31.524  1.00  0.00     0.054 A 
BRANCH  43  44
ATOM     44  S   UNL A   1      50.332  26.852  31.856  1.00  0.00     0.124 S 
ATOM     45  O   UNL A   1      49.977  25.454  32.087  1.00  0.00    -0.237 OA
ATOM     46  O   UNL A   1      51.067  27.117  30.621  1.00  0.00    -0.237 OA
ATOM     47  O   UNL A   1      50.814  27.575  33.029  1.00  0.00    -0.744 OA
ENDBRANCH  43  44
ENDBRANCH  24  38
BRANCH  25  48
ATOM     48  C   UNL A   1      37.145  32.694  29.425  1.00  0.00    -0.014 A 
ATOM     49  C   UNL A   1      36.226  32.786  30.483  1.00  0.00     0.010 A 
ATOM     50  C   UNL A   1      36.789  33.202  28.161  1.00  0.00     0.010 A 
ATOM     51  C   UNL A   1      34.974  33.375  30.281  1.00  0.00     0.020 A 
ATOM     52  C   UNL A   1      35.551  33.817  27.963  1.00  0.00     0.020 A 
ATOM     53  C   UNL A   1      34.648  33.891  29.023  1.00  0.00     0.054 A 
BRANCH  53  54
ATOM     54  S   UNL A   1      33.052  34.725  28.801  1.00  0.00     0.124 S 
ATOM     55  O   UNL A   1      33.461  36.030  28.293  1.00  0.00    -0.237 OA
ATOM     56  O   UNL A   1      32.370  33.857  27.843  1.00  0.00    -0.237 OA
ATOM     57  O   UNL A   1      32.478  34.724  30.145  1.00  0.00    -0.744 OA
ENDBRANCH  53  54
ENDBRANCH  25  48
BRANCH  37  58
ATOM     58  C   UNL A   1      43.033  35.122  32.256  1.00  0.00    -0.014 A 
ATOM     59  C   UNL A   1      42.770  35.385  33.611  1.00  0.00     0.010 A 
ATOM     60  C   UNL A   1      43.668  36.103  31.473  1.00  0.00     0.010 A 
ATOM     61  C   UNL A   1      43.105  36.622  34.166  1.00  0.00     0.020 A 
ATOM     62  C   UNL A   1      44.025  37.332  32.031  1.00  0.00     0.020 A 
ATOM     63  C   UNL A   1      43.727  37.589  33.371  1.00  0.00     0.054 A 
BRANCH  63  64
ATOM     64  S   UNL A   1      44.183  39.176  34.120  1.00  0.00     0.124 S 
ATOM     65  O   UNL A   1      44.408  38.801  35.513  1.00  0.00    -0.237 OA
ATOM     66  O   UNL A   1      45.379  39.555  33.370  1.00  0.00    -0.237 OA
ATOM     67  O   UNL A   1      43.013  40.019  33.881  1.00  0.00    -0.744 OA
ENDBRANCH  63  64
ENDBRANCH  37  58
ENDBRANCH  11  12
ENDBRANCH   4   6
ENDBRANCH   1   2
BRANCH   1  68
ATOM     68  C   UNL A   1      35.673  23.793  24.705  1.00  0.00     0.042 C 
BRANCH  68  69
ATOM     69  C   UNL A   1      34.676  24.925  24.588  1.00  0.00     0.117 C 
BRANCH  69  70
ATOM     70  N   UNL A   1      34.023  24.956  23.291  1.00  0.00    -0.355 N 
ATOM     71  C   UNL A   1      32.713  24.642  23.028  1.00  0.00     0.230 C 
ATOM     72  H   UNL A   1      34.575  25.228  22.523  1.00  0.00     0.163 HD
ATOM     73  O   UNL A   1      32.247  24.888  21.915  1.00  0.00    -0.274 OA
BRANCH  71  74
ATOM     74  C   UNL A   1      31.932  24.058  24.210  1.00  0.00     0.097 C 
ATOM     75  C   UNL A   1      30.907  25.253  23.922  1.00  0.00     0.139 C 
ATOM     76  C   UNL A   1      30.763  23.371  25.011  1.00  0.00     0.117 C 
ATOM     77  C   UNL A   1      32.345  22.621  23.638  1.00  0.00     0.141 C 
ATOM     78  N   UNL A   1      30.454  25.612  25.254  1.00  0.00    -0.341 N 
ATOM     79  C   UNL A   1      30.358  24.437  25.984  1.00  0.00     0.228 C 
ATOM     80  C   UNL A   1      31.288  22.133  25.707  1.00  0.00     0.136 C 
ATOM     81  N   UNL A   1      32.327  21.751  24.803  1.00  0.00    -0.324 N 
ATOM     82  O   UNL A   1      30.082  24.297  27.160  1.00  0.00    -0.274 OA
BRANCH  78  83
ATOM     83  C   UNL A   1      30.804  26.875  25.888  1.00  0.00     0.123 C 
BRANCH  83  84
ATOM     84  C   UNL A   1      32.211  26.967  26.381  1.00  0.00     0.008 C 
ATOM     85  C   UNL A   1      33.218  27.989  25.916  1.00  0.00     0.006 C 
ATOM     86  C   UNL A   1      32.608  28.109  27.283  1.00  0.00     0.006 C 
ENDBRANCH  83  84
ENDBRANCH  78  83
BRANCH  81  87
ATOM     87  C   UNL A   1      32.860  20.523  24.795  1.00  0.00     0.298 A 
ATOM     88  N   UNL A   1      34.031  20.127  24.345  1.00  0.00    -0.193 NA
ATOM     89  O   UNL A   1      32.044  19.519  25.244  1.00  0.00    -0.423 OA
ATOM     90  C   UNL A   1      34.002  18.766  24.525  1.00  0.00     0.111 A 
ATOM     91  C   UNL A   1      32.771  18.385  25.029  1.00  0.00     0.156 A 
ATOM     92  C   UNL A   1      34.966  17.780  24.277  1.00  0.00     0.032 A 
ATOM     93  C   UNL A   1      32.380  17.072  25.260  1.00  0.00     0.049 A 
ATOM     94  C   UNL A   1      34.620  16.442  24.519  1.00  0.00     0.003 A 
ATOM     95  C   UNL A   1      33.345  16.095  24.985  1.00  0.00     0.004 A 
ENDBRANCH  81  87
ENDBRANCH  71  74
ENDBRANCH  69  70
ENDBRANCH  68  69
ENDBRANCH   1  68
TORSDOF 16
ENDMDL
MODEL 2
REMARK VINA RESULT:     -12.1      3.322      3.922
REMARK SMILES O=C(NCCCNC(=O)[C@@]12CN(CC3CC3)C(=O)[C@@H]1CN(c1nc3ccccc3o1)C2)c1ccc(-c2c3nc(c(-c4ccc(S(=O)(=O)[O-])cc4)c4ccc([nH]4)c(-c4ccc(S(=O)(=O)[O-])cc4)c4nc(c(-c5ccc(S(=O)(=O)[O-])cc5)c5ccc2[nH]5)C=C4)C=C3)cc1
REMARK SMILES IDX 4 1 3 2 1 3 2 4 32 6 33 7 91 8 34 9 90 10 35 11 36 12 37 13
REMARK SMILES IDX 84 14 38 15 89 16 83 17 85 18 39 19 88 20 82 21 81 22 40 24
REMARK SMILES IDX 70 25 51 26 69 27 52 28 55 29 68 30 86 31 53 32 54 33 67 35
REMARK SMILES IDX 87 36 56 37 41 38 42 39 50 40 43 41 49 42 44 43 45 44 46 45
REMARK SMILES IDX 47 46 48 47 71 48 72 49 80 50 73 51 79 52 74 53 75 54 76 55
REMARK SMILES IDX 77 56 78 57 57 58 58 59 66 60 59 61 65 62 60 63 61 64 62 65
REMARK SMILES IDX 63 66 64 67 5 68 6 69 7 70 8 71 9 73 10 74 11 75 19 76 31 77
REMARK SMILES IDX 12 78 17 79 20 80 21 81 18 82 13 83 14 84 15 85 16 86 22 87
REMARK SMILES IDX 23 88 30 89 24 90 29 91 25 92 28 93 26 94 27 95
REMARK H PARENT 3 5 85 23 55 34 7 72
REMARK Flexibility Score: inf
ROOT
ATOM      1  C   UNL A   1      38.178  24.165  26.479  1.00  0.00     0.118 C 
ENDROOT
BRANCH   1   2
ATOM      2  N   UNL A   1      39.528  24.261  25.930  1.00  0.00    -0.352 N 
ATOM      3  O   UNL A   1      41.515  25.218  25.474  1.00  0.00    -0.269 OA
ATOM      4  C   UNL A   1      40.524  25.169  26.196  1.00  0.00     0.251 C 
ATOM      5  H   UNL A   1      39.758  23.570  25.269  1.00  0.00     0.163 HD
BRANCH   4   6
ATOM      6  C   UNL A   1      40.381  26.091  27.340  1.00  0.00     0.039 A 
ATOM      7  C   UNL A   1      41.020  27.330  27.318  1.00  0.00     0.014 A 
ATOM      8  C   UNL A   1      39.611  25.717  28.445  1.00  0.00     0.014 A 
ATOM      9  C   UNL A   1      41.058  28.104  28.465  1.00  0.00     0.010 A 
ATOM     10  C   UNL A   1      39.543  26.562  29.556  1.00  0.00     0.010 A 
ATOM     11  C   UNL A   1      40.294  27.747  29.587  1.00  0.00    -0.014 A 
BRANCH  11  12
ATOM     12  C   UNL A   1      40.244  28.686  30.734  1.00  0.00     0.031 A 
ATOM     13  C   UNL A   1      41.226  28.596  31.867  1.00  0.00     0.074 A 
ATOM     14  C   UNL A   1      39.317  29.666  30.706  1.00  0.00     0.049 A 
ATOM     15  N   UNL A   1      41.329  29.365  32.921  1.00  0.00    -0.248 NA
ATOM     16  C   UNL A   1      42.211  27.504  31.824  1.00  0.00     0.031 C 
ATOM     17  C   UNL A   1      38.307  29.842  29.655  1.00  0.00     0.029 A 
ATOM     18  N   UNL A   1      39.091  30.715  31.557  1.00  0.00    -0.354 N 
ATOM     19  C   UNL A   1      42.362  28.833  33.683  1.00  0.00     0.074 A 
ATOM     20  C   UNL A   1      42.851  27.669  32.975  1.00  0.00     0.031 C 
ATOM     21  C   UNL A   1      37.623  30.969  29.885  1.00  0.00     0.029 A 
ATOM     22  C   UNL A   1      38.083  31.551  31.138  1.00  0.00     0.049 A 
ATOM     23  H   UNL A   1      39.601  30.857  32.387  1.00  0.00     0.167 HD
ATOM     24  C   UNL A   1      42.852  29.276  34.865  1.00  0.00     0.031 A 
ATOM     25  C   UNL A   1      37.566  32.655  31.706  1.00  0.00     0.031 A 
ATOM     26  C   UNL A   1      42.365  30.445  35.552  1.00  0.00     0.049 A 
ATOM     27  C   UNL A   1      38.131  33.124  33.011  1.00  0.00     0.074 A 
ATOM     28  C   UNL A   1      42.815  30.995  36.740  1.00  0.00     0.029 A 
ATOM     29  N   UNL A   1      41.320  31.246  35.113  1.00  0.00    -0.354 N 
ATOM     30  N   UNL A   1      39.116  32.611  33.708  1.00  0.00    -0.248 NA
ATOM     31  C   UNL A   1      37.512  34.312  33.611  1.00  0.00     0.031 C 
ATOM     32  C   UNL A   1      42.013  32.100  37.042  1.00  0.00     0.029 A 
ATOM     33  C   UNL A   1      41.097  32.270  36.017  1.00  0.00     0.049 A 
ATOM     34  H   UNL A   1      40.813  31.105  34.281  1.00  0.00     0.167 HD
ATOM     35  C   UNL A   1      39.238  33.416  34.832  1.00  0.00     0.074 A 
ATOM     36  C   UNL A   1      38.244  34.465  34.706  1.00  0.00     0.031 C 
ATOM     37  C   UNL A   1      40.092  33.294  35.878  1.00  0.00     0.031 A 
BRANCH  24  38
ATOM     38  C   UNL A   1      43.951  28.476  35.514  1.00  0.00    -0.014 A 
ATOM     39  C   UNL A   1      43.669  27.482  36.468  1.00  0.00     0.010 A 
ATOM     40  C   UNL A   1      45.285  28.687  35.120  1.00  0.00     0.010 A 
ATOM     41  C   UNL A   1      44.705  26.737  37.040  1.00  0.00     0.020 A 
ATOM     42  C   UNL A   1      46.322  27.929  35.673  1.00  0.00     0.020 A 
ATOM     43  C   UNL A   1      46.026  26.968  36.641  1.00  0.00     0.054 A 
BRANCH  43  44
ATOM     44  S   UNL A   1      47.351  25.970  37.378  1.00  0.00     0.124 S 
ATOM     45  O   UNL A   1      47.101  24.657  36.788  1.00  0.00    -0.237 OA
ATOM     46  O   UNL A   1      48.559  26.647  36.916  1.00  0.00    -0.237 OA
ATOM     47  O   UNL A   1      47.099  26.065  38.814  1.00  0.00    -0.744 OA
ENDBRANCH  43  44
ENDBRANCH  24  38
BRANCH  25  48
ATOM     48  C   UNL A   1      36.439  33.359  31.041  1.00  0.00    -0.014 A 
ATOM     49  C   UNL A   1      35.179  33.438  31.656  1.00  0.00     0.010 A 
ATOM     50  C   UNL A   1      36.645  34.011  29.810  1.00  0.00     0.010 A 
ATOM     51  C   UNL A   1      34.143  34.158  31.052  1.00  0.00     0.020 A 
ATOM     52  C   UNL A   1      35.622  34.753  29.218  1.00  0.00     0.020 A 
ATOM     53  C   UNL A   1      34.374  34.815  29.839  1.00  0.00     0.054 A 
BRANCH  53  54
ATOM     54  S   UNL A   1      33.044  35.810  29.110  1.00  0.00     0.124 S 
ATOM     55  O   UNL A   1      32.295  36.224  30.292  1.00  0.00    -0.237 OA
ATOM     56  O   UNL A   1      33.778  36.869  28.423  1.00  0.00    -0.237 OA
ATOM     57  O   UNL A   1      32.358  34.867  28.229  1.00  0.00    -0.744 OA
ENDBRANCH  53  54
ENDBRANCH  25  48
BRANCH  37  58
ATOM     58  C   UNL A   1      39.989  34.331  36.960  1.00  0.00    -0.014 A 
ATOM     59  C   UNL A   1      39.150  34.135  38.071  1.00  0.00     0.010 A 
ATOM     60  C   UNL A   1      40.766  35.500  36.880  1.00  0.00     0.010 A 
ATOM     61  C   UNL A   1      39.063  35.109  39.067  1.00  0.00     0.020 A 
ATOM     62  C   UNL A   1      40.699  36.465  37.886  1.00  0.00     0.020 A 
ATOM     63  C   UNL A   1      39.836  36.270  38.967  1.00  0.00     0.054 A 
BRANCH  63  64
ATOM     64  S   UNL A   1      39.732  37.508  40.288  1.00  0.00     0.124 S 
ATOM     65  O   UNL A   1      38.299  37.540  40.561  1.00  0.00    -0.237 OA
ATOM     66  O   UNL A   1      40.559  36.924  41.342  1.00  0.00    -0.237 OA
ATOM     67  O   UNL A   1      40.279  38.715  39.673  1.00  0.00    -0.744 OA
ENDBRANCH  63  64
ENDBRANCH  37  58
ENDBRANCH  11  12
ENDBRANCH   4   6
ENDBRANCH   1   2
BRANCH   1  68
ATOM     68  C   UNL A   1      37.243  23.364  25.591  1.00  0.00     0.042 C 
BRANCH  68  69
ATOM     69  C   UNL A   1      35.893  24.025  25.414  1.00  0.00     0.117 C 
BRANCH  69  70
ATOM     70  N   UNL A   1      35.523  24.162  24.016  1.00  0.00    -0.355 N 
ATOM     71  C   UNL A   1      34.251  24.133  23.501  1.00  0.00     0.230 C 
ATOM     72  H   UNL A   1      36.258  24.288  23.373  1.00  0.00     0.163 HD
ATOM     73  O   UNL A   1      34.072  24.445  22.323  1.00  0.00    -0.274 OA
BRANCH  71  74
ATOM     74  C   UNL A   1      33.150  23.764  24.501  1.00  0.00     0.097 C 
ATOM     75  C   UNL A   1      32.568  25.215  24.157  1.00  0.00     0.139 C 
ATOM     76  C   UNL A   1      31.718  23.422  25.059  1.00  0.00     0.117 C 
ATOM     77  C   UNL A   1      33.231  22.289  23.886  1.00  0.00     0.141 C 
ATOM     78  N   UNL A   1      32.018  25.647  25.429  1.00  0.00    -0.341 N 
ATOM     79  C   UNL A   1      31.473  24.528  26.041  1.00  0.00     0.228 C 
ATOM     80  C   UNL A   1      31.748  22.064  25.726  1.00  0.00     0.136 C 
ATOM     81  N   UNL A   1      32.774  21.425  24.962  1.00  0.00    -0.324 N 
ATOM     82  O   UNL A   1      30.975  24.437  27.147  1.00  0.00    -0.274 OA
BRANCH  78  83
ATOM     83  C   UNL A   1      32.599  26.733  26.207  1.00  0.00     0.123 C 
BRANCH  83  84
ATOM     84  C   UNL A   1      31.692  27.896  26.445  1.00  0.00     0.008 C 
ATOM     85  C   UNL A   1      32.079  29.145  27.196  1.00  0.00     0.006 C 
ATOM     86  C   UNL A   1      31.932  29.187  25.702  1.00  0.00     0.006 C 
ENDBRANCH  83  84
ENDBRANCH  78  83
BRANCH  81  87
ATOM     87  C   UNL A   1      32.931  20.096  24.938  1.00  0.00     0.298 A 
ATOM     88  N   UNL A   1      32.092  19.152  25.305  1.00  0.00    -0.193 NA
ATOM     89  O   UNL A   1      34.167  19.651  24.551  1.00  0.00    -0.423 OA
ATOM     90  C   UNL A   1      32.811  17.996  25.134  1.00  0.00     0.111 A 
ATOM     91  C   UNL A   1      34.096  18.299  24.719  1.00  0.00     0.156 A 
ATOM     92  C   UNL A   1      32.459  16.652  25.317  1.00  0.00     0.032 A 
ATOM     93  C   UNL A   1      35.107  17.367  24.521  1.00  0.00     0.049 A 
ATOM     94  C   UNL A   1      33.445  15.675  25.105  1.00  0.00     0.003 A 
ATOM     95  C   UNL A   1      34.748  16.030  24.732  1.00  0.00     0.004 A 
ENDBRANCH  81  87
ENDBRANCH  71  74
ENDBRANCH  69  70
ENDBRANCH  68  69
ENDBRANCH   1  68
TORSDOF 16
ENDMDL
MODEL 3
REMARK VINA RESULT:     -12.1      2.050      2.776
REMARK SMILES O=C(NCCCNC(=O)[C@@]12CN(CC3CC3)C(=O)[C@@H]1CN(c1nc3ccccc3o1)C2)c1ccc(-c2c3nc(c(-c4ccc(S(=O)(=O)[O-])cc4)c4ccc([nH]4)c(-c4ccc(S(=O)(=O)[O-])cc4)c4nc(c(-c5ccc(S(=O)(=O)[O-])cc5)c5ccc2[nH]5)C=C4)C=C3)cc1
REMARK SMILES IDX 4 1 3 2 1 3 2 4 32 6 33 7 91 8 34 9 90 10 35 11 36 12 37 13
REMARK SMILES IDX 84 14 38 15 89 16 83 17 85 18 39 19 88 20 82 21 81 22 40 24
REMARK SMILES IDX 70 25 51 26 69 27 52 28 55 29 68 30 86 31 53 32 54 33 67 35
REMARK SMILES IDX 87 36 56 37 41 38 42 39 50 40 43 41 49 42 44 43 45 44 46 45
REMARK SMILES IDX 47 46 48 47 71 48 72 49 80 50 73 51 79 52 74 53 75 54 76 55
REMARK SMILES IDX 77 56 78 57 57 58 58 59 66 60 59 61 65 62 60 63 61 64 62 65
REMARK SMILES IDX 63 66 64 67 5 68 6 69 7 70 8 71 9 73 10 74 11 75 19 76 31 77
REMARK SMILES IDX 12 78 17 79 20 80 21 81 18 82 13 83 14 84 15 85 16 86 22 87
REMARK SMILES IDX 23 88 30 89 24 90 29 91 25 92 28 93 26 94 27 95
REMARK H PARENT 3 5 85 23 55 34 7 72
REMARK Flexibility Score: inf
ROOT
ATOM      1  C   UNL A   1      36.767  23.290  26.063  1.00  0.00     0.118 C 
ENDROOT
BRANCH   1   2
ATOM      2  N   UNL A   1      37.746  22.207  26.086  1.00  0.00    -0.352 N 
ATOM      3  O   UNL A   1      39.791  21.264  26.079  1.00  0.00    -0.269 OA
ATOM      4  C   UNL A   1      39.100  22.249  26.317  1.00  0.00     0.251 C 
ATOM      5  H   UNL A   1      37.380  21.311  25.910  1.00  0.00     0.163 HD
BRANCH   4   6
ATOM      6  C   UNL A   1      39.712  23.491  26.832  1.00  0.00     0.039 A 
ATOM      7  C   UNL A   1      39.554  24.685  26.131  1.00  0.00     0.014 A 
ATOM      8  C   UNL A   1      40.451  23.464  28.018  1.00  0.00     0.014 A 
ATOM      9  C   UNL A   1      40.291  25.798  26.496  1.00  0.00     0.010 A 
ATOM     10  C   UNL A   1      41.090  24.626  28.458  1.00  0.00     0.010 A 
ATOM     11  C   UNL A   1      41.043  25.794  27.682  1.00  0.00    -0.014 A 
BRANCH  11  12
ATOM     12  C   UNL A   1      41.689  27.057  28.112  1.00  0.00     0.031 A 
ATOM     13  C   UNL A   1      43.163  27.286  27.934  1.00  0.00     0.074 A 
ATOM     14  C   UNL A   1      40.902  28.026  28.622  1.00  0.00     0.049 A 
ATOM     15  N   UNL A   1      43.866  28.350  28.230  1.00  0.00    -0.248 NA
ATOM     16  C   UNL A   1      43.956  26.185  27.365  1.00  0.00     0.031 C 
ATOM     17  C   UNL A   1      39.456  27.907  28.845  1.00  0.00     0.029 A 
ATOM     18  N   UNL A   1      41.189  29.307  29.012  1.00  0.00    -0.354 N 
ATOM     19  C   UNL A   1      45.183  28.037  27.918  1.00  0.00     0.074 A 
ATOM     20  C   UNL A   1      45.186  26.680  27.416  1.00  0.00     0.031 C 
ATOM     21  C   UNL A   1      38.975  29.086  29.260  1.00  0.00     0.029 A 
ATOM     22  C   UNL A   1      40.083  30.017  29.415  1.00  0.00     0.049 A 
ATOM     23  H   UNL A   1      42.100  29.683  29.004  1.00  0.00     0.167 HD
ATOM     24  C   UNL A   1      46.286  28.813  28.042  1.00  0.00     0.031 A 
ATOM     25  C   UNL A   1      39.969  31.275  29.878  1.00  0.00     0.031 A 
ATOM     26  C   UNL A   1      46.267  30.169  28.529  1.00  0.00     0.049 A 
ATOM     27  C   UNL A   1      41.205  32.111  30.002  1.00  0.00     0.074 A 
ATOM     28  C   UNL A   1      47.326  31.050  28.666  1.00  0.00     0.029 A 
ATOM     29  N   UNL A   1      45.132  30.841  28.961  1.00  0.00    -0.354 N 
ATOM     30  N   UNL A   1      42.440  31.798  29.690  1.00  0.00    -0.248 NA
ATOM     31  C   UNL A   1      41.037  33.463  30.546  1.00  0.00     0.031 C 
ATOM     32  C   UNL A   1      46.839  32.238  29.221  1.00  0.00     0.029 A 
ATOM     33  C   UNL A   1      45.468  32.116  29.382  1.00  0.00     0.049 A 
ATOM     34  H   UNL A   1      44.221  30.466  28.965  1.00  0.00     0.167 HD
ATOM     35  C   UNL A   1      43.199  32.918  29.999  1.00  0.00     0.074 A 
ATOM     36  C   UNL A   1      42.280  33.923  30.496  1.00  0.00     0.031 C 
ATOM     37  C   UNL A   1      44.539  33.095  29.887  1.00  0.00     0.031 A 
BRANCH  24  38
ATOM     38  C   UNL A   1      47.616  28.206  27.679  1.00  0.00    -0.014 A 
ATOM     39  C   UNL A   1      48.345  27.431  28.599  1.00  0.00     0.010 A 
ATOM     40  C   UNL A   1      48.119  28.372  26.376  1.00  0.00     0.010 A 
ATOM     41  C   UNL A   1      49.567  26.860  28.231  1.00  0.00     0.020 A 
ATOM     42  C   UNL A   1      49.330  27.784  25.996  1.00  0.00     0.020 A 
ATOM     43  C   UNL A   1      50.053  27.044  26.933  1.00  0.00     0.054 A 
BRANCH  43  44
ATOM     44  S   UNL A   1      51.629  26.270  26.471  1.00  0.00     0.124 S 
ATOM     45  O   UNL A   1      52.567  26.943  27.366  1.00  0.00    -0.237 OA
ATOM     46  O   UNL A   1      51.390  24.857  26.759  1.00  0.00    -0.237 OA
ATOM     47  O   UNL A   1      51.775  26.596  25.055  1.00  0.00    -0.744 OA
ENDBRANCH  43  44
ENDBRANCH  24  38
BRANCH  25  48
ATOM     48  C   UNL A   1      38.632  31.786  30.279  1.00  0.00    -0.014 A 
ATOM     49  C   UNL A   1      38.202  31.704  31.613  1.00  0.00     0.010 A 
ATOM     50  C   UNL A   1      37.809  32.420  29.330  1.00  0.00     0.010 A 
ATOM     51  C   UNL A   1      36.970  32.247  31.992  1.00  0.00     0.020 A 
ATOM     52  C   UNL A   1      36.591  32.988  29.709  1.00  0.00     0.020 A 
ATOM     53  C   UNL A   1      36.176  32.890  31.037  1.00  0.00     0.054 A 
BRANCH  53  54
ATOM     54  S   UNL A   1      34.619  33.659  31.562  1.00  0.00     0.124 S 
ATOM     55  O   UNL A   1      34.041  32.622  32.410  1.00  0.00    -0.237 OA
ATOM     56  O   UNL A   1      35.075  34.862  32.254  1.00  0.00    -0.237 OA
ATOM     57  O   UNL A   1      33.918  33.903  30.302  1.00  0.00    -0.744 OA
ENDBRANCH  53  54
ENDBRANCH  25  48
BRANCH  37  58
ATOM     58  C   UNL A   1      45.081  34.432  30.303  1.00  0.00    -0.014 A 
ATOM     59  C   UNL A   1      45.208  35.481  29.376  1.00  0.00     0.010 A 
ATOM     60  C   UNL A   1      45.436  34.651  31.646  1.00  0.00     0.010 A 
ATOM     61  C   UNL A   1      45.716  36.718  29.778  1.00  0.00     0.020 A 
ATOM     62  C   UNL A   1      45.922  35.894  32.056  1.00  0.00     0.020 A 
ATOM     63  C   UNL A   1      46.073  36.915  31.115  1.00  0.00     0.054 A 
BRANCH  63  64
ATOM     64  S   UNL A   1      46.699  38.539  31.623  1.00  0.00     0.124 S 
ATOM     65  O   UNL A   1      46.288  39.386  30.507  1.00  0.00    -0.237 OA
ATOM     66  O   UNL A   1      45.997  38.777  32.882  1.00  0.00    -0.237 OA
ATOM     67  O   UNL A   1      48.139  38.329  31.750  1.00  0.00    -0.744 OA
ENDBRANCH  63  64
ENDBRANCH  37  58
ENDBRANCH  11  12
ENDBRANCH   4   6
ENDBRANCH   1   2
BRANCH   1  68
ATOM     68  C   UNL A   1      36.110  23.452  24.703  1.00  0.00     0.042 C 
BRANCH  68  69
ATOM     69  C   UNL A   1      35.014  24.495  24.703  1.00  0.00     0.117 C 
BRANCH  69  70
ATOM     70  N   UNL A   1      34.385  24.637  23.401  1.00  0.00    -0.355 N 
ATOM     71  C   UNL A   1      33.056  24.454  23.110  1.00  0.00     0.230 C 
ATOM     72  H   UNL A   1      34.971  24.889  22.651  1.00  0.00     0.163 HD
ATOM     73  O   UNL A   1      32.630  24.786  22.004  1.00  0.00    -0.274 OA
BRANCH  71  74
ATOM     74  C   UNL A   1      32.208  23.896  24.259  1.00  0.00     0.097 C 
ATOM     75  C   UNL A   1      31.251  25.141  23.949  1.00  0.00     0.139 C 
ATOM     76  C   UNL A   1      30.982  23.257  25.012  1.00  0.00     0.117 C 
ATOM     77  C   UNL A   1      32.574  22.447  23.686  1.00  0.00     0.141 C 
ATOM     78  N   UNL A   1      30.769  25.508  25.268  1.00  0.00    -0.341 N 
ATOM     79  C   UNL A   1      30.593  24.332  25.982  1.00  0.00     0.228 C 
ATOM     80  C   UNL A   1      31.424  21.990  25.712  1.00  0.00     0.136 C 
ATOM     81  N   UNL A   1      32.475  21.568  24.840  1.00  0.00    -0.324 N 
ATOM     82  O   UNL A   1      30.270  24.194  27.147  1.00  0.00    -0.274 OA
BRANCH  78  83
ATOM     83  C   UNL A   1      31.155  26.748  25.928  1.00  0.00     0.123 C 
BRANCH  83  84
ATOM     84  C   UNL A   1      32.616  26.887  26.206  1.00  0.00     0.008 C 
ATOM     85  C   UNL A   1      33.544  27.820  25.469  1.00  0.00     0.006 C 
ATOM     86  C   UNL A   1      33.127  28.139  26.876  1.00  0.00     0.006 C 
ENDBRANCH  83  84
ENDBRANCH  78  83
BRANCH  81  87
ATOM     87  C   UNL A   1      32.950  20.317  24.837  1.00  0.00     0.298 A 
ATOM     88  N   UNL A   1      34.109  19.867  24.405  1.00  0.00    -0.193 NA
ATOM     89  O   UNL A   1      32.082  19.350  25.269  1.00  0.00    -0.423 OA
ATOM     90  C   UNL A   1      34.014  18.509  24.580  1.00  0.00     0.111 A 
ATOM     91  C   UNL A   1      32.758  18.185  25.063  1.00  0.00     0.156 A 
ATOM     92  C   UNL A   1      34.935  17.480  24.346  1.00  0.00     0.032 A 
ATOM     93  C   UNL A   1      32.303  16.890  25.283  1.00  0.00     0.049 A 
ATOM     94  C   UNL A   1      34.523  16.158  24.577  1.00  0.00     0.003 A 
ATOM     95  C   UNL A   1      33.226  15.870  25.021  1.00  0.00     0.004 A 
ENDBRANCH  81  87
ENDBRANCH  71  74
ENDBRANCH  69  70
ENDBRANCH  68  69
ENDBRANCH   1  68
TORSDOF 16
ENDMDL
