MODEL 1
REMARK VINA RESULT:     -10.4      0.000      0.000
REMARK SMILES CO[C@@H]1C[C@@H](C(=O)NCCCNC(=O)c2ccc(-c3c4nc(c(-c5ccc(S(=O)(=O)[O-])cc5)c5ccc([nH]5)c(-c5ccc(S(=O)(=O)[O-])cc5)c5nc(c(-c6ccc(S(=O)(=O)[O-])cc6)c6ccc3[nH]6)C=C5)C=C4)cc2)N(C(=O)CSc2cccs2)C1
REMARK SMILES IDX 9 1 8 2 6 3 7 4 5 6 3 7 4 8 85 9 75 10 2 11 1 12 76 13 77 14
REMARK SMILES IDX 78 15 79 16 80 17 81 18 84 19 82 20 83 21 10 22 11 23 12 24
REMARK SMILES IDX 13 25 14 27 15 28 16 29 74 30 17 31 73 32 18 33 19 34 20 35
REMARK SMILES IDX 67 36 21 37 72 38 66 39 68 40 22 41 71 42 65 43 64 44 23 46
REMARK SMILES IDX 53 47 34 48 52 49 35 50 38 51 51 52 69 53 36 54 37 55 50 57
REMARK SMILES IDX 70 58 39 59 24 60 25 61 33 62 26 63 32 64 27 65 28 66 29 67
REMARK SMILES IDX 30 68 31 69 54 70 55 71 63 72 56 73 62 74 57 75 58 76 59 77
REMARK SMILES IDX 60 78 61 79 40 80 41 81 49 82 42 83 48 84 43 85 44 86 45 87
REMARK SMILES IDX 46 88 47 89
REMARK H PARENT 8 5 12 26 68 45 38 56
REMARK Flexibility Score: inf
ROOT
ATOM      1  C   UNL A   1      33.242  28.547  24.664  1.00  0.00     0.117 C 
ENDROOT
BRANCH   1   2
ATOM      2  N   UNL A   1      33.619  28.000  23.373  1.00  0.00    -0.354 N 
ATOM      3  C   UNL A   1      33.381  26.790  22.802  1.00  0.00     0.242 C 
ATOM      4  O   UNL A   1      33.710  26.658  21.619  1.00  0.00    -0.273 OA
ATOM      5  H   UNL A   1      34.140  28.617  22.810  1.00  0.00     0.163 HD
BRANCH   3   6
ATOM      6  C   UNL A   1      32.568  25.696  23.501  1.00  0.00     0.177 C 
ATOM      7  C   UNL A   1      31.858  23.417  23.286  1.00  0.00     0.139 C 
ATOM      8  C   UNL A   1      32.992  24.351  22.892  1.00  0.00     0.069 C 
ATOM      9  C   UNL A   1      30.625  24.320  23.150  1.00  0.00     0.152 C 
ATOM     10  N   UNL A   1      31.106  25.679  23.407  1.00  0.00    -0.327 N 
BRANCH   7  11
ATOM     11  O   UNL A   1      31.970  22.969  24.641  1.00  0.00    -0.380 OA
ATOM     12  C   UNL A   1      32.537  21.672  24.771  1.00  0.00     0.195 C 
ENDBRANCH   7  11
BRANCH  10  13
ATOM     13  C   UNL A   1      30.218  26.630  23.879  1.00  0.00     0.233 C 
ATOM     14  O   UNL A   1      29.650  26.478  24.963  1.00  0.00    -0.274 OA
BRANCH  13  15
ATOM     15  C   UNL A   1      29.873  27.827  23.004  1.00  0.00     0.175 C 
BRANCH  15  16
ATOM     16  S   UNL A   1      28.124  28.281  23.136  1.00  0.00    -0.105 SA
BRANCH  16  17
ATOM     17  C   UNL A   1      28.217  29.997  22.788  1.00  0.00     0.060 A 
ATOM     18  C   UNL A   1      27.929  31.007  23.679  1.00  0.00     0.027 A 
ATOM     19  S   UNL A   1      28.713  30.606  21.271  1.00  0.00    -0.137 S 
ATOM     20  C   UNL A   1      28.083  32.297  23.095  1.00  0.00     0.013 A 
ATOM     21  C   UNL A   1      28.495  32.224  21.782  1.00  0.00     0.066 A 
ENDBRANCH  16  17
ENDBRANCH  15  16
ENDBRANCH  13  15
ENDBRANCH  10  13
ENDBRANCH   3   6
ENDBRANCH   1   2
BRANCH   1  22
ATOM     22  C   UNL A   1      33.953  27.872  25.829  1.00  0.00     0.042 C 
BRANCH  22  23
ATOM     23  C   UNL A   1      33.459  28.313  27.202  1.00  0.00     0.118 C 
BRANCH  23  24
ATOM     24  N   UNL A   1      33.394  29.761  27.328  1.00  0.00    -0.352 N 
ATOM     25  C   UNL A   1      34.301  30.629  27.884  1.00  0.00     0.251 C 
ATOM     26  H   UNL A   1      32.583  30.179  26.961  1.00  0.00     0.163 HD
ATOM     27  O   UNL A   1      33.976  31.793  28.098  1.00  0.00    -0.269 OA
BRANCH  25  28
ATOM     28  C   UNL A   1      35.655  30.155  28.239  1.00  0.00     0.039 A 
ATOM     29  C   UNL A   1      36.652  30.157  27.261  1.00  0.00     0.014 A 
ATOM     30  C   UNL A   1      35.937  29.698  29.530  1.00  0.00     0.014 A 
ATOM     31  C   UNL A   1      37.946  29.752  27.593  1.00  0.00     0.010 A 
ATOM     32  C   UNL A   1      37.242  29.366  29.878  1.00  0.00     0.010 A 
ATOM     33  C   UNL A   1      38.258  29.380  28.911  1.00  0.00    -0.014 A 
BRANCH  33  34
ATOM     34  C   UNL A   1      39.638  28.989  29.296  1.00  0.00     0.031 A 
ATOM     35  C   UNL A   1      40.523  29.966  30.021  1.00  0.00     0.074 A 
ATOM     36  C   UNL A   1      40.116  27.782  28.935  1.00  0.00     0.049 A 
ATOM     37  N   UNL A   1      41.772  29.833  30.386  1.00  0.00    -0.248 NA
ATOM     38  C   UNL A   1      39.935  31.274  30.356  1.00  0.00     0.031 C 
ATOM     39  C   UNL A   1      39.372  26.764  28.188  1.00  0.00     0.029 A 
ATOM     40  N   UNL A   1      41.346  27.211  29.139  1.00  0.00    -0.354 N 
ATOM     41  C   UNL A   1      42.126  31.045  30.969  1.00  0.00     0.074 A 
ATOM     42  C   UNL A   1      40.975  31.915  30.870  1.00  0.00     0.031 C 
ATOM     43  C   UNL A   1      40.154  25.686  28.019  1.00  0.00     0.029 A 
ATOM     44  C   UNL A   1      41.462  25.948  28.611  1.00  0.00     0.049 A 
ATOM     45  H   UNL A   1      42.077  27.664  29.620  1.00  0.00     0.167 HD
ATOM     46  C   UNL A   1      43.298  31.397  31.550  1.00  0.00     0.031 A 
ATOM     47  C   UNL A   1      42.505  25.095  28.600  1.00  0.00     0.031 A 
ATOM     48  C   UNL A   1      44.435  30.524  31.663  1.00  0.00     0.049 A 
ATOM     49  C   UNL A   1      43.790  25.499  29.266  1.00  0.00     0.074 A 
ATOM     50  C   UNL A   1      45.645  30.763  32.290  1.00  0.00     0.029 A 
ATOM     51  N   UNL A   1      44.503  29.242  31.137  1.00  0.00    -0.354 N 
ATOM     52  N   UNL A   1      44.085  26.626  29.871  1.00  0.00    -0.248 NA
ATOM     53  C   UNL A   1      44.881  24.513  29.259  1.00  0.00     0.031 C 
ATOM     54  C   UNL A   1      46.460  29.640  32.110  1.00  0.00     0.029 A 
ATOM     55  C   UNL A   1      45.740  28.684  31.411  1.00  0.00     0.049 A 
ATOM     56  H   UNL A   1      43.779  28.795  30.644  1.00  0.00     0.167 HD
ATOM     57  C   UNL A   1      45.386  26.476  30.336  1.00  0.00     0.074 A 
ATOM     58  C   UNL A   1      45.817  25.146  29.954  1.00  0.00     0.031 C 
ATOM     59  C   UNL A   1      46.154  27.360  31.020  1.00  0.00     0.031 A 
BRANCH  46  60
ATOM     60  C   UNL A   1      43.405  32.794  32.099  1.00  0.00    -0.014 A 
ATOM     61  C   UNL A   1      43.273  33.044  33.478  1.00  0.00     0.010 A 
ATOM     62  C   UNL A   1      43.656  33.871  31.230  1.00  0.00     0.010 A 
ATOM     63  C   UNL A   1      43.340  34.350  33.970  1.00  0.00     0.020 A 
ATOM     64  C   UNL A   1      43.751  35.176  31.722  1.00  0.00     0.020 A 
ATOM     65  C   UNL A   1      43.570  35.410  33.088  1.00  0.00     0.054 A 
BRANCH  65  66
ATOM     66  S   UNL A   1      43.656  37.094  33.752  1.00  0.00     0.124 S 
ATOM     67  O   UNL A   1      44.106  37.853  32.587  1.00  0.00    -0.237 OA
ATOM     68  O   UNL A   1      42.280  37.348  34.172  1.00  0.00    -0.237 OA
ATOM     69  O   UNL A   1      44.626  36.990  34.839  1.00  0.00    -0.744 OA
ENDBRANCH  65  66
ENDBRANCH  46  60
BRANCH  47  70
ATOM     70  C   UNL A   1      42.360  23.762  27.957  1.00  0.00    -0.014 A 
ATOM     71  C   UNL A   1      42.839  23.544  26.654  1.00  0.00     0.010 A 
ATOM     72  C   UNL A   1      41.773  22.693  28.659  1.00  0.00     0.010 A 
ATOM     73  C   UNL A   1      42.728  22.284  26.060  1.00  0.00     0.020 A 
ATOM     74  C   UNL A   1      41.682  21.424  28.076  1.00  0.00     0.020 A 
ATOM     75  C   UNL A   1      42.154  21.231  26.776  1.00  0.00     0.054 A 
BRANCH  75  76
ATOM     76  S   UNL A   1      42.087  19.586  26.011  1.00  0.00     0.124 S 
ATOM     77  O   UNL A   1      40.671  19.463  25.681  1.00  0.00    -0.237 OA
ATOM     78  O   UNL A   1      42.992  19.729  24.874  1.00  0.00    -0.237 OA
ATOM     79  O   UNL A   1      42.566  18.699  27.069  1.00  0.00    -0.744 OA
ENDBRANCH  75  76
ENDBRANCH  47  70
BRANCH  59  80
ATOM     80  C   UNL A   1      47.531  26.910  31.424  1.00  0.00    -0.014 A 
ATOM     81  C   UNL A   1      48.635  27.098  30.574  1.00  0.00     0.010 A 
ATOM     82  C   UNL A   1      47.730  26.343  32.696  1.00  0.00     0.010 A 
ATOM     83  C   UNL A   1      49.912  26.699  30.980  1.00  0.00     0.020 A 
ATOM     84  C   UNL A   1      49.008  25.966  33.114  1.00  0.00     0.020 A 
ATOM     85  C   UNL A   1      50.090  26.135  32.247  1.00  0.00     0.054 A 
BRANCH  85  86
ATOM     86  S   UNL A   1      51.763  25.668  32.771  1.00  0.00     0.124 S 
ATOM     87  O   UNL A   1      51.903  24.337  32.187  1.00  0.00    -0.237 OA
ATOM     88  O   UNL A   1      52.592  26.709  32.167  1.00  0.00    -0.237 OA
ATOM     89  O   UNL A   1      51.692  25.706  34.229  1.00  0.00    -0.744 OA
ENDBRANCH  85  86
ENDBRANCH  59  80
ENDBRANCH  33  34
ENDBRANCH  25  28
ENDBRANCH  23  24
ENDBRANCH  22  23
ENDBRANCH   1  22
TORSDOF 18
ENDMDL
MODEL 2
REMARK VINA RESULT:     -10.2      2.520      3.190
REMARK SMILES CO[C@@H]1C[C@@H](C(=O)NCCCNC(=O)c2ccc(-c3c4nc(c(-c5ccc(S(=O)(=O)[O-])cc5)c5ccc([nH]5)c(-c5ccc(S(=O)(=O)[O-])cc5)c5nc(c(-c6ccc(S(=O)(=O)[O-])cc6)c6ccc3[nH]6)C=C5)C=C4)cc2)N(C(=O)CSc2cccs2)C1
REMARK SMILES IDX 9 1 8 2 6 3 7 4 5 6 3 7 4 8 85 9 75 10 2 11 1 12 76 13 77 14
REMARK SMILES IDX 78 15 79 16 80 17 81 18 84 19 82 20 83 21 10 22 11 23 12 24
REMARK SMILES IDX 13 25 14 27 15 28 16 29 74 30 17 31 73 32 18 33 19 34 20 35
REMARK SMILES IDX 67 36 21 37 72 38 66 39 68 40 22 41 71 42 65 43 64 44 23 46
REMARK SMILES IDX 53 47 34 48 52 49 35 50 38 51 51 52 69 53 36 54 37 55 50 57
REMARK SMILES IDX 70 58 39 59 24 60 25 61 33 62 26 63 32 64 27 65 28 66 29 67
REMARK SMILES IDX 30 68 31 69 54 70 55 71 63 72 56 73 62 74 57 75 58 76 59 77
REMARK SMILES IDX 60 78 61 79 40 80 41 81 49 82 42 83 48 84 43 85 44 86 45 87
REMARK SMILES IDX 46 88 47 89
REMARK H PARENT 8 5 12 26 68 45 38 56
REMARK Flexibility Score: inf
ROOT
ATOM      1  C   UNL A   1      31.993  27.467  26.338  1.00  0.00     0.117 C 
ENDROOT
BRANCH   1   2
ATOM      2  N   UNL A   1      31.474  26.244  26.922  1.00  0.00    -0.354 N 
ATOM      3  C   UNL A   1      31.638  24.940  26.578  1.00  0.00     0.242 C 
ATOM      4  O   UNL A   1      31.183  24.096  27.355  1.00  0.00    -0.273 OA
ATOM      5  H   UNL A   1      30.902  26.384  27.711  1.00  0.00     0.163 HD
BRANCH   3   6
ATOM      6  C   UNL A   1      32.512  24.505  25.396  1.00  0.00     0.177 C 
ATOM      7  C   UNL A   1      34.716  24.710  24.477  1.00  0.00     0.139 C 
ATOM      8  C   UNL A   1      33.977  24.718  25.806  1.00  0.00     0.069 C 
ATOM      9  C   UNL A   1      33.738  25.447  23.552  1.00  0.00     0.152 C 
ATOM     10  N   UNL A   1      32.407  25.184  24.102  1.00  0.00    -0.327 N 
BRANCH   7  11
ATOM     11  O   UNL A   1      34.928  23.383  23.984  1.00  0.00    -0.380 OA
ATOM     12  C   UNL A   1      36.297  23.058  23.784  1.00  0.00     0.195 C 
ENDBRANCH   7  11
BRANCH  10  13
ATOM     13  C   UNL A   1      31.308  25.236  23.262  1.00  0.00     0.233 C 
ATOM     14  O   UNL A   1      30.812  24.200  22.812  1.00  0.00    -0.274 OA
BRANCH  13  15
ATOM     15  C   UNL A   1      30.770  26.589  22.819  1.00  0.00     0.175 C 
BRANCH  15  16
ATOM     16  S   UNL A   1      29.211  27.000  23.644  1.00  0.00    -0.105 SA
BRANCH  16  17
ATOM     17  C   UNL A   1      28.908  28.591  22.971  1.00  0.00     0.060 A 
ATOM     18  C   UNL A   1      27.693  29.238  22.974  1.00  0.00     0.027 A 
ATOM     19  S   UNL A   1      30.134  29.535  22.246  1.00  0.00    -0.137 S 
ATOM     20  C   UNL A   1      27.763  30.512  22.338  1.00  0.00     0.013 A 
ATOM     21  C   UNL A   1      29.033  30.794  21.885  1.00  0.00     0.066 A 
ENDBRANCH  16  17
ENDBRANCH  15  16
ENDBRANCH  13  15
ENDBRANCH  10  13
ENDBRANCH   3   6
ENDBRANCH   1   2
BRANCH   1  22
ATOM     22  C   UNL A   1      33.296  27.929  26.977  1.00  0.00     0.042 C 
BRANCH  22  23
ATOM     23  C   UNL A   1      34.081  28.933  26.140  1.00  0.00     0.118 C 
BRANCH  23  24
ATOM     24  N   UNL A   1      33.816  30.308  26.534  1.00  0.00    -0.352 N 
ATOM     25  C   UNL A   1      34.411  31.064  27.513  1.00  0.00     0.251 C 
ATOM     26  H   UNL A   1      33.107  30.762  26.024  1.00  0.00     0.163 HD
ATOM     27  O   UNL A   1      33.905  32.131  27.847  1.00  0.00    -0.269 OA
BRANCH  25  28
ATOM     28  C   UNL A   1      35.643  30.584  28.170  1.00  0.00     0.039 A 
ATOM     29  C   UNL A   1      36.881  31.029  27.700  1.00  0.00     0.014 A 
ATOM     30  C   UNL A   1      35.579  29.686  29.240  1.00  0.00     0.014 A 
ATOM     31  C   UNL A   1      38.052  30.617  28.338  1.00  0.00     0.010 A 
ATOM     32  C   UNL A   1      36.741  29.336  29.921  1.00  0.00     0.010 A 
ATOM     33  C   UNL A   1      37.990  29.789  29.472  1.00  0.00    -0.014 A 
BRANCH  33  34
ATOM     34  C   UNL A   1      39.220  29.374  30.193  1.00  0.00     0.031 A 
ATOM     35  C   UNL A   1      39.638  30.097  31.445  1.00  0.00     0.074 A 
ATOM     36  C   UNL A   1      39.994  28.396  29.685  1.00  0.00     0.049 A 
ATOM     37  N   UNL A   1      40.707  29.923  32.178  1.00  0.00    -0.248 NA
ATOM     38  C   UNL A   1      38.752  31.172  31.920  1.00  0.00     0.031 C 
ATOM     39  C   UNL A   1      39.722  27.651  28.452  1.00  0.00     0.029 A 
ATOM     40  N   UNL A   1      41.175  27.865  30.139  1.00  0.00    -0.354 N 
ATOM     41  C   UNL A   1      40.635  30.881  33.183  1.00  0.00     0.074 A 
ATOM     42  C   UNL A   1      39.441  31.661  32.940  1.00  0.00     0.031 C 
ATOM     43  C   UNL A   1      40.695  26.746  28.262  1.00  0.00     0.029 A 
ATOM     44  C   UNL A   1      41.677  26.869  29.336  1.00  0.00     0.049 A 
ATOM     45  H   UNL A   1      41.621  28.170  30.963  1.00  0.00     0.167 HD
ATOM     46  C   UNL A   1      41.478  31.084  34.224  1.00  0.00     0.031 A 
ATOM     47  C   UNL A   1      42.802  26.137  29.448  1.00  0.00     0.031 A 
ATOM     48  C   UNL A   1      42.654  30.296  34.474  1.00  0.00     0.049 A 
ATOM     49  C   UNL A   1      43.713  26.366  30.621  1.00  0.00     0.074 A 
ATOM     50  C   UNL A   1      43.537  30.380  35.536  1.00  0.00     0.029 A 
ATOM     51  N   UNL A   1      43.113  29.279  33.651  1.00  0.00    -0.354 N 
ATOM     52  N   UNL A   1      43.594  27.234  31.598  1.00  0.00    -0.248 NA
ATOM     53  C   UNL A   1      44.905  25.511  30.713  1.00  0.00     0.031 C 
ATOM     54  C   UNL A   1      44.553  29.439  35.335  1.00  0.00     0.029 A 
ATOM     55  C   UNL A   1      44.276  28.737  34.172  1.00  0.00     0.049 A 
ATOM     56  H   UNL A   1      42.676  28.984  32.819  1.00  0.00     0.167 HD
ATOM     57  C   UNL A   1      44.682  27.013  32.435  1.00  0.00     0.074 A 
ATOM     58  C   UNL A   1      45.442  25.924  31.854  1.00  0.00     0.031 C 
ATOM     59  C   UNL A   1      45.021  27.655  33.579  1.00  0.00     0.031 A 
BRANCH  46  60
ATOM     60  C   UNL A   1      41.153  32.213  35.166  1.00  0.00    -0.014 A 
ATOM     61  C   UNL A   1      41.679  33.502  34.963  1.00  0.00     0.010 A 
ATOM     62  C   UNL A   1      40.297  31.988  36.260  1.00  0.00     0.010 A 
ATOM     63  C   UNL A   1      41.398  34.531  35.865  1.00  0.00     0.020 A 
ATOM     64  C   UNL A   1      39.991  33.022  37.149  1.00  0.00     0.020 A 
ATOM     65  C   UNL A   1      40.561  34.283  36.958  1.00  0.00     0.054 A 
BRANCH  65  66
ATOM     66  S   UNL A   1      40.208  35.637  38.110  1.00  0.00     0.124 S 
ATOM     67  O   UNL A   1      39.868  36.726  37.198  1.00  0.00    -0.237 OA
ATOM     68  O   UNL A   1      39.096  35.110  38.898  1.00  0.00    -0.237 OA
ATOM     69  O   UNL A   1      41.460  35.806  38.843  1.00  0.00    -0.744 OA
ENDBRANCH  65  66
ENDBRANCH  46  60
BRANCH  47  70
ATOM     70  C   UNL A   1      43.109  25.098  28.429  1.00  0.00    -0.014 A 
ATOM     71  C   UNL A   1      42.646  23.781  28.595  1.00  0.00     0.010 A 
ATOM     72  C   UNL A   1      43.834  25.428  27.270  1.00  0.00     0.010 A 
ATOM     73  C   UNL A   1      42.909  22.810  27.625  1.00  0.00     0.020 A 
ATOM     74  C   UNL A   1      44.079  24.465  26.286  1.00  0.00     0.020 A 
ATOM     75  C   UNL A   1      43.621  23.159  26.474  1.00  0.00     0.054 A 
BRANCH  75  76
ATOM     76  S   UNL A   1      43.888  21.900  25.194  1.00  0.00     0.124 S 
ATOM     77  O   UNL A   1      42.820  20.948  25.479  1.00  0.00    -0.237 OA
ATOM     78  O   UNL A   1      43.740  22.668  23.960  1.00  0.00    -0.237 OA
ATOM     79  O   UNL A   1      45.243  21.424  25.462  1.00  0.00    -0.744 OA
ENDBRANCH  75  76
ENDBRANCH  47  70
BRANCH  59  80
ATOM     80  C   UNL A   1      46.253  27.179  34.299  1.00  0.00    -0.014 A 
ATOM     81  C   UNL A   1      47.511  27.753  34.044  1.00  0.00     0.010 A 
ATOM     82  C   UNL A   1      46.139  26.181  35.285  1.00  0.00     0.010 A 
ATOM     83  C   UNL A   1      48.639  27.316  34.744  1.00  0.00     0.020 A 
ATOM     84  C   UNL A   1      47.260  25.761  36.003  1.00  0.00     0.020 A 
ATOM     85  C   UNL A   1      48.506  26.322  35.718  1.00  0.00     0.054 A 
BRANCH  85  86
ATOM     86  S   UNL A   1      49.977  25.805  36.648  1.00  0.00     0.124 S 
ATOM     87  O   UNL A   1      51.055  26.149  35.724  1.00  0.00    -0.237 OA
ATOM     88  O   UNL A   1      49.900  26.623  37.855  1.00  0.00    -0.237 OA
ATOM     89  O   UNL A   1      49.768  24.375  36.858  1.00  0.00    -0.744 OA
ENDBRANCH  85  86
ENDBRANCH  59  80
ENDBRANCH  33  34
ENDBRANCH  25  28
ENDBRANCH  23  24
ENDBRANCH  22  23
ENDBRANCH   1  22
TORSDOF 18
ENDMDL
MODEL 3
REMARK VINA RESULT:     -10.0      2.359      4.130
REMARK SMILES CO[C@@H]1C[C@@H](C(=O)NCCCNC(=O)c2ccc(-c3c4nc(c(-c5ccc(S(=O)(=O)[O-])cc5)c5ccc([nH]5)c(-c5ccc(S(=O)(=O)[O-])cc5)c5nc(c(-c6ccc(S(=O)(=O)[O-])cc6)c6ccc3[nH]6)C=C5)C=C4)cc2)N(C(=O)CSc2cccs2)C1
REMARK SMILES IDX 9 1 8 2 6 3 7 4 5 6 3 7 4 8 85 9 75 10 2 11 1 12 76 13 77 14
REMARK SMILES IDX 78 15 79 16 80 17 81 18 84 19 82 20 83 21 10 22 11 23 12 24
REMARK SMILES IDX 13 25 14 27 15 28 16 29 74 30 17 31 73 32 18 33 19 34 20 35
REMARK SMILES IDX 67 36 21 37 72 38 66 39 68 40 22 41 71 42 65 43 64 44 23 46
REMARK SMILES IDX 53 47 34 48 52 49 35 50 38 51 51 52 69 53 36 54 37 55 50 57
REMARK SMILES IDX 70 58 39 59 24 60 25 61 33 62 26 63 32 64 27 65 28 66 29 67
REMARK SMILES IDX 30 68 31 69 54 70 55 71 63 72 56 73 62 74 57 75 58 76 59 77
REMARK SMILES IDX 60 78 61 79 40 80 41 81 49 82 42 83 48 84 43 85 44 86 45 87
REMARK SMILES IDX 46 88 47 89
REMARK H PARENT 8 5 12 26 68 45 38 56
REMARK Flexibility Score: inf
ROOT
ATOM      1  C   UNL A   1      31.593  27.783  26.451  1.00  0.00     0.117 C 
ENDROOT
BRANCH   1   2
ATOM      2  N   UNL A   1      30.695  26.666  26.681  1.00  0.00    -0.354 N 
ATOM      3  C   UNL A   1      30.626  25.433  26.114  1.00  0.00     0.242 C 
ATOM      4  O   UNL A   1      29.833  24.632  26.617  1.00  0.00    -0.273 OA
ATOM      5  H   UNL A   1      30.013  26.831  27.372  1.00  0.00     0.163 HD
BRANCH   3   6
ATOM      6  C   UNL A   1      31.610  24.967  25.036  1.00  0.00     0.177 C 
ATOM      7  C   UNL A   1      31.803  24.549  22.683  1.00  0.00     0.139 C 
ATOM      8  C   UNL A   1      31.049  25.418  23.679  1.00  0.00     0.069 C 
ATOM      9  C   UNL A   1      31.890  23.206  23.420  1.00  0.00     0.152 C 
ATOM     10  N   UNL A   1      31.886  23.541  24.845  1.00  0.00    -0.327 N 
BRANCH   7  11
ATOM     11  O   UNL A   1      33.124  25.038  22.429  1.00  0.00    -0.380 OA
ATOM     12  C   UNL A   1      33.156  26.361  21.910  1.00  0.00     0.195 C 
ENDBRANCH   7  11
BRANCH  10  13
ATOM     13  C   UNL A   1      32.468  22.665  25.745  1.00  0.00     0.233 C 
ATOM     14  O   UNL A   1      33.090  23.090  26.722  1.00  0.00    -0.274 OA
BRANCH  13  15
ATOM     15  C   UNL A   1      32.417  21.169  25.471  1.00  0.00     0.175 C 
BRANCH  15  16
ATOM     16  S   UNL A   1      34.073  20.444  25.358  1.00  0.00    -0.105 SA
BRANCH  16  17
ATOM     17  C   UNL A   1      33.737  19.046  24.354  1.00  0.00     0.060 A 
ATOM     18  C   UNL A   1      32.691  18.937  23.466  1.00  0.00     0.027 A 
ATOM     19  S   UNL A   1      34.719  17.648  24.360  1.00  0.00    -0.137 S 
ATOM     20  C   UNL A   1      32.676  17.673  22.808  1.00  0.00     0.013 A 
ATOM     21  C   UNL A   1      33.719  16.869  23.211  1.00  0.00     0.066 A 
ENDBRANCH  16  17
ENDBRANCH  15  16
ENDBRANCH  13  15
ENDBRANCH  10  13
ENDBRANCH   3   6
ENDBRANCH   1   2
BRANCH   1  22
ATOM     22  C   UNL A   1      33.038  27.471  26.813  1.00  0.00     0.042 C 
BRANCH  22  23
ATOM     23  C   UNL A   1      34.046  28.493  26.298  1.00  0.00     0.118 C 
BRANCH  23  24
ATOM     24  N   UNL A   1      33.810  29.824  26.837  1.00  0.00    -0.352 N 
ATOM     25  C   UNL A   1      34.555  30.543  27.737  1.00  0.00     0.251 C 
ATOM     26  H   UNL A   1      32.999  30.272  26.508  1.00  0.00     0.163 HD
ATOM     27  O   UNL A   1      34.083  31.558  28.242  1.00  0.00    -0.269 OA
BRANCH  25  28
ATOM     28  C   UNL A   1      35.910  30.085  28.109  1.00  0.00     0.039 A 
ATOM     29  C   UNL A   1      36.930  30.145  27.157  1.00  0.00     0.014 A 
ATOM     30  C   UNL A   1      36.170  29.586  29.388  1.00  0.00     0.014 A 
ATOM     31  C   UNL A   1      38.225  29.755  27.506  1.00  0.00     0.010 A 
ATOM     32  C   UNL A   1      37.473  29.269  29.757  1.00  0.00     0.010 A 
ATOM     33  C   UNL A   1      38.512  29.340  28.817  1.00  0.00    -0.014 A 
BRANCH  33  34
ATOM     34  C   UNL A   1      39.890  28.964  29.223  1.00  0.00     0.031 A 
ATOM     35  C   UNL A   1      40.764  29.961  29.936  1.00  0.00     0.074 A 
ATOM     36  C   UNL A   1      40.378  27.754  28.890  1.00  0.00     0.049 A 
ATOM     37  N   UNL A   1      42.010  29.841  30.314  1.00  0.00    -0.248 NA
ATOM     38  C   UNL A   1      40.166  31.271  30.240  1.00  0.00     0.031 C 
ATOM     39  C   UNL A   1      39.646  26.717  28.156  1.00  0.00     0.029 A 
ATOM     40  N   UNL A   1      41.609  27.193  29.116  1.00  0.00    -0.354 N 
ATOM     41  C   UNL A   1      42.353  31.066  30.876  1.00  0.00     0.074 A 
ATOM     42  C   UNL A   1      41.198  31.928  30.750  1.00  0.00     0.031 C 
ATOM     43  C   UNL A   1      40.435  25.639  28.015  1.00  0.00     0.029 A 
ATOM     44  C   UNL A   1      41.736  25.920  28.614  1.00  0.00     0.049 A 
ATOM     45  H   UNL A   1      42.333  27.659  29.594  1.00  0.00     0.167 HD
ATOM     46  C   UNL A   1      43.517  31.436  31.460  1.00  0.00     0.031 A 
ATOM     47  C   UNL A   1      42.784  25.073  28.629  1.00  0.00     0.031 A 
ATOM     48  C   UNL A   1      44.658  30.572  31.602  1.00  0.00     0.049 A 
ATOM     49  C   UNL A   1      44.061  25.497  29.298  1.00  0.00     0.074 A 
ATOM     50  C   UNL A   1      45.861  30.830  32.235  1.00  0.00     0.029 A 
ATOM     51  N   UNL A   1      44.737  29.280  31.102  1.00  0.00    -0.354 N 
ATOM     52  N   UNL A   1      44.344  26.637  29.884  1.00  0.00    -0.248 NA
ATOM     53  C   UNL A   1      45.156  24.517  29.321  1.00  0.00     0.031 C 
ATOM     54  C   UNL A   1      46.683  29.708  32.084  1.00  0.00     0.029 A 
ATOM     55  C   UNL A   1      45.974  28.734  31.398  1.00  0.00     0.049 A 
ATOM     56  H   UNL A   1      44.019  28.819  30.611  1.00  0.00     0.167 HD
ATOM     57  C   UNL A   1      45.642  26.504  30.364  1.00  0.00     0.074 A 
ATOM     58  C   UNL A   1      46.083  25.169  30.011  1.00  0.00     0.031 C 
ATOM     59  C   UNL A   1      46.398  27.405  31.036  1.00  0.00     0.031 A 
BRANCH  46  60
ATOM     60  C   UNL A   1      43.612  32.845  31.983  1.00  0.00    -0.014 A 
ATOM     61  C   UNL A   1      43.294  33.145  33.321  1.00  0.00     0.010 A 
ATOM     62  C   UNL A   1      44.039  33.880  31.132  1.00  0.00     0.010 A 
ATOM     63  C   UNL A   1      43.352  34.463  33.783  1.00  0.00     0.020 A 
ATOM     64  C   UNL A   1      44.126  35.195  31.599  1.00  0.00     0.020 A 
ATOM     65  C   UNL A   1      43.760  35.481  32.917  1.00  0.00     0.054 A 
BRANCH  65  66
ATOM     66  S   UNL A   1      43.832  37.181  33.542  1.00  0.00     0.124 S 
ATOM     67  O   UNL A   1      43.874  37.955  32.304  1.00  0.00    -0.237 OA
ATOM     68  O   UNL A   1      42.595  37.297  34.311  1.00  0.00    -0.237 OA
ATOM     69  O   UNL A   1      45.058  37.208  34.336  1.00  0.00    -0.744 OA
ENDBRANCH  65  66
ENDBRANCH  46  60
BRANCH  47  70
ATOM     70  C   UNL A   1      42.651  23.726  28.012  1.00  0.00    -0.014 A 
ATOM     71  C   UNL A   1      42.040  22.677  28.720  1.00  0.00     0.010 A 
ATOM     72  C   UNL A   1      43.102  23.496  26.700  1.00  0.00     0.010 A 
ATOM     73  C   UNL A   1      41.889  21.419  28.131  1.00  0.00     0.020 A 
ATOM     74  C   UNL A   1      42.931  22.245  26.098  1.00  0.00     0.020 A 
ATOM     75  C   UNL A   1      42.332  21.211  26.822  1.00  0.00     0.054 A 
BRANCH  75  76
ATOM     76  S   UNL A   1      42.060  19.591  26.052  1.00  0.00     0.124 S 
ATOM     77  O   UNL A   1      42.536  18.680  27.086  1.00  0.00    -0.237 OA
ATOM     78  O   UNL A   1      40.617  19.589  25.822  1.00  0.00    -0.237 OA
ATOM     79  O   UNL A   1      42.874  19.648  24.840  1.00  0.00    -0.744 OA
ENDBRANCH  75  76
ENDBRANCH  47  70
BRANCH  59  80
ATOM     80  C   UNL A   1      47.774  26.970  31.462  1.00  0.00    -0.014 A 
ATOM     81  C   UNL A   1      48.917  27.378  30.752  1.00  0.00     0.010 A 
ATOM     82  C   UNL A   1      47.928  26.189  32.622  1.00  0.00     0.010 A 
ATOM     83  C   UNL A   1      50.189  26.988  31.179  1.00  0.00     0.020 A 
ATOM     84  C   UNL A   1      49.198  25.818  33.066  1.00  0.00     0.020 A 
ATOM     85  C   UNL A   1      50.321  26.209  32.334  1.00  0.00     0.054 A 
BRANCH  85  86
ATOM     86  S   UNL A   1      51.985  25.754  32.897  1.00  0.00     0.124 S 
ATOM     87  O   UNL A   1      52.299  24.622  32.029  1.00  0.00    -0.237 OA
ATOM     88  O   UNL A   1      52.754  26.970  32.647  1.00  0.00    -0.237 OA
ATOM     89  O   UNL A   1      51.794  25.424  34.308  1.00  0.00    -0.744 OA
ENDBRANCH  85  86
ENDBRANCH  59  80
ENDBRANCH  33  34
ENDBRANCH  25  28
ENDBRANCH  23  24
ENDBRANCH  22  23
ENDBRANCH   1  22
TORSDOF 18
ENDMDL
