MODEL 1
REMARK VINA RESULT:     -10.1      0.000      0.000
REMARK SMILES Cc1cscc1-c1noc(SCC(=O)NCCCNC(=O)c2ccc(-c3c4nc(c(-c5ccc(S(=O)(=O)[O-])cc5)c5ccc([nH]5)c(-c5ccc(S(=O)(=O)[O-])cc5)c5nc(c(-c6ccc(S(=O)(=O)[O-])cc6)c6ccc3[nH]6)C=C5)C=C4)cc2)n1
REMARK SMILES IDX 17 1 16 2 15 3 13 4 14 5 12 7 11 8 10 9 7 10 8 11 82 12 9 13
REMARK SMILES IDX 6 14 1 15 2 16 3 17 4 18 5 19 18 20 19 21 20 22 21 24 22 25
REMARK SMILES IDX 23 26 81 27 24 28 80 29 25 30 26 31 27 32 74 33 28 34 79 35
REMARK SMILES IDX 73 36 75 37 29 38 78 39 72 40 71 41 30 43 60 44 41 45 59 46
REMARK SMILES IDX 42 47 45 48 58 49 76 50 43 51 44 52 57 54 77 55 46 56 31 57
REMARK SMILES IDX 32 58 40 59 33 60 39 61 34 62 35 63 36 64 37 65 38 66 61 67
REMARK SMILES IDX 62 68 70 69 63 70 69 71 64 72 65 73 66 74 67 75 68 76 47 77
REMARK SMILES IDX 48 78 56 79 49 80 55 81 50 82 51 83 52 84 53 85 54 86
REMARK H PARENT 15 6 19 23 75 42 45 53
REMARK Flexibility Score: inf
ROOT
ATOM      1  C   UNL A   1      33.251  28.520  25.725  1.00  0.00     0.042 C 
ENDROOT
BRANCH   1   2
ATOM      2  C   UNL A   1      31.740  28.402  25.542  1.00  0.00     0.117 C 
BRANCH   2   3
ATOM      3  N   UNL A   1      31.308  27.017  25.482  1.00  0.00    -0.355 N 
ATOM      4  C   UNL A   1      30.944  26.252  24.413  1.00  0.00     0.230 C 
ATOM      5  O   UNL A   1      30.658  25.073  24.634  1.00  0.00    -0.274 OA
ATOM      6  H   UNL A   1      31.273  26.556  26.352  1.00  0.00     0.163 HD
BRANCH   4   7
ATOM      7  C   UNL A   1      31.020  26.792  22.998  1.00  0.00     0.179 C 
BRANCH   7   8
ATOM      8  S   UNL A   1      32.696  26.989  22.358  1.00  0.00    -0.055 SA
BRANCH   8   9
ATOM      9  C   UNL A   1      33.335  25.379  22.432  1.00  0.00     0.286 A 
ATOM     10  C   UNL A   1      34.342  23.628  22.963  1.00  0.00     0.204 A 
ATOM     11  N   UNL A   1      33.849  23.329  21.756  1.00  0.00    -0.056 NA
ATOM     12  N   UNL A   1      34.049  24.887  23.418  1.00  0.00    -0.181 NA
ATOM     13  O   UNL A   1      33.155  24.487  21.409  1.00  0.00    -0.327 OA
BRANCH  10  14
ATOM     14  C   UNL A   1      35.216  22.732  23.721  1.00  0.00     0.036 A 
ATOM     15  C   UNL A   1      33.333  21.142  24.574  1.00  0.00     0.046 C 
ATOM     16  C   UNL A   1      34.753  21.598  24.472  1.00  0.00    -0.029 A 
ATOM     17  C   UNL A   1      35.817  20.949  25.073  1.00  0.00     0.069 A 
ATOM     18  S   UNL A   1      37.326  21.682  24.741  1.00  0.00    -0.151 S 
ATOM     19  C   UNL A   1      36.587  22.875  23.768  1.00  0.00     0.077 A 
ENDBRANCH  10  14
ENDBRANCH   8   9
ENDBRANCH   7   8
ENDBRANCH   4   7
ENDBRANCH   2   3
ENDBRANCH   1   2
BRANCH   1  20
ATOM     20  C   UNL A   1      33.695  28.686  27.176  1.00  0.00     0.118 C 
BRANCH  20  21
ATOM     21  N   UNL A   1      33.632  30.068  27.630  1.00  0.00    -0.352 N 
ATOM     22  C   UNL A   1      34.551  30.809  28.330  1.00  0.00     0.251 C 
ATOM     23  H   UNL A   1      32.802  30.545  27.398  1.00  0.00     0.163 HD
ATOM     24  O   UNL A   1      34.220  31.912  28.771  1.00  0.00    -0.269 OA
BRANCH  22  25
ATOM     25  C   UNL A   1      35.914  30.293  28.578  1.00  0.00     0.039 A 
ATOM     26  C   UNL A   1      36.861  30.374  27.553  1.00  0.00     0.014 A 
ATOM     27  C   UNL A   1      36.260  29.708  29.799  1.00  0.00     0.014 A 
ATOM     28  C   UNL A   1      38.168  29.931  27.775  1.00  0.00     0.010 A 
ATOM     29  C   UNL A   1      37.581  29.339  30.044  1.00  0.00     0.010 A 
ATOM     30  C   UNL A   1      38.550  29.445  29.036  1.00  0.00    -0.014 A 
BRANCH  30  31
ATOM     31  C   UNL A   1      39.959  29.059  29.319  1.00  0.00     0.031 A 
ATOM     32  C   UNL A   1      40.914  30.049  29.929  1.00  0.00     0.074 A 
ATOM     33  C   UNL A   1      40.395  27.833  28.965  1.00  0.00     0.049 A 
ATOM     34  N   UNL A   1      42.188  29.909  30.193  1.00  0.00    -0.248 NA
ATOM     35  C   UNL A   1      40.375  31.376  30.268  1.00  0.00     0.031 C 
ATOM     36  C   UNL A   1      39.581  26.793  28.330  1.00  0.00     0.029 A 
ATOM     37  N   UNL A   1      41.635  27.254  29.083  1.00  0.00    -0.354 N 
ATOM     38  C   UNL A   1      42.606  31.130  30.710  1.00  0.00     0.074 A 
ATOM     39  C   UNL A   1      41.461  32.014  30.679  1.00  0.00     0.031 C 
ATOM     40  C   UNL A   1      40.334  25.698  28.139  1.00  0.00     0.029 A 
ATOM     41  C   UNL A   1      41.695  25.970  28.592  1.00  0.00     0.049 A 
ATOM     42  H   UNL A   1      42.409  27.714  29.481  1.00  0.00     0.167 HD
ATOM     43  C   UNL A   1      43.827  31.480  31.183  1.00  0.00     0.031 A 
ATOM     44  C   UNL A   1      42.729  25.110  28.502  1.00  0.00     0.031 A 
ATOM     45  C   UNL A   1      44.963  30.597  31.217  1.00  0.00     0.049 A 
ATOM     46  C   UNL A   1      44.078  25.527  29.019  1.00  0.00     0.074 A 
ATOM     47  C   UNL A   1      46.226  30.841  31.730  1.00  0.00     0.029 A 
ATOM     48  N   UNL A   1      44.980  29.304  30.716  1.00  0.00    -0.354 N 
ATOM     49  N   UNL A   1      44.434  26.664  29.568  1.00  0.00    -0.248 NA
ATOM     50  C   UNL A   1      45.163  24.542  28.915  1.00  0.00     0.031 C 
ATOM     51  C   UNL A   1      47.023  29.718  31.483  1.00  0.00     0.029 A 
ATOM     52  C   UNL A   1      46.238  28.749  30.881  1.00  0.00     0.049 A 
ATOM     53  H   UNL A   1      44.210  28.848  30.304  1.00  0.00     0.167 HD
ATOM     54  C   UNL A   1      45.777  26.520  29.900  1.00  0.00     0.074 A 
ATOM     55  C   UNL A   1      46.163  25.180  29.506  1.00  0.00     0.031 C 
ATOM     56  C   UNL A   1      46.612  27.415  30.482  1.00  0.00     0.031 A 
BRANCH  43  57
ATOM     57  C   UNL A   1      44.002  32.888  31.695  1.00  0.00    -0.014 A 
ATOM     58  C   UNL A   1      44.368  33.937  30.833  1.00  0.00     0.010 A 
ATOM     59  C   UNL A   1      43.746  33.175  33.048  1.00  0.00     0.010 A 
ATOM     60  C   UNL A   1      44.517  35.238  31.322  1.00  0.00     0.020 A 
ATOM     61  C   UNL A   1      43.863  34.480  33.536  1.00  0.00     0.020 A 
ATOM     62  C   UNL A   1      44.264  35.501  32.672  1.00  0.00     0.054 A 
BRANCH  62  63
ATOM     63  S   UNL A   1      44.440  37.203  33.272  1.00  0.00     0.124 S 
ATOM     64  O   UNL A   1      43.553  37.934  32.370  1.00  0.00    -0.237 OA
ATOM     65  O   UNL A   1      43.983  37.103  34.656  1.00  0.00    -0.237 OA
ATOM     66  O   UNL A   1      45.864  37.485  33.108  1.00  0.00    -0.744 OA
ENDBRANCH  62  63
ENDBRANCH  43  57
BRANCH  44  67
ATOM     67  C   UNL A   1      42.523  23.762  27.903  1.00  0.00    -0.014 A 
ATOM     68  C   UNL A   1      42.734  23.547  26.531  1.00  0.00     0.010 A 
ATOM     69  C   UNL A   1      42.125  22.678  28.710  1.00  0.00     0.010 A 
ATOM     70  C   UNL A   1      42.535  22.281  25.971  1.00  0.00     0.020 A 
ATOM     71  C   UNL A   1      41.955  21.405  28.160  1.00  0.00     0.020 A 
ATOM     72  C   UNL A   1      42.151  21.217  26.791  1.00  0.00     0.054 A 
BRANCH  72  73
ATOM     73  S   UNL A   1      41.952  19.571  26.053  1.00  0.00     0.124 S 
ATOM     74  O   UNL A   1      42.349  18.695  27.151  1.00  0.00    -0.237 OA
ATOM     75  O   UNL A   1      40.532  19.551  25.707  1.00  0.00    -0.237 OA
ATOM     76  O   UNL A   1      42.863  19.597  24.910  1.00  0.00    -0.744 OA
ENDBRANCH  72  73
ENDBRANCH  44  67
BRANCH  56  77
ATOM     77  C   UNL A   1      48.023  26.968  30.766  1.00  0.00    -0.014 A 
ATOM     78  C   UNL A   1      49.047  27.125  29.815  1.00  0.00     0.010 A 
ATOM     79  C   UNL A   1      48.338  26.432  32.029  1.00  0.00     0.010 A 
ATOM     80  C   UNL A   1      50.354  26.725  30.111  1.00  0.00     0.020 A 
ATOM     81  C   UNL A   1      49.649  26.060  32.339  1.00  0.00     0.020 A 
ATOM     82  C   UNL A   1      50.646  26.196  31.372  1.00  0.00     0.054 A 
BRANCH  82  83
ATOM     83  S   UNL A   1      52.358  25.727  31.746  1.00  0.00     0.124 S 
ATOM     84  O   UNL A   1      52.212  24.325  32.129  1.00  0.00    -0.237 OA
ATOM     85  O   UNL A   1      53.039  25.963  30.476  1.00  0.00    -0.237 OA
ATOM     86  O   UNL A   1      52.738  26.631  32.829  1.00  0.00    -0.744 OA
ENDBRANCH  82  83
ENDBRANCH  56  77
ENDBRANCH  30  31
ENDBRANCH  22  25
ENDBRANCH  20  21
ENDBRANCH   1  20
TORSDOF 16
ENDMDL
MODEL 2
REMARK VINA RESULT:      -9.9      2.997      3.741
REMARK SMILES Cc1cscc1-c1noc(SCC(=O)NCCCNC(=O)c2ccc(-c3c4nc(c(-c5ccc(S(=O)(=O)[O-])cc5)c5ccc([nH]5)c(-c5ccc(S(=O)(=O)[O-])cc5)c5nc(c(-c6ccc(S(=O)(=O)[O-])cc6)c6ccc3[nH]6)C=C5)C=C4)cc2)n1
REMARK SMILES IDX 17 1 16 2 15 3 13 4 14 5 12 7 11 8 10 9 7 10 8 11 82 12 9 13
REMARK SMILES IDX 6 14 1 15 2 16 3 17 4 18 5 19 18 20 19 21 20 22 21 24 22 25
REMARK SMILES IDX 23 26 81 27 24 28 80 29 25 30 26 31 27 32 74 33 28 34 79 35
REMARK SMILES IDX 73 36 75 37 29 38 78 39 72 40 71 41 30 43 60 44 41 45 59 46
REMARK SMILES IDX 42 47 45 48 58 49 76 50 43 51 44 52 57 54 77 55 46 56 31 57
REMARK SMILES IDX 32 58 40 59 33 60 39 61 34 62 35 63 36 64 37 65 38 66 61 67
REMARK SMILES IDX 62 68 70 69 63 70 69 71 64 72 65 73 66 74 67 75 68 76 47 77
REMARK SMILES IDX 48 78 56 79 49 80 55 81 50 82 51 83 52 84 53 85 54 86
REMARK H PARENT 15 6 19 23 75 42 45 53
REMARK Flexibility Score: inf
ROOT
ATOM      1  C   UNL A   1      34.173  30.063  27.213  1.00  0.00     0.042 C 
ENDROOT
BRANCH   1   2
ATOM      2  C   UNL A   1      33.844  29.147  26.037  1.00  0.00     0.117 C 
BRANCH   2   3
ATOM      3  N   UNL A   1      32.639  29.566  25.343  1.00  0.00    -0.355 N 
ATOM      4  C   UNL A   1      31.851  28.891  24.457  1.00  0.00     0.230 C 
ATOM      5  O   UNL A   1      30.844  29.469  24.043  1.00  0.00    -0.274 OA
ATOM      6  H   UNL A   1      32.344  30.483  25.544  1.00  0.00     0.163 HD
BRANCH   4   7
ATOM      7  C   UNL A   1      32.128  27.442  24.105  1.00  0.00     0.179 C 
BRANCH   7   8
ATOM      8  S   UNL A   1      32.929  27.197  22.506  1.00  0.00    -0.055 SA
BRANCH   8   9
ATOM      9  C   UNL A   1      33.317  25.507  22.517  1.00  0.00     0.286 A 
ATOM     10  C   UNL A   1      33.952  23.584  23.026  1.00  0.00     0.204 A 
ATOM     11  N   UNL A   1      33.671  23.466  21.724  1.00  0.00    -0.056 NA
ATOM     12  N   UNL A   1      33.748  24.831  23.557  1.00  0.00    -0.181 NA
ATOM     13  O   UNL A   1      33.223  24.743  21.386  1.00  0.00    -0.327 OA
BRANCH  10  14
ATOM     14  C   UNL A   1      34.529  22.505  23.827  1.00  0.00     0.036 A 
ATOM     15  C   UNL A   1      32.367  21.052  23.957  1.00  0.00     0.046 C 
ATOM     16  C   UNL A   1      33.799  21.347  24.266  1.00  0.00    -0.029 A 
ATOM     17  C   UNL A   1      34.619  20.508  25.000  1.00  0.00     0.069 A 
ATOM     18  S   UNL A   1      36.218  21.096  25.152  1.00  0.00    -0.151 S 
ATOM     19  C   UNL A   1      35.850  22.479  24.222  1.00  0.00     0.077 A 
ENDBRANCH  10  14
ENDBRANCH   8   9
ENDBRANCH   7   8
ENDBRANCH   4   7
ENDBRANCH   2   3
ENDBRANCH   1   2
BRANCH   1  20
ATOM     20  C   UNL A   1      35.472  29.713  27.935  1.00  0.00     0.118 C 
BRANCH  20  21
ATOM     21  N   UNL A   1      35.470  30.129  29.330  1.00  0.00    -0.352 N 
ATOM     22  C   UNL A   1      36.490  30.147  30.247  1.00  0.00     0.251 C 
ATOM     23  H   UNL A   1      34.601  30.447  29.668  1.00  0.00     0.163 HD
ATOM     24  O   UNL A   1      36.229  30.368  31.431  1.00  0.00    -0.269 OA
BRANCH  22  25
ATOM     25  C   UNL A   1      37.887  29.884  29.835  1.00  0.00     0.039 A 
ATOM     26  C   UNL A   1      38.830  29.570  30.818  1.00  0.00     0.014 A 
ATOM     27  C   UNL A   1      38.279  29.970  28.497  1.00  0.00     0.014 A 
ATOM     28  C   UNL A   1      40.146  29.276  30.451  1.00  0.00     0.010 A 
ATOM     29  C   UNL A   1      39.571  29.603  28.125  1.00  0.00     0.010 A 
ATOM     30  C   UNL A   1      40.520  29.252  29.097  1.00  0.00    -0.014 A 
BRANCH  30  31
ATOM     31  C   UNL A   1      41.890  28.850  28.682  1.00  0.00     0.031 A 
ATOM     32  C   UNL A   1      42.993  29.871  28.595  1.00  0.00     0.074 A 
ATOM     33  C   UNL A   1      42.126  27.572  28.322  1.00  0.00     0.049 A 
ATOM     34  N   UNL A   1      44.230  29.715  28.199  1.00  0.00    -0.248 NA
ATOM     35  C   UNL A   1      42.657  31.251  28.980  1.00  0.00     0.031 C 
ATOM     36  C   UNL A   1      41.135  26.492  28.325  1.00  0.00     0.029 A 
ATOM     37  N   UNL A   1      43.274  26.963  27.877  1.00  0.00    -0.354 N 
ATOM     38  C   UNL A   1      44.815  30.974  28.271  1.00  0.00     0.074 A 
ATOM     39  C   UNL A   1      43.783  31.892  28.703  1.00  0.00     0.031 C 
ATOM     40  C   UNL A   1      41.722  25.353  27.927  1.00  0.00     0.029 A 
ATOM     41  C   UNL A   1      43.118  25.626  27.595  1.00  0.00     0.049 A 
ATOM     42  H   UNL A   1      44.129  27.439  27.769  1.00  0.00     0.167 HD
ATOM     43  C   UNL A   1      46.096  31.332  28.017  1.00  0.00     0.031 A 
ATOM     44  C   UNL A   1      43.992  24.719  27.113  1.00  0.00     0.031 A 
ATOM     45  C   UNL A   1      47.122  30.415  27.592  1.00  0.00     0.049 A 
ATOM     46  C   UNL A   1      45.405  25.145  26.823  1.00  0.00     0.074 A 
ATOM     47  C   UNL A   1      48.463  30.672  27.365  1.00  0.00     0.029 A 
ATOM     48  N   UNL A   1      46.923  29.070  27.325  1.00  0.00    -0.354 N 
ATOM     49  N   UNL A   1      45.954  26.328  26.964  1.00  0.00    -0.248 NA
ATOM     50  C   UNL A   1      46.319  24.112  26.319  1.00  0.00     0.031 C 
ATOM     51  C   UNL A   1      49.062  29.496  26.902  1.00  0.00     0.029 A 
ATOM     52  C   UNL A   1      48.110  28.490  26.908  1.00  0.00     0.049 A 
ATOM     53  H   UNL A   1      46.065  28.596  27.419  1.00  0.00     0.167 HD
ATOM     54  C   UNL A   1      47.285  26.173  26.594  1.00  0.00     0.074 A 
ATOM     55  C   UNL A   1      47.462  24.780  26.239  1.00  0.00     0.031 C 
ATOM     56  C   UNL A   1      48.273  27.102  26.554  1.00  0.00     0.031 A 
BRANCH  43  57
ATOM     57  C   UNL A   1      46.463  32.786  28.182  1.00  0.00    -0.014 A 
ATOM     58  C   UNL A   1      46.956  33.279  29.405  1.00  0.00     0.010 A 
ATOM     59  C   UNL A   1      46.362  33.661  27.085  1.00  0.00     0.010 A 
ATOM     60  C   UNL A   1      47.301  34.626  29.538  1.00  0.00     0.020 A 
ATOM     61  C   UNL A   1      46.736  35.003  27.206  1.00  0.00     0.020 A 
ATOM     62  C   UNL A   1      47.187  35.481  28.438  1.00  0.00     0.054 A 
BRANCH  62  63
ATOM     63  S   UNL A   1      47.666  37.218  28.634  1.00  0.00     0.124 S 
ATOM     64  O   UNL A   1      46.909  37.607  29.821  1.00  0.00    -0.237 OA
ATOM     65  O   UNL A   1      49.114  37.133  28.814  1.00  0.00    -0.237 OA
ATOM     66  O   UNL A   1      47.232  37.843  27.387  1.00  0.00    -0.744 OA
ENDBRANCH  62  63
ENDBRANCH  43  57
BRANCH  44  67
ATOM     67  C   UNL A   1      43.553  23.316  26.882  1.00  0.00    -0.014 A 
ATOM     68  C   UNL A   1      43.176  22.496  27.959  1.00  0.00     0.010 A 
ATOM     69  C   UNL A   1      43.498  22.793  25.575  1.00  0.00     0.010 A 
ATOM     70  C   UNL A   1      42.769  21.176  27.739  1.00  0.00     0.020 A 
ATOM     71  C   UNL A   1      43.062  21.485  25.348  1.00  0.00     0.020 A 
ATOM     72  C   UNL A   1      42.711  20.681  26.433  1.00  0.00     0.054 A 
BRANCH  72  73
ATOM     73  S   UNL A   1      42.127  18.983  26.167  1.00  0.00     0.124 S 
ATOM     74  O   UNL A   1      40.743  19.199  25.755  1.00  0.00    -0.237 OA
ATOM     75  O   UNL A   1      43.031  18.499  25.126  1.00  0.00    -0.237 OA
ATOM     76  O   UNL A   1      42.302  18.353  27.474  1.00  0.00    -0.744 OA
ENDBRANCH  72  73
ENDBRANCH  44  67
BRANCH  56  77
ATOM     77  C   UNL A   1      49.648  26.638  26.148  1.00  0.00    -0.014 A 
ATOM     78  C   UNL A   1      50.104  26.769  24.824  1.00  0.00     0.010 A 
ATOM     79  C   UNL A   1      50.518  26.114  27.122  1.00  0.00     0.010 A 
ATOM     80  C   UNL A   1      51.393  26.354  24.476  1.00  0.00     0.020 A 
ATOM     81  C   UNL A   1      51.817  25.728  26.785  1.00  0.00     0.020 A 
ATOM     82  C   UNL A   1      52.242  25.837  25.460  1.00  0.00     0.054 A 
BRANCH  82  83
ATOM     83  S   UNL A   1      53.925  25.348  24.991  1.00  0.00     0.124 S 
ATOM     84  O   UNL A   1      54.061  25.955  23.669  1.00  0.00    -0.237 OA
ATOM     85  O   UNL A   1      54.738  25.949  26.045  1.00  0.00    -0.237 OA
ATOM     86  O   UNL A   1      53.878  23.888  25.004  1.00  0.00    -0.744 OA
ENDBRANCH  82  83
ENDBRANCH  56  77
ENDBRANCH  30  31
ENDBRANCH  22  25
ENDBRANCH  20  21
ENDBRANCH   1  20
TORSDOF 16
ENDMDL
MODEL 3
REMARK VINA RESULT:      -9.9      4.091      9.287
REMARK SMILES Cc1cscc1-c1noc(SCC(=O)NCCCNC(=O)c2ccc(-c3c4nc(c(-c5ccc(S(=O)(=O)[O-])cc5)c5ccc([nH]5)c(-c5ccc(S(=O)(=O)[O-])cc5)c5nc(c(-c6ccc(S(=O)(=O)[O-])cc6)c6ccc3[nH]6)C=C5)C=C4)cc2)n1
REMARK SMILES IDX 17 1 16 2 15 3 13 4 14 5 12 7 11 8 10 9 7 10 8 11 82 12 9 13
REMARK SMILES IDX 6 14 1 15 2 16 3 17 4 18 5 19 18 20 19 21 20 22 21 24 22 25
REMARK SMILES IDX 23 26 81 27 24 28 80 29 25 30 26 31 27 32 74 33 28 34 79 35
REMARK SMILES IDX 73 36 75 37 29 38 78 39 72 40 71 41 30 43 60 44 41 45 59 46
REMARK SMILES IDX 42 47 45 48 58 49 76 50 43 51 44 52 57 54 77 55 46 56 31 57
REMARK SMILES IDX 32 58 40 59 33 60 39 61 34 62 35 63 36 64 37 65 38 66 61 67
REMARK SMILES IDX 62 68 70 69 63 70 69 71 64 72 65 73 66 74 67 75 68 76 47 77
REMARK SMILES IDX 48 78 56 79 49 80 55 81 50 82 51 83 52 84 53 85 54 86
REMARK H PARENT 15 6 19 23 75 42 45 53
REMARK Flexibility Score: inf
ROOT
ATOM      1  C   UNL A   1      32.485  30.253  27.121  1.00  0.00     0.042 C 
ENDROOT
BRANCH   1   2
ATOM      2  C   UNL A   1      31.980  30.078  25.690  1.00  0.00     0.117 C 
BRANCH   2   3
ATOM      3  N   UNL A   1      33.051  29.718  24.778  1.00  0.00    -0.355 N 
ATOM      4  C   UNL A   1      33.216  28.605  24.007  1.00  0.00     0.230 C 
ATOM      5  O   UNL A   1      34.209  28.567  23.276  1.00  0.00    -0.274 OA
ATOM      6  H   UNL A   1      33.772  30.384  24.704  1.00  0.00     0.163 HD
BRANCH   4   7
ATOM      7  C   UNL A   1      32.155  27.524  23.951  1.00  0.00     0.179 C 
BRANCH   7   8
ATOM      8  S   UNL A   1      31.795  26.909  22.293  1.00  0.00    -0.055 SA
BRANCH   8   9
ATOM      9  C   UNL A   1      32.538  25.343  22.286  1.00  0.00     0.286 A 
ATOM     10  C   UNL A   1      33.383  23.505  22.809  1.00  0.00     0.204 A 
ATOM     11  N   UNL A   1      33.620  23.575  21.494  1.00  0.00    -0.056 NA
ATOM     12  N   UNL A   1      32.717  24.580  23.339  1.00  0.00    -0.181 NA
ATOM     13  O   UNL A   1      33.036  24.789  21.137  1.00  0.00    -0.327 OA
BRANCH  10  14
ATOM     14  C   UNL A   1      33.872  22.421  23.660  1.00  0.00     0.036 A 
ATOM     15  C   UNL A   1      36.365  23.186  23.700  1.00  0.00     0.046 C 
ATOM     16  C   UNL A   1      35.243  22.266  24.060  1.00  0.00    -0.029 A 
ATOM     17  C   UNL A   1      35.389  21.150  24.866  1.00  0.00     0.069 A 
ATOM     18  S   UNL A   1      33.919  20.318  25.133  1.00  0.00    -0.151 S 
ATOM     19  C   UNL A   1      33.053  21.446  24.189  1.00  0.00     0.077 A 
ENDBRANCH  10  14
ENDBRANCH   8   9
ENDBRANCH   7   8
ENDBRANCH   4   7
ENDBRANCH   2   3
ENDBRANCH   1   2
BRANCH   1  20
ATOM     20  C   UNL A   1      33.601  31.284  27.268  1.00  0.00     0.118 C 
BRANCH  20  21
ATOM     21  N   UNL A   1      33.099  32.618  27.566  1.00  0.00    -0.352 N 
ATOM     22  C   UNL A   1      33.515  33.529  28.504  1.00  0.00     0.251 C 
ATOM     23  H   UNL A   1      32.344  32.913  27.007  1.00  0.00     0.163 HD
ATOM     24  O   UNL A   1      32.832  34.534  28.710  1.00  0.00    -0.269 OA
BRANCH  22  25
ATOM     25  C   UNL A   1      34.755  33.307  29.281  1.00  0.00     0.039 A 
ATOM     26  C   UNL A   1      34.728  32.404  30.347  1.00  0.00     0.014 A 
ATOM     27  C   UNL A   1      35.932  33.999  28.985  1.00  0.00     0.014 A 
ATOM     28  C   UNL A   1      35.895  32.145  31.070  1.00  0.00     0.010 A 
ATOM     29  C   UNL A   1      37.112  33.683  29.656  1.00  0.00     0.010 A 
ATOM     30  C   UNL A   1      37.108  32.754  30.707  1.00  0.00    -0.014 A 
BRANCH  30  31
ATOM     31  C   UNL A   1      38.379  32.419  31.404  1.00  0.00     0.031 A 
ATOM     32  C   UNL A   1      39.331  31.413  30.813  1.00  0.00     0.074 A 
ATOM     33  C   UNL A   1      38.645  32.974  32.603  1.00  0.00     0.049 A 
ATOM     34  N   UNL A   1      40.454  30.955  31.306  1.00  0.00    -0.248 NA
ATOM     35  C   UNL A   1      38.965  30.829  29.513  1.00  0.00     0.031 C 
ATOM     36  C   UNL A   1      37.786  33.934  33.303  1.00  0.00     0.029 A 
ATOM     37  N   UNL A   1      39.711  32.807  33.452  1.00  0.00    -0.354 N 
ATOM     38  C   UNL A   1      40.919  30.021  30.387  1.00  0.00     0.074 A 
ATOM     39  C   UNL A   1      39.932  29.942  29.332  1.00  0.00     0.031 C 
ATOM     40  C   UNL A   1      38.371  34.288  34.458  1.00  0.00     0.029 A 
ATOM     41  C   UNL A   1      39.621  33.549  34.607  1.00  0.00     0.049 A 
ATOM     42  H   UNL A   1      40.470  32.213  33.253  1.00  0.00     0.167 HD
ATOM     43  C   UNL A   1      42.068  29.304  30.411  1.00  0.00     0.031 A 
ATOM     44  C   UNL A   1      40.442  33.621  35.674  1.00  0.00     0.031 A 
ATOM     45  C   UNL A   1      43.051  29.388  31.461  1.00  0.00     0.049 A 
ATOM     46  C   UNL A   1      41.705  32.803  35.685  1.00  0.00     0.074 A 
ATOM     47  C   UNL A   1      44.274  28.745  31.546  1.00  0.00     0.029 A 
ATOM     48  N   UNL A   1      42.923  30.155  32.608  1.00  0.00    -0.354 N 
ATOM     49  N   UNL A   1      42.158  31.977  34.772  1.00  0.00    -0.248 NA
ATOM     50  C   UNL A   1      42.571  32.936  36.863  1.00  0.00     0.031 C 
ATOM     51  C   UNL A   1      44.857  29.076  32.773  1.00  0.00     0.029 A 
ATOM     52  C   UNL A   1      44.031  29.980  33.420  1.00  0.00     0.049 A 
ATOM     53  H   UNL A   1      42.157  30.739  32.815  1.00  0.00     0.167 HD
ATOM     54  C   UNL A   1      43.377  31.514  35.254  1.00  0.00     0.074 A 
ATOM     55  C   UNL A   1      43.597  32.165  36.530  1.00  0.00     0.031 C 
ATOM     56  C   UNL A   1      44.238  30.631  34.690  1.00  0.00     0.031 A 
BRANCH  43  57
ATOM     57  C   UNL A   1      42.325  28.354  29.268  1.00  0.00    -0.014 A 
ATOM     58  C   UNL A   1      43.061  28.756  28.138  1.00  0.00     0.010 A 
ATOM     59  C   UNL A   1      41.869  27.026  29.348  1.00  0.00     0.010 A 
ATOM     60  C   UNL A   1      43.299  27.860  27.092  1.00  0.00     0.020 A 
ATOM     61  C   UNL A   1      42.132  26.118  28.318  1.00  0.00     0.020 A 
ATOM     62  C   UNL A   1      42.831  26.546  27.188  1.00  0.00     0.054 A 
BRANCH  62  63
ATOM     63  S   UNL A   1      43.178  25.400  25.827  1.00  0.00     0.124 S 
ATOM     64  O   UNL A   1      42.287  25.896  24.781  1.00  0.00    -0.237 OA
ATOM     65  O   UNL A   1      44.604  25.608  25.587  1.00  0.00    -0.237 OA
ATOM     66  O   UNL A   1      42.826  24.092  26.375  1.00  0.00    -0.744 OA
ENDBRANCH  62  63
ENDBRANCH  43  57
BRANCH  44  67
ATOM     67  C   UNL A   1      40.096  34.508  36.819  1.00  0.00    -0.014 A 
ATOM     68  C   UNL A   1      40.473  35.861  36.816  1.00  0.00     0.010 A 
ATOM     69  C   UNL A   1      39.371  34.003  37.916  1.00  0.00     0.010 A 
ATOM     70  C   UNL A   1      40.150  36.691  37.895  1.00  0.00     0.020 A 
ATOM     71  C   UNL A   1      39.020  34.836  38.982  1.00  0.00     0.020 A 
ATOM     72  C   UNL A   1      39.421  36.173  38.969  1.00  0.00     0.054 A 
BRANCH  72  73
ATOM     73  S   UNL A   1      38.967  37.281  40.333  1.00  0.00     0.124 S 
ATOM     74  O   UNL A   1      38.258  38.348  39.633  1.00  0.00    -0.237 OA
ATOM     75  O   UNL A   1      38.143  36.419  41.177  1.00  0.00    -0.237 OA
ATOM     76  O   UNL A   1      40.255  37.658  40.910  1.00  0.00    -0.744 OA
ENDBRANCH  72  73
ENDBRANCH  44  67
BRANCH  56  77
ATOM     77  C   UNL A   1      45.520  30.341  35.426  1.00  0.00    -0.014 A 
ATOM     78  C   UNL A   1      45.632  29.246  36.301  1.00  0.00     0.010 A 
ATOM     79  C   UNL A   1      46.650  31.148  35.193  1.00  0.00     0.010 A 
ATOM     80  C   UNL A   1      46.839  28.983  36.954  1.00  0.00     0.020 A 
ATOM     81  C   UNL A   1      47.867  30.869  35.820  1.00  0.00     0.020 A 
ATOM     82  C   UNL A   1      47.950  29.796  36.708  1.00  0.00     0.054 A 
BRANCH  82  83
ATOM     83  S   UNL A   1      49.518  29.406  37.534  1.00  0.00     0.124 S 
ATOM     84  O   UNL A   1      50.496  29.983  36.615  1.00  0.00    -0.237 OA
ATOM     85  O   UNL A   1      49.381  30.089  38.817  1.00  0.00    -0.237 OA
ATOM     86  O   UNL A   1      49.518  27.947  37.607  1.00  0.00    -0.744 OA
ENDBRANCH  82  83
ENDBRANCH  56  77
ENDBRANCH  30  31
ENDBRANCH  22  25
ENDBRANCH  20  21
ENDBRANCH   1  20
TORSDOF 16
ENDMDL
