MODEL 1
REMARK VINA RESULT:     -10.3      0.000      0.000
REMARK SMILES CC[NH+](CC)[C@@H](C(=O)NCCCNC(=O)c1ccc(-c2c3nc(c(-c4ccc(S(=O)(=O)[O-])cc4)c4ccc([nH]4)c(-c4ccc(S(=O)(=O)[O-])cc4)c4nc(c(-c5ccc(S(=O)(=O)[O-])cc5)c5ccc2[nH]5)C=C4)C=C3)cc1)c1ccc(C2CC2)cc1
REMARK SMILES IDX 11 1 10 2 9 3 7 4 8 5 6 7 3 8 2 10 1 11 4 12 5 13 76 14
REMARK SMILES IDX 77 15 84 16 78 17 83 18 79 19 80 20 81 21 82 22 12 23 13 24
REMARK SMILES IDX 14 25 15 27 16 28 17 29 75 30 18 31 74 32 19 33 20 34 21 35
REMARK SMILES IDX 68 36 22 37 73 38 67 39 69 40 23 41 72 42 66 43 65 44 24 46
REMARK SMILES IDX 54 47 35 48 53 49 36 50 39 51 52 52 70 53 37 54 38 55 51 57
REMARK SMILES IDX 71 58 40 59 25 60 26 61 34 62 27 63 33 64 28 65 29 66 30 67
REMARK SMILES IDX 31 68 32 69 55 70 56 71 64 72 57 73 63 74 58 75 59 76 60 77
REMARK SMILES IDX 61 78 62 79 41 80 42 81 50 82 43 83 49 84 44 85 45 86 46 87
REMARK SMILES IDX 47 88 48 89
REMARK H PARENT 9 6 3 9 13 26 69 45 39 56
REMARK Flexibility Score: inf
ROOT
ATOM      1  C   UNL A   1      32.921  27.972  26.989  1.00  0.00     0.042 C 
ENDROOT
BRANCH   1   2
ATOM      2  C   UNL A   1      31.443  27.867  26.573  1.00  0.00     0.118 C 
BRANCH   2   3
ATOM      3  N   UNL A   1      30.831  26.566  26.811  1.00  0.00    -0.351 N 
ATOM      4  C   UNL A   1      30.509  25.499  26.013  1.00  0.00     0.283 C 
ATOM      5  O   UNL A   1      29.916  24.581  26.594  1.00  0.00    -0.268 OA
ATOM      6  H   UNL A   1      30.598  26.422  27.756  1.00  0.00     0.163 HD
BRANCH   4   7
ATOM      7  C   UNL A   1      30.852  25.458  24.491  1.00  0.00     0.305 C 
BRANCH   7   8
ATOM      8  N   UNL A   1      32.296  25.142  24.207  1.00  0.00    -0.321 N 
ATOM      9  H   UNL A   1      32.601  26.075  23.931  1.00  0.00     0.349 HD
BRANCH   8  10
ATOM     10  C   UNL A   1      33.171  24.828  25.340  1.00  0.00     0.259 C 
ATOM     11  C   UNL A   1      34.621  25.253  25.107  1.00  0.00     0.071 C 
ENDBRANCH   8  10
BRANCH   8  12
ATOM     12  C   UNL A   1      32.533  24.260  23.064  1.00  0.00     0.259 C 
ATOM     13  C   UNL A   1      32.888  24.932  21.733  1.00  0.00     0.071 C 
ENDBRANCH   8  12
ENDBRANCH   7   8
BRANCH   7  14
ATOM     14  C   UNL A   1      30.367  26.706  23.717  1.00  0.00     0.019 A 
ATOM     15  C   UNL A   1      29.004  26.994  23.541  1.00  0.00     0.011 A 
ATOM     16  C   UNL A   1      31.285  27.691  23.321  1.00  0.00     0.011 A 
ATOM     17  C   UNL A   1      28.575  28.262  23.131  1.00  0.00     0.004 A 
ATOM     18  C   UNL A   1      30.847  28.957  22.894  1.00  0.00     0.004 A 
ATOM     19  C   UNL A   1      29.485  29.289  22.852  1.00  0.00    -0.045 A 
BRANCH  19  20
ATOM     20  C   UNL A   1      28.992  30.706  22.671  1.00  0.00     0.019 C 
ATOM     21  C   UNL A   1      27.663  31.175  23.202  1.00  0.00     0.009 C 
ATOM     22  C   UNL A   1      28.931  31.644  23.852  1.00  0.00     0.009 C 
ENDBRANCH  19  20
ENDBRANCH   7  14
ENDBRANCH   4   7
ENDBRANCH   2   3
ENDBRANCH   1   2
BRANCH   1  23
ATOM     23  C   UNL A   1      33.815  28.905  26.166  1.00  0.00     0.118 C 
BRANCH  23  24
ATOM     24  N   UNL A   1      33.604  30.301  26.494  1.00  0.00    -0.352 N 
ATOM     25  C   UNL A   1      34.272  31.091  27.402  1.00  0.00     0.251 C 
ATOM     26  H   UNL A   1      32.880  30.748  25.997  1.00  0.00     0.163 HD
ATOM     27  O   UNL A   1      33.802  32.186  27.699  1.00  0.00    -0.269 OA
BRANCH  25  28
ATOM     28  C   UNL A   1      35.541  30.642  28.036  1.00  0.00     0.039 A 
ATOM     29  C   UNL A   1      35.472  29.721  29.088  1.00  0.00     0.014 A 
ATOM     30  C   UNL A   1      36.780  31.181  27.677  1.00  0.00     0.014 A 
ATOM     31  C   UNL A   1      36.635  29.327  29.761  1.00  0.00     0.010 A 
ATOM     32  C   UNL A   1      37.948  30.759  28.326  1.00  0.00     0.010 A 
ATOM     33  C   UNL A   1      37.887  29.839  29.385  1.00  0.00    -0.014 A 
BRANCH  33  34
ATOM     34  C   UNL A   1      39.124  29.432  30.111  1.00  0.00     0.031 A 
ATOM     35  C   UNL A   1      39.537  30.136  31.379  1.00  0.00     0.074 A 
ATOM     36  C   UNL A   1      39.893  28.436  29.630  1.00  0.00     0.049 A 
ATOM     37  N   UNL A   1      40.575  29.913  32.147  1.00  0.00    -0.248 NA
ATOM     38  C   UNL A   1      38.678  31.238  31.837  1.00  0.00     0.031 C 
ATOM     39  C   UNL A   1      39.626  27.679  28.406  1.00  0.00     0.029 A 
ATOM     40  N   UNL A   1      41.059  27.890  30.112  1.00  0.00    -0.354 N 
ATOM     41  C   UNL A   1      40.501  30.851  33.170  1.00  0.00     0.074 A 
ATOM     42  C   UNL A   1      39.336  31.669  32.904  1.00  0.00     0.031 C 
ATOM     43  C   UNL A   1      40.588  26.754  28.246  1.00  0.00     0.029 A 
ATOM     44  C   UNL A   1      41.554  26.869  29.336  1.00  0.00     0.049 A 
ATOM     45  H   UNL A   1      41.498  28.202  30.936  1.00  0.00     0.167 HD
ATOM     46  C   UNL A   1      41.316  31.013  34.243  1.00  0.00     0.031 A 
ATOM     47  C   UNL A   1      42.658  26.110  29.479  1.00  0.00     0.031 A 
ATOM     48  C   UNL A   1      42.475  30.204  34.517  1.00  0.00     0.049 A 
ATOM     49  C   UNL A   1      43.559  26.317  30.665  1.00  0.00     0.074 A 
ATOM     50  C   UNL A   1      43.334  30.269  35.603  1.00  0.00     0.029 A 
ATOM     51  N   UNL A   1      42.946  29.189  33.699  1.00  0.00    -0.354 N 
ATOM     52  N   UNL A   1      43.439  27.175  31.650  1.00  0.00    -0.248 NA
ATOM     53  C   UNL A   1      44.738  25.444  30.765  1.00  0.00     0.031 C 
ATOM     54  C   UNL A   1      44.347  29.321  35.419  1.00  0.00     0.029 A 
ATOM     55  C   UNL A   1      44.093  28.633  34.243  1.00  0.00     0.049 A 
ATOM     56  H   UNL A   1      42.527  28.904  32.855  1.00  0.00     0.167 HD
ATOM     57  C   UNL A   1      44.514  26.929  32.498  1.00  0.00     0.074 A 
ATOM     58  C   UNL A   1      45.266  25.836  31.917  1.00  0.00     0.031 C 
ATOM     59  C   UNL A   1      44.842  27.551  33.657  1.00  0.00     0.031 A 
BRANCH  46  60
ATOM     60  C   UNL A   1      40.984  32.128  35.201  1.00  0.00    -0.014 A 
ATOM     61  C   UNL A   1      41.551  33.406  35.051  1.00  0.00     0.010 A 
ATOM     62  C   UNL A   1      40.076  31.901  36.251  1.00  0.00     0.010 A 
ATOM     63  C   UNL A   1      41.256  34.423  35.964  1.00  0.00     0.020 A 
ATOM     64  C   UNL A   1      39.758  32.923  37.151  1.00  0.00     0.020 A 
ATOM     65  C   UNL A   1      40.369  34.171  37.014  1.00  0.00     0.054 A 
BRANCH  65  66
ATOM     66  S   UNL A   1      40.007  35.505  38.189  1.00  0.00     0.124 S 
ATOM     67  O   UNL A   1      41.279  35.636  38.895  1.00  0.00    -0.237 OA
ATOM     68  O   UNL A   1      39.657  36.621  37.315  1.00  0.00    -0.237 OA
ATOM     69  O   UNL A   1      38.904  34.973  38.987  1.00  0.00    -0.744 OA
ENDBRANCH  65  66
ENDBRANCH  46  60
BRANCH  47  70
ATOM     70  C   UNL A   1      42.960  25.057  28.472  1.00  0.00    -0.014 A 
ATOM     71  C   UNL A   1      42.509  23.741  28.662  1.00  0.00     0.010 A 
ATOM     72  C   UNL A   1      43.678  25.375  27.304  1.00  0.00     0.010 A 
ATOM     73  C   UNL A   1      42.770  22.757  27.704  1.00  0.00     0.020 A 
ATOM     74  C   UNL A   1      43.922  24.400  26.333  1.00  0.00     0.020 A 
ATOM     75  C   UNL A   1      43.472  23.094  26.543  1.00  0.00     0.054 A 
BRANCH  75  76
ATOM     76  S   UNL A   1      43.733  21.822  25.276  1.00  0.00     0.124 S 
ATOM     77  O   UNL A   1      43.550  22.579  24.042  1.00  0.00    -0.237 OA
ATOM     78  O   UNL A   1      45.096  21.377  25.549  1.00  0.00    -0.237 OA
ATOM     79  O   UNL A   1      42.695  20.835  25.567  1.00  0.00    -0.744 OA
ENDBRANCH  75  76
ENDBRANCH  47  70
BRANCH  59  80
ATOM     80  C   UNL A   1      46.057  27.052  34.393  1.00  0.00    -0.014 A 
ATOM     81  C   UNL A   1      47.325  27.621  34.178  1.00  0.00     0.010 A 
ATOM     82  C   UNL A   1      45.920  26.030  35.351  1.00  0.00     0.010 A 
ATOM     83  C   UNL A   1      48.438  27.157  34.885  1.00  0.00     0.020 A 
ATOM     84  C   UNL A   1      47.026  25.580  36.076  1.00  0.00     0.020 A 
ATOM     85  C   UNL A   1      48.282  26.137  35.828  1.00  0.00     0.054 A 
BRANCH  85  86
ATOM     86  S   UNL A   1      49.733  25.580  36.764  1.00  0.00     0.124 S 
ATOM     87  O   UNL A   1      49.159  24.559  37.635  1.00  0.00    -0.237 OA
ATOM     88  O   UNL A   1      50.622  25.085  35.717  1.00  0.00    -0.237 OA
ATOM     89  O   UNL A   1      50.193  26.791  37.441  1.00  0.00    -0.744 OA
ENDBRANCH  85  86
ENDBRANCH  59  80
ENDBRANCH  33  34
ENDBRANCH  25  28
ENDBRANCH  23  24
ENDBRANCH   1  23
TORSDOF 18
ENDMDL
MODEL 2
REMARK VINA RESULT:     -10.1      3.217      5.044
REMARK SMILES CC[NH+](CC)[C@@H](C(=O)NCCCNC(=O)c1ccc(-c2c3nc(c(-c4ccc(S(=O)(=O)[O-])cc4)c4ccc([nH]4)c(-c4ccc(S(=O)(=O)[O-])cc4)c4nc(c(-c5ccc(S(=O)(=O)[O-])cc5)c5ccc2[nH]5)C=C4)C=C3)cc1)c1ccc(C2CC2)cc1
REMARK SMILES IDX 11 1 10 2 9 3 7 4 8 5 6 7 3 8 2 10 1 11 4 12 5 13 76 14
REMARK SMILES IDX 77 15 84 16 78 17 83 18 79 19 80 20 81 21 82 22 12 23 13 24
REMARK SMILES IDX 14 25 15 27 16 28 17 29 75 30 18 31 74 32 19 33 20 34 21 35
REMARK SMILES IDX 68 36 22 37 73 38 67 39 69 40 23 41 72 42 66 43 65 44 24 46
REMARK SMILES IDX 54 47 35 48 53 49 36 50 39 51 52 52 70 53 37 54 38 55 51 57
REMARK SMILES IDX 71 58 40 59 25 60 26 61 34 62 27 63 33 64 28 65 29 66 30 67
REMARK SMILES IDX 31 68 32 69 55 70 56 71 64 72 57 73 63 74 58 75 59 76 60 77
REMARK SMILES IDX 61 78 62 79 41 80 42 81 50 82 43 83 49 84 44 85 45 86 46 87
REMARK SMILES IDX 47 88 48 89
REMARK H PARENT 9 6 3 9 13 26 69 45 39 56
REMARK Flexibility Score: inf
ROOT
ATOM      1  C   UNL A   1      32.614  27.375  26.388  1.00  0.00     0.042 C 
ENDROOT
BRANCH   1   2
ATOM      2  C   UNL A   1      32.825  26.148  25.484  1.00  0.00     0.118 C 
BRANCH   2   3
ATOM      3  N   UNL A   1      31.750  25.165  25.526  1.00  0.00    -0.351 N 
ATOM      4  C   UNL A   1      31.626  23.863  25.113  1.00  0.00     0.283 C 
ATOM      5  O   UNL A   1      30.497  23.380  25.263  1.00  0.00    -0.268 OA
ATOM      6  H   UNL A   1      30.931  25.513  25.945  1.00  0.00     0.163 HD
BRANCH   4   7
ATOM      7  C   UNL A   1      32.815  23.065  24.490  1.00  0.00     0.305 C 
BRANCH   7   8
ATOM      8  N   UNL A   1      33.209  23.543  23.119  1.00  0.00    -0.321 N 
ATOM      9  H   UNL A   1      33.179  22.646  22.633  1.00  0.00     0.349 HD
BRANCH   8  10
ATOM     10  C   UNL A   1      32.250  24.360  22.368  1.00  0.00     0.259 C 
ATOM     11  C   UNL A   1      32.864  25.651  21.827  1.00  0.00     0.071 C 
ENDBRANCH   8  10
BRANCH   8  12
ATOM     12  C   UNL A   1      34.577  24.047  22.998  1.00  0.00     0.259 C 
ATOM     13  C   UNL A   1      35.705  23.090  23.400  1.00  0.00     0.071 C 
ENDBRANCH   8  12
ENDBRANCH   7   8
BRANCH   7  14
ATOM     14  C   UNL A   1      32.617  21.532  24.537  1.00  0.00     0.019 A 
ATOM     15  C   UNL A   1      32.351  20.777  23.384  1.00  0.00     0.011 A 
ATOM     16  C   UNL A   1      32.882  20.822  25.719  1.00  0.00     0.011 A 
ATOM     17  C   UNL A   1      32.490  19.383  23.378  1.00  0.00     0.004 A 
ATOM     18  C   UNL A   1      33.003  19.422  25.709  1.00  0.00     0.004 A 
ATOM     19  C   UNL A   1      32.874  18.680  24.526  1.00  0.00    -0.045 A 
BRANCH  19  20
ATOM     20  C   UNL A   1      33.270  17.226  24.424  1.00  0.00     0.019 C 
ATOM     21  C   UNL A   1      33.966  16.659  23.214  1.00  0.00     0.009 C 
ATOM     22  C   UNL A   1      34.724  16.829  24.498  1.00  0.00     0.009 C 
ENDBRANCH  19  20
ENDBRANCH   7  14
ENDBRANCH   4   7
ENDBRANCH   2   3
ENDBRANCH   1   2
BRANCH   1  23
ATOM     23  C   UNL A   1      33.867  28.097  26.892  1.00  0.00     0.118 C 
BRANCH  23  24
ATOM     24  N   UNL A   1      33.628  29.505  27.143  1.00  0.00    -0.352 N 
ATOM     25  C   UNL A   1      34.407  30.409  27.831  1.00  0.00     0.251 C 
ATOM     26  H   UNL A   1      32.791  29.866  26.770  1.00  0.00     0.163 HD
ATOM     27  O   UNL A   1      33.929  31.501  28.128  1.00  0.00    -0.269 OA
BRANCH  25  28
ATOM     28  C   UNL A   1      35.805  30.087  28.227  1.00  0.00     0.039 A 
ATOM     29  C   UNL A   1      36.819  30.236  27.274  1.00  0.00     0.014 A 
ATOM     30  C   UNL A   1      36.115  29.555  29.482  1.00  0.00     0.014 A 
ATOM     31  C   UNL A   1      38.137  29.876  27.581  1.00  0.00     0.010 A 
ATOM     32  C   UNL A   1      37.440  29.229  29.801  1.00  0.00     0.010 A 
ATOM     33  C   UNL A   1      38.463  29.372  28.850  1.00  0.00    -0.014 A 
BRANCH  33  34
ATOM     34  C   UNL A   1      39.863  28.973  29.173  1.00  0.00     0.031 A 
ATOM     35  C   UNL A   1      40.793  29.932  29.872  1.00  0.00     0.074 A 
ATOM     36  C   UNL A   1      40.314  27.752  28.827  1.00  0.00     0.049 A 
ATOM     37  N   UNL A   1      42.039  29.756  30.237  1.00  0.00    -0.248 NA
ATOM     38  C   UNL A   1      40.257  31.263  30.192  1.00  0.00     0.031 C 
ATOM     39  C   UNL A   1      39.532  26.728  28.132  1.00  0.00     0.029 A 
ATOM     40  N   UNL A   1      41.542  27.163  29.013  1.00  0.00    -0.354 N 
ATOM     41  C   UNL A   1      42.439  30.953  30.820  1.00  0.00     0.074 A 
ATOM     42  C   UNL A   1      41.313  31.860  30.725  1.00  0.00     0.031 C 
ATOM     43  C   UNL A   1      40.292  25.632  27.969  1.00  0.00     0.029 A 
ATOM     44  C   UNL A   1      41.622  25.882  28.521  1.00  0.00     0.049 A 
ATOM     45  H   UNL A   1      42.294  27.617  29.457  1.00  0.00     0.167 HD
ATOM     46  C   UNL A   1      43.626  31.270  31.395  1.00  0.00     0.031 A 
ATOM     47  C   UNL A   1      42.645  25.005  28.511  1.00  0.00     0.031 A 
ATOM     48  C   UNL A   1      44.749  30.375  31.496  1.00  0.00     0.049 A 
ATOM     49  C   UNL A   1      43.959  25.381  29.137  1.00  0.00     0.074 A 
ATOM     50  C   UNL A   1      45.976  30.596  32.101  1.00  0.00     0.029 A 
ATOM     51  N   UNL A   1      44.790  29.091  30.975  1.00  0.00    -0.354 N 
ATOM     52  N   UNL A   1      44.296  26.501  29.731  1.00  0.00    -0.248 NA
ATOM     53  C   UNL A   1      45.026  24.370  29.103  1.00  0.00     0.031 C 
ATOM     54  C   UNL A   1      46.773  29.463  31.907  1.00  0.00     0.029 A 
ATOM     55  C   UNL A   1      46.026  28.516  31.224  1.00  0.00     0.049 A 
ATOM     56  H   UNL A   1      44.050  28.652  30.497  1.00  0.00     0.167 HD
ATOM     57  C   UNL A   1      45.607  26.321  30.161  1.00  0.00     0.074 A 
ATOM     58  C   UNL A   1      45.996  24.981  29.769  1.00  0.00     0.031 C 
ATOM     59  C   UNL A   1      46.411  27.186  30.826  1.00  0.00     0.031 A 
BRANCH  46  60
ATOM     60  C   UNL A   1      43.773  32.662  31.953  1.00  0.00    -0.014 A 
ATOM     61  C   UNL A   1      43.449  32.945  33.292  1.00  0.00     0.010 A 
ATOM     62  C   UNL A   1      44.264  33.695  31.134  1.00  0.00     0.010 A 
ATOM     63  C   UNL A   1      43.563  34.247  33.787  1.00  0.00     0.020 A 
ATOM     64  C   UNL A   1      44.404  34.994  31.633  1.00  0.00     0.020 A 
ATOM     65  C   UNL A   1      44.030  35.266  32.952  1.00  0.00     0.054 A 
BRANCH  65  66
ATOM     66  S   UNL A   1      44.164  36.948  33.617  1.00  0.00     0.124 S 
ATOM     67  O   UNL A   1      43.814  37.758  32.453  1.00  0.00    -0.237 OA
ATOM     68  O   UNL A   1      43.185  36.948  34.699  1.00  0.00    -0.237 OA
ATOM     69  O   UNL A   1      45.559  37.041  34.044  1.00  0.00    -0.744 OA
ENDBRANCH  65  66
ENDBRANCH  46  60
BRANCH  47  70
ATOM     70  C   UNL A   1      42.454  23.662  27.900  1.00  0.00    -0.014 A 
ATOM     71  C   UNL A   1      42.712  23.458  26.534  1.00  0.00     0.010 A 
ATOM     72  C   UNL A   1      42.038  22.573  28.689  1.00  0.00     0.010 A 
ATOM     73  C   UNL A   1      42.557  22.191  25.965  1.00  0.00     0.020 A 
ATOM     74  C   UNL A   1      41.903  21.300  28.128  1.00  0.00     0.020 A 
ATOM     75  C   UNL A   1      42.157  21.119  26.767  1.00  0.00     0.054 A 
BRANCH  75  76
ATOM     76  S   UNL A   1      42.037  19.467  26.026  1.00  0.00     0.124 S 
ATOM     77  O   UNL A   1      42.537  18.615  27.100  1.00  0.00    -0.237 OA
ATOM     78  O   UNL A   1      40.611  19.351  25.737  1.00  0.00    -0.237 OA
ATOM     79  O   UNL A   1      42.897  19.560  24.848  1.00  0.00    -0.744 OA
ENDBRANCH  75  76
ENDBRANCH  47  70
BRANCH  59  80
ATOM     80  C   UNL A   1      47.790  26.708  31.197  1.00  0.00    -0.014 A 
ATOM     81  C   UNL A   1      48.023  26.020  32.401  1.00  0.00     0.010 A 
ATOM     82  C   UNL A   1      48.860  26.910  30.306  1.00  0.00     0.010 A 
ATOM     83  C   UNL A   1      49.307  25.568  32.720  1.00  0.00     0.020 A 
ATOM     84  C   UNL A   1      50.140  26.438  30.611  1.00  0.00     0.020 A 
ATOM     85  C   UNL A   1      50.358  25.782  31.824  1.00  0.00     0.054 A 
BRANCH  85  86
ATOM     86  S   UNL A   1      52.007  25.149  32.240  1.00  0.00     0.124 S 
ATOM     87  O   UNL A   1      51.781  23.708  32.266  1.00  0.00    -0.237 OA
ATOM     88  O   UNL A   1      52.828  25.637  31.134  1.00  0.00    -0.237 OA
ATOM     89  O   UNL A   1      52.294  25.760  33.536  1.00  0.00    -0.744 OA
ENDBRANCH  85  86
ENDBRANCH  59  80
ENDBRANCH  33  34
ENDBRANCH  25  28
ENDBRANCH  23  24
ENDBRANCH   1  23
TORSDOF 18
ENDMDL
MODEL 3
REMARK VINA RESULT:     -10.1      5.219      7.125
REMARK SMILES CC[NH+](CC)[C@@H](C(=O)NCCCNC(=O)c1ccc(-c2c3nc(c(-c4ccc(S(=O)(=O)[O-])cc4)c4ccc([nH]4)c(-c4ccc(S(=O)(=O)[O-])cc4)c4nc(c(-c5ccc(S(=O)(=O)[O-])cc5)c5ccc2[nH]5)C=C4)C=C3)cc1)c1ccc(C2CC2)cc1
REMARK SMILES IDX 11 1 10 2 9 3 7 4 8 5 6 7 3 8 2 10 1 11 4 12 5 13 76 14
REMARK SMILES IDX 77 15 84 16 78 17 83 18 79 19 80 20 81 21 82 22 12 23 13 24
REMARK SMILES IDX 14 25 15 27 16 28 17 29 75 30 18 31 74 32 19 33 20 34 21 35
REMARK SMILES IDX 68 36 22 37 73 38 67 39 69 40 23 41 72 42 66 43 65 44 24 46
REMARK SMILES IDX 54 47 35 48 53 49 36 50 39 51 52 52 70 53 37 54 38 55 51 57
REMARK SMILES IDX 71 58 40 59 25 60 26 61 34 62 27 63 33 64 28 65 29 66 30 67
REMARK SMILES IDX 31 68 32 69 55 70 56 71 64 72 57 73 63 74 58 75 59 76 60 77
REMARK SMILES IDX 61 78 62 79 41 80 42 81 50 82 43 83 49 84 44 85 45 86 46 87
REMARK SMILES IDX 47 88 48 89
REMARK H PARENT 9 6 3 9 13 26 69 45 39 56
REMARK Flexibility Score: inf
ROOT
ATOM      1  C   UNL A   1      33.732  29.894  27.265  1.00  0.00     0.042 C 
ENDROOT
BRANCH   1   2
ATOM      2  C   UNL A   1      33.539  28.662  26.364  1.00  0.00     0.118 C 
BRANCH   2   3
ATOM      3  N   UNL A   1      33.981  28.835  24.986  1.00  0.00    -0.351 N 
ATOM      4  C   UNL A   1      33.809  28.121  23.828  1.00  0.00     0.283 C 
ATOM      5  O   UNL A   1      34.422  28.569  22.851  1.00  0.00    -0.268 OA
ATOM      6  H   UNL A   1      34.522  29.647  24.858  1.00  0.00     0.163 HD
BRANCH   4   7
ATOM      7  C   UNL A   1      32.923  26.838  23.758  1.00  0.00     0.305 C 
BRANCH   7   8
ATOM      8  N   UNL A   1      31.682  26.916  24.606  1.00  0.00    -0.321 N 
ATOM      9  H   UNL A   1      32.092  27.349  25.434  1.00  0.00     0.349 HD
BRANCH   8  10
ATOM     10  C   UNL A   1      30.638  27.869  24.217  1.00  0.00     0.259 C 
ATOM     11  C   UNL A   1      30.283  27.789  22.732  1.00  0.00     0.071 C 
ENDBRANCH   8  10
BRANCH   8  12
ATOM     12  C   UNL A   1      31.127  25.630  25.028  1.00  0.00     0.259 C 
ATOM     13  C   UNL A   1      29.808  25.668  25.808  1.00  0.00     0.071 C 
ENDBRANCH   8  12
ENDBRANCH   7   8
BRANCH   7  14
ATOM     14  C   UNL A   1      33.712  25.531  24.003  1.00  0.00     0.019 A 
ATOM     15  C   UNL A   1      33.840  24.539  23.018  1.00  0.00     0.011 A 
ATOM     16  C   UNL A   1      34.483  25.380  25.167  1.00  0.00     0.011 A 
ATOM     17  C   UNL A   1      34.802  23.527  23.125  1.00  0.00     0.004 A 
ATOM     18  C   UNL A   1      35.435  24.351  25.275  1.00  0.00     0.004 A 
ATOM     19  C   UNL A   1      35.658  23.443  24.230  1.00  0.00    -0.045 A 
BRANCH  19  20
ATOM     20  C   UNL A   1      36.848  22.512  24.194  1.00  0.00     0.019 C 
ATOM     21  C   UNL A   1      37.675  22.207  25.416  1.00  0.00     0.009 C 
ATOM     22  C   UNL A   1      36.769  21.155  24.849  1.00  0.00     0.009 C 
ENDBRANCH  19  20
ENDBRANCH   7  14
ENDBRANCH   4   7
ENDBRANCH   2   3
ENDBRANCH   1   2
BRANCH   1  23
ATOM     23  C   UNL A   1      35.161  30.217  27.711  1.00  0.00     0.118 C 
BRANCH  23  24
ATOM     24  N   UNL A   1      35.231  30.580  29.113  1.00  0.00    -0.352 N 
ATOM     25  C   UNL A   1      36.245  30.359  30.018  1.00  0.00     0.251 C 
ATOM     26  H   UNL A   1      34.444  31.052  29.468  1.00  0.00     0.163 HD
ATOM     27  O   UNL A   1      36.026  30.541  31.213  1.00  0.00    -0.269 OA
BRANCH  25  28
ATOM     28  C   UNL A   1      37.589  29.895  29.581  1.00  0.00     0.039 A 
ATOM     29  C   UNL A   1      38.447  29.339  30.537  1.00  0.00     0.014 A 
ATOM     30  C   UNL A   1      38.050  30.084  28.274  1.00  0.00     0.014 A 
ATOM     31  C   UNL A   1      39.747  28.958  30.185  1.00  0.00     0.010 A 
ATOM     32  C   UNL A   1      39.338  29.668  27.913  1.00  0.00     0.010 A 
ATOM     33  C   UNL A   1      40.206  29.114  28.868  1.00  0.00    -0.014 A 
BRANCH  33  34
ATOM     34  C   UNL A   1      41.595  28.722  28.495  1.00  0.00     0.031 A 
ATOM     35  C   UNL A   1      42.708  29.740  28.496  1.00  0.00     0.074 A 
ATOM     36  C   UNL A   1      41.866  27.451  28.139  1.00  0.00     0.049 A 
ATOM     37  N   UNL A   1      43.975  29.579  28.208  1.00  0.00    -0.248 NA
ATOM     38  C   UNL A   1      42.346  31.119  28.858  1.00  0.00     0.031 C 
ATOM     39  C   UNL A   1      40.887  26.364  28.076  1.00  0.00     0.029 A 
ATOM     40  N   UNL A   1      43.047  26.857  27.762  1.00  0.00    -0.354 N 
ATOM     41  C   UNL A   1      44.560  30.833  28.343  1.00  0.00     0.074 A 
ATOM     42  C   UNL A   1      43.499  31.752  28.703  1.00  0.00     0.031 C 
ATOM     43  C   UNL A   1      41.512  25.234  27.705  1.00  0.00     0.029 A 
ATOM     44  C   UNL A   1      42.927  25.519  27.475  1.00  0.00     0.049 A 
ATOM     45  H   UNL A   1      43.900  27.346  27.703  1.00  0.00     0.167 HD
ATOM     46  C   UNL A   1      45.860  31.191  28.196  1.00  0.00     0.031 A 
ATOM     47  C   UNL A   1      43.845  24.618  27.073  1.00  0.00     0.031 A 
ATOM     48  C   UNL A   1      46.921  30.285  27.840  1.00  0.00     0.049 A 
ATOM     49  C   UNL A   1      45.277  25.038  26.898  1.00  0.00     0.074 A 
ATOM     50  C   UNL A   1      48.275  30.552  27.712  1.00  0.00     0.029 A 
ATOM     51  N   UNL A   1      46.752  28.940  27.548  1.00  0.00    -0.354 N 
ATOM     52  N   UNL A   1      45.817  26.219  27.084  1.00  0.00    -0.248 NA
ATOM     53  C   UNL A   1      46.227  24.000  26.471  1.00  0.00     0.031 C 
ATOM     54  C   UNL A   1      48.917  29.378  27.300  1.00  0.00     0.029 A 
ATOM     55  C   UNL A   1      47.972  28.369  27.219  1.00  0.00     0.049 A 
ATOM     56  H   UNL A   1      45.893  28.462  27.571  1.00  0.00     0.167 HD
ATOM     57  C   UNL A   1      47.174  26.060  26.819  1.00  0.00     0.074 A 
ATOM     58  C   UNL A   1      47.373  24.668  26.471  1.00  0.00     0.031 C 
ATOM     59  C   UNL A   1      48.163  26.985  26.866  1.00  0.00     0.031 A 
BRANCH  46  60
ATOM     60  C   UNL A   1      46.206  32.642  28.409  1.00  0.00    -0.014 A 
ATOM     61  C   UNL A   1      46.161  33.563  27.347  1.00  0.00     0.010 A 
ATOM     62  C   UNL A   1      46.557  33.096  29.693  1.00  0.00     0.010 A 
ATOM     63  C   UNL A   1      46.511  34.899  27.553  1.00  0.00     0.020 A 
ATOM     64  C   UNL A   1      46.884  34.439  29.910  1.00  0.00     0.020 A 
ATOM     65  C   UNL A   1      46.881  35.327  28.832  1.00  0.00     0.054 A 
BRANCH  65  66
ATOM     66  S   UNL A   1      47.337  37.066  29.073  1.00  0.00     0.124 S 
ATOM     67  O   UNL A   1      46.151  37.758  28.575  1.00  0.00    -0.237 OA
ATOM     68  O   UNL A   1      47.551  37.148  30.514  1.00  0.00    -0.237 OA
ATOM     69  O   UNL A   1      48.539  37.225  28.257  1.00  0.00    -0.744 OA
ENDBRANCH  65  66
ENDBRANCH  46  60
BRANCH  47  70
ATOM     70  C   UNL A   1      43.433  23.209  26.829  1.00  0.00    -0.014 A 
ATOM     71  C   UNL A   1      43.563  22.641  25.550  1.00  0.00     0.010 A 
ATOM     72  C   UNL A   1      42.934  22.420  27.882  1.00  0.00     0.010 A 
ATOM     73  C   UNL A   1      43.199  21.310  25.326  1.00  0.00     0.020 A 
ATOM     74  C   UNL A   1      42.591  21.083  27.667  1.00  0.00     0.020 A 
ATOM     75  C   UNL A   1      42.719  20.538  26.388  1.00  0.00     0.054 A 
BRANCH  75  76
ATOM     76  S   UNL A   1      42.327  18.791  26.094  1.00  0.00     0.124 S 
ATOM     77  O   UNL A   1      43.274  18.440  25.041  1.00  0.00    -0.237 OA
ATOM     78  O   UNL A   1      42.577  18.185  27.399  1.00  0.00    -0.237 OA
ATOM     79  O   UNL A   1      40.923  18.822  25.690  1.00  0.00    -0.744 OA
ENDBRANCH  75  76
ENDBRANCH  47  70
BRANCH  59  80
ATOM     80  C   UNL A   1      49.563  26.522  26.557  1.00  0.00    -0.014 A 
ATOM     81  C   UNL A   1      50.359  25.904  27.537  1.00  0.00     0.010 A 
ATOM     82  C   UNL A   1      50.071  26.666  25.253  1.00  0.00     0.010 A 
ATOM     83  C   UNL A   1      51.649  25.463  27.226  1.00  0.00     0.020 A 
ATOM     84  C   UNL A   1      51.351  26.206  24.932  1.00  0.00     0.020 A 
ATOM     85  C   UNL A   1      52.138  25.620  25.926  1.00  0.00     0.054 A 
BRANCH  85  86
ATOM     86  S   UNL A   1      53.799  25.004  25.534  1.00  0.00     0.124 S 
ATOM     87  O   UNL A   1      54.538  25.328  26.750  1.00  0.00    -0.237 OA
ATOM     88  O   UNL A   1      53.569  23.581  25.299  1.00  0.00    -0.237 OA
ATOM     89  O   UNL A   1      54.181  25.770  24.349  1.00  0.00    -0.744 OA
ENDBRANCH  85  86
ENDBRANCH  59  80
ENDBRANCH  33  34
ENDBRANCH  25  28
ENDBRANCH  23  24
ENDBRANCH   1  23
TORSDOF 18
ENDMDL
