MODEL 1
REMARK VINA RESULT:      -9.9      0.000      0.000
REMARK SMILES Cc1ncccc1C(=O)NCCOCC(=O)NCCCNC(=O)c1ccc(-c2c3nc(c(-c4ccc(S(=O)(=O)[O-])cc4)c4ccc([nH]4)c(-c4ccc(S(=O)(=O)[O-])cc4)c4nc(c(-c5ccc(S(=O)(=O)[O-])cc5)c5ccc2[nH]5)C=C4)C=C3)cc1
REMARK SMILES IDX 18 1 17 2 15 3 16 4 14 6 13 7 12 8 11 9 10 10 8 11 9 12 7 14
REMARK SMILES IDX 1 15 2 16 3 17 4 18 6 19 5 20 19 21 20 22 21 23 22 24 23 26
REMARK SMILES IDX 24 27 25 28 83 29 26 30 82 31 27 32 28 33 29 34 76 35 30 36
REMARK SMILES IDX 81 37 75 38 77 39 31 40 80 41 74 42 73 43 32 45 62 46 43 47
REMARK SMILES IDX 61 48 44 49 47 50 60 51 78 52 45 53 46 54 59 56 79 57 48 58
REMARK SMILES IDX 33 59 34 60 42 61 35 62 41 63 36 64 37 65 38 66 39 67 40 68
REMARK SMILES IDX 63 69 64 70 72 71 65 72 71 73 66 74 67 75 68 76 69 77 70 78
REMARK SMILES IDX 49 79 50 80 58 81 51 82 57 83 52 84 53 85 54 86 55 87 56 88
REMARK H PARENT 17 5 10 13 21 25 77 44 47 55
REMARK Flexibility Score: inf
ROOT
ATOM      1  C   UNL A   1      33.419  26.684  25.130  1.00  0.00     0.117 C 
ENDROOT
BRANCH   1   2
ATOM      2  N   UNL A   1      32.060  26.515  25.614  1.00  0.00    -0.354 N 
ATOM      3  C   UNL A   1      31.507  25.425  26.221  1.00  0.00     0.245 C 
ATOM      4  O   UNL A   1      30.341  25.488  26.613  1.00  0.00    -0.272 OA
ATOM      5  H   UNL A   1      31.462  27.286  25.487  1.00  0.00     0.163 HD
BRANCH   3   6
ATOM      6  C   UNL A   1      32.344  24.147  26.375  1.00  0.00     0.260 C 
BRANCH   6   7
ATOM      7  O   UNL A   1      32.036  23.238  27.420  1.00  0.00    -0.370 OA
BRANCH   7   8
ATOM      8  C   UNL A   1      33.096  22.363  27.810  1.00  0.00     0.182 C 
BRANCH   8   9
ATOM      9  C   UNL A   1      34.492  22.832  27.399  1.00  0.00     0.144 C 
BRANCH   9  10
ATOM     10  N   UNL A   1      35.331  21.822  26.784  1.00  0.00    -0.350 N 
ATOM     11  C   UNL A   1      35.296  21.238  25.547  1.00  0.00     0.253 C 
ATOM     12  O   UNL A   1      36.185  20.435  25.256  1.00  0.00    -0.269 OA
ATOM     13  H   UNL A   1      36.058  21.497  27.361  1.00  0.00     0.163 HD
BRANCH  11  14
ATOM     14  C   UNL A   1      34.217  21.473  24.560  1.00  0.00     0.061 A 
ATOM     15  C   UNL A   1      35.150  23.634  23.553  1.00  0.00     0.067 C 
ATOM     16  C   UNL A   1      34.140  22.534  23.654  1.00  0.00     0.050 A 
ATOM     17  N   UNL A   1      33.128  22.637  22.744  1.00  0.00    -0.261 NA
ATOM     18  C   UNL A   1      32.222  21.638  22.678  1.00  0.00     0.111 A 
ATOM     19  C   UNL A   1      33.270  20.443  24.439  1.00  0.00     0.017 A 
ATOM     20  C   UNL A   1      32.260  20.520  23.485  1.00  0.00     0.021 A 
ENDBRANCH  11  14
ENDBRANCH   9  10
ENDBRANCH   8   9
ENDBRANCH   7   8
ENDBRANCH   6   7
ENDBRANCH   3   6
ENDBRANCH   1   2
BRANCH   1  21
ATOM     21  C   UNL A   1      34.143  27.863  25.773  1.00  0.00     0.042 C 
BRANCH  21  22
ATOM     22  C   UNL A   1      33.712  28.183  27.202  1.00  0.00     0.118 C 
BRANCH  22  23
ATOM     23  N   UNL A   1      33.585  29.613  27.442  1.00  0.00    -0.352 N 
ATOM     24  C   UNL A   1      34.438  30.500  28.041  1.00  0.00     0.251 C 
ATOM     25  H   UNL A   1      32.744  30.009  27.118  1.00  0.00     0.163 HD
ATOM     26  O   UNL A   1      34.014  31.627  28.320  1.00  0.00    -0.269 OA
BRANCH  24  27
ATOM     27  C   UNL A   1      35.836  30.143  28.363  1.00  0.00     0.039 A 
ATOM     28  C   UNL A   1      36.798  30.225  27.352  1.00  0.00     0.014 A 
ATOM     29  C   UNL A   1      36.199  29.658  29.624  1.00  0.00     0.014 A 
ATOM     30  C   UNL A   1      38.120  29.857  27.610  1.00  0.00     0.010 A 
ATOM     31  C   UNL A   1      37.534  29.365  29.903  1.00  0.00     0.010 A 
ATOM     32  C   UNL A   1      38.506  29.442  28.894  1.00  0.00    -0.014 A 
BRANCH  32  33
ATOM     33  C   UNL A   1      39.913  29.059  29.182  1.00  0.00     0.031 A 
ATOM     34  C   UNL A   1      40.850  30.040  29.838  1.00  0.00     0.074 A 
ATOM     35  C   UNL A   1      40.360  27.840  28.823  1.00  0.00     0.049 A 
ATOM     36  N   UNL A   1      42.112  29.891  30.153  1.00  0.00    -0.248 NA
ATOM     37  C   UNL A   1      40.306  31.370  30.159  1.00  0.00     0.031 C 
ATOM     38  C   UNL A   1      39.567  26.813  28.142  1.00  0.00     0.029 A 
ATOM     39  N   UNL A   1      41.592  27.256  28.981  1.00  0.00    -0.354 N 
ATOM     40  C   UNL A   1      42.516  31.109  30.691  1.00  0.00     0.074 A 
ATOM     41  C   UNL A   1      41.379  32.001  30.612  1.00  0.00     0.031 C 
ATOM     42  C   UNL A   1      40.322  25.717  27.970  1.00  0.00     0.029 A 
ATOM     43  C   UNL A   1      41.659  25.970  28.498  1.00  0.00     0.049 A 
ATOM     44  H   UNL A   1      42.355  27.714  29.401  1.00  0.00     0.167 HD
ATOM     45  C   UNL A   1      43.715  31.451  31.221  1.00  0.00     0.031 A 
ATOM     46  C   UNL A   1      42.680  25.092  28.484  1.00  0.00     0.031 A 
ATOM     47  C   UNL A   1      44.840  30.558  31.314  1.00  0.00     0.049 A 
ATOM     48  C   UNL A   1      43.995  25.486  29.098  1.00  0.00     0.074 A 
ATOM     49  C   UNL A   1      46.081  30.791  31.882  1.00  0.00     0.029 A 
ATOM     50  N   UNL A   1      44.861  29.259  30.830  1.00  0.00    -0.354 N 
ATOM     51  N   UNL A   1      44.337  26.623  29.654  1.00  0.00    -0.248 NA
ATOM     52  C   UNL A   1      45.054  24.469  29.098  1.00  0.00     0.031 C 
ATOM     53  C   UNL A   1      46.866  29.646  31.705  1.00  0.00     0.029 A 
ATOM     54  C   UNL A   1      46.097  28.682  31.073  1.00  0.00     0.049 A 
ATOM     55  H   UNL A   1      44.108  28.812  30.381  1.00  0.00     0.167 HD
ATOM     56  C   UNL A   1      45.646  26.449  30.093  1.00  0.00     0.074 A 
ATOM     57  C   UNL A   1      46.023  25.092  29.755  1.00  0.00     0.031 C 
ATOM     58  C   UNL A   1      46.461  27.333  30.722  1.00  0.00     0.031 A 
BRANCH  45  59
ATOM     59  C   UNL A   1      43.868  32.857  31.739  1.00  0.00    -0.014 A 
ATOM     60  C   UNL A   1      44.381  33.881  30.922  1.00  0.00     0.010 A 
ATOM     61  C   UNL A   1      43.472  33.167  33.053  1.00  0.00     0.010 A 
ATOM     62  C   UNL A   1      44.541  35.176  31.423  1.00  0.00     0.020 A 
ATOM     63  C   UNL A   1      43.603  34.467  33.550  1.00  0.00     0.020 A 
ATOM     64  C   UNL A   1      44.157  35.459  32.737  1.00  0.00     0.054 A 
BRANCH  64  65
ATOM     65  S   UNL A   1      44.365  37.151  33.359  1.00  0.00     0.124 S 
ATOM     66  O   UNL A   1      45.820  37.268  33.426  1.00  0.00    -0.237 OA
ATOM     67  O   UNL A   1      43.716  37.956  32.328  1.00  0.00    -0.237 OA
ATOM     68  O   UNL A   1      43.682  37.131  34.651  1.00  0.00    -0.744 OA
ENDBRANCH  64  65
ENDBRANCH  45  59
BRANCH  46  69
ATOM     69  C   UNL A   1      42.486  23.739  27.896  1.00  0.00    -0.014 A 
ATOM     70  C   UNL A   1      41.948  22.696  28.670  1.00  0.00     0.010 A 
ATOM     71  C   UNL A   1      42.823  23.491  26.554  1.00  0.00     0.010 A 
ATOM     72  C   UNL A   1      41.768  21.425  28.118  1.00  0.00     0.020 A 
ATOM     73  C   UNL A   1      42.620  22.228  25.991  1.00  0.00     0.020 A 
ATOM     74  C   UNL A   1      42.104  21.199  26.780  1.00  0.00     0.054 A 
BRANCH  74  75
ATOM     75  S   UNL A   1      41.808  19.558  26.066  1.00  0.00     0.124 S 
ATOM     76  O   UNL A   1      42.657  19.585  24.880  1.00  0.00    -0.237 OA
ATOM     77  O   UNL A   1      42.244  18.663  27.136  1.00  0.00    -0.237 OA
ATOM     78  O   UNL A   1      40.370  19.552  25.810  1.00  0.00    -0.744 OA
ENDBRANCH  74  75
ENDBRANCH  46  69
BRANCH  58  79
ATOM     79  C   UNL A   1      47.831  26.844  31.109  1.00  0.00    -0.014 A 
ATOM     80  C   UNL A   1      48.932  27.001  30.249  1.00  0.00     0.010 A 
ATOM     81  C   UNL A   1      48.020  26.235  32.362  1.00  0.00     0.010 A 
ATOM     82  C   UNL A   1      50.188  26.510  30.614  1.00  0.00     0.020 A 
ATOM     83  C   UNL A   1      49.281  25.768  32.743  1.00  0.00     0.020 A 
ATOM     84  C   UNL A   1      50.352  25.889  31.856  1.00  0.00     0.054 A 
BRANCH  84  85
ATOM     85  S   UNL A   1      51.993  25.267  32.314  1.00  0.00     0.124 S 
ATOM     86  O   UNL A   1      52.822  25.765  31.219  1.00  0.00    -0.237 OA
ATOM     87  O   UNL A   1      52.226  25.892  33.613  1.00  0.00    -0.237 OA
ATOM     88  O   UNL A   1      51.814  23.817  32.351  1.00  0.00    -0.744 OA
ENDBRANCH  84  85
ENDBRANCH  58  79
ENDBRANCH  32  33
ENDBRANCH  24  27
ENDBRANCH  22  23
ENDBRANCH  21  22
ENDBRANCH   1  21
TORSDOF 18
ENDMDL
MODEL 2
REMARK VINA RESULT:      -9.9      3.804     10.880
REMARK SMILES Cc1ncccc1C(=O)NCCOCC(=O)NCCCNC(=O)c1ccc(-c2c3nc(c(-c4ccc(S(=O)(=O)[O-])cc4)c4ccc([nH]4)c(-c4ccc(S(=O)(=O)[O-])cc4)c4nc(c(-c5ccc(S(=O)(=O)[O-])cc5)c5ccc2[nH]5)C=C4)C=C3)cc1
REMARK SMILES IDX 18 1 17 2 15 3 16 4 14 6 13 7 12 8 11 9 10 10 8 11 9 12 7 14
REMARK SMILES IDX 1 15 2 16 3 17 4 18 6 19 5 20 19 21 20 22 21 23 22 24 23 26
REMARK SMILES IDX 24 27 25 28 83 29 26 30 82 31 27 32 28 33 29 34 76 35 30 36
REMARK SMILES IDX 81 37 75 38 77 39 31 40 80 41 74 42 73 43 32 45 62 46 43 47
REMARK SMILES IDX 61 48 44 49 47 50 60 51 78 52 45 53 46 54 59 56 79 57 48 58
REMARK SMILES IDX 33 59 34 60 42 61 35 62 41 63 36 64 37 65 38 66 39 67 40 68
REMARK SMILES IDX 63 69 64 70 72 71 65 72 71 73 66 74 67 75 68 76 69 77 70 78
REMARK SMILES IDX 49 79 50 80 58 81 51 82 57 83 52 84 53 85 54 86 55 87 56 88
REMARK H PARENT 17 5 10 13 21 25 77 44 47 55
REMARK Flexibility Score: inf
ROOT
ATOM      1  C   UNL A   1      42.723  20.649  26.009  1.00  0.00     0.117 C 
ENDROOT
BRANCH   1   2
ATOM      2  N   UNL A   1      43.461  19.401  25.941  1.00  0.00    -0.354 N 
ATOM      3  C   UNL A   1      44.613  19.134  25.258  1.00  0.00     0.245 C 
ATOM      4  O   UNL A   1      45.125  18.019  25.364  1.00  0.00    -0.272 OA
ATOM      5  H   UNL A   1      43.082  18.651  26.453  1.00  0.00     0.163 HD
BRANCH   3   6
ATOM      6  C   UNL A   1      45.223  20.222  24.362  1.00  0.00     0.260 C 
BRANCH   6   7
ATOM      7  O   UNL A   1      46.152  21.139  24.917  1.00  0.00    -0.370 OA
BRANCH   7   8
ATOM      8  C   UNL A   1      46.322  22.359  24.195  1.00  0.00     0.182 C 
BRANCH   8   9
ATOM      9  C   UNL A   1      46.000  23.623  24.994  1.00  0.00     0.144 C 
BRANCH   9  10
ATOM     10  N   UNL A   1      44.924  23.493  25.957  1.00  0.00    -0.350 N 
ATOM     11  C   UNL A   1      44.359  24.392  26.820  1.00  0.00     0.253 C 
ATOM     12  O   UNL A   1      43.397  24.024  27.497  1.00  0.00    -0.269 OA
ATOM     13  H   UNL A   1      44.528  22.593  25.998  1.00  0.00     0.163 HD
BRANCH  11  14
ATOM     14  C   UNL A   1      44.874  25.765  27.026  1.00  0.00     0.061 A 
ATOM     15  C   UNL A   1      46.903  25.148  28.461  1.00  0.00     0.067 C 
ATOM     16  C   UNL A   1      46.015  26.120  27.749  1.00  0.00     0.050 A 
ATOM     17  N   UNL A   1      46.441  27.414  27.840  1.00  0.00    -0.261 NA
ATOM     18  C   UNL A   1      45.772  28.359  27.144  1.00  0.00     0.111 A 
ATOM     19  C   UNL A   1      44.224  26.773  26.297  1.00  0.00     0.017 A 
ATOM     20  C   UNL A   1      44.677  28.088  26.349  1.00  0.00     0.021 A 
ENDBRANCH  11  14
ENDBRANCH   9  10
ENDBRANCH   8   9
ENDBRANCH   7   8
ENDBRANCH   6   7
ENDBRANCH   3   6
ENDBRANCH   1   2
BRANCH   1  21
ATOM     21  C   UNL A   1      41.285  20.470  26.485  1.00  0.00     0.042 C 
BRANCH  21  22
ATOM     22  C   UNL A   1      40.618  21.738  27.014  1.00  0.00     0.118 C 
BRANCH  22  23
ATOM     23  N   UNL A   1      39.510  22.177  26.179  1.00  0.00    -0.352 N 
ATOM     24  C   UNL A   1      38.818  23.358  26.158  1.00  0.00     0.251 C 
ATOM     25  H   UNL A   1      39.208  21.514  25.517  1.00  0.00     0.163 HD
ATOM     26  O   UNL A   1      37.772  23.416  25.500  1.00  0.00    -0.269 OA
BRANCH  24  27
ATOM     27  C   UNL A   1      39.282  24.549  26.900  1.00  0.00     0.039 A 
ATOM     28  C   UNL A   1      38.836  24.735  28.213  1.00  0.00     0.014 A 
ATOM     29  C   UNL A   1      40.085  25.523  26.299  1.00  0.00     0.014 A 
ATOM     30  C   UNL A   1      39.222  25.870  28.930  1.00  0.00     0.010 A 
ATOM     31  C   UNL A   1      40.532  26.617  27.041  1.00  0.00     0.010 A 
ATOM     32  C   UNL A   1      40.090  26.813  28.357  1.00  0.00    -0.014 A 
BRANCH  32  33
ATOM     33  C   UNL A   1      40.515  28.018  29.116  1.00  0.00     0.031 A 
ATOM     34  C   UNL A   1      41.872  28.069  29.767  1.00  0.00     0.074 A 
ATOM     35  C   UNL A   1      39.666  29.057  29.249  1.00  0.00     0.049 A 
ATOM     36  N   UNL A   1      42.411  29.026  30.480  1.00  0.00    -0.248 NA
ATOM     37  C   UNL A   1      42.728  26.879  29.621  1.00  0.00     0.031 C 
ATOM     38  C   UNL A   1      38.307  29.116  28.705  1.00  0.00     0.029 A 
ATOM     39  N   UNL A   1      39.822  30.263  29.885  1.00  0.00    -0.354 N 
ATOM     40  C   UNL A   1      43.655  28.549  30.879  1.00  0.00     0.074 A 
ATOM     41  C   UNL A   1      43.770  27.198  30.373  1.00  0.00     0.031 C 
ATOM     42  C   UNL A   1      37.767  30.309  29.002  1.00  0.00     0.029 A 
ATOM     43  C   UNL A   1      38.724  31.086  29.783  1.00  0.00     0.049 A 
ATOM     44  H   UNL A   1      40.641  30.517  30.367  1.00  0.00     0.167 HD
ATOM     45  C   UNL A   1      44.624  29.181  31.586  1.00  0.00     0.031 A 
ATOM     46  C   UNL A   1      38.513  32.326  30.261  1.00  0.00     0.031 A 
ATOM     47  C   UNL A   1      44.515  30.530  32.075  1.00  0.00     0.049 A 
ATOM     48  C   UNL A   1      39.610  33.017  31.023  1.00  0.00     0.074 A 
ATOM     49  C   UNL A   1      45.461  31.280  32.754  1.00  0.00     0.029 A 
ATOM     50  N   UNL A   1      43.395  31.335  31.935  1.00  0.00    -0.354 N 
ATOM     51  N   UNL A   1      40.801  32.569  31.339  1.00  0.00    -0.248 NA
ATOM     52  C   UNL A   1      39.338  34.387  31.475  1.00  0.00     0.031 C 
ATOM     53  C   UNL A   1      44.896  32.523  33.061  1.00  0.00     0.029 A 
ATOM     54  C   UNL A   1      43.619  32.567  32.527  1.00  0.00     0.049 A 
ATOM     55  H   UNL A   1      42.563  31.070  31.481  1.00  0.00     0.167 HD
ATOM     56  C   UNL A   1      41.431  33.614  32.007  1.00  0.00     0.074 A 
ATOM     57  C   UNL A   1      40.496  34.719  32.031  1.00  0.00     0.031 C 
ATOM     58  C   UNL A   1      42.674  33.655  32.551  1.00  0.00     0.031 A 
BRANCH  45  59
ATOM     59  C   UNL A   1      45.887  28.412  31.872  1.00  0.00    -0.014 A 
ATOM     60  C   UNL A   1      45.946  27.477  32.922  1.00  0.00     0.010 A 
ATOM     61  C   UNL A   1      47.024  28.606  31.067  1.00  0.00     0.010 A 
ATOM     62  C   UNL A   1      47.132  26.788  33.192  1.00  0.00     0.020 A 
ATOM     63  C   UNL A   1      48.204  27.898  31.315  1.00  0.00     0.020 A 
ATOM     64  C   UNL A   1      48.255  27.008  32.390  1.00  0.00     0.054 A 
BRANCH  64  65
ATOM     65  S   UNL A   1      49.779  26.093  32.756  1.00  0.00     0.124 S 
ATOM     66  O   UNL A   1      50.199  25.666  31.423  1.00  0.00    -0.237 OA
ATOM     67  O   UNL A   1      50.621  27.108  33.385  1.00  0.00    -0.237 OA
ATOM     68  O   UNL A   1      49.334  25.020  33.642  1.00  0.00    -0.744 OA
ENDBRANCH  64  65
ENDBRANCH  45  59
BRANCH  46  69
ATOM     69  C   UNL A   1      37.216  33.010  30.002  1.00  0.00    -0.014 A 
ATOM     70  C   UNL A   1      36.976  33.641  28.768  1.00  0.00     0.010 A 
ATOM     71  C   UNL A   1      36.208  33.018  30.982  1.00  0.00     0.010 A 
ATOM     72  C   UNL A   1      35.760  34.283  28.527  1.00  0.00     0.020 A 
ATOM     73  C   UNL A   1      34.980  33.637  30.734  1.00  0.00     0.020 A 
ATOM     74  C   UNL A   1      34.767  34.276  29.512  1.00  0.00     0.054 A 
BRANCH  74  75
ATOM     75  S   UNL A   1      33.173  35.067  29.155  1.00  0.00     0.124 S 
ATOM     76  O   UNL A   1      32.612  34.175  28.146  1.00  0.00    -0.237 OA
ATOM     77  O   UNL A   1      32.511  35.047  30.458  1.00  0.00    -0.237 OA
ATOM     78  O   UNL A   1      33.552  36.395  28.679  1.00  0.00    -0.744 OA
ENDBRANCH  74  75
ENDBRANCH  46  69
BRANCH  58  79
ATOM     79  C   UNL A   1      43.099  34.950  33.189  1.00  0.00    -0.014 A 
ATOM     80  C   UNL A   1      43.636  35.999  32.424  1.00  0.00     0.010 A 
ATOM     81  C   UNL A   1      42.940  35.123  34.576  1.00  0.00     0.010 A 
ATOM     82  C   UNL A   1      44.054  37.181  33.042  1.00  0.00     0.020 A 
ATOM     83  C   UNL A   1      43.331  36.314  35.193  1.00  0.00     0.020 A 
ATOM     84  C   UNL A   1      43.906  37.327  34.425  1.00  0.00     0.054 A 
BRANCH  84  85
ATOM     85  S   UNL A   1      44.447  38.872  35.204  1.00  0.00     0.124 S 
ATOM     86  O   UNL A   1      45.876  38.879  34.904  1.00  0.00    -0.237 OA
ATOM     87  O   UNL A   1      43.653  39.882  34.508  1.00  0.00    -0.237 OA
ATOM     88  O   UNL A   1      44.107  38.685  36.613  1.00  0.00    -0.744 OA
ENDBRANCH  84  85
ENDBRANCH  58  79
ENDBRANCH  32  33
ENDBRANCH  24  27
ENDBRANCH  22  23
ENDBRANCH  21  22
ENDBRANCH   1  21
TORSDOF 18
ENDMDL
MODEL 3
REMARK VINA RESULT:      -9.6      2.834      3.849
REMARK SMILES Cc1ncccc1C(=O)NCCOCC(=O)NCCCNC(=O)c1ccc(-c2c3nc(c(-c4ccc(S(=O)(=O)[O-])cc4)c4ccc([nH]4)c(-c4ccc(S(=O)(=O)[O-])cc4)c4nc(c(-c5ccc(S(=O)(=O)[O-])cc5)c5ccc2[nH]5)C=C4)C=C3)cc1
REMARK SMILES IDX 18 1 17 2 15 3 16 4 14 6 13 7 12 8 11 9 10 10 8 11 9 12 7 14
REMARK SMILES IDX 1 15 2 16 3 17 4 18 6 19 5 20 19 21 20 22 21 23 22 24 23 26
REMARK SMILES IDX 24 27 25 28 83 29 26 30 82 31 27 32 28 33 29 34 76 35 30 36
REMARK SMILES IDX 81 37 75 38 77 39 31 40 80 41 74 42 73 43 32 45 62 46 43 47
REMARK SMILES IDX 61 48 44 49 47 50 60 51 78 52 45 53 46 54 59 56 79 57 48 58
REMARK SMILES IDX 33 59 34 60 42 61 35 62 41 63 36 64 37 65 38 66 39 67 40 68
REMARK SMILES IDX 63 69 64 70 72 71 65 72 71 73 66 74 67 75 68 76 69 77 70 78
REMARK SMILES IDX 49 79 50 80 58 81 51 82 57 83 52 84 53 85 54 86 55 87 56 88
REMARK H PARENT 17 5 10 13 21 25 77 44 47 55
REMARK Flexibility Score: inf
ROOT
ATOM      1  C   UNL A   1      33.015  28.969  23.916  1.00  0.00     0.117 C 
ENDROOT
BRANCH   1   2
ATOM      2  N   UNL A   1      31.710  29.562  23.685  1.00  0.00    -0.354 N 
ATOM      3  C   UNL A   1      30.622  29.005  23.078  1.00  0.00     0.245 C 
ATOM      4  O   UNL A   1      29.575  29.650  23.020  1.00  0.00    -0.272 OA
ATOM      5  H   UNL A   1      31.596  30.484  24.009  1.00  0.00     0.163 HD
BRANCH   3   6
ATOM      6  C   UNL A   1      30.742  27.603  22.463  1.00  0.00     0.260 C 
BRANCH   6   7
ATOM      7  O   UNL A   1      30.380  26.472  23.240  1.00  0.00    -0.370 OA
BRANCH   7   8
ATOM      8  C   UNL A   1      31.274  25.360  23.165  1.00  0.00     0.182 C 
BRANCH   8   9
ATOM      9  C   UNL A   1      30.702  24.045  23.695  1.00  0.00     0.144 C 
BRANCH   9  10
ATOM     10  N   UNL A   1      30.569  23.960  25.136  1.00  0.00    -0.350 N 
ATOM     11  C   UNL A   1      31.492  23.763  26.127  1.00  0.00     0.253 C 
ATOM     12  O   UNL A   1      31.107  23.797  27.297  1.00  0.00    -0.269 OA
ATOM     13  H   UNL A   1      29.646  24.064  25.462  1.00  0.00     0.163 HD
BRANCH  11  14
ATOM     14  C   UNL A   1      32.917  23.454  25.869  1.00  0.00     0.061 A 
ATOM     15  C   UNL A   1      32.620  20.984  25.264  1.00  0.00     0.067 C 
ATOM     16  C   UNL A   1      33.438  22.219  25.473  1.00  0.00     0.050 A 
ATOM     17  N   UNL A   1      34.766  22.046  25.209  1.00  0.00    -0.261 NA
ATOM     18  C   UNL A   1      35.577  23.124  25.262  1.00  0.00     0.111 A 
ATOM     19  C   UNL A   1      33.790  24.554  25.887  1.00  0.00     0.017 A 
ATOM     20  C   UNL A   1      35.136  24.394  25.576  1.00  0.00     0.021 A 
ENDBRANCH  11  14
ENDBRANCH   9  10
ENDBRANCH   8   9
ENDBRANCH   7   8
ENDBRANCH   6   7
ENDBRANCH   3   6
ENDBRANCH   1   2
BRANCH   1  21
ATOM     21  C   UNL A   1      33.055  28.067  25.146  1.00  0.00     0.042 C 
BRANCH  21  22
ATOM     22  C   UNL A   1      33.954  28.558  26.278  1.00  0.00     0.118 C 
BRANCH  22  23
ATOM     23  N   UNL A   1      33.755  29.968  26.579  1.00  0.00    -0.352 N 
ATOM     24  C   UNL A   1      34.417  30.802  27.439  1.00  0.00     0.251 C 
ATOM     25  H   UNL A   1      33.022  30.394  26.079  1.00  0.00     0.163 HD
ATOM     26  O   UNL A   1      33.925  31.910  27.680  1.00  0.00    -0.269 OA
BRANCH  24  27
ATOM     27  C   UNL A   1      35.688  30.410  28.085  1.00  0.00     0.039 A 
ATOM     28  C   UNL A   1      35.637  29.642  29.252  1.00  0.00     0.014 A 
ATOM     29  C   UNL A   1      36.924  30.851  27.603  1.00  0.00     0.014 A 
ATOM     30  C   UNL A   1      36.816  29.288  29.911  1.00  0.00     0.010 A 
ATOM     31  C   UNL A   1      38.105  30.433  28.217  1.00  0.00     0.010 A 
ATOM     32  C   UNL A   1      38.064  29.664  29.389  1.00  0.00    -0.014 A 
BRANCH  32  33
ATOM     33  C   UNL A   1      39.325  29.283  30.077  1.00  0.00     0.031 A 
ATOM     34  C   UNL A   1      39.754  29.997  31.332  1.00  0.00     0.074 A 
ATOM     35  C   UNL A   1      40.104  28.316  29.554  1.00  0.00     0.049 A 
ATOM     36  N   UNL A   1      40.826  29.813  32.061  1.00  0.00    -0.248 NA
ATOM     37  C   UNL A   1      38.877  31.075  31.819  1.00  0.00     0.031 C 
ATOM     38  C   UNL A   1      39.825  27.577  28.319  1.00  0.00     0.029 A 
ATOM     39  N   UNL A   1      41.292  27.787  29.995  1.00  0.00    -0.354 N 
ATOM     40  C   UNL A   1      40.762  30.760  33.077  1.00  0.00     0.074 A 
ATOM     41  C   UNL A   1      39.572  31.550  32.842  1.00  0.00     0.031 C 
ATOM     42  C   UNL A   1      40.796  26.670  28.121  1.00  0.00     0.029 A 
ATOM     43  C   UNL A   1      41.781  26.783  29.192  1.00  0.00     0.049 A 
ATOM     44  H   UNL A   1      41.749  28.096  30.810  1.00  0.00     0.167 HD
ATOM     45  C   UNL A   1      41.603  30.946  34.124  1.00  0.00     0.031 A 
ATOM     46  C   UNL A   1      42.895  26.035  29.306  1.00  0.00     0.031 A 
ATOM     47  C   UNL A   1      42.777  30.150  34.367  1.00  0.00     0.049 A 
ATOM     48  C   UNL A   1      43.802  26.244  30.488  1.00  0.00     0.074 A 
ATOM     49  C   UNL A   1      43.664  30.223  35.427  1.00  0.00     0.029 A 
ATOM     50  N   UNL A   1      43.227  29.132  33.540  1.00  0.00    -0.354 N 
ATOM     51  N   UNL A   1      43.691  27.106  31.469  1.00  0.00    -0.248 NA
ATOM     52  C   UNL A   1      44.973  25.364  30.584  1.00  0.00     0.031 C 
ATOM     53  C   UNL A   1      44.673  29.276  35.220  1.00  0.00     0.029 A 
ATOM     54  C   UNL A   1      44.386  28.578  34.058  1.00  0.00     0.049 A 
ATOM     55  H   UNL A   1      42.787  28.844  32.708  1.00  0.00     0.167 HD
ATOM     56  C   UNL A   1      44.766  26.856  32.315  1.00  0.00     0.074 A 
ATOM     57  C   UNL A   1      45.502  25.750  31.738  1.00  0.00     0.031 C 
ATOM     58  C   UNL A   1      45.113  27.484  33.467  1.00  0.00     0.031 A 
BRANCH  45  59
ATOM     59  C   UNL A   1      41.278  32.060  35.084  1.00  0.00    -0.014 A 
ATOM     60  C   UNL A   1      41.695  33.380  34.833  1.00  0.00     0.010 A 
ATOM     61  C   UNL A   1      40.525  31.791  36.242  1.00  0.00     0.010 A 
ATOM     62  C   UNL A   1      41.408  34.400  35.745  1.00  0.00     0.020 A 
ATOM     63  C   UNL A   1      40.211  32.813  37.143  1.00  0.00     0.020 A 
ATOM     64  C   UNL A   1      40.674  34.109  36.897  1.00  0.00     0.054 A 
BRANCH  64  65
ATOM     65  S   UNL A   1      40.306  35.453  38.060  1.00  0.00     0.124 S 
ATOM     66  O   UNL A   1      39.038  35.012  38.636  1.00  0.00    -0.237 OA
ATOM     67  O   UNL A   1      41.453  35.419  38.964  1.00  0.00    -0.237 OA
ATOM     68  O   UNL A   1      40.224  36.636  37.206  1.00  0.00    -0.744 OA
ENDBRANCH  64  65
ENDBRANCH  45  59
BRANCH  46  69
ATOM     69  C   UNL A   1      43.196  24.994  28.287  1.00  0.00    -0.014 A 
ATOM     70  C   UNL A   1      43.951  25.313  27.144  1.00  0.00     0.010 A 
ATOM     71  C   UNL A   1      42.743  23.674  28.462  1.00  0.00     0.010 A 
ATOM     72  C   UNL A   1      44.232  24.335  26.186  1.00  0.00     0.020 A 
ATOM     73  C   UNL A   1      43.045  22.688  27.519  1.00  0.00     0.020 A 
ATOM     74  C   UNL A   1      43.778  23.027  26.381  1.00  0.00     0.054 A 
BRANCH  74  75
ATOM     75  S   UNL A   1      44.203  21.760  25.153  1.00  0.00     0.124 S 
ATOM     76  O   UNL A   1      43.174  20.752  25.390  1.00  0.00    -0.237 OA
ATOM     77  O   UNL A   1      44.096  22.491  23.893  1.00  0.00    -0.237 OA
ATOM     78  O   UNL A   1      45.561  21.370  25.524  1.00  0.00    -0.744 OA
ENDBRANCH  74  75
ENDBRANCH  46  69
BRANCH  58  79
ATOM     79  C   UNL A   1      46.326  26.965  34.190  1.00  0.00    -0.014 A 
ATOM     80  C   UNL A   1      46.223  25.941  35.148  1.00  0.00     0.010 A 
ATOM     81  C   UNL A   1      47.592  27.500  33.891  1.00  0.00     0.010 A 
ATOM     82  C   UNL A   1      47.358  25.497  35.831  1.00  0.00     0.020 A 
ATOM     83  C   UNL A   1      48.734  27.038  34.552  1.00  0.00     0.020 A 
ATOM     84  C   UNL A   1      48.605  26.055  35.534  1.00  0.00     0.054 A 
BRANCH  84  85
ATOM     85  S   UNL A   1      50.066  25.457  36.427  1.00  0.00     0.124 S 
ATOM     86  O   UNL A   1      51.096  25.511  35.393  1.00  0.00    -0.237 OA
ATOM     87  O   UNL A   1      50.208  26.431  37.506  1.00  0.00    -0.237 OA
ATOM     88  O   UNL A   1      49.683  24.113  36.855  1.00  0.00    -0.744 OA
ENDBRANCH  84  85
ENDBRANCH  58  79
ENDBRANCH  32  33
ENDBRANCH  24  27
ENDBRANCH  22  23
ENDBRANCH  21  22
ENDBRANCH   1  21
TORSDOF 18
ENDMDL
