MODEL 1
REMARK VINA RESULT:     -12.8      0.000      0.000
REMARK SMILES Cc1cccc(OCC(=O)Nc2cc(C(=O)NCCCNC(=O)c3ccc(-c4c5nc(c(-c6ccc(S(=O)(=O)[O-])cc6)c6ccc([nH]6)c(-c6ccc(S(=O)(=O)[O-])cc6)c6nc(c(-c7ccc(S(=O)(=O)[O-])cc7)c7ccc4[nH]7)C=C6)C=C5)cc3)c(Cl)cc2Cl)c1
REMARK SMILES IDX 18 1 17 2 15 3 16 4 14 6 12 7 13 8 87 9 86 10 88 11 84 12
REMARK SMILES IDX 85 13 11 14 9 15 10 16 8 18 7 19 6 20 1 21 2 22 3 23 89 24
REMARK SMILES IDX 4 25 5 26 19 27 20 28 21 29 22 30 23 32 24 33 25 34 83 35
REMARK SMILES IDX 26 36 82 37 27 38 28 39 29 40 76 41 30 42 81 43 75 44 77 45
REMARK SMILES IDX 31 46 80 47 74 48 73 49 32 51 62 52 43 53 61 54 44 55 47 56
REMARK SMILES IDX 60 57 78 58 45 59 46 60 59 62 79 63 48 64 33 65 34 66 42 67
REMARK SMILES IDX 35 68 41 69 36 70 37 71 38 72 39 73 40 74 63 75 64 76 72 77
REMARK SMILES IDX 65 78 71 79 66 80 67 81 68 82 69 83 70 84 49 85 50 86 58 87
REMARK SMILES IDX 51 88 57 89 52 90 53 91 54 92 55 93 56 94
REMARK H PARENT 17 5 11 17 21 31 77 50 47 61
REMARK Flexibility Score: inf
ROOT
ATOM      1  C   UNL A   1      34.140  29.503  26.970  1.00  0.00     0.118 C 
ENDROOT
BRANCH   1   2
ATOM      2  N   UNL A   1      34.333  29.293  25.549  1.00  0.00    -0.352 N 
ATOM      3  C   UNL A   1      33.881  28.275  24.745  1.00  0.00     0.252 C 
ATOM      4  O   UNL A   1      33.978  28.390  23.526  1.00  0.00    -0.269 OA
ATOM      5  H   UNL A   1      34.867  29.983  25.094  1.00  0.00     0.163 HD
BRANCH   3   6
ATOM      6  C   UNL A   1      33.294  27.026  25.308  1.00  0.00     0.060 A 
ATOM      7  C   UNL A   1      33.549  24.748  26.174  1.00  0.00     0.061 A 
ATOM      8  C   UNL A   1      34.114  25.928  25.678  1.00  0.00     0.043 A 
ATOM      9  C   UNL A   1      32.152  24.724  26.392  1.00  0.00     0.066 A 
ATOM     10  C   UNL A   1      31.343  25.817  26.091  1.00  0.00     0.044 A 
ATOM     11  Cl  UNL A   1      31.371  23.321  27.054  1.00  0.00    -0.082 Cl
ATOM     12  C   UNL A   1      31.907  26.960  25.529  1.00  0.00     0.055 A 
ATOM     13  Cl  UNL A   1      30.796  28.213  25.092  1.00  0.00    -0.083 Cl
BRANCH   7  14
ATOM     14  N   UNL A   1      34.232  23.540  26.437  1.00  0.00    -0.322 N 
ATOM     15  C   UNL A   1      34.957  22.619  25.750  1.00  0.00     0.262 C 
ATOM     16  O   UNL A   1      35.330  21.627  26.393  1.00  0.00    -0.271 OA
ATOM     17  H   UNL A   1      34.164  23.297  27.389  1.00  0.00     0.170 HD
BRANCH  15  18
ATOM     18  C   UNL A   1      35.386  22.787  24.302  1.00  0.00     0.329 C 
BRANCH  18  19
ATOM     19  O   UNL A   1      34.450  22.382  23.332  1.00  0.00    -0.484 OA
BRANCH  19  20
ATOM     20  C   UNL A   1      33.327  23.128  23.127  1.00  0.00     0.120 A 
ATOM     21  C   UNL A   1      31.743  26.358  21.882  1.00  0.00     0.044 C 
ATOM     22  C   UNL A   1      31.924  24.978  22.430  1.00  0.00    -0.047 A 
ATOM     23  C   UNL A   1      30.785  24.302  22.883  1.00  0.00     0.003 A 
ATOM     24  C   UNL A   1      33.202  24.384  22.547  1.00  0.00     0.049 A 
ATOM     25  C   UNL A   1      30.914  23.059  23.466  1.00  0.00     0.004 A 
ATOM     26  C   UNL A   1      32.180  22.509  23.598  1.00  0.00     0.046 A 
ENDBRANCH  19  20
ENDBRANCH  18  19
ENDBRANCH  15  18
ENDBRANCH   7  14
ENDBRANCH   3   6
ENDBRANCH   1   2
BRANCH   1  27
ATOM     27  C   UNL A   1      34.204  30.967  27.412  1.00  0.00     0.042 C 
BRANCH  27  28
ATOM     28  C   UNL A   1      34.701  31.155  28.857  1.00  0.00     0.118 C 
BRANCH  28  29
ATOM     29  N   UNL A   1      35.998  31.853  28.936  1.00  0.00    -0.352 N 
ATOM     30  C   UNL A   1      37.312  31.399  28.913  1.00  0.00     0.251 C 
ATOM     31  H   UNL A   1      35.918  32.830  29.023  1.00  0.00     0.163 HD
ATOM     32  O   UNL A   1      38.270  32.097  29.196  1.00  0.00    -0.269 OA
BRANCH  30  33
ATOM     33  C   UNL A   1      37.548  30.041  28.418  1.00  0.00     0.039 A 
ATOM     34  C   UNL A   1      37.423  29.057  29.407  1.00  0.00     0.014 A 
ATOM     35  C   UNL A   1      38.359  29.887  27.303  1.00  0.00     0.014 A 
ATOM     36  C   UNL A   1      38.395  28.078  29.484  1.00  0.00     0.010 A 
ATOM     37  C   UNL A   1      39.347  28.932  27.401  1.00  0.00     0.010 A 
ATOM     38  C   UNL A   1      39.437  28.138  28.565  1.00  0.00    -0.014 A 
BRANCH  38  39
ATOM     39  C   UNL A   1      40.770  27.626  28.865  1.00  0.00     0.031 A 
ATOM     40  C   UNL A   1      41.091  26.222  28.549  1.00  0.00     0.074 A 
ATOM     41  C   UNL A   1      41.756  28.471  29.260  1.00  0.00     0.049 A 
ATOM     42  N   UNL A   1      42.132  25.601  28.986  1.00  0.00    -0.248 NA
ATOM     43  C   UNL A   1      40.205  25.373  27.761  1.00  0.00     0.031 C 
ATOM     44  C   UNL A   1      43.194  28.220  29.173  1.00  0.00     0.029 A 
ATOM     45  N   UNL A   1      41.680  29.657  29.999  1.00  0.00    -0.354 N 
ATOM     46  C   UNL A   1      42.228  24.423  28.285  1.00  0.00     0.074 A 
ATOM     47  C   UNL A   1      40.950  24.274  27.635  1.00  0.00     0.031 C 
ATOM     48  C   UNL A   1      43.826  29.003  30.059  1.00  0.00     0.029 A 
ATOM     49  C   UNL A   1      42.808  29.680  30.839  1.00  0.00     0.049 A 
ATOM     50  H   UNL A   1      40.974  30.342  29.942  1.00  0.00     0.167 HD
ATOM     51  C   UNL A   1      43.434  23.792  28.222  1.00  0.00     0.031 A 
ATOM     52  C   UNL A   1      42.769  29.724  32.204  1.00  0.00     0.031 A 
ATOM     53  C   UNL A   1      44.394  24.372  29.163  1.00  0.00     0.049 A 
ATOM     54  C   UNL A   1      43.458  28.549  32.867  1.00  0.00     0.074 A 
ATOM     55  C   UNL A   1      45.503  25.190  29.030  1.00  0.00     0.029 A 
ATOM     56  N   UNL A   1      44.093  24.340  30.520  1.00  0.00    -0.354 N 
ATOM     57  N   UNL A   1      43.920  27.518  32.218  1.00  0.00    -0.248 NA
ATOM     58  C   UNL A   1      43.616  28.401  34.313  1.00  0.00     0.031 C 
ATOM     59  C   UNL A   1      45.818  25.714  30.316  1.00  0.00     0.029 A 
ATOM     60  C   UNL A   1      44.920  25.188  31.229  1.00  0.00     0.049 A 
ATOM     61  H   UNL A   1      43.384  23.788  30.922  1.00  0.00     0.167 HD
ATOM     62  C   UNL A   1      44.341  26.559  33.100  1.00  0.00     0.074 A 
ATOM     63  C   UNL A   1      44.172  27.178  34.402  1.00  0.00     0.031 C 
ATOM     64  C   UNL A   1      44.745  25.326  32.672  1.00  0.00     0.031 A 
BRANCH  51  65
ATOM     65  C   UNL A   1      43.813  22.797  27.144  1.00  0.00    -0.014 A 
ATOM     66  C   UNL A   1      42.900  21.788  26.774  1.00  0.00     0.010 A 
ATOM     67  C   UNL A   1      45.071  22.741  26.515  1.00  0.00     0.010 A 
ATOM     68  C   UNL A   1      43.246  20.759  25.880  1.00  0.00     0.020 A 
ATOM     69  C   UNL A   1      45.436  21.719  25.629  1.00  0.00     0.020 A 
ATOM     70  C   UNL A   1      44.522  20.724  25.323  1.00  0.00     0.054 A 
BRANCH  70  71
ATOM     71  S   UNL A   1      44.982  19.374  24.210  1.00  0.00     0.124 S 
ATOM     72  O   UNL A   1      44.308  18.227  24.813  1.00  0.00    -0.237 OA
ATOM     73  O   UNL A   1      44.443  19.823  22.930  1.00  0.00    -0.237 OA
ATOM     74  O   UNL A   1      46.442  19.340  24.291  1.00  0.00    -0.744 OA
ENDBRANCH  70  71
ENDBRANCH  51  65
BRANCH  52  75
ATOM     75  C   UNL A   1      41.615  30.470  32.768  1.00  0.00    -0.014 A 
ATOM     76  C   UNL A   1      40.612  29.701  33.393  1.00  0.00     0.010 A 
ATOM     77  C   UNL A   1      41.745  31.831  33.094  1.00  0.00     0.010 A 
ATOM     78  C   UNL A   1      39.901  30.221  34.473  1.00  0.00     0.020 A 
ATOM     79  C   UNL A   1      41.035  32.353  34.184  1.00  0.00     0.020 A 
ATOM     80  C   UNL A   1      40.179  31.517  34.908  1.00  0.00     0.054 A 
BRANCH  80  81
ATOM     81  S   UNL A   1      39.624  31.973  36.579  1.00  0.00     0.124 S 
ATOM     82  O   UNL A   1      39.209  33.360  36.403  1.00  0.00    -0.237 OA
ATOM     83  O   UNL A   1      38.545  31.009  36.793  1.00  0.00    -0.237 OA
ATOM     84  O   UNL A   1      40.820  31.769  37.391  1.00  0.00    -0.744 OA
ENDBRANCH  80  81
ENDBRANCH  52  75
BRANCH  64  85
ATOM     85  C   UNL A   1      45.034  24.119  33.540  1.00  0.00    -0.014 A 
ATOM     86  C   UNL A   1      44.177  23.018  33.694  1.00  0.00     0.010 A 
ATOM     87  C   UNL A   1      46.310  24.019  34.150  1.00  0.00     0.010 A 
ATOM     88  C   UNL A   1      44.552  21.903  34.462  1.00  0.00     0.020 A 
ATOM     89  C   UNL A   1      46.713  22.894  34.874  1.00  0.00     0.020 A 
ATOM     90  C   UNL A   1      45.817  21.850  35.049  1.00  0.00     0.054 A 
BRANCH  90  91
ATOM     91  S   UNL A   1      46.318  20.383  35.985  1.00  0.00     0.124 S 
ATOM     92  O   UNL A   1      45.404  19.370  35.468  1.00  0.00    -0.237 OA
ATOM     93  O   UNL A   1      47.720  20.213  35.605  1.00  0.00    -0.237 OA
ATOM     94  O   UNL A   1      46.103  20.776  37.376  1.00  0.00    -0.744 OA
ENDBRANCH  90  91
ENDBRANCH  64  85
ENDBRANCH  38  39
ENDBRANCH  30  33
ENDBRANCH  28  29
ENDBRANCH  27  28
ENDBRANCH   1  27
TORSDOF 17
ENDMDL
MODEL 2
REMARK VINA RESULT:     -12.0      2.334      3.232
REMARK SMILES Cc1cccc(OCC(=O)Nc2cc(C(=O)NCCCNC(=O)c3ccc(-c4c5nc(c(-c6ccc(S(=O)(=O)[O-])cc6)c6ccc([nH]6)c(-c6ccc(S(=O)(=O)[O-])cc6)c6nc(c(-c7ccc(S(=O)(=O)[O-])cc7)c7ccc4[nH]7)C=C6)C=C5)cc3)c(Cl)cc2Cl)c1
REMARK SMILES IDX 18 1 17 2 15 3 16 4 14 6 12 7 13 8 87 9 86 10 88 11 84 12
REMARK SMILES IDX 85 13 11 14 9 15 10 16 8 18 7 19 6 20 1 21 2 22 3 23 89 24
REMARK SMILES IDX 4 25 5 26 19 27 20 28 21 29 22 30 23 32 24 33 25 34 83 35
REMARK SMILES IDX 26 36 82 37 27 38 28 39 29 40 76 41 30 42 81 43 75 44 77 45
REMARK SMILES IDX 31 46 80 47 74 48 73 49 32 51 62 52 43 53 61 54 44 55 47 56
REMARK SMILES IDX 60 57 78 58 45 59 46 60 59 62 79 63 48 64 33 65 34 66 42 67
REMARK SMILES IDX 35 68 41 69 36 70 37 71 38 72 39 73 40 74 63 75 64 76 72 77
REMARK SMILES IDX 65 78 71 79 66 80 67 81 68 82 69 83 70 84 49 85 50 86 58 87
REMARK SMILES IDX 51 88 57 89 52 90 53 91 54 92 55 93 56 94
REMARK H PARENT 17 5 11 17 21 31 77 50 47 61
REMARK Flexibility Score: inf
ROOT
ATOM      1  C   UNL A   1      32.004  29.925  25.595  1.00  0.00     0.118 C 
ENDROOT
BRANCH   1   2
ATOM      2  N   UNL A   1      33.087  29.614  24.684  1.00  0.00    -0.352 N 
ATOM      3  C   UNL A   1      33.383  28.434  24.046  1.00  0.00     0.252 C 
ATOM      4  O   UNL A   1      34.226  28.434  23.152  1.00  0.00    -0.269 OA
ATOM      5  H   UNL A   1      33.701  30.360  24.495  1.00  0.00     0.163 HD
BRANCH   3   6
ATOM      6  C   UNL A   1      32.728  27.148  24.420  1.00  0.00     0.060 A 
ATOM      7  C   UNL A   1      32.629  25.121  25.791  1.00  0.00     0.061 A 
ATOM      8  C   UNL A   1      33.233  26.341  25.471  1.00  0.00     0.043 A 
ATOM      9  C   UNL A   1      31.443  24.770  25.105  1.00  0.00     0.066 A 
ATOM     10  C   UNL A   1      30.901  25.583  24.112  1.00  0.00     0.044 A 
ATOM     11  Cl  UNL A   1      30.595  23.299  25.472  1.00  0.00    -0.082 Cl
ATOM     12  C   UNL A   1      31.552  26.760  23.752  1.00  0.00     0.055 A 
ATOM     13  Cl  UNL A   1      30.854  27.636  22.432  1.00  0.00    -0.083 Cl
BRANCH   7  14
ATOM     14  N   UNL A   1      33.114  24.161  26.707  1.00  0.00    -0.322 N 
ATOM     15  C   UNL A   1      34.158  23.298  26.807  1.00  0.00     0.262 C 
ATOM     16  O   UNL A   1      34.160  22.555  27.799  1.00  0.00    -0.271 OA
ATOM     17  H   UNL A   1      32.530  24.103  27.498  1.00  0.00     0.170 HD
BRANCH  15  18
ATOM     18  C   UNL A   1      35.326  23.264  25.835  1.00  0.00     0.329 C 
BRANCH  18  19
ATOM     19  O   UNL A   1      35.027  22.831  24.530  1.00  0.00    -0.484 OA
BRANCH  19  20
ATOM     20  C   UNL A   1      34.365  21.654  24.345  1.00  0.00     0.120 A 
ATOM     21  C   UNL A   1      34.288  17.866  24.705  1.00  0.00     0.044 C 
ATOM     22  C   UNL A   1      33.892  19.278  24.412  1.00  0.00    -0.047 A 
ATOM     23  C   UNL A   1      32.659  19.492  23.784  1.00  0.00     0.003 A 
ATOM     24  C   UNL A   1      34.746  20.367  24.699  1.00  0.00     0.049 A 
ATOM     25  C   UNL A   1      32.287  20.770  23.426  1.00  0.00     0.004 A 
ATOM     26  C   UNL A   1      33.154  21.819  23.690  1.00  0.00     0.046 A 
ENDBRANCH  19  20
ENDBRANCH  18  19
ENDBRANCH  15  18
ENDBRANCH   7  14
ENDBRANCH   3   6
ENDBRANCH   1   2
BRANCH   1  27
ATOM     27  C   UNL A   1      32.163  31.250  26.344  1.00  0.00     0.042 C 
BRANCH  27  28
ATOM     28  C   UNL A   1      32.936  31.122  27.669  1.00  0.00     0.118 C 
BRANCH  28  29
ATOM     29  N   UNL A   1      34.105  32.019  27.745  1.00  0.00    -0.352 N 
ATOM     30  C   UNL A   1      35.428  31.808  28.114  1.00  0.00     0.251 C 
ATOM     31  H   UNL A   1      33.909  32.947  27.484  1.00  0.00     0.163 HD
ATOM     32  O   UNL A   1      36.223  32.710  28.317  1.00  0.00    -0.269 OA
BRANCH  30  33
ATOM     33  C   UNL A   1      35.905  30.424  28.153  1.00  0.00     0.039 A 
ATOM     34  C   UNL A   1      35.899  29.867  29.439  1.00  0.00     0.014 A 
ATOM     35  C   UNL A   1      36.780  30.009  27.160  1.00  0.00     0.014 A 
ATOM     36  C   UNL A   1      37.013  29.164  29.854  1.00  0.00     0.010 A 
ATOM     37  C   UNL A   1      37.906  29.339  27.586  1.00  0.00     0.010 A 
ATOM     38  C   UNL A   1      38.072  29.056  28.959  1.00  0.00    -0.014 A 
BRANCH  38  39
ATOM     39  C   UNL A   1      39.455  28.924  29.402  1.00  0.00     0.031 A 
ATOM     40  C   UNL A   1      40.197  27.688  29.090  1.00  0.00     0.074 A 
ATOM     41  C   UNL A   1      40.110  29.986  29.935  1.00  0.00     0.049 A 
ATOM     42  N   UNL A   1      41.320  27.360  29.631  1.00  0.00    -0.248 NA
ATOM     43  C   UNL A   1      39.681  26.673  28.180  1.00  0.00     0.031 C 
ATOM     44  C   UNL A   1      41.561  30.156  30.014  1.00  0.00     0.029 A 
ATOM     45  N   UNL A   1      39.619  31.057  30.691  1.00  0.00    -0.354 N 
ATOM     46  C   UNL A   1      41.823  26.301  28.916  1.00  0.00     0.074 A 
ATOM     47  C   UNL A   1      40.719  25.837  28.114  1.00  0.00     0.031 C 
ATOM     48  C   UNL A   1      41.843  31.031  30.990  1.00  0.00     0.029 A 
ATOM     49  C   UNL A   1      40.597  31.347  31.660  1.00  0.00     0.049 A 
ATOM     50  H   UNL A   1      38.756  31.517  30.569  1.00  0.00     0.167 HD
ATOM     51  C   UNL A   1      43.159  26.039  28.981  1.00  0.00     0.031 A 
ATOM     52  C   UNL A   1      40.401  31.296  33.012  1.00  0.00     0.031 A 
ATOM     53  C   UNL A   1      43.806  26.809  30.044  1.00  0.00     0.049 A 
ATOM     54  C   UNL A   1      41.322  30.325  33.721  1.00  0.00     0.074 A 
ATOM     55  C   UNL A   1      44.642  27.912  30.067  1.00  0.00     0.029 A 
ATOM     56  N   UNL A   1      43.384  26.613  31.354  1.00  0.00    -0.354 N 
ATOM     57  N   UNL A   1      42.127  29.507  33.103  1.00  0.00    -0.248 NA
ATOM     58  C   UNL A   1      41.361  30.142  35.171  1.00  0.00     0.031 C 
ATOM     59  C   UNL A   1      44.654  28.426  31.394  1.00  0.00     0.029 A 
ATOM     60  C   UNL A   1      43.852  27.616  32.179  1.00  0.00     0.049 A 
ATOM     61  H   UNL A   1      42.824  25.860  31.654  1.00  0.00     0.167 HD
ATOM     62  C   UNL A   1      42.709  28.653  34.004  1.00  0.00     0.074 A 
ATOM     63  C   UNL A   1      42.231  29.122  35.292  1.00  0.00     0.031 C 
ATOM     64  C   UNL A   1      43.492  27.612  33.594  1.00  0.00     0.031 A 
BRANCH  51  65
ATOM     65  C   UNL A   1      43.920  25.257  27.929  1.00  0.00    -0.014 A 
ATOM     66  C   UNL A   1      43.885  25.681  26.584  1.00  0.00     0.010 A 
ATOM     67  C   UNL A   1      44.616  24.058  28.172  1.00  0.00     0.010 A 
ATOM     68  C   UNL A   1      44.457  24.924  25.546  1.00  0.00     0.020 A 
ATOM     69  C   UNL A   1      45.185  23.286  27.151  1.00  0.00     0.020 A 
ATOM     70  C   UNL A   1      45.093  23.719  25.838  1.00  0.00     0.054 A 
BRANCH  70  71
ATOM     71  S   UNL A   1      45.788  22.722  24.498  1.00  0.00     0.124 S 
ATOM     72  O   UNL A   1      44.609  22.415  23.692  1.00  0.00    -0.237 OA
ATOM     73  O   UNL A   1      46.749  23.636  23.890  1.00  0.00    -0.237 OA
ATOM     74  O   UNL A   1      46.375  21.574  25.189  1.00  0.00    -0.744 OA
ENDBRANCH  70  71
ENDBRANCH  51  65
BRANCH  52  75
ATOM     75  C   UNL A   1      39.028  31.652  33.453  1.00  0.00    -0.014 A 
ATOM     76  C   UNL A   1      38.759  33.024  33.631  1.00  0.00     0.010 A 
ATOM     77  C   UNL A   1      37.962  30.763  33.231  1.00  0.00     0.010 A 
ATOM     78  C   UNL A   1      37.484  33.527  33.377  1.00  0.00     0.020 A 
ATOM     79  C   UNL A   1      36.682  31.268  32.970  1.00  0.00     0.020 A 
ATOM     80  C   UNL A   1      36.477  32.651  32.970  1.00  0.00     0.054 A 
BRANCH  80  81
ATOM     81  S   UNL A   1      35.011  33.378  32.178  1.00  0.00     0.124 S 
ATOM     82  O   UNL A   1      35.584  34.471  31.402  1.00  0.00    -0.237 OA
ATOM     83  O   UNL A   1      34.513  32.241  31.403  1.00  0.00    -0.237 OA
ATOM     84  O   UNL A   1      34.184  33.774  33.314  1.00  0.00    -0.744 OA
ENDBRANCH  80  81
ENDBRANCH  52  75
BRANCH  64  85
ATOM     85  C   UNL A   1      44.021  26.486  34.458  1.00  0.00    -0.014 A 
ATOM     86  C   UNL A   1      43.549  25.164  34.429  1.00  0.00     0.010 A 
ATOM     87  C   UNL A   1      45.155  26.737  35.271  1.00  0.00     0.010 A 
ATOM     88  C   UNL A   1      44.144  24.160  35.211  1.00  0.00     0.020 A 
ATOM     89  C   UNL A   1      45.784  25.735  36.015  1.00  0.00     0.020 A 
ATOM     90  C   UNL A   1      45.256  24.453  36.001  1.00  0.00     0.054 A 
BRANCH  90  91
ATOM     91  S   UNL A   1      46.056  23.141  36.959  1.00  0.00     0.124 S 
ATOM     92  O   UNL A   1      45.421  21.943  36.417  1.00  0.00    -0.237 OA
ATOM     93  O   UNL A   1      47.469  23.306  36.626  1.00  0.00    -0.237 OA
ATOM     94  O   UNL A   1      45.708  23.467  38.340  1.00  0.00    -0.744 OA
ENDBRANCH  90  91
ENDBRANCH  64  85
ENDBRANCH  38  39
ENDBRANCH  30  33
ENDBRANCH  28  29
ENDBRANCH  27  28
ENDBRANCH   1  27
TORSDOF 17
ENDMDL
MODEL 3
REMARK VINA RESULT:     -12.0      1.701      2.477
REMARK SMILES Cc1cccc(OCC(=O)Nc2cc(C(=O)NCCCNC(=O)c3ccc(-c4c5nc(c(-c6ccc(S(=O)(=O)[O-])cc6)c6ccc([nH]6)c(-c6ccc(S(=O)(=O)[O-])cc6)c6nc(c(-c7ccc(S(=O)(=O)[O-])cc7)c7ccc4[nH]7)C=C6)C=C5)cc3)c(Cl)cc2Cl)c1
REMARK SMILES IDX 18 1 17 2 15 3 16 4 14 6 12 7 13 8 87 9 86 10 88 11 84 12
REMARK SMILES IDX 85 13 11 14 9 15 10 16 8 18 7 19 6 20 1 21 2 22 3 23 89 24
REMARK SMILES IDX 4 25 5 26 19 27 20 28 21 29 22 30 23 32 24 33 25 34 83 35
REMARK SMILES IDX 26 36 82 37 27 38 28 39 29 40 76 41 30 42 81 43 75 44 77 45
REMARK SMILES IDX 31 46 80 47 74 48 73 49 32 51 62 52 43 53 61 54 44 55 47 56
REMARK SMILES IDX 60 57 78 58 45 59 46 60 59 62 79 63 48 64 33 65 34 66 42 67
REMARK SMILES IDX 35 68 41 69 36 70 37 71 38 72 39 73 40 74 63 75 64 76 72 77
REMARK SMILES IDX 65 78 71 79 66 80 67 81 68 82 69 83 70 84 49 85 50 86 58 87
REMARK SMILES IDX 51 88 57 89 52 90 53 91 54 92 55 93 56 94
REMARK H PARENT 17 5 11 17 21 31 77 50 47 61
REMARK Flexibility Score: inf
ROOT
ATOM      1  C   UNL A   1      33.950  29.448  26.649  1.00  0.00     0.118 C 
ENDROOT
BRANCH   1   2
ATOM      2  N   UNL A   1      32.668  29.000  27.157  1.00  0.00    -0.352 N 
ATOM      3  C   UNL A   1      32.008  27.814  26.943  1.00  0.00     0.252 C 
ATOM      4  O   UNL A   1      31.027  27.545  27.631  1.00  0.00    -0.269 OA
ATOM      5  H   UNL A   1      32.203  29.640  27.741  1.00  0.00     0.163 HD
BRANCH   3   6
ATOM      6  C   UNL A   1      32.434  26.852  25.886  1.00  0.00     0.060 A 
ATOM      7  C   UNL A   1      33.806  24.963  25.145  1.00  0.00     0.061 A 
ATOM      8  C   UNL A   1      33.389  25.838  26.154  1.00  0.00     0.043 A 
ATOM      9  C   UNL A   1      33.170  25.054  23.886  1.00  0.00     0.066 A 
ATOM     10  C   UNL A   1      32.186  26.006  23.627  1.00  0.00     0.044 A 
ATOM     11  Cl  UNL A   1      33.585  23.975  22.590  1.00  0.00    -0.082 Cl
ATOM     12  C   UNL A   1      31.832  26.920  24.617  1.00  0.00     0.055 A 
ATOM     13  Cl  UNL A   1      30.682  28.127  24.153  1.00  0.00    -0.083 Cl
BRANCH   7  14
ATOM     14  N   UNL A   1      34.848  24.014  25.240  1.00  0.00    -0.322 N 
ATOM     15  C   UNL A   1      35.063  22.804  25.818  1.00  0.00     0.262 C 
ATOM     16  O   UNL A   1      36.204  22.335  25.698  1.00  0.00    -0.271 OA
ATOM     17  H   UNL A   1      35.645  24.316  24.746  1.00  0.00     0.170 HD
BRANCH  15  18
ATOM     18  C   UNL A   1      33.980  21.990  26.507  1.00  0.00     0.329 C 
BRANCH  18  19
ATOM     19  O   UNL A   1      32.818  21.747  25.751  1.00  0.00    -0.484 OA
BRANCH  19  20
ATOM     20  C   UNL A   1      32.694  20.577  25.061  1.00  0.00     0.120 A 
ATOM     21  C   UNL A   1      32.798  16.773  25.053  1.00  0.00     0.044 C 
ATOM     22  C   UNL A   1      32.626  18.195  24.623  1.00  0.00    -0.047 A 
ATOM     23  C   UNL A   1      32.344  18.438  23.273  1.00  0.00     0.003 A 
ATOM     24  C   UNL A   1      32.795  19.272  25.523  1.00  0.00     0.049 A 
ATOM     25  C   UNL A   1      32.253  19.735  22.816  1.00  0.00     0.004 A 
ATOM     26  C   UNL A   1      32.454  20.776  23.711  1.00  0.00     0.046 A 
ENDBRANCH  19  20
ENDBRANCH  18  19
ENDBRANCH  15  18
ENDBRANCH   7  14
ENDBRANCH   3   6
ENDBRANCH   1   2
BRANCH   1  27
ATOM     27  C   UNL A   1      34.884  30.035  27.709  1.00  0.00     0.042 C 
BRANCH  27  28
ATOM     28  C   UNL A   1      34.997  31.569  27.651  1.00  0.00     0.118 C 
BRANCH  28  29
ATOM     29  N   UNL A   1      36.246  32.080  28.247  1.00  0.00    -0.352 N 
ATOM     30  C   UNL A   1      37.370  31.445  28.762  1.00  0.00     0.251 C 
ATOM     31  H   UNL A   1      36.292  33.062  28.288  1.00  0.00     0.163 HD
ATOM     32  O   UNL A   1      38.231  32.018  29.408  1.00  0.00    -0.269 OA
BRANCH  30  33
ATOM     33  C   UNL A   1      37.567  30.036  28.414  1.00  0.00     0.039 A 
ATOM     34  C   UNL A   1      37.458  29.169  29.509  1.00  0.00     0.014 A 
ATOM     35  C   UNL A   1      38.340  29.744  27.300  1.00  0.00     0.014 A 
ATOM     36  C   UNL A   1      38.415  28.185  29.664  1.00  0.00     0.010 A 
ATOM     37  C   UNL A   1      39.315  28.786  27.473  1.00  0.00     0.010 A 
ATOM     38  C   UNL A   1      39.428  28.123  28.714  1.00  0.00    -0.014 A 
BRANCH  38  39
ATOM     39  C   UNL A   1      40.761  27.621  29.029  1.00  0.00     0.031 A 
ATOM     40  C   UNL A   1      41.107  26.229  28.686  1.00  0.00     0.074 A 
ATOM     41  C   UNL A   1      41.727  28.467  29.466  1.00  0.00     0.049 A 
ATOM     42  N   UNL A   1      42.147  25.610  29.129  1.00  0.00    -0.248 NA
ATOM     43  C   UNL A   1      40.248  25.389  27.859  1.00  0.00     0.031 C 
ATOM     44  C   UNL A   1      43.171  28.237  29.403  1.00  0.00     0.029 A 
ATOM     45  N   UNL A   1      41.621  29.633  30.232  1.00  0.00    -0.354 N 
ATOM     46  C   UNL A   1      42.272  24.452  28.401  1.00  0.00     0.074 A 
ATOM     47  C   UNL A   1      41.011  24.303  27.721  1.00  0.00     0.031 C 
ATOM     48  C   UNL A   1      43.774  29.005  30.321  1.00  0.00     0.029 A 
ATOM     49  C   UNL A   1      42.731  29.650  31.096  1.00  0.00     0.049 A 
ATOM     50  H   UNL A   1      40.907  30.311  30.178  1.00  0.00     0.167 HD
ATOM     51  C   UNL A   1      43.487  23.837  28.349  1.00  0.00     0.031 A 
ATOM     52  C   UNL A   1      42.663  29.659  32.461  1.00  0.00     0.031 A 
ATOM     53  C   UNL A   1      44.420  24.406  29.323  1.00  0.00     0.049 A 
ATOM     54  C   UNL A   1      43.354  28.477  33.109  1.00  0.00     0.074 A 
ATOM     55  C   UNL A   1      45.521  25.240  29.234  1.00  0.00     0.029 A 
ATOM     56  N   UNL A   1      44.092  24.336  30.672  1.00  0.00    -0.354 N 
ATOM     57  N   UNL A   1      43.842  27.468  32.444  1.00  0.00    -0.248 NA
ATOM     58  C   UNL A   1      43.483  28.295  34.554  1.00  0.00     0.031 C 
ATOM     59  C   UNL A   1      45.803  25.736  30.538  1.00  0.00     0.029 A 
ATOM     60  C   UNL A   1      44.893  25.177  31.419  1.00  0.00     0.049 A 
ATOM     61  H   UNL A   1      43.382  23.765  31.046  1.00  0.00     0.167 HD
ATOM     62  C   UNL A   1      44.257  26.492  33.311  1.00  0.00     0.074 A 
ATOM     63  C   UNL A   1      44.053  27.077  34.624  1.00  0.00     0.031 C 
ATOM     64  C   UNL A   1      44.686  25.276  32.861  1.00  0.00     0.031 A 
BRANCH  51  65
ATOM     65  C   UNL A   1      43.902  22.874  27.254  1.00  0.00    -0.014 A 
ATOM     66  C   UNL A   1      43.000  21.881  26.821  1.00  0.00     0.010 A 
ATOM     67  C   UNL A   1      45.181  22.832  26.668  1.00  0.00     0.010 A 
ATOM     68  C   UNL A   1      43.374  20.878  25.908  1.00  0.00     0.020 A 
ATOM     69  C   UNL A   1      45.574  21.837  25.765  1.00  0.00     0.020 A 
ATOM     70  C   UNL A   1      44.669  20.855  25.397  1.00  0.00     0.054 A 
BRANCH  70  71
ATOM     71  S   UNL A   1      45.164  19.538  24.259  1.00  0.00     0.124 S 
ATOM     72  O   UNL A   1      44.504  19.932  23.017  1.00  0.00    -0.237 OA
ATOM     73  O   UNL A   1      46.620  19.648  24.265  1.00  0.00    -0.237 OA
ATOM     74  O   UNL A   1      44.631  18.326  24.880  1.00  0.00    -0.744 OA
ENDBRANCH  70  71
ENDBRANCH  51  65
BRANCH  52  75
ATOM     75  C   UNL A   1      41.488  30.376  33.018  1.00  0.00    -0.014 A 
ATOM     76  C   UNL A   1      41.753  31.568  33.723  1.00  0.00     0.010 A 
ATOM     77  C   UNL A   1      40.209  30.166  32.474  1.00  0.00     0.010 A 
ATOM     78  C   UNL A   1      40.834  32.616  33.698  1.00  0.00     0.020 A 
ATOM     79  C   UNL A   1      39.287  31.221  32.444  1.00  0.00     0.020 A 
ATOM     80  C   UNL A   1      39.643  32.458  32.989  1.00  0.00     0.054 A 
BRANCH  80  81
ATOM     81  S   UNL A   1      38.724  33.967  32.558  1.00  0.00     0.124 S 
ATOM     82  O   UNL A   1      38.941  34.810  33.727  1.00  0.00    -0.237 OA
ATOM     83  O   UNL A   1      39.415  34.382  31.337  1.00  0.00    -0.237 OA
ATOM     84  O   UNL A   1      37.360  33.481  32.374  1.00  0.00    -0.744 OA
ENDBRANCH  80  81
ENDBRANCH  52  75
BRANCH  64  85
ATOM     85  C   UNL A   1      44.973  24.051  33.705  1.00  0.00    -0.014 A 
ATOM     86  C   UNL A   1      43.997  23.263  34.332  1.00  0.00     0.010 A 
ATOM     87  C   UNL A   1      46.309  23.581  33.775  1.00  0.00     0.010 A 
ATOM     88  C   UNL A   1      44.341  22.098  35.038  1.00  0.00     0.020 A 
ATOM     89  C   UNL A   1      46.657  22.398  34.432  1.00  0.00     0.020 A 
ATOM     90  C   UNL A   1      45.670  21.675  35.086  1.00  0.00     0.054 A 
BRANCH  90  91
ATOM     91  S   UNL A   1      46.100  20.140  35.945  1.00  0.00     0.124 S 
ATOM     92  O   UNL A   1      47.555  20.123  35.818  1.00  0.00    -0.237 OA
ATOM     93  O   UNL A   1      45.593  20.366  37.297  1.00  0.00    -0.237 OA
ATOM     94  O   UNL A   1      45.390  19.114  35.186  1.00  0.00    -0.744 OA
ENDBRANCH  90  91
ENDBRANCH  64  85
ENDBRANCH  38  39
ENDBRANCH  30  33
ENDBRANCH  28  29
ENDBRANCH  27  28
ENDBRANCH   1  27
TORSDOF 17
ENDMDL
