MODEL 1
REMARK VINA RESULT:     -11.4      0.000      0.000
REMARK SMILES COc1ccc(Nc2c(C(=O)NCCCNC(=O)c3ccc(-c4c5nc(c(-c6ccc(S(=O)(=O)[O-])cc6)c6ccc([nH]6)c(-c6ccc(S(=O)(=O)[O-])cc6)c6nc(c(-c7ccc(S(=O)(=O)[O-])cc7)c7ccc4[nH]7)C=C6)C=C5)cc3)[nH]c(=O)[nH]c2=O)cc1
REMARK SMILES IDX 14 1 13 2 12 3 10 4 11 5 9 7 8 8 83 9 79 10 82 11 84 12
REMARK SMILES IDX 80 13 81 16 7 17 6 19 3 20 4 21 86 22 5 23 85 24 2 25 1 26
REMARK SMILES IDX 15 27 16 28 17 29 18 31 19 32 20 33 78 34 21 35 77 36 22 37
REMARK SMILES IDX 23 38 24 39 71 40 25 41 76 42 70 43 72 44 26 45 75 46 69 47
REMARK SMILES IDX 68 48 27 50 57 51 38 52 56 53 39 54 42 55 55 56 73 57 40 58
REMARK SMILES IDX 41 59 54 61 74 62 43 63 28 64 29 65 37 66 30 67 36 68 31 69
REMARK SMILES IDX 32 70 33 71 34 72 35 73 58 74 59 75 67 76 60 77 66 78 61 79
REMARK SMILES IDX 62 80 63 81 64 82 65 83 44 84 45 85 53 86 46 87 52 88 47 89
REMARK SMILES IDX 48 90 49 91 50 92 51 93
REMARK H PARENT 12 6 79 14 82 15 7 18 16 30 72 49 42 60
REMARK Flexibility Score: inf
ROOT
ATOM      1  C   UNL A   1      32.516  27.507  26.198  1.00  0.00     0.042 C 
ENDROOT
BRANCH   1   2
ATOM      2  C   UNL A   1      32.591  26.001  26.121  1.00  0.00     0.118 C 
BRANCH   2   3
ATOM      3  N   UNL A   1      31.563  25.246  26.782  1.00  0.00    -0.351 N 
ATOM      4  C   UNL A   1      31.206  23.954  26.571  1.00  0.00     0.270 C 
ATOM      5  O   UNL A   1      30.260  23.520  27.245  1.00  0.00    -0.268 OA
ATOM      6  H   UNL A   1      31.055  25.725  27.475  1.00  0.00     0.163 HD
BRANCH   4   7
ATOM      7  C   UNL A   1      31.778  23.029  25.499  1.00  0.00     0.137 A 
ATOM      8  C   UNL A   1      31.477  22.910  24.182  1.00  0.00     0.134 A 
ATOM      9  C   UNL A   1      32.346  21.944  23.391  1.00  0.00     0.278 A 
ATOM     10  N   UNL A   1      32.801  22.268  26.045  1.00  0.00    -0.301 N 
ATOM     11  N   UNL A   1      33.243  21.184  24.081  1.00  0.00    -0.272 N 
ATOM     12  O   UNL A   1      32.278  21.854  22.168  1.00  0.00    -0.267 OA
ATOM     13  C   UNL A   1      33.536  21.341  25.390  1.00  0.00     0.326 A 
ATOM     14  H   UNL A   1      33.011  22.415  26.996  1.00  0.00     0.172 HD
ATOM     15  H   UNL A   1      33.713  20.471  23.589  1.00  0.00     0.175 HD
ATOM     16  O   UNL A   1      34.428  20.699  25.944  1.00  0.00    -0.248 OA
BRANCH   8  17
ATOM     17  N   UNL A   1      30.522  23.580  23.429  1.00  0.00    -0.349 N 
ATOM     18  H   UNL A   1      29.787  23.038  23.064  1.00  0.00     0.167 HD
BRANCH  17  19
ATOM     19  C   UNL A   1      30.498  24.968  23.133  1.00  0.00     0.039 A 
ATOM     20  C   UNL A   1      30.840  27.771  22.902  1.00  0.00     0.119 A 
ATOM     21  C   UNL A   1      29.791  27.246  23.652  1.00  0.00     0.048 A 
ATOM     22  C   UNL A   1      31.729  26.905  22.273  1.00  0.00     0.048 A 
ATOM     23  C   UNL A   1      29.621  25.861  23.767  1.00  0.00     0.030 A 
ATOM     24  C   UNL A   1      31.552  25.517  22.380  1.00  0.00     0.030 A 
BRANCH  20  25
ATOM     25  O   UNL A   1      30.940  29.134  22.912  1.00  0.00    -0.497 OA
ATOM     26  C   UNL A   1      29.804  29.827  23.419  1.00  0.00     0.278 C 
ENDBRANCH  20  25
ENDBRANCH  17  19
ENDBRANCH   8  17
ENDBRANCH   4   7
ENDBRANCH   2   3
ENDBRANCH   1   2
BRANCH   1  27
ATOM     27  C   UNL A   1      33.815  28.213  26.517  1.00  0.00     0.118 C 
BRANCH  27  28
ATOM     28  N   UNL A   1      33.652  29.558  27.056  1.00  0.00    -0.352 N 
ATOM     29  C   UNL A   1      34.463  30.394  27.790  1.00  0.00     0.251 C 
ATOM     30  H   UNL A   1      32.774  29.953  26.851  1.00  0.00     0.163 HD
ATOM     31  O   UNL A   1      33.978  31.451  28.194  1.00  0.00    -0.269 OA
BRANCH  29  32
ATOM     32  C   UNL A   1      35.866  30.057  28.146  1.00  0.00     0.039 A 
ATOM     33  C   UNL A   1      36.139  29.542  29.420  1.00  0.00     0.014 A 
ATOM     34  C   UNL A   1      36.931  30.274  27.278  1.00  0.00     0.014 A 
ATOM     35  C   UNL A   1      37.448  29.192  29.777  1.00  0.00     0.010 A 
ATOM     36  C   UNL A   1      38.195  29.771  27.566  1.00  0.00     0.010 A 
ATOM     37  C   UNL A   1      38.485  29.260  28.833  1.00  0.00    -0.014 A 
BRANCH  37  38
ATOM     38  C   UNL A   1      39.885  28.871  29.156  1.00  0.00     0.031 A 
ATOM     39  C   UNL A   1      40.801  29.851  29.857  1.00  0.00     0.074 A 
ATOM     40  C   UNL A   1      40.357  27.668  28.768  1.00  0.00     0.049 A 
ATOM     41  N   UNL A   1      42.070  29.730  30.153  1.00  0.00    -0.248 NA
ATOM     42  C   UNL A   1      40.227  31.155  30.239  1.00  0.00     0.031 C 
ATOM     43  C   UNL A   1      39.598  26.653  28.032  1.00  0.00     0.029 A 
ATOM     44  N   UNL A   1      41.591  27.094  28.940  1.00  0.00    -0.354 N 
ATOM     45  C   UNL A   1      42.444  30.943  30.723  1.00  0.00     0.074 A 
ATOM     46  C   UNL A   1      41.294  31.814  30.662  1.00  0.00     0.031 C 
ATOM     47  C   UNL A   1      40.364  25.563  27.865  1.00  0.00     0.029 A 
ATOM     48  C   UNL A   1      41.684  25.818  28.432  1.00  0.00     0.049 A 
ATOM     49  H   UNL A   1      42.341  27.551  29.385  1.00  0.00     0.167 HD
ATOM     50  C   UNL A   1      43.624  31.294  31.287  1.00  0.00     0.031 A 
ATOM     51  C   UNL A   1      42.715  24.951  28.425  1.00  0.00     0.031 A 
ATOM     52  C   UNL A   1      44.756  30.413  31.386  1.00  0.00     0.049 A 
ATOM     53  C   UNL A   1      44.016  25.362  29.060  1.00  0.00     0.074 A 
ATOM     54  C   UNL A   1      45.977  30.645  31.992  1.00  0.00     0.029 A 
ATOM     55  N   UNL A   1      44.799  29.126  30.873  1.00  0.00    -0.354 N 
ATOM     56  N   UNL A   1      44.325  26.491  29.654  1.00  0.00    -0.248 NA
ATOM     57  C   UNL A   1      45.104  24.376  29.034  1.00  0.00     0.031 C 
ATOM     58  C   UNL A   1      46.778  29.516  31.801  1.00  0.00     0.029 A 
ATOM     59  C   UNL A   1      46.034  28.557  31.131  1.00  0.00     0.049 A 
ATOM     60  H   UNL A   1      44.061  28.682  30.396  1.00  0.00     0.167 HD
ATOM     61  C   UNL A   1      45.634  26.338  30.098  1.00  0.00     0.074 A 
ATOM     62  C   UNL A   1      46.049  25.002  29.724  1.00  0.00     0.031 C 
ATOM     63  C   UNL A   1      46.424  27.223  30.753  1.00  0.00     0.031 A 
BRANCH  50  64
ATOM     64  C   UNL A   1      43.742  32.685  31.860  1.00  0.00    -0.014 A 
ATOM     65  C   UNL A   1      44.207  33.756  31.074  1.00  0.00     0.010 A 
ATOM     66  C   UNL A   1      43.344  32.936  33.185  1.00  0.00     0.010 A 
ATOM     67  C   UNL A   1      44.312  35.040  31.612  1.00  0.00     0.020 A 
ATOM     68  C   UNL A   1      43.415  34.228  33.719  1.00  0.00     0.020 A 
ATOM     69  C   UNL A   1      43.914  35.268  32.933  1.00  0.00     0.054 A 
BRANCH  69  70
ATOM     70  S   UNL A   1      44.027  36.954  33.592  1.00  0.00     0.124 S 
ATOM     71  O   UNL A   1      42.993  36.944  34.623  1.00  0.00    -0.237 OA
ATOM     72  O   UNL A   1      45.401  37.012  34.083  1.00  0.00    -0.237 OA
ATOM     73  O   UNL A   1      43.744  37.799  32.435  1.00  0.00    -0.744 OA
ENDBRANCH  69  70
ENDBRANCH  50  64
BRANCH  51  74
ATOM     74  C   UNL A   1      42.555  23.598  27.819  1.00  0.00    -0.014 A 
ATOM     75  C   UNL A   1      42.014  22.540  28.570  1.00  0.00     0.010 A 
ATOM     76  C   UNL A   1      42.950  23.358  26.490  1.00  0.00     0.010 A 
ATOM     77  C   UNL A   1      41.901  21.261  28.018  1.00  0.00     0.020 A 
ATOM     78  C   UNL A   1      42.808  22.088  25.922  1.00  0.00     0.020 A 
ATOM     79  C   UNL A   1      42.299  21.044  26.697  1.00  0.00     0.054 A 
BRANCH  79  80
ATOM     80  S   UNL A   1      42.115  19.382  25.991  1.00  0.00     0.124 S 
ATOM     81  O   UNL A   1      40.676  19.308  25.761  1.00  0.00    -0.237 OA
ATOM     82  O   UNL A   1      42.946  19.455  24.793  1.00  0.00    -0.237 OA
ATOM     83  O   UNL A   1      42.629  18.506  27.042  1.00  0.00    -0.744 OA
ENDBRANCH  79  80
ENDBRANCH  51  74
BRANCH  63  84
ATOM     84  C   UNL A   1      47.804  26.764  31.140  1.00  0.00    -0.014 A 
ATOM     85  C   UNL A   1      48.040  26.109  32.361  1.00  0.00     0.010 A 
ATOM     86  C   UNL A   1      48.872  26.947  30.242  1.00  0.00     0.010 A 
ATOM     87  C   UNL A   1      49.327  25.680  32.694  1.00  0.00     0.020 A 
ATOM     88  C   UNL A   1      50.153  26.490  30.556  1.00  0.00     0.020 A 
ATOM     89  C   UNL A   1      50.375  25.873  31.788  1.00  0.00     0.054 A 
BRANCH  89  90
ATOM     90  S   UNL A   1      52.028  25.271  32.229  1.00  0.00     0.124 S 
ATOM     91  O   UNL A   1      51.810  23.829  32.317  1.00  0.00    -0.237 OA
ATOM     92  O   UNL A   1      52.842  25.716  31.100  1.00  0.00    -0.237 OA
ATOM     93  O   UNL A   1      52.313  25.937  33.497  1.00  0.00    -0.744 OA
ENDBRANCH  89  90
ENDBRANCH  63  84
ENDBRANCH  37  38
ENDBRANCH  29  32
ENDBRANCH  27  28
ENDBRANCH   1  27
TORSDOF 16
ENDMDL
MODEL 2
REMARK VINA RESULT:     -11.1      6.145     11.464
REMARK SMILES COc1ccc(Nc2c(C(=O)NCCCNC(=O)c3ccc(-c4c5nc(c(-c6ccc(S(=O)(=O)[O-])cc6)c6ccc([nH]6)c(-c6ccc(S(=O)(=O)[O-])cc6)c6nc(c(-c7ccc(S(=O)(=O)[O-])cc7)c7ccc4[nH]7)C=C6)C=C5)cc3)[nH]c(=O)[nH]c2=O)cc1
REMARK SMILES IDX 14 1 13 2 12 3 10 4 11 5 9 7 8 8 83 9 79 10 82 11 84 12
REMARK SMILES IDX 80 13 81 16 7 17 6 19 3 20 4 21 86 22 5 23 85 24 2 25 1 26
REMARK SMILES IDX 15 27 16 28 17 29 18 31 19 32 20 33 78 34 21 35 77 36 22 37
REMARK SMILES IDX 23 38 24 39 71 40 25 41 76 42 70 43 72 44 26 45 75 46 69 47
REMARK SMILES IDX 68 48 27 50 57 51 38 52 56 53 39 54 42 55 55 56 73 57 40 58
REMARK SMILES IDX 41 59 54 61 74 62 43 63 28 64 29 65 37 66 30 67 36 68 31 69
REMARK SMILES IDX 32 70 33 71 34 72 35 73 58 74 59 75 67 76 60 77 66 78 61 79
REMARK SMILES IDX 62 80 63 81 64 82 65 83 44 84 45 85 53 86 46 87 52 88 47 89
REMARK SMILES IDX 48 90 49 91 50 92 51 93
REMARK H PARENT 12 6 79 14 82 15 7 18 16 30 72 49 42 60
REMARK Flexibility Score: inf
ROOT
ATOM      1  C   UNL A   1      43.719  25.544  25.219  1.00  0.00     0.042 C 
ENDROOT
BRANCH   1   2
ATOM      2  C   UNL A   1      43.737  24.122  24.709  1.00  0.00     0.118 C 
BRANCH   2   3
ATOM      3  N   UNL A   1      44.865  23.303  25.055  1.00  0.00    -0.351 N 
ATOM      4  C   UNL A   1      44.866  22.107  25.697  1.00  0.00     0.270 C 
ATOM      5  O   UNL A   1      45.973  21.593  25.916  1.00  0.00    -0.268 OA
ATOM      6  H   UNL A   1      45.747  23.651  24.793  1.00  0.00     0.163 HD
BRANCH   4   7
ATOM      7  C   UNL A   1      43.644  21.401  26.279  1.00  0.00     0.137 A 
ATOM      8  C   UNL A   1      42.664  21.860  27.096  1.00  0.00     0.134 A 
ATOM      9  C   UNL A   1      41.531  20.884  27.381  1.00  0.00     0.278 A 
ATOM     10  N   UNL A   1      43.584  20.104  25.790  1.00  0.00    -0.301 N 
ATOM     11  N   UNL A   1      41.659  19.608  26.921  1.00  0.00    -0.272 N 
ATOM     12  O   UNL A   1      40.513  21.221  27.980  1.00  0.00    -0.267 OA
ATOM     13  C   UNL A   1      42.638  19.186  26.090  1.00  0.00     0.326 A 
ATOM     14  H   UNL A   1      44.296  19.826  25.169  1.00  0.00     0.172 HD
ATOM     15  H   UNL A   1      40.990  18.947  27.213  1.00  0.00     0.175 HD
ATOM     16  O   UNL A   1      42.652  18.049  25.620  1.00  0.00    -0.248 OA
BRANCH   8  17
ATOM     17  N   UNL A   1      42.510  23.112  27.675  1.00  0.00    -0.349 N 
ATOM     18  H   UNL A   1      41.767  23.665  27.341  1.00  0.00     0.167 HD
BRANCH  17  19
ATOM     19  C   UNL A   1      43.314  23.677  28.699  1.00  0.00     0.039 A 
ATOM     20  C   UNL A   1      44.465  24.827  31.019  1.00  0.00     0.119 A 
ATOM     21  C   UNL A   1      44.172  25.615  29.909  1.00  0.00     0.048 A 
ATOM     22  C   UNL A   1      44.177  23.466  30.983  1.00  0.00     0.048 A 
ATOM     23  C   UNL A   1      43.604  25.049  28.762  1.00  0.00     0.030 A 
ATOM     24  C   UNL A   1      43.616  22.896  29.829  1.00  0.00     0.030 A 
BRANCH  20  25
ATOM     25  O   UNL A   1      44.961  25.501  32.099  1.00  0.00    -0.497 OA
ATOM     26  C   UNL A   1      45.002  24.762  33.315  1.00  0.00     0.278 C 
ENDBRANCH  20  25
ENDBRANCH  17  19
ENDBRANCH   8  17
ENDBRANCH   4   7
ENDBRANCH   2   3
ENDBRANCH   1   2
BRANCH   1  27
ATOM     27  C   UNL A   1      42.369  26.225  25.215  1.00  0.00     0.118 C 
BRANCH  27  28
ATOM     28  N   UNL A   1      41.243  25.331  25.463  1.00  0.00    -0.352 N 
ATOM     29  C   UNL A   1      40.317  25.225  26.475  1.00  0.00     0.251 C 
ATOM     30  H   UNL A   1      41.119  24.660  24.753  1.00  0.00     0.163 HD
ATOM     31  O   UNL A   1      39.542  24.269  26.442  1.00  0.00    -0.269 OA
BRANCH  29  32
ATOM     32  C   UNL A   1      40.243  26.180  27.611  1.00  0.00     0.039 A 
ATOM     33  C   UNL A   1      39.411  25.880  28.698  1.00  0.00     0.014 A 
ATOM     34  C   UNL A   1      40.935  27.386  27.623  1.00  0.00     0.014 A 
ATOM     35  C   UNL A   1      39.339  26.747  29.796  1.00  0.00     0.010 A 
ATOM     36  C   UNL A   1      40.997  28.158  28.777  1.00  0.00     0.010 A 
ATOM     37  C   UNL A   1      40.170  27.876  29.866  1.00  0.00    -0.014 A 
BRANCH  37  38
ATOM     38  C   UNL A   1      40.150  28.811  31.025  1.00  0.00     0.031 A 
ATOM     39  C   UNL A   1      39.162  29.956  31.057  1.00  0.00     0.074 A 
ATOM     40  C   UNL A   1      41.055  28.674  32.015  1.00  0.00     0.049 A 
ATOM     41  N   UNL A   1      39.040  30.919  31.936  1.00  0.00    -0.248 NA
ATOM     42  C   UNL A   1      38.210  30.058  29.935  1.00  0.00     0.031 C 
ATOM     43  C   UNL A   1      42.102  27.651  32.077  1.00  0.00     0.029 A 
ATOM     44  N   UNL A   1      41.240  29.402  33.165  1.00  0.00    -0.354 N 
ATOM     45  C   UNL A   1      38.028  31.745  31.456  1.00  0.00     0.074 A 
ATOM     46  C   UNL A   1      37.622  31.219  30.174  1.00  0.00     0.031 C 
ATOM     47  C   UNL A   1      42.781  27.782  33.228  1.00  0.00     0.029 A 
ATOM     48  C   UNL A   1      42.257  28.929  33.962  1.00  0.00     0.049 A 
ATOM     49  H   UNL A   1      40.696  30.188  33.397  1.00  0.00     0.167 HD
ATOM     50  C   UNL A   1      37.454  32.823  32.042  1.00  0.00     0.031 A 
ATOM     51  C   UNL A   1      42.715  29.368  35.150  1.00  0.00     0.031 A 
ATOM     52  C   UNL A   1      37.831  33.322  33.337  1.00  0.00     0.049 A 
ATOM     53  C   UNL A   1      42.061  30.567  35.785  1.00  0.00     0.074 A 
ATOM     54  C   UNL A   1      37.274  34.367  34.051  1.00  0.00     0.029 A 
ATOM     55  N   UNL A   1      38.854  32.802  34.115  1.00  0.00    -0.354 N 
ATOM     56  N   UNL A   1      41.059  31.291  35.343  1.00  0.00    -0.248 NA
ATOM     57  C   UNL A   1      42.591  30.998  37.084  1.00  0.00     0.031 C 
ATOM     58  C   UNL A   1      37.994  34.512  35.241  1.00  0.00     0.029 A 
ATOM     59  C   UNL A   1      38.959  33.518  35.295  1.00  0.00     0.049 A 
ATOM     60  H   UNL A   1      39.422  32.038  33.866  1.00  0.00     0.167 HD
ATOM     61  C   UNL A   1      40.822  32.246  36.325  1.00  0.00     0.074 A 
ATOM     62  C   UNL A   1      41.768  31.992  37.392  1.00  0.00     0.031 C 
ATOM     63  C   UNL A   1      39.906  33.245  36.345  1.00  0.00     0.031 A 
BRANCH  50  64
ATOM     64  C   UNL A   1      36.345  33.520  31.296  1.00  0.00    -0.014 A 
ATOM     65  C   UNL A   1      35.130  33.837  31.933  1.00  0.00     0.010 A 
ATOM     66  C   UNL A   1      36.531  33.905  29.957  1.00  0.00     0.010 A 
ATOM     67  C   UNL A   1      34.108  34.484  31.234  1.00  0.00     0.020 A 
ATOM     68  C   UNL A   1      35.524  34.584  29.262  1.00  0.00     0.020 A 
ATOM     69  C   UNL A   1      34.313  34.855  29.902  1.00  0.00     0.054 A 
BRANCH  69  70
ATOM     70  S   UNL A   1      32.981  35.726  29.033  1.00  0.00     0.124 S 
ATOM     71  O   UNL A   1      32.424  34.667  28.196  1.00  0.00    -0.237 OA
ATOM     72  O   UNL A   1      32.126  36.176  30.128  1.00  0.00    -0.237 OA
ATOM     73  O   UNL A   1      33.675  36.789  28.310  1.00  0.00    -0.744 OA
ENDBRANCH  69  70
ENDBRANCH  50  64
BRANCH  51  74
ATOM     74  C   UNL A   1      43.836  28.661  35.833  1.00  0.00    -0.014 A 
ATOM     75  C   UNL A   1      43.577  27.572  36.685  1.00  0.00     0.010 A 
ATOM     76  C   UNL A   1      45.166  29.074  35.641  1.00  0.00     0.010 A 
ATOM     77  C   UNL A   1      44.621  26.933  37.358  1.00  0.00     0.020 A 
ATOM     78  C   UNL A   1      46.218  28.416  36.287  1.00  0.00     0.020 A 
ATOM     79  C   UNL A   1      45.936  27.359  37.154  1.00  0.00     0.054 A 
BRANCH  79  80
ATOM     80  S   UNL A   1      47.278  26.494  38.015  1.00  0.00     0.124 S 
ATOM     81  O   UNL A   1      47.504  25.343  37.147  1.00  0.00    -0.237 OA
ATOM     82  O   UNL A   1      48.341  27.496  38.028  1.00  0.00    -0.237 OA
ATOM     83  O   UNL A   1      46.704  26.190  39.325  1.00  0.00    -0.744 OA
ENDBRANCH  79  80
ENDBRANCH  51  74
BRANCH  63  84
ATOM     84  C   UNL A   1      39.858  34.116  37.571  1.00  0.00    -0.014 A 
ATOM     85  C   UNL A   1      40.547  35.342  37.622  1.00  0.00     0.010 A 
ATOM     86  C   UNL A   1      39.070  33.725  38.668  1.00  0.00     0.010 A 
ATOM     87  C   UNL A   1      40.478  36.141  38.766  1.00  0.00     0.020 A 
ATOM     88  C   UNL A   1      38.972  34.538  39.800  1.00  0.00     0.020 A 
ATOM     89  C   UNL A   1      39.690  35.733  39.847  1.00  0.00     0.054 A 
BRANCH  89  90
ATOM     90  S   UNL A   1      39.587  36.809  41.303  1.00  0.00     0.124 S 
ATOM     91  O   UNL A   1      40.987  36.910  41.704  1.00  0.00    -0.237 OA
ATOM     92  O   UNL A   1      38.999  38.030  40.757  1.00  0.00    -0.237 OA
ATOM     93  O   UNL A   1      38.727  36.067  42.222  1.00  0.00    -0.744 OA
ENDBRANCH  89  90
ENDBRANCH  63  84
ENDBRANCH  37  38
ENDBRANCH  29  32
ENDBRANCH  27  28
ENDBRANCH   1  27
TORSDOF 16
ENDMDL
MODEL 3
REMARK VINA RESULT:     -11.1      1.439      3.064
REMARK SMILES COc1ccc(Nc2c(C(=O)NCCCNC(=O)c3ccc(-c4c5nc(c(-c6ccc(S(=O)(=O)[O-])cc6)c6ccc([nH]6)c(-c6ccc(S(=O)(=O)[O-])cc6)c6nc(c(-c7ccc(S(=O)(=O)[O-])cc7)c7ccc4[nH]7)C=C6)C=C5)cc3)[nH]c(=O)[nH]c2=O)cc1
REMARK SMILES IDX 14 1 13 2 12 3 10 4 11 5 9 7 8 8 83 9 79 10 82 11 84 12
REMARK SMILES IDX 80 13 81 16 7 17 6 19 3 20 4 21 86 22 5 23 85 24 2 25 1 26
REMARK SMILES IDX 15 27 16 28 17 29 18 31 19 32 20 33 78 34 21 35 77 36 22 37
REMARK SMILES IDX 23 38 24 39 71 40 25 41 76 42 70 43 72 44 26 45 75 46 69 47
REMARK SMILES IDX 68 48 27 50 57 51 38 52 56 53 39 54 42 55 55 56 73 57 40 58
REMARK SMILES IDX 41 59 54 61 74 62 43 63 28 64 29 65 37 66 30 67 36 68 31 69
REMARK SMILES IDX 32 70 33 71 34 72 35 73 58 74 59 75 67 76 60 77 66 78 61 79
REMARK SMILES IDX 62 80 63 81 64 82 65 83 44 84 45 85 53 86 46 87 52 88 47 89
REMARK SMILES IDX 48 90 49 91 50 92 51 93
REMARK H PARENT 12 6 79 14 82 15 7 18 16 30 72 49 42 60
REMARK Flexibility Score: inf
ROOT
ATOM      1  C   UNL A   1      32.513  27.584  26.299  1.00  0.00     0.042 C 
ENDROOT
BRANCH   1   2
ATOM      2  C   UNL A   1      31.071  27.133  26.321  1.00  0.00     0.118 C 
BRANCH   2   3
ATOM      3  N   UNL A   1      30.810  25.725  26.223  1.00  0.00    -0.351 N 
ATOM      4  C   UNL A   1      31.030  24.904  25.164  1.00  0.00     0.270 C 
ATOM      5  O   UNL A   1      30.695  23.718  25.300  1.00  0.00    -0.268 OA
ATOM      6  H   UNL A   1      30.425  25.301  27.023  1.00  0.00     0.163 HD
BRANCH   4   7
ATOM      7  C   UNL A   1      31.534  25.331  23.788  1.00  0.00     0.137 A 
ATOM      8  C   UNL A   1      32.411  24.735  22.943  1.00  0.00     0.134 A 
ATOM      9  C   UNL A   1      32.587  25.408  21.590  1.00  0.00     0.278 A 
ATOM     10  N   UNL A   1      30.890  26.499  23.403  1.00  0.00    -0.301 N 
ATOM     11  N   UNL A   1      31.971  26.608  21.391  1.00  0.00    -0.272 N 
ATOM     12  O   UNL A   1      33.232  24.892  20.681  1.00  0.00    -0.267 OA
ATOM     13  C   UNL A   1      31.085  27.167  22.245  1.00  0.00     0.326 A 
ATOM     14  H   UNL A   1      30.233  26.876  24.032  1.00  0.00     0.172 HD
ATOM     15  H   UNL A   1      32.188  27.102  20.567  1.00  0.00     0.175 HD
ATOM     16  O   UNL A   1      30.479  28.203  21.973  1.00  0.00    -0.248 OA
BRANCH   8  17
ATOM     17  N   UNL A   1      33.141  23.565  23.108  1.00  0.00    -0.349 N 
ATOM     18  H   UNL A   1      32.792  22.760  22.661  1.00  0.00     0.167 HD
BRANCH  17  19
ATOM     19  C   UNL A   1      34.339  23.411  23.853  1.00  0.00     0.039 A 
ATOM     20  C   UNL A   1      36.788  23.628  25.262  1.00  0.00     0.119 A 
ATOM     21  C   UNL A   1      36.761  23.136  23.959  1.00  0.00     0.048 A 
ATOM     22  C   UNL A   1      35.597  24.023  25.865  1.00  0.00     0.048 A 
ATOM     23  C   UNL A   1      35.553  23.029  23.262  1.00  0.00     0.030 A 
ATOM     24  C   UNL A   1      34.384  23.906  25.169  1.00  0.00     0.030 A 
BRANCH  20  25
ATOM     25  O   UNL A   1      38.030  23.742  25.818  1.00  0.00    -0.497 OA
ATOM     26  C   UNL A   1      38.710  22.514  26.056  1.00  0.00     0.278 C 
ENDBRANCH  20  25
ENDBRANCH  17  19
ENDBRANCH   8  17
ENDBRANCH   4   7
ENDBRANCH   2   3
ENDBRANCH   1   2
BRANCH   1  27
ATOM     27  C   UNL A   1      33.030  28.191  27.584  1.00  0.00     0.118 C 
BRANCH  27  28
ATOM     28  N   UNL A   1      33.137  29.645  27.562  1.00  0.00    -0.352 N 
ATOM     29  C   UNL A   1      34.159  30.528  27.827  1.00  0.00     0.251 C 
ATOM     30  H   UNL A   1      32.298  30.090  27.303  1.00  0.00     0.163 HD
ATOM     31  O   UNL A   1      33.890  31.730  27.825  1.00  0.00    -0.269 OA
BRANCH  29  32
ATOM     32  C   UNL A   1      35.542  30.096  28.151  1.00  0.00     0.039 A 
ATOM     33  C   UNL A   1      36.514  30.111  27.141  1.00  0.00     0.014 A 
ATOM     34  C   UNL A   1      35.907  29.632  29.410  1.00  0.00     0.014 A 
ATOM     35  C   UNL A   1      37.834  29.733  27.421  1.00  0.00     0.010 A 
ATOM     36  C   UNL A   1      37.243  29.422  29.731  1.00  0.00     0.010 A 
ATOM     37  C   UNL A   1      38.223  29.428  28.735  1.00  0.00    -0.014 A 
BRANCH  37  38
ATOM     38  C   UNL A   1      39.619  29.050  29.086  1.00  0.00     0.031 A 
ATOM     39  C   UNL A   1      40.519  30.044  29.786  1.00  0.00     0.074 A 
ATOM     40  C   UNL A   1      40.101  27.844  28.724  1.00  0.00     0.049 A 
ATOM     41  N   UNL A   1      41.783  29.934  30.105  1.00  0.00    -0.248 NA
ATOM     42  C   UNL A   1      39.933  31.352  30.139  1.00  0.00     0.031 C 
ATOM     43  C   UNL A   1      39.359  26.814  27.991  1.00  0.00     0.029 A 
ATOM     44  N   UNL A   1      41.336  27.277  28.925  1.00  0.00    -0.354 N 
ATOM     45  C   UNL A   1      42.143  31.157  30.662  1.00  0.00     0.074 A 
ATOM     46  C   UNL A   1      40.991  32.022  30.569  1.00  0.00     0.031 C 
ATOM     47  C   UNL A   1      40.133  25.725  27.853  1.00  0.00     0.029 A 
ATOM     48  C   UNL A   1      41.442  25.994  28.438  1.00  0.00     0.049 A 
ATOM     49  H   UNL A   1      42.076  27.744  29.374  1.00  0.00     0.167 HD
ATOM     50  C   UNL A   1      43.313  31.522  31.240  1.00  0.00     0.031 A 
ATOM     51  C   UNL A   1      42.476  25.132  28.461  1.00  0.00     0.031 A 
ATOM     52  C   UNL A   1      44.446  30.648  31.370  1.00  0.00     0.049 A 
ATOM     53  C   UNL A   1      43.766  25.558  29.110  1.00  0.00     0.074 A 
ATOM     54  C   UNL A   1      45.656  30.894  31.992  1.00  0.00     0.029 A 
ATOM     55  N   UNL A   1      44.503  29.354  30.878  1.00  0.00    -0.354 N 
ATOM     56  N   UNL A   1      44.060  26.698  29.691  1.00  0.00    -0.248 NA
ATOM     57  C   UNL A   1      44.859  24.577  29.117  1.00  0.00     0.031 C 
ATOM     58  C   UNL A   1      46.465  29.766  31.832  1.00  0.00     0.029 A 
ATOM     59  C   UNL A   1      45.736  28.794  31.164  1.00  0.00     0.049 A 
ATOM     60  H   UNL A   1      43.775  28.899  30.396  1.00  0.00     0.167 HD
ATOM     61  C   UNL A   1      45.362  26.558  30.158  1.00  0.00     0.074 A 
ATOM     62  C   UNL A   1      45.789  25.218  29.812  1.00  0.00     0.031 C 
ATOM     63  C   UNL A   1      46.138  27.457  30.813  1.00  0.00     0.031 A 
BRANCH  50  64
ATOM     64  C   UNL A   1      43.415  32.922  31.793  1.00  0.00    -0.014 A 
ATOM     65  C   UNL A   1      43.045  33.206  33.121  1.00  0.00     0.010 A 
ATOM     66  C   UNL A   1      43.929  33.958  30.994  1.00  0.00     0.010 A 
ATOM     67  C   UNL A   1      43.145  34.505  33.625  1.00  0.00     0.020 A 
ATOM     68  C   UNL A   1      44.063  35.255  31.504  1.00  0.00     0.020 A 
ATOM     69  C   UNL A   1      43.655  35.522  32.813  1.00  0.00     0.054 A 
BRANCH  69  70
ATOM     70  S   UNL A   1      43.806  37.190  33.507  1.00  0.00     0.124 S 
ATOM     71  O   UNL A   1      42.613  37.276  34.345  1.00  0.00    -0.237 OA
ATOM     72  O   UNL A   1      45.075  37.122  34.227  1.00  0.00    -0.237 OA
ATOM     73  O   UNL A   1      43.805  38.057  32.332  1.00  0.00    -0.744 OA
ENDBRANCH  69  70
ENDBRANCH  50  64
BRANCH  51  74
ATOM     74  C   UNL A   1      42.333  23.770  27.872  1.00  0.00    -0.014 A 
ATOM     75  C   UNL A   1      41.971  22.679  28.682  1.00  0.00     0.010 A 
ATOM     76  C   UNL A   1      42.564  23.553  26.502  1.00  0.00     0.010 A 
ATOM     77  C   UNL A   1      41.875  21.393  28.142  1.00  0.00     0.020 A 
ATOM     78  C   UNL A   1      42.437  22.274  25.950  1.00  0.00     0.020 A 
ATOM     79  C   UNL A   1      42.109  21.200  26.779  1.00  0.00     0.054 A 
BRANCH  79  80
ATOM     80  S   UNL A   1      41.949  19.527  26.094  1.00  0.00     0.124 S 
ATOM     81  O   UNL A   1      42.426  18.701  27.198  1.00  0.00    -0.237 OA
ATOM     82  O   UNL A   1      40.519  19.440  25.807  1.00  0.00    -0.237 OA
ATOM     83  O   UNL A   1      42.811  19.557  24.914  1.00  0.00    -0.744 OA
ENDBRANCH  79  80
ENDBRANCH  51  74
BRANCH  63  84
ATOM     84  C   UNL A   1      47.514  27.010  31.229  1.00  0.00    -0.014 A 
ATOM     85  C   UNL A   1      47.785  26.619  32.552  1.00  0.00     0.010 A 
ATOM     86  C   UNL A   1      48.537  26.932  30.266  1.00  0.00     0.010 A 
ATOM     87  C   UNL A   1      49.067  26.195  32.913  1.00  0.00     0.020 A 
ATOM     88  C   UNL A   1      49.810  26.477  30.616  1.00  0.00     0.020 A 
ATOM     89  C   UNL A   1      50.071  26.127  31.941  1.00  0.00     0.054 A 
BRANCH  89  90
ATOM     90  S   UNL A   1      51.714  25.535  32.428  1.00  0.00     0.124 S 
ATOM     91  O   UNL A   1      51.642  24.119  32.078  1.00  0.00    -0.237 OA
ATOM     92  O   UNL A   1      52.604  26.344  31.599  1.00  0.00    -0.237 OA
ATOM     93  O   UNL A   1      51.774  25.821  33.860  1.00  0.00    -0.744 OA
ENDBRANCH  89  90
ENDBRANCH  63  84
ENDBRANCH  37  38
ENDBRANCH  29  32
ENDBRANCH  27  28
ENDBRANCH   1  27
TORSDOF 16
ENDMDL
