MODEL 1
REMARK VINA RESULT:     -12.7      0.000      0.000
REMARK SMILES CC[C@@H](C)[C@H](NC(=O)[C@H](C)N1C(=O)N2CCC3=c4cc(OC)ccc4=N[C@H]3[C@@]2(C)C1=O)C(=O)NCCCNC(=O)c1ccc(-c2c3nc(c(-c4ccc(S(=O)(=O)[O-])cc4)c4ccc([nH]4)c(-c4ccc(S(=O)(=O)[O-])cc4)c4nc(c(-c5ccc(S(=O)(=O)[O-])cc5)c5ccc2[nH]5)C=C4)C=C3)cc1
REMARK SMILES IDX 35 1 34 2 32 3 33 4 5 6 3 7 4 8 2 9 1 10 6 11 7 12 8 14 9 15
REMARK SMILES IDX 10 16 11 17 12 18 30 19 14 20 13 21 28 22 31 23 15 24 27 25
REMARK SMILES IDX 29 26 16 27 17 28 26 29 18 30 25 31 19 32 24 33 20 34 23 35
REMARK SMILES IDX 21 36 22 37 36 38 37 39 38 40 39 41 40 43 41 44 42 45 100 46
REMARK SMILES IDX 43 47 99 48 44 49 45 50 46 51 93 52 47 53 98 54 92 55 94 56
REMARK SMILES IDX 48 57 97 58 91 59 90 60 49 62 79 63 60 64 78 65 61 66 64 67
REMARK SMILES IDX 77 68 95 69 62 70 63 71 76 73 96 74 65 75 50 76 51 77 59 78
REMARK SMILES IDX 52 79 58 80 53 81 54 82 55 83 56 84 57 85 80 86 81 87 89 88
REMARK SMILES IDX 82 89 88 90 83 91 84 92 85 93 86 94 87 95 66 96 67 97 75 98
REMARK SMILES IDX 68 99 74 100 69 101 70 102 71 103 72 104 73 105
REMARK H PARENT 34 5 6 13 38 42 94 61 64 72
REMARK Flexibility Score: inf
ROOT
ATOM      1  C   UNL A   1      37.784  20.071  24.909  1.00  0.00     0.117 C 
ENDROOT
BRANCH   1   2
ATOM      2  N   UNL A   1      36.448  19.489  24.978  1.00  0.00    -0.354 N 
ATOM      3  C   UNL A   1      35.371  20.389  24.984  1.00  0.00     0.242 C 
ATOM      4  O   UNL A   1      35.362  21.356  24.220  1.00  0.00    -0.273 OA
ATOM      5  H   UNL A   1      36.309  18.516  25.019  1.00  0.00     0.163 HD
BRANCH   3   6
ATOM      6  C   UNL A   1      34.164  20.062  25.910  1.00  0.00     0.174 C 
BRANCH   6   7
ATOM      7  C   UNL A   1      32.905  19.337  25.250  1.00  0.00     0.018 C 
ATOM      8  C   UNL A   1      32.766  17.883  25.727  1.00  0.00     0.010 C 
BRANCH   7   9
ATOM      9  C   UNL A   1      32.772  19.287  23.702  1.00  0.00     0.002 C 
ATOM     10  C   UNL A   1      32.173  20.587  23.138  1.00  0.00     0.004 C 
ENDBRANCH   7   9
ENDBRANCH   6   7
BRANCH   6  11
ATOM     11  N   UNL A   1      33.719  21.116  26.889  1.00  0.00    -0.342 N 
ATOM     12  C   UNL A   1      32.912  22.233  26.758  1.00  0.00     0.243 C 
ATOM     13  H   UNL A   1      34.071  20.985  27.800  1.00  0.00     0.164 HD
ATOM     14  O   UNL A   1      32.068  22.423  27.639  1.00  0.00    -0.273 OA
BRANCH  12  15
ATOM     15  C   UNL A   1      33.172  23.290  25.631  1.00  0.00     0.181 C 
ATOM     16  C   UNL A   1      34.247  24.227  26.187  1.00  0.00     0.042 C 
BRANCH  15  17
ATOM     17  N   UNL A   1      32.015  23.816  24.855  1.00  0.00    -0.250 N 
ATOM     18  C   UNL A   1      30.743  24.291  25.138  1.00  0.00     0.328 C 
ATOM     19  C   UNL A   1      32.382  24.440  23.725  1.00  0.00     0.259 C 
ATOM     20  N   UNL A   1      30.359  25.224  24.069  1.00  0.00    -0.307 N 
ATOM     21  O   UNL A   1      30.094  24.079  26.155  1.00  0.00    -0.248 OA
ATOM     22  C   UNL A   1      31.605  25.707  23.506  1.00  0.00     0.147 C 
ATOM     23  O   UNL A   1      33.217  23.971  22.970  1.00  0.00    -0.271 OA
ATOM     24  C   UNL A   1      29.285  26.320  24.063  1.00  0.00     0.127 C 
ATOM     25  C   UNL A   1      31.960  27.021  24.389  1.00  0.00     0.168 C 
ATOM     26  C   UNL A   1      31.449  25.931  21.996  1.00  0.00     0.048 C 
ATOM     27  C   UNL A   1      29.848  27.930  23.671  1.00  0.00     0.055 C 
ATOM     28  C   UNL A   1      31.423  28.310  23.869  1.00  0.00    -0.032 C 
ATOM     29  N   UNL A   1      32.056  27.354  25.865  1.00  0.00    -0.274 NA
ATOM     30  C   UNL A   1      31.952  29.319  24.643  1.00  0.00     0.005 A 
ATOM     31  C   UNL A   1      31.661  28.603  25.905  1.00  0.00     0.066 A 
ATOM     32  C   UNL A   1      33.409  29.717  24.988  1.00  0.00     0.056 A 
ATOM     33  C   UNL A   1      31.499  29.504  27.056  1.00  0.00     0.032 A 
ATOM     34  C   UNL A   1      33.706  30.041  26.298  1.00  0.00     0.119 A 
ATOM     35  C   UNL A   1      32.599  30.244  27.230  1.00  0.00     0.048 A 
BRANCH  34  36
ATOM     36  O   UNL A   1      34.976  29.990  26.856  1.00  0.00    -0.497 OA
ATOM     37  C   UNL A   1      35.061  29.656  28.266  1.00  0.00     0.278 C 
ENDBRANCH  34  36
ENDBRANCH  15  17
ENDBRANCH  12  15
ENDBRANCH   6  11
ENDBRANCH   3   6
ENDBRANCH   1   2
BRANCH   1  38
ATOM     38  C   UNL A   1      38.042  21.530  25.355  1.00  0.00     0.042 C 
BRANCH  38  39
ATOM     39  C   UNL A   1      39.188  21.857  26.369  1.00  0.00     0.118 C 
BRANCH  39  40
ATOM     40  N   UNL A   1      40.488  22.303  25.827  1.00  0.00    -0.352 N 
ATOM     41  C   UNL A   1      41.248  23.439  26.059  1.00  0.00     0.251 C 
ATOM     42  H   UNL A   1      40.889  21.679  25.180  1.00  0.00     0.163 HD
ATOM     43  O   UNL A   1      42.464  23.509  25.936  1.00  0.00    -0.269 OA
BRANCH  41  44
ATOM     44  C   UNL A   1      40.541  24.620  26.512  1.00  0.00     0.039 A 
ATOM     45  C   UNL A   1      41.038  25.824  26.044  1.00  0.00     0.014 A 
ATOM     46  C   UNL A   1      39.778  24.489  27.672  1.00  0.00     0.014 A 
ATOM     47  C   UNL A   1      41.127  26.829  26.961  1.00  0.00     0.010 A 
ATOM     48  C   UNL A   1      39.708  25.578  28.515  1.00  0.00     0.010 A 
ATOM     49  C   UNL A   1      40.489  26.700  28.206  1.00  0.00    -0.014 A 
BRANCH  49  50
ATOM     50  C   UNL A   1      40.734  27.735  29.210  1.00  0.00     0.031 A 
ATOM     51  C   UNL A   1      41.950  27.649  30.081  1.00  0.00     0.074 A 
ATOM     52  C   UNL A   1      39.877  28.768  29.228  1.00  0.00     0.049 A 
ATOM     53  N   UNL A   1      42.235  28.362  31.134  1.00  0.00    -0.248 NA
ATOM     54  C   UNL A   1      42.974  26.634  29.753  1.00  0.00     0.031 C 
ATOM     55  C   UNL A   1      38.724  28.917  28.327  1.00  0.00     0.029 A 
ATOM     56  N   UNL A   1      39.843  29.890  29.998  1.00  0.00    -0.354 N 
ATOM     57  C   UNL A   1      43.428  27.848  31.627  1.00  0.00     0.074 A 
ATOM     58  C   UNL A   1      43.835  26.774  30.755  1.00  0.00     0.031 C 
ATOM     59  C   UNL A   1      38.134  30.091  28.558  1.00  0.00     0.029 A 
ATOM     60  C   UNL A   1      38.760  30.686  29.727  1.00  0.00     0.049 A 
ATOM     61  H   UNL A   1      40.522  30.106  30.678  1.00  0.00     0.167 HD
ATOM     62  C   UNL A   1      44.091  28.257  32.732  1.00  0.00     0.031 A 
ATOM     63  C   UNL A   1      38.256  31.724  30.413  1.00  0.00     0.031 A 
ATOM     64  C   UNL A   1      43.630  29.360  33.534  1.00  0.00     0.049 A 
ATOM     65  C   UNL A   1      38.971  32.112  31.662  1.00  0.00     0.074 A 
ATOM     66  C   UNL A   1      44.192  29.881  34.683  1.00  0.00     0.029 A 
ATOM     67  N   UNL A   1      42.499  30.119  33.254  1.00  0.00    -0.354 N 
ATOM     68  N   UNL A   1      40.055  31.575  32.174  1.00  0.00    -0.248 NA
ATOM     69  C   UNL A   1      38.404  33.212  32.439  1.00  0.00     0.031 C 
ATOM     70  C   UNL A   1      43.373  30.922  35.123  1.00  0.00     0.029 A 
ATOM     71  C   UNL A   1      42.335  31.094  34.216  1.00  0.00     0.049 A 
ATOM     72  H   UNL A   1      41.902  29.981  32.482  1.00  0.00     0.167 HD
ATOM     73  C   UNL A   1      40.298  32.265  33.347  1.00  0.00     0.074 A 
ATOM     74  C   UNL A   1      39.262  33.279  33.451  1.00  0.00     0.031 C 
ATOM     75  C   UNL A   1      41.279  32.075  34.261  1.00  0.00     0.031 A 
BRANCH  62  76
ATOM     76  C   UNL A   1      45.342  27.539  33.163  1.00  0.00    -0.014 A 
ATOM     77  C   UNL A   1      46.576  27.902  32.590  1.00  0.00     0.010 A 
ATOM     78  C   UNL A   1      45.284  26.405  33.991  1.00  0.00     0.010 A 
ATOM     79  C   UNL A   1      47.713  27.110  32.781  1.00  0.00     0.020 A 
ATOM     80  C   UNL A   1      46.425  25.622  34.203  1.00  0.00     0.020 A 
ATOM     81  C   UNL A   1      47.623  25.960  33.568  1.00  0.00     0.054 A 
BRANCH  81  82
ATOM     82  S   UNL A   1      49.082  24.889  33.719  1.00  0.00     0.124 S 
ATOM     83  O   UNL A   1      49.631  24.924  32.367  1.00  0.00    -0.237 OA
ATOM     84  O   UNL A   1      49.875  25.570  34.739  1.00  0.00    -0.237 OA
ATOM     85  O   UNL A   1      48.520  23.604  34.132  1.00  0.00    -0.744 OA
ENDBRANCH  81  82
ENDBRANCH  62  76
BRANCH  63  86
ATOM     86  C   UNL A   1      36.985  32.326  29.942  1.00  0.00    -0.014 A 
ATOM     87  C   UNL A   1      37.016  33.323  28.941  1.00  0.00     0.010 A 
ATOM     88  C   UNL A   1      35.785  32.079  30.623  1.00  0.00     0.010 A 
ATOM     89  C   UNL A   1      35.896  34.116  28.693  1.00  0.00     0.020 A 
ATOM     90  C   UNL A   1      34.650  32.850  30.351  1.00  0.00     0.020 A 
ATOM     91  C   UNL A   1      34.725  33.888  29.416  1.00  0.00     0.054 A 
BRANCH  91  92
ATOM     92  S   UNL A   1      33.302  34.981  29.146  1.00  0.00     0.124 S 
ATOM     93  O   UNL A   1      33.951  36.198  28.665  1.00  0.00    -0.237 OA
ATOM     94  O   UNL A   1      32.517  34.252  28.155  1.00  0.00    -0.237 OA
ATOM     95  O   UNL A   1      32.695  35.077  30.471  1.00  0.00    -0.744 OA
ENDBRANCH  91  92
ENDBRANCH  63  86
BRANCH  75  96
ATOM     96  C   UNL A   1      41.277  32.980  35.453  1.00  0.00    -0.014 A 
ATOM     97  C   UNL A   1      40.548  32.611  36.596  1.00  0.00     0.010 A 
ATOM     98  C   UNL A   1      41.859  34.256  35.370  1.00  0.00     0.010 A 
ATOM     99  C   UNL A   1      40.356  33.529  37.625  1.00  0.00     0.020 A 
ATOM    100  C   UNL A   1      41.690  35.166  36.411  1.00  0.00     0.020 A 
ATOM    101  C   UNL A   1      40.914  34.806  37.518  1.00  0.00     0.054 A 
BRANCH 101 102
ATOM    102  S   UNL A   1      40.599  36.005  38.836  1.00  0.00     0.124 S 
ATOM    103  O   UNL A   1      41.948  36.282  39.324  1.00  0.00    -0.237 OA
ATOM    104  O   UNL A   1      39.950  37.102  38.122  1.00  0.00    -0.237 OA
ATOM    105  O   UNL A   1      39.735  35.276  39.762  1.00  0.00    -0.744 OA
ENDBRANCH 101 102
ENDBRANCH  75  96
ENDBRANCH  49  50
ENDBRANCH  41  44
ENDBRANCH  39  40
ENDBRANCH  38  39
ENDBRANCH   1  38
TORSDOF 19
ENDMDL
MODEL 2
REMARK VINA RESULT:     -11.3      5.091      6.619
REMARK SMILES CC[C@@H](C)[C@H](NC(=O)[C@H](C)N1C(=O)N2CCC3=c4cc(OC)ccc4=N[C@H]3[C@@]2(C)C1=O)C(=O)NCCCNC(=O)c1ccc(-c2c3nc(c(-c4ccc(S(=O)(=O)[O-])cc4)c4ccc([nH]4)c(-c4ccc(S(=O)(=O)[O-])cc4)c4nc(c(-c5ccc(S(=O)(=O)[O-])cc5)c5ccc2[nH]5)C=C4)C=C3)cc1
REMARK SMILES IDX 35 1 34 2 32 3 33 4 5 6 3 7 4 8 2 9 1 10 6 11 7 12 8 14 9 15
REMARK SMILES IDX 10 16 11 17 12 18 30 19 14 20 13 21 28 22 31 23 15 24 27 25
REMARK SMILES IDX 29 26 16 27 17 28 26 29 18 30 25 31 19 32 24 33 20 34 23 35
REMARK SMILES IDX 21 36 22 37 36 38 37 39 38 40 39 41 40 43 41 44 42 45 100 46
REMARK SMILES IDX 43 47 99 48 44 49 45 50 46 51 93 52 47 53 98 54 92 55 94 56
REMARK SMILES IDX 48 57 97 58 91 59 90 60 49 62 79 63 60 64 78 65 61 66 64 67
REMARK SMILES IDX 77 68 95 69 62 70 63 71 76 73 96 74 65 75 50 76 51 77 59 78
REMARK SMILES IDX 52 79 58 80 53 81 54 82 55 83 56 84 57 85 80 86 81 87 89 88
REMARK SMILES IDX 82 89 88 90 83 91 84 92 85 93 86 94 87 95 66 96 67 97 75 98
REMARK SMILES IDX 68 99 74 100 69 101 70 102 71 103 72 104 73 105
REMARK H PARENT 34 5 6 13 38 42 94 61 64 72
REMARK Flexibility Score: inf
ROOT
ATOM      1  C   UNL A   1      36.792  21.685  25.478  1.00  0.00     0.117 C 
ENDROOT
BRANCH   1   2
ATOM      2  N   UNL A   1      35.493  21.875  24.840  1.00  0.00    -0.354 N 
ATOM      3  C   UNL A   1      34.365  21.535  25.603  1.00  0.00     0.242 C 
ATOM      4  O   UNL A   1      34.294  21.858  26.790  1.00  0.00    -0.273 OA
ATOM      5  H   UNL A   1      35.413  22.222  23.923  1.00  0.00     0.163 HD
BRANCH   3   6
ATOM      6  C   UNL A   1      33.185  20.834  24.870  1.00  0.00     0.174 C 
BRANCH   6   7
ATOM      7  C   UNL A   1      33.306  19.263  24.616  1.00  0.00     0.018 C 
ATOM      8  C   UNL A   1      32.528  18.823  23.366  1.00  0.00     0.010 C 
BRANCH   7   9
ATOM      9  C   UNL A   1      32.897  18.270  25.739  1.00  0.00     0.002 C 
ATOM     10  C   UNL A   1      33.430  16.852  25.469  1.00  0.00     0.004 C 
ENDBRANCH   7   9
ENDBRANCH   6   7
BRANCH   6  11
ATOM     11  N   UNL A   1      32.586  21.524  23.674  1.00  0.00    -0.342 N 
ATOM     12  C   UNL A   1      32.435  22.860  23.343  1.00  0.00     0.243 C 
ATOM     13  H   UNL A   1      32.232  20.905  22.994  1.00  0.00     0.164 HD
ATOM     14  O   UNL A   1      32.721  23.189  22.188  1.00  0.00    -0.273 OA
BRANCH  12  15
ATOM     15  C   UNL A   1      31.780  23.871  24.345  1.00  0.00     0.181 C 
ATOM     16  C   UNL A   1      30.404  24.196  23.757  1.00  0.00     0.042 C 
BRANCH  15  17
ATOM     17  N   UNL A   1      32.627  24.931  24.958  1.00  0.00    -0.250 N 
ATOM     18  C   UNL A   1      33.615  25.806  24.531  1.00  0.00     0.328 C 
ATOM     19  C   UNL A   1      32.030  25.549  25.988  1.00  0.00     0.259 C 
ATOM     20  N   UNL A   1      33.588  26.984  25.409  1.00  0.00    -0.307 N 
ATOM     21  O   UNL A   1      34.310  25.689  23.529  1.00  0.00    -0.248 OA
ATOM     22  C   UNL A   1      32.245  27.035  25.952  1.00  0.00     0.147 C 
ATOM     23  O   UNL A   1      31.434  24.931  26.855  1.00  0.00    -0.271 OA
ATOM     24  C   UNL A   1      34.147  28.394  25.175  1.00  0.00     0.127 C 
ATOM     25  C   UNL A   1      31.416  27.935  24.886  1.00  0.00     0.168 C 
ATOM     26  C   UNL A   1      32.279  27.560  27.394  1.00  0.00     0.048 C 
ATOM     27  C   UNL A   1      32.993  29.701  25.327  1.00  0.00     0.055 C 
ATOM     28  C   UNL A   1      31.397  29.400  25.157  1.00  0.00    -0.032 C 
ATOM     29  N   UNL A   1      31.218  27.943  23.383  1.00  0.00    -0.274 NA
ATOM     30  C   UNL A   1      30.527  29.974  24.257  1.00  0.00     0.005 A 
ATOM     31  C   UNL A   1      31.093  29.220  23.116  1.00  0.00     0.066 A 
ATOM     32  C   UNL A   1      29.035  29.709  23.932  1.00  0.00     0.056 A 
ATOM     33  C   UNL A   1      30.905  29.900  21.825  1.00  0.00     0.032 A 
ATOM     34  C   UNL A   1      28.653  29.660  22.605  1.00  0.00     0.119 A 
ATOM     35  C   UNL A   1      29.605  30.112  21.593  1.00  0.00     0.048 A 
BRANCH  34  36
ATOM     36  O   UNL A   1      27.513  29.024  22.133  1.00  0.00    -0.497 OA
ATOM     37  C   UNL A   1      26.629  28.438  23.124  1.00  0.00     0.278 C 
ENDBRANCH  34  36
ENDBRANCH  15  17
ENDBRANCH  12  15
ENDBRANCH   6  11
ENDBRANCH   3   6
ENDBRANCH   1   2
BRANCH   1  38
ATOM     38  C   UNL A   1      37.800  22.854  25.598  1.00  0.00     0.042 C 
BRANCH  38  39
ATOM     39  C   UNL A   1      39.192  22.632  26.278  1.00  0.00     0.118 C 
BRANCH  39  40
ATOM     40  N   UNL A   1      39.549  21.261  26.696  1.00  0.00    -0.352 N 
ATOM     41  C   UNL A   1      40.717  20.726  27.216  1.00  0.00     0.251 C 
ATOM     42  H   UNL A   1      38.823  20.606  26.585  1.00  0.00     0.163 HD
ATOM     43  O   UNL A   1      40.778  19.737  27.935  1.00  0.00    -0.269 OA
BRANCH  41  44
ATOM     44  C   UNL A   1      41.951  21.416  26.901  1.00  0.00     0.039 A 
ATOM     45  C   UNL A   1      42.767  21.696  27.983  1.00  0.00     0.014 A 
ATOM     46  C   UNL A   1      41.991  22.113  25.694  1.00  0.00     0.014 A 
ATOM     47  C   UNL A   1      43.323  22.941  28.004  1.00  0.00     0.010 A 
ATOM     48  C   UNL A   1      42.718  23.284  25.657  1.00  0.00     0.010 A 
ATOM     49  C   UNL A   1      43.277  23.748  26.855  1.00  0.00    -0.014 A 
BRANCH  49  50
ATOM     50  C   UNL A   1      43.754  25.126  26.969  1.00  0.00     0.031 A 
ATOM     51  C   UNL A   1      45.108  25.487  26.439  1.00  0.00     0.074 A 
ATOM     52  C   UNL A   1      42.891  26.020  27.477  1.00  0.00     0.049 A 
ATOM     53  N   UNL A   1      45.768  26.597  26.611  1.00  0.00    -0.248 NA
ATOM     54  C   UNL A   1      45.830  24.484  25.627  1.00  0.00     0.031 C 
ATOM     55  C   UNL A   1      41.526  25.706  27.927  1.00  0.00     0.029 A 
ATOM     56  N   UNL A   1      43.008  27.361  27.681  1.00  0.00    -0.354 N 
ATOM     57  C   UNL A   1      46.995  26.409  25.988  1.00  0.00     0.074 A 
ATOM     58  C   UNL A   1      46.995  25.087  25.413  1.00  0.00     0.031 C 
ATOM     59  C   UNL A   1      40.915  26.833  28.297  1.00  0.00     0.029 A 
ATOM     60  C   UNL A   1      41.896  27.905  28.272  1.00  0.00     0.049 A 
ATOM     61  H   UNL A   1      43.804  27.884  27.432  1.00  0.00     0.167 HD
ATOM     62  C   UNL A   1      48.021  27.288  25.937  1.00  0.00     0.031 A 
ATOM     63  C   UNL A   1      41.720  29.110  28.837  1.00  0.00     0.031 A 
ATOM     64  C   UNL A   1      47.929  28.603  26.514  1.00  0.00     0.049 A 
ATOM     65  C   UNL A   1      42.889  30.035  28.822  1.00  0.00     0.074 A 
ATOM     66  C   UNL A   1      48.888  29.597  26.547  1.00  0.00     0.029 A 
ATOM     67  N   UNL A   1      46.798  29.108  27.147  1.00  0.00    -0.354 N 
ATOM     68  N   UNL A   1      44.078  29.828  28.304  1.00  0.00    -0.248 NA
ATOM     69  C   UNL A   1      42.720  31.331  29.476  1.00  0.00     0.031 C 
ATOM     70  C   UNL A   1      48.353  30.682  27.243  1.00  0.00     0.029 A 
ATOM     71  C   UNL A   1      47.039  30.392  27.590  1.00  0.00     0.049 A 
ATOM     72  H   UNL A   1      45.950  28.620  27.264  1.00  0.00     0.167 HD
ATOM     73  C   UNL A   1      44.811  30.968  28.579  1.00  0.00     0.074 A 
ATOM     74  C   UNL A   1      43.918  31.872  29.284  1.00  0.00     0.031 C 
ATOM     75  C   UNL A   1      46.104  31.241  28.286  1.00  0.00     0.031 A 
BRANCH  62  76
ATOM     76  C   UNL A   1      49.314  26.892  25.275  1.00  0.00    -0.014 A 
ATOM     77  C   UNL A   1      50.330  26.299  26.049  1.00  0.00     0.010 A 
ATOM     78  C   UNL A   1      49.596  27.257  23.947  1.00  0.00     0.010 A 
ATOM     79  C   UNL A   1      51.620  26.138  25.533  1.00  0.00     0.020 A 
ATOM     80  C   UNL A   1      50.881  27.078  23.420  1.00  0.00     0.020 A 
ATOM     81  C   UNL A   1      51.893  26.552  24.228  1.00  0.00     0.054 A 
BRANCH  81  82
ATOM     82  S   UNL A   1      53.597  26.432  23.611  1.00  0.00     0.124 S 
ATOM     83  O   UNL A   1      54.185  27.680  24.089  1.00  0.00    -0.237 OA
ATOM     84  O   UNL A   1      54.086  25.217  24.256  1.00  0.00    -0.237 OA
ATOM     85  O   UNL A   1      53.430  26.336  22.162  1.00  0.00    -0.744 OA
ENDBRANCH  81  82
ENDBRANCH  62  76
BRANCH  63  86
ATOM     86  C   UNL A   1      40.430  29.384  29.518  1.00  0.00    -0.014 A 
ATOM     87  C   UNL A   1      39.372  29.976  28.793  1.00  0.00     0.010 A 
ATOM     88  C   UNL A   1      40.322  29.265  30.911  1.00  0.00     0.010 A 
ATOM     89  C   UNL A   1      38.273  30.520  29.457  1.00  0.00     0.020 A 
ATOM     90  C   UNL A   1      39.203  29.778  31.575  1.00  0.00     0.020 A 
ATOM     91  C   UNL A   1      38.206  30.436  30.847  1.00  0.00     0.054 A 
BRANCH  91  92
ATOM     92  S   UNL A   1      36.814  31.222  31.706  1.00  0.00     0.124 S 
ATOM     93  O   UNL A   1      37.283  31.225  33.089  1.00  0.00    -0.237 OA
ATOM     94  O   UNL A   1      36.735  32.531  31.065  1.00  0.00    -0.237 OA
ATOM     95  O   UNL A   1      35.696  30.325  31.425  1.00  0.00    -0.744 OA
ENDBRANCH  91  92
ENDBRANCH  63  86
BRANCH  75  96
ATOM     96  C   UNL A   1      46.631  32.570  28.729  1.00  0.00    -0.014 A 
ATOM     97  C   UNL A   1      46.614  33.650  27.830  1.00  0.00     0.010 A 
ATOM     98  C   UNL A   1      47.285  32.692  29.965  1.00  0.00     0.010 A 
ATOM     99  C   UNL A   1      47.292  34.826  28.142  1.00  0.00     0.020 A 
ATOM    100  C   UNL A   1      47.940  33.878  30.291  1.00  0.00     0.020 A 
ATOM    101  C   UNL A   1      47.964  34.925  29.364  1.00  0.00     0.054 A 
BRANCH 101 102
ATOM    102  S   UNL A   1      48.892  36.437  29.724  1.00  0.00     0.124 S 
ATOM    103  O   UNL A   1      49.253  36.246  31.127  1.00  0.00    -0.237 OA
ATOM    104  O   UNL A   1      49.999  36.366  28.773  1.00  0.00    -0.237 OA
ATOM    105  O   UNL A   1      47.925  37.501  29.465  1.00  0.00    -0.744 OA
ENDBRANCH 101 102
ENDBRANCH  75  96
ENDBRANCH  49  50
ENDBRANCH  41  44
ENDBRANCH  39  40
ENDBRANCH  38  39
ENDBRANCH   1  38
TORSDOF 19
ENDMDL
MODEL 3
REMARK VINA RESULT:     -11.3      4.843      9.371
REMARK SMILES CC[C@@H](C)[C@H](NC(=O)[C@H](C)N1C(=O)N2CCC3=c4cc(OC)ccc4=N[C@H]3[C@@]2(C)C1=O)C(=O)NCCCNC(=O)c1ccc(-c2c3nc(c(-c4ccc(S(=O)(=O)[O-])cc4)c4ccc([nH]4)c(-c4ccc(S(=O)(=O)[O-])cc4)c4nc(c(-c5ccc(S(=O)(=O)[O-])cc5)c5ccc2[nH]5)C=C4)C=C3)cc1
REMARK SMILES IDX 35 1 34 2 32 3 33 4 5 6 3 7 4 8 2 9 1 10 6 11 7 12 8 14 9 15
REMARK SMILES IDX 10 16 11 17 12 18 30 19 14 20 13 21 28 22 31 23 15 24 27 25
REMARK SMILES IDX 29 26 16 27 17 28 26 29 18 30 25 31 19 32 24 33 20 34 23 35
REMARK SMILES IDX 21 36 22 37 36 38 37 39 38 40 39 41 40 43 41 44 42 45 100 46
REMARK SMILES IDX 43 47 99 48 44 49 45 50 46 51 93 52 47 53 98 54 92 55 94 56
REMARK SMILES IDX 48 57 97 58 91 59 90 60 49 62 79 63 60 64 78 65 61 66 64 67
REMARK SMILES IDX 77 68 95 69 62 70 63 71 76 73 96 74 65 75 50 76 51 77 59 78
REMARK SMILES IDX 52 79 58 80 53 81 54 82 55 83 56 84 57 85 80 86 81 87 89 88
REMARK SMILES IDX 82 89 88 90 83 91 84 92 85 93 86 94 87 95 66 96 67 97 75 98
REMARK SMILES IDX 68 99 74 100 69 101 70 102 71 103 72 104 73 105
REMARK H PARENT 34 5 6 13 38 42 94 61 64 72
REMARK Flexibility Score: inf
ROOT
ATOM      1  C   UNL A   1      36.625  21.447  25.220  1.00  0.00     0.117 C 
ENDROOT
BRANCH   1   2
ATOM      2  N   UNL A   1      35.349  21.595  24.528  1.00  0.00    -0.354 N 
ATOM      3  C   UNL A   1      34.194  21.312  25.274  1.00  0.00     0.242 C 
ATOM      4  O   UNL A   1      34.085  21.718  26.432  1.00  0.00    -0.273 OA
ATOM      5  H   UNL A   1      35.301  21.876  23.586  1.00  0.00     0.163 HD
BRANCH   3   6
ATOM      6  C   UNL A   1      33.036  20.564  24.553  1.00  0.00     0.174 C 
BRANCH   6   7
ATOM      7  C   UNL A   1      33.168  18.981  24.394  1.00  0.00     0.018 C 
ATOM      8  C   UNL A   1      32.484  18.473  23.115  1.00  0.00     0.010 C 
BRANCH   7   9
ATOM      9  C   UNL A   1      32.672  18.051  25.537  1.00  0.00     0.002 C 
ATOM     10  C   UNL A   1      33.148  16.601  25.340  1.00  0.00     0.004 C 
ENDBRANCH   7   9
ENDBRANCH   6   7
BRANCH   6  11
ATOM     11  N   UNL A   1      32.467  21.179  23.303  1.00  0.00    -0.342 N 
ATOM     12  C   UNL A   1      32.457  22.477  22.821  1.00  0.00     0.243 C 
ATOM     13  H   UNL A   1      32.013  20.534  22.713  1.00  0.00     0.164 HD
ATOM     14  O   UNL A   1      32.726  22.635  21.626  1.00  0.00    -0.273 OA
BRANCH  12  15
ATOM     15  C   UNL A   1      31.969  23.668  23.715  1.00  0.00     0.181 C 
ATOM     16  C   UNL A   1      30.537  23.962  23.259  1.00  0.00     0.042 C 
BRANCH  15  17
ATOM     17  N   UNL A   1      32.920  24.768  24.033  1.00  0.00    -0.250 N 
ATOM     18  C   UNL A   1      33.691  25.673  23.319  1.00  0.00     0.328 C 
ATOM     19  C   UNL A   1      32.643  25.380  25.195  1.00  0.00     0.259 C 
ATOM     20  N   UNL A   1      33.887  26.863  24.158  1.00  0.00    -0.307 N 
ATOM     21  O   UNL A   1      34.047  25.567  22.152  1.00  0.00    -0.248 OA
ATOM     22  C   UNL A   1      32.776  26.873  25.089  1.00  0.00     0.147 C 
ATOM     23  O   UNL A   1      32.370  24.753  26.206  1.00  0.00    -0.271 OA
ATOM     24  C   UNL A   1      34.289  28.290  23.758  1.00  0.00     0.127 C 
ATOM     25  C   UNL A   1      31.622  27.722  24.327  1.00  0.00     0.168 C 
ATOM     26  C   UNL A   1      33.231  27.421  26.448  1.00  0.00     0.048 C 
ATOM     27  C   UNL A   1      33.185  29.555  24.254  1.00  0.00     0.055 C 
ATOM     28  C   UNL A   1      31.628  29.190  24.585  1.00  0.00    -0.032 C 
ATOM     29  N   UNL A   1      30.971  27.699  22.959  1.00  0.00    -0.274 NA
ATOM     30  C   UNL A   1      30.500  29.716  23.996  1.00  0.00     0.005 A 
ATOM     31  C   UNL A   1      30.717  28.966  22.739  1.00  0.00     0.066 A 
ATOM     32  C   UNL A   1      28.993  29.390  24.148  1.00  0.00     0.056 A 
ATOM     33  C   UNL A   1      30.113  29.617  21.567  1.00  0.00     0.032 A 
ATOM     34  C   UNL A   1      28.223  29.305  23.004  1.00  0.00     0.119 A 
ATOM     35  C   UNL A   1      28.797  29.776  21.746  1.00  0.00     0.048 A 
BRANCH  34  36
ATOM     36  O   UNL A   1      27.020  28.618  22.910  1.00  0.00    -0.497 OA
ATOM     37  C   UNL A   1      26.843  27.477  23.788  1.00  0.00     0.278 C 
ENDBRANCH  34  36
ENDBRANCH  15  17
ENDBRANCH  12  15
ENDBRANCH   6  11
ENDBRANCH   3   6
ENDBRANCH   1   2
BRANCH   1  38
ATOM     38  C   UNL A   1      37.618  22.630  25.322  1.00  0.00     0.042 C 
BRANCH  38  39
ATOM     39  C   UNL A   1      38.981  22.457  26.071  1.00  0.00     0.118 C 
BRANCH  39  40
ATOM     40  N   UNL A   1      39.381  21.094  26.477  1.00  0.00    -0.352 N 
ATOM     41  C   UNL A   1      40.562  20.592  27.001  1.00  0.00     0.251 C 
ATOM     42  H   UNL A   1      38.678  20.415  26.352  1.00  0.00     0.163 HD
ATOM     43  O   UNL A   1      40.651  19.598  27.710  1.00  0.00    -0.269 OA
BRANCH  41  44
ATOM     44  C   UNL A   1      41.775  21.327  26.705  1.00  0.00     0.039 A 
ATOM     45  C   UNL A   1      42.718  21.347  27.717  1.00  0.00     0.014 A 
ATOM     46  C   UNL A   1      41.700  22.281  25.690  1.00  0.00     0.014 A 
ATOM     47  C   UNL A   1      43.316  22.550  27.952  1.00  0.00     0.010 A 
ATOM     48  C   UNL A   1      42.457  23.424  25.833  1.00  0.00     0.010 A 
ATOM     49  C   UNL A   1      43.165  23.598  27.029  1.00  0.00    -0.014 A 
BRANCH  49  50
ATOM     50  C   UNL A   1      43.699  24.911  27.393  1.00  0.00     0.031 A 
ATOM     51  C   UNL A   1      42.790  25.940  27.994  1.00  0.00     0.074 A 
ATOM     52  C   UNL A   1      45.022  25.084  27.240  1.00  0.00     0.049 A 
ATOM     53  N   UNL A   1      43.036  27.201  28.208  1.00  0.00    -0.248 NA
ATOM     54  C   UNL A   1      41.431  25.520  28.396  1.00  0.00     0.031 C 
ATOM     55  C   UNL A   1      45.948  24.062  26.731  1.00  0.00     0.029 A 
ATOM     56  N   UNL A   1      45.822  26.151  27.512  1.00  0.00    -0.354 N 
ATOM     57  C   UNL A   1      41.856  27.738  28.707  1.00  0.00     0.074 A 
ATOM     58  C   UNL A   1      40.890  26.669  28.788  1.00  0.00     0.031 C 
ATOM     59  C   UNL A   1      47.196  24.532  26.785  1.00  0.00     0.029 A 
ATOM     60  C   UNL A   1      47.130  25.933  27.165  1.00  0.00     0.049 A 
ATOM     61  H   UNL A   1      45.496  26.989  27.915  1.00  0.00     0.167 HD
ATOM     62  C   UNL A   1      41.630  29.026  29.044  1.00  0.00     0.031 A 
ATOM     63  C   UNL A   1      48.151  26.798  27.056  1.00  0.00     0.031 A 
ATOM     64  C   UNL A   1      42.660  30.028  28.960  1.00  0.00     0.049 A 
ATOM     65  C   UNL A   1      47.857  28.226  27.372  1.00  0.00     0.074 A 
ATOM     66  C   UNL A   1      42.577  31.374  29.259  1.00  0.00     0.029 A 
ATOM     67  N   UNL A   1      43.969  29.781  28.560  1.00  0.00    -0.354 N 
ATOM     68  N   UNL A   1      46.719  28.749  27.767  1.00  0.00    -0.248 NA
ATOM     69  C   UNL A   1      48.952  29.181  27.212  1.00  0.00     0.031 C 
ATOM     70  C   UNL A   1      43.821  31.948  28.992  1.00  0.00     0.029 A 
ATOM     71  C   UNL A   1      44.700  30.951  28.587  1.00  0.00     0.049 A 
ATOM     72  H   UNL A   1      44.322  28.900  28.294  1.00  0.00     0.167 HD
ATOM     73  C   UNL A   1      46.954  30.106  27.894  1.00  0.00     0.074 A 
ATOM     74  C   UNL A   1      48.353  30.315  27.561  1.00  0.00     0.031 C 
ATOM     75  C   UNL A   1      46.094  31.091  28.243  1.00  0.00     0.031 A 
BRANCH  62  76
ATOM     76  C   UNL A   1      40.262  29.452  29.507  1.00  0.00    -0.014 A 
ATOM     77  C   UNL A   1      39.311  29.864  28.554  1.00  0.00     0.010 A 
ATOM     78  C   UNL A   1      39.971  29.613  30.872  1.00  0.00     0.010 A 
ATOM     79  C   UNL A   1      38.124  30.488  28.952  1.00  0.00     0.020 A 
ATOM     80  C   UNL A   1      38.774  30.218  31.276  1.00  0.00     0.020 A 
ATOM     81  C   UNL A   1      37.875  30.683  30.312  1.00  0.00     0.054 A 
BRANCH  81  82
ATOM     82  S   UNL A   1      36.380  31.588  30.806  1.00  0.00     0.124 S 
ATOM     83  O   UNL A   1      36.891  32.941  31.005  1.00  0.00    -0.237 OA
ATOM     84  O   UNL A   1      35.502  31.409  29.653  1.00  0.00    -0.237 OA
ATOM     85  O   UNL A   1      35.949  30.898  32.021  1.00  0.00    -0.744 OA
ENDBRANCH  81  82
ENDBRANCH  62  76
BRANCH  63  86
ATOM     86  C   UNL A   1      49.445  26.295  26.533  1.00  0.00    -0.014 A 
ATOM     87  C   UNL A   1      50.406  25.780  27.431  1.00  0.00     0.010 A 
ATOM     88  C   UNL A   1      49.809  26.522  25.198  1.00  0.00     0.010 A 
ATOM     89  C   UNL A   1      51.726  25.585  27.025  1.00  0.00     0.020 A 
ATOM     90  C   UNL A   1      51.124  26.292  24.780  1.00  0.00     0.020 A 
ATOM     91  C   UNL A   1      52.081  25.863  25.706  1.00  0.00     0.054 A 
BRANCH  91  92
ATOM     92  S   UNL A   1      53.818  25.687  25.211  1.00  0.00     0.124 S 
ATOM     93  O   UNL A   1      54.045  26.930  24.478  1.00  0.00    -0.237 OA
ATOM     94  O   UNL A   1      54.510  25.576  26.492  1.00  0.00    -0.237 OA
ATOM     95  O   UNL A   1      53.816  24.472  24.400  1.00  0.00    -0.744 OA
ENDBRANCH  91  92
ENDBRANCH  63  86
BRANCH  75  96
ATOM     96  C   UNL A   1      46.640  32.484  28.280  1.00  0.00    -0.014 A 
ATOM     97  C   UNL A   1      47.132  32.996  29.493  1.00  0.00     0.010 A 
ATOM     98  C   UNL A   1      46.509  33.323  27.162  1.00  0.00     0.010 A 
ATOM     99  C   UNL A   1      47.441  34.350  29.602  1.00  0.00     0.020 A 
ATOM    100  C   UNL A   1      46.843  34.672  27.262  1.00  0.00     0.020 A 
ATOM    101  C   UNL A   1      47.278  35.181  28.489  1.00  0.00     0.054 A 
BRANCH 101 102
ATOM    102  S   UNL A   1      47.624  36.949  28.669  1.00  0.00     0.124 S 
ATOM    103  O   UNL A   1      47.900  37.061  30.099  1.00  0.00    -0.237 OA
ATOM    104  O   UNL A   1      48.774  37.141  27.788  1.00  0.00    -0.237 OA
ATOM    105  O   UNL A   1      46.389  37.586  28.217  1.00  0.00    -0.744 OA
ENDBRANCH 101 102
ENDBRANCH  75  96
ENDBRANCH  49  50
ENDBRANCH  41  44
ENDBRANCH  39  40
ENDBRANCH  38  39
ENDBRANCH   1  38
TORSDOF 19
ENDMDL
