MODEL 1
REMARK VINA RESULT:      -9.6      0.000      0.000
REMARK SMILES C[C@@H](C(=O)NCCCNC(=O)c1ccc(-c2c3nc(c(-c4ccc(S(=O)(=O)[O-])cc4)c4ccc([nH]4)c(-c4ccc(S(=O)(=O)[O-])cc4)c4nc(c(-c5ccc(S(=O)(=O)[O-])cc5)c5ccc2[nH]5)C=C4)C=C3)cc1)c1ccc(-c2cccc(OC(=O)Nc3ccccc3)c2)c(F)c1
REMARK SMILES IDX 6 1 5 2 3 3 4 4 2 6 1 7 72 8 73 9 94 10 74 11 92 12 75 13
REMARK SMILES IDX 93 14 76 15 77 16 91 17 78 18 80 19 79 20 81 21 82 22 83 23
REMARK SMILES IDX 84 24 85 26 86 27 90 28 87 29 89 30 88 31 7 32 8 33 9 34
REMARK SMILES IDX 10 35 11 37 12 38 13 39 71 40 14 41 70 42 15 43 16 44 17 45
REMARK SMILES IDX 64 46 18 47 69 48 63 49 65 50 19 51 68 52 62 53 61 54 20 56
REMARK SMILES IDX 50 57 31 58 49 59 32 60 35 61 48 62 66 63 33 64 34 65 47 67
REMARK SMILES IDX 67 68 36 69 21 70 22 71 30 72 23 73 29 74 24 75 25 76 26 77
REMARK SMILES IDX 27 78 28 79 51 80 52 81 60 82 53 83 59 84 54 85 55 86 56 87
REMARK SMILES IDX 57 88 58 89 37 90 38 91 46 92 39 93 45 94 40 95 41 96 42 97
REMARK SMILES IDX 43 98 44 99
REMARK H PARENT 5 5 84 25 9 36 65 55 35 66
REMARK Flexibility Score: inf
ROOT
ATOM      1  C   UNL A   1      43.930  21.582  25.628  1.00  0.00     0.117 C 
ENDROOT
BRANCH   1   2
ATOM      2  N   UNL A   1      44.687  22.192  26.705  1.00  0.00    -0.356 N 
ATOM      3  C   UNL A   1      45.430  23.336  26.737  1.00  0.00     0.227 C 
ATOM      4  O   UNL A   1      46.083  23.537  27.765  1.00  0.00    -0.274 OA
ATOM      5  H   UNL A   1      44.662  21.696  27.555  1.00  0.00     0.163 HD
BRANCH   3   6
ATOM      6  C   UNL A   1      45.387  24.330  25.562  1.00  0.00     0.105 C 
ATOM      7  C   UNL A   1      46.530  24.049  24.577  1.00  0.00     0.023 C 
BRANCH   6   8
ATOM      8  C   UNL A   1      45.348  25.785  26.043  1.00  0.00    -0.033 A 
ATOM      9  C   UNL A   1      44.179  26.548  25.862  1.00  0.00     0.005 A 
ATOM     10  C   UNL A   1      46.444  26.409  26.651  1.00  0.00     0.044 A 
ATOM     11  C   UNL A   1      44.114  27.890  26.269  1.00  0.00     0.012 A 
ATOM     12  C   UNL A   1      46.377  27.743  27.040  1.00  0.00     0.131 A 
ATOM     13  C   UNL A   1      45.225  28.514  26.850  1.00  0.00     0.018 A 
ATOM     14  F   UNL A   1      47.472  28.291  27.594  1.00  0.00    -0.206 F 
BRANCH  13  15
ATOM     15  C   UNL A   1      45.225  29.943  27.177  1.00  0.00    -0.012 A 
ATOM     16  C   UNL A   1      45.918  30.461  28.280  1.00  0.00     0.009 A 
ATOM     17  C   UNL A   1      44.516  30.832  26.350  1.00  0.00     0.056 A 
ATOM     18  C   UNL A   1      45.916  31.835  28.540  1.00  0.00     0.004 A 
ATOM     19  C   UNL A   1      44.498  32.195  26.618  1.00  0.00     0.133 A 
ATOM     20  C   UNL A   1      45.206  32.704  27.708  1.00  0.00     0.047 A 
BRANCH  19  21
ATOM     21  O   UNL A   1      43.788  33.147  25.848  1.00  0.00    -0.410 OA
BRANCH  21  22
ATOM     22  C   UNL A   1      44.355  34.181  25.103  1.00  0.00     0.417 C 
ATOM     23  O   UNL A   1      44.915  34.066  24.017  1.00  0.00    -0.224 OA
ATOM     24  N   UNL A   1      44.150  35.439  25.610  1.00  0.00    -0.291 N 
ATOM     25  H   UNL A   1      44.434  36.171  25.018  1.00  0.00     0.173 HD
BRANCH  24  26
ATOM     26  C   UNL A   1      43.603  35.855  26.831  1.00  0.00     0.044 A 
ATOM     27  C   UNL A   1      44.489  36.405  27.764  1.00  0.00     0.026 A 
ATOM     28  C   UNL A   1      42.255  35.723  27.169  1.00  0.00     0.026 A 
ATOM     29  C   UNL A   1      44.026  36.864  28.998  1.00  0.00     0.002 A 
ATOM     30  C   UNL A   1      41.796  36.165  28.412  1.00  0.00     0.002 A 
ATOM     31  C   UNL A   1      42.678  36.745  29.321  1.00  0.00     0.000 A 
ENDBRANCH  24  26
ENDBRANCH  21  22
ENDBRANCH  19  21
ENDBRANCH  13  15
ENDBRANCH   6   8
ENDBRANCH   3   6
ENDBRANCH   1   2
BRANCH   1  32
ATOM     32  C   UNL A   1      42.570  22.256  25.442  1.00  0.00     0.042 C 
BRANCH  32  33
ATOM     33  C   UNL A   1      41.561  21.954  26.547  1.00  0.00     0.118 C 
BRANCH  33  34
ATOM     34  N   UNL A   1      40.189  21.933  26.063  1.00  0.00    -0.352 N 
ATOM     35  C   UNL A   1      39.184  22.855  26.223  1.00  0.00     0.251 C 
ATOM     36  H   UNL A   1      39.943  21.135  25.542  1.00  0.00     0.163 HD
ATOM     37  O   UNL A   1      38.037  22.562  25.892  1.00  0.00    -0.269 OA
BRANCH  35  38
ATOM     38  C   UNL A   1      39.464  24.184  26.814  1.00  0.00     0.039 A 
ATOM     39  C   UNL A   1      39.012  24.452  28.109  1.00  0.00     0.014 A 
ATOM     40  C   UNL A   1      40.157  25.166  26.099  1.00  0.00     0.014 A 
ATOM     41  C   UNL A   1      39.327  25.669  28.718  1.00  0.00     0.010 A 
ATOM     42  C   UNL A   1      40.521  26.356  26.729  1.00  0.00     0.010 A 
ATOM     43  C   UNL A   1      40.125  26.613  28.051  1.00  0.00    -0.014 A 
BRANCH  43  44
ATOM     44  C   UNL A   1      40.611  27.836  28.742  1.00  0.00     0.031 A 
ATOM     45  C   UNL A   1      41.965  27.865  29.397  1.00  0.00     0.074 A 
ATOM     46  C   UNL A   1      39.787  28.898  28.852  1.00  0.00     0.049 A 
ATOM     47  N   UNL A   1      42.510  28.815  30.112  1.00  0.00    -0.248 NA
ATOM     48  C   UNL A   1      42.810  26.669  29.244  1.00  0.00     0.031 C 
ATOM     49  C   UNL A   1      38.430  28.979  28.300  1.00  0.00     0.029 A 
ATOM     50  N   UNL A   1      39.957  30.106  29.481  1.00  0.00    -0.354 N 
ATOM     51  C   UNL A   1      43.749  28.328  30.512  1.00  0.00     0.074 A 
ATOM     52  C   UNL A   1      43.867  26.988  29.979  1.00  0.00     0.031 C 
ATOM     53  C   UNL A   1      37.898  30.172  28.608  1.00  0.00     0.029 A 
ATOM     54  C   UNL A   1      38.854  30.925  29.414  1.00  0.00     0.049 A 
ATOM     55  H   UNL A   1      40.791  30.363  29.937  1.00  0.00     0.167 HD
ATOM     56  C   UNL A   1      44.704  28.947  31.246  1.00  0.00     0.031 A 
ATOM     57  C   UNL A   1      38.622  32.135  29.959  1.00  0.00     0.031 A 
ATOM     58  C   UNL A   1      44.594  30.289  31.756  1.00  0.00     0.049 A 
ATOM     59  C   UNL A   1      39.694  32.788  30.787  1.00  0.00     0.074 A 
ATOM     60  C   UNL A   1      45.550  31.029  32.432  1.00  0.00     0.029 A 
ATOM     61  N   UNL A   1      43.465  31.085  31.661  1.00  0.00    -0.354 N 
ATOM     62  N   UNL A   1      40.896  32.346  31.071  1.00  0.00    -0.248 NA
ATOM     63  C   UNL A   1      39.379  34.101  31.368  1.00  0.00     0.031 C 
ATOM     64  C   UNL A   1      44.979  32.253  32.795  1.00  0.00     0.029 A 
ATOM     65  C   UNL A   1      43.684  32.293  32.301  1.00  0.00     0.049 A 
ATOM     66  H   UNL A   1      42.630  30.830  31.207  1.00  0.00     0.167 HD
ATOM     67  C   UNL A   1      41.483  33.334  31.854  1.00  0.00     0.074 A 
ATOM     68  C   UNL A   1      40.518  34.405  31.977  1.00  0.00     0.031 C 
ATOM     69  C   UNL A   1      42.713  33.349  32.423  1.00  0.00     0.031 A 
BRANCH  56  70
ATOM     70  C   UNL A   1      45.966  28.187  31.555  1.00  0.00    -0.014 A 
ATOM     71  C   UNL A   1      47.099  28.300  30.731  1.00  0.00     0.010 A 
ATOM     72  C   UNL A   1      46.052  27.435  32.741  1.00  0.00     0.010 A 
ATOM     73  C   UNL A   1      48.293  27.665  31.081  1.00  0.00     0.020 A 
ATOM     74  C   UNL A   1      47.250  26.813  33.104  1.00  0.00     0.020 A 
ATOM     75  C   UNL A   1      48.362  26.928  32.268  1.00  0.00     0.054 A 
BRANCH  75  76
ATOM     76  S   UNL A   1      49.945  26.170  32.731  1.00  0.00     0.124 S 
ATOM     77  O   UNL A   1      50.083  26.588  34.123  1.00  0.00    -0.237 OA
ATOM     78  O   UNL A   1      49.689  24.746  32.527  1.00  0.00    -0.237 OA
ATOM     79  O   UNL A   1      50.900  26.767  31.803  1.00  0.00    -0.744 OA
ENDBRANCH  75  76
ENDBRANCH  56  70
BRANCH  57  80
ATOM     80  C   UNL A   1      37.306  32.804  29.768  1.00  0.00    -0.014 A 
ATOM     81  C   UNL A   1      37.056  33.580  28.623  1.00  0.00     0.010 A 
ATOM     82  C   UNL A   1      36.304  32.687  30.749  1.00  0.00     0.010 A 
ATOM     83  C   UNL A   1      35.839  34.252  28.476  1.00  0.00     0.020 A 
ATOM     84  C   UNL A   1      35.077  33.336  30.592  1.00  0.00     0.020 A 
ATOM     85  C   UNL A   1      34.859  34.129  29.464  1.00  0.00     0.054 A 
BRANCH  85  86
ATOM     86  S   UNL A   1      33.277  34.991  29.247  1.00  0.00     0.124 S 
ATOM     87  O   UNL A   1      32.596  34.134  28.283  1.00  0.00    -0.237 OA
ATOM     88  O   UNL A   1      32.725  34.989  30.600  1.00  0.00    -0.237 OA
ATOM     89  O   UNL A   1      33.674  36.307  28.749  1.00  0.00    -0.744 OA
ENDBRANCH  85  86
ENDBRANCH  57  80
BRANCH  69  90
ATOM     90  C   UNL A   1      43.089  34.563  33.226  1.00  0.00    -0.014 A 
ATOM     91  C   UNL A   1      42.959  34.569  34.626  1.00  0.00     0.010 A 
ATOM     92  C   UNL A   1      43.628  35.690  32.580  1.00  0.00     0.010 A 
ATOM     93  C   UNL A   1      43.341  35.692  35.365  1.00  0.00     0.020 A 
ATOM     94  C   UNL A   1      44.035  36.805  33.318  1.00  0.00     0.020 A 
ATOM     95  C   UNL A   1      43.877  36.803  34.706  1.00  0.00     0.054 A 
BRANCH  95  96
ATOM     96  S   UNL A   1      44.415  38.227  35.692  1.00  0.00     0.124 S 
ATOM     97  O   UNL A   1      43.672  38.034  36.934  1.00  0.00    -0.237 OA
ATOM     98  O   UNL A   1      45.860  38.028  35.786  1.00  0.00    -0.237 OA
ATOM     99  O   UNL A   1      44.003  39.378  34.891  1.00  0.00    -0.744 OA
ENDBRANCH  95  96
ENDBRANCH  69  90
ENDBRANCH  43  44
ENDBRANCH  35  38
ENDBRANCH  33  34
ENDBRANCH  32  33
ENDBRANCH   1  32
TORSDOF 18
ENDMDL
MODEL 2
REMARK VINA RESULT:      -9.5      5.029     12.677
REMARK SMILES C[C@@H](C(=O)NCCCNC(=O)c1ccc(-c2c3nc(c(-c4ccc(S(=O)(=O)[O-])cc4)c4ccc([nH]4)c(-c4ccc(S(=O)(=O)[O-])cc4)c4nc(c(-c5ccc(S(=O)(=O)[O-])cc5)c5ccc2[nH]5)C=C4)C=C3)cc1)c1ccc(-c2cccc(OC(=O)Nc3ccccc3)c2)c(F)c1
REMARK SMILES IDX 6 1 5 2 3 3 4 4 2 6 1 7 72 8 73 9 94 10 74 11 92 12 75 13
REMARK SMILES IDX 93 14 76 15 77 16 91 17 78 18 80 19 79 20 81 21 82 22 83 23
REMARK SMILES IDX 84 24 85 26 86 27 90 28 87 29 89 30 88 31 7 32 8 33 9 34
REMARK SMILES IDX 10 35 11 37 12 38 13 39 71 40 14 41 70 42 15 43 16 44 17 45
REMARK SMILES IDX 64 46 18 47 69 48 63 49 65 50 19 51 68 52 62 53 61 54 20 56
REMARK SMILES IDX 50 57 31 58 49 59 32 60 35 61 48 62 66 63 33 64 34 65 47 67
REMARK SMILES IDX 67 68 36 69 21 70 22 71 30 72 23 73 29 74 24 75 25 76 26 77
REMARK SMILES IDX 27 78 28 79 51 80 52 81 60 82 53 83 59 84 54 85 55 86 56 87
REMARK SMILES IDX 57 88 58 89 37 90 38 91 46 92 39 93 45 94 40 95 41 96 42 97
REMARK SMILES IDX 43 98 44 99
REMARK H PARENT 5 5 84 25 9 36 65 55 35 66
REMARK Flexibility Score: inf
ROOT
ATOM      1  C   UNL A   1      34.677  33.785  31.775  1.00  0.00     0.117 C 
ENDROOT
BRANCH   1   2
ATOM      2  N   UNL A   1      34.127  34.209  30.500  1.00  0.00    -0.356 N 
ATOM      3  C   UNL A   1      34.526  33.943  29.223  1.00  0.00     0.227 C 
ATOM      4  O   UNL A   1      33.943  34.558  28.327  1.00  0.00    -0.274 OA
ATOM      5  H   UNL A   1      33.333  34.789  30.569  1.00  0.00     0.163 HD
BRANCH   3   6
ATOM      6  C   UNL A   1      35.607  32.882  28.948  1.00  0.00     0.105 C 
ATOM      7  C   UNL A   1      36.805  33.509  28.224  1.00  0.00     0.023 C 
BRANCH   6   8
ATOM      8  C   UNL A   1      35.037  31.658  28.222  1.00  0.00    -0.033 A 
ATOM      9  C   UNL A   1      35.855  30.534  28.000  1.00  0.00     0.005 A 
ATOM     10  C   UNL A   1      33.720  31.607  27.747  1.00  0.00     0.044 A 
ATOM     11  C   UNL A   1      35.374  29.405  27.320  1.00  0.00     0.012 A 
ATOM     12  C   UNL A   1      33.254  30.490  27.061  1.00  0.00     0.131 A 
ATOM     13  C   UNL A   1      34.066  29.375  26.823  1.00  0.00     0.018 A 
ATOM     14  F   UNL A   1      31.990  30.515  26.607  1.00  0.00    -0.206 F 
BRANCH  13  15
ATOM     15  C   UNL A   1      33.573  28.259  26.008  1.00  0.00    -0.012 A 
ATOM     16  C   UNL A   1      33.725  28.222  24.615  1.00  0.00     0.009 A 
ATOM     17  C   UNL A   1      32.938  27.179  26.645  1.00  0.00     0.056 A 
ATOM     18  C   UNL A   1      33.267  27.124  23.880  1.00  0.00     0.004 A 
ATOM     19  C   UNL A   1      32.466  26.097  25.913  1.00  0.00     0.133 A 
ATOM     20  C   UNL A   1      32.637  26.060  24.529  1.00  0.00     0.047 A 
BRANCH  19  21
ATOM     21  O   UNL A   1      31.794  24.987  26.479  1.00  0.00    -0.410 OA
BRANCH  21  22
ATOM     22  C   UNL A   1      30.475  24.612  26.220  1.00  0.00     0.417 C 
ATOM     23  O   UNL A   1      29.469  25.215  26.582  1.00  0.00    -0.224 OA
ATOM     24  N   UNL A   1      30.333  23.529  25.392  1.00  0.00    -0.291 N 
ATOM     25  H   UNL A   1      29.409  23.350  25.106  1.00  0.00     0.173 HD
BRANCH  24  26
ATOM     26  C   UNL A   1      31.285  22.636  24.882  1.00  0.00     0.044 A 
ATOM     27  C   UNL A   1      31.516  22.680  23.503  1.00  0.00     0.026 A 
ATOM     28  C   UNL A   1      31.976  21.705  25.659  1.00  0.00     0.026 A 
ATOM     29  C   UNL A   1      32.462  21.839  22.914  1.00  0.00     0.002 A 
ATOM     30  C   UNL A   1      32.908  20.849  25.065  1.00  0.00     0.002 A 
ATOM     31  C   UNL A   1      33.160  20.924  23.697  1.00  0.00     0.000 A 
ENDBRANCH  24  26
ENDBRANCH  21  22
ENDBRANCH  19  21
ENDBRANCH  13  15
ENDBRANCH   6   8
ENDBRANCH   3   6
ENDBRANCH   1   2
BRANCH   1  32
ATOM     32  C   UNL A   1      36.150  34.172  31.910  1.00  0.00     0.042 C 
BRANCH  32  33
ATOM     33  C   UNL A   1      37.086  33.000  32.192  1.00  0.00     0.118 C 
BRANCH  33  34
ATOM     34  N   UNL A   1      36.404  31.716  32.154  1.00  0.00    -0.352 N 
ATOM     35  C   UNL A   1      36.800  30.523  31.600  1.00  0.00     0.251 C 
ATOM     36  H   UNL A   1      35.522  31.699  32.591  1.00  0.00     0.163 HD
ATOM     37  O   UNL A   1      35.994  29.600  31.513  1.00  0.00    -0.269 OA
BRANCH  35  38
ATOM     38  C   UNL A   1      38.178  30.351  31.084  1.00  0.00     0.039 A 
ATOM     39  C   UNL A   1      39.194  30.013  31.983  1.00  0.00     0.014 A 
ATOM     40  C   UNL A   1      38.475  30.530  29.730  1.00  0.00     0.014 A 
ATOM     41  C   UNL A   1      40.488  29.772  31.512  1.00  0.00     0.010 A 
ATOM     42  C   UNL A   1      39.752  30.231  29.253  1.00  0.00     0.010 A 
ATOM     43  C   UNL A   1      40.767  29.833  30.137  1.00  0.00    -0.014 A 
BRANCH  43  44
ATOM     44  C   UNL A   1      42.089  29.416  29.601  1.00  0.00     0.031 A 
ATOM     45  C   UNL A   1      43.207  30.411  29.448  1.00  0.00     0.074 A 
ATOM     46  C   UNL A   1      42.251  28.149  29.167  1.00  0.00     0.049 A 
ATOM     47  N   UNL A   1      44.392  30.239  28.921  1.00  0.00    -0.248 NA
ATOM     48  C   UNL A   1      42.960  31.778  29.935  1.00  0.00     0.031 C 
ATOM     49  C   UNL A   1      41.228  27.099  29.217  1.00  0.00     0.029 A 
ATOM     50  N   UNL A   1      43.327  27.530  28.581  1.00  0.00    -0.354 N 
ATOM     51  C   UNL A   1      45.025  31.474  28.993  1.00  0.00     0.074 A 
ATOM     52  C   UNL A   1      44.083  32.395  29.593  1.00  0.00     0.031 C 
ATOM     53  C   UNL A   1      41.728  25.969  28.692  1.00  0.00     0.029 A 
ATOM     54  C   UNL A   1      43.089  26.222  28.229  1.00  0.00     0.049 A 
ATOM     55  H   UNL A   1      44.189  27.981  28.427  1.00  0.00     0.167 HD
ATOM     56  C   UNL A   1      46.278  31.806  28.603  1.00  0.00     0.031 A 
ATOM     57  C   UNL A   1      43.865  25.329  27.585  1.00  0.00     0.031 A 
ATOM     58  C   UNL A   1      47.221  30.884  28.027  1.00  0.00     0.049 A 
ATOM     59  C   UNL A   1      45.246  25.734  27.145  1.00  0.00     0.074 A 
ATOM     60  C   UNL A   1      48.544  31.111  27.687  1.00  0.00     0.029 A 
ATOM     61  N   UNL A   1      46.943  29.569  27.694  1.00  0.00    -0.354 N 
ATOM     62  N   UNL A   1      45.856  26.883  27.310  1.00  0.00    -0.248 NA
ATOM     63  C   UNL A   1      46.040  24.723  26.434  1.00  0.00     0.031 C 
ATOM     64  C   UNL A   1      49.050  29.949  27.096  1.00  0.00     0.029 A 
ATOM     65  C   UNL A   1      48.056  28.983  27.114  1.00  0.00     0.049 A 
ATOM     66  H   UNL A   1      46.082  29.116  27.845  1.00  0.00     0.167 HD
ATOM     67  C   UNL A   1      47.111  26.727  26.733  1.00  0.00     0.074 A 
ATOM     68  C   UNL A   1      47.183  25.369  26.239  1.00  0.00     0.031 C 
ATOM     69  C   UNL A   1      48.113  27.633  26.620  1.00  0.00     0.031 A 
BRANCH  56  70
ATOM     70  C   UNL A   1      46.722  33.234  28.780  1.00  0.00    -0.014 A 
ATOM     71  C   UNL A   1      46.671  34.145  27.711  1.00  0.00     0.010 A 
ATOM     72  C   UNL A   1      47.093  33.693  30.057  1.00  0.00     0.010 A 
ATOM     73  C   UNL A   1      46.996  35.489  27.913  1.00  0.00     0.020 A 
ATOM     74  C   UNL A   1      47.401  35.040  30.267  1.00  0.00     0.020 A 
ATOM     75  C   UNL A   1      47.356  35.929  29.192  1.00  0.00     0.054 A 
BRANCH  75  76
ATOM     76  S   UNL A   1      47.707  37.692  29.438  1.00  0.00     0.124 S 
ATOM     77  O   UNL A   1      48.725  37.942  28.421  1.00  0.00    -0.237 OA
ATOM     78  O   UNL A   1      46.408  38.314  29.190  1.00  0.00    -0.237 OA
ATOM     79  O   UNL A   1      48.175  37.764  30.819  1.00  0.00    -0.744 OA
ENDBRANCH  75  76
ENDBRANCH  56  70
BRANCH  57  80
ATOM     80  C   UNL A   1      43.349  23.966  27.283  1.00  0.00    -0.014 A 
ATOM     81  C   UNL A   1      43.460  22.932  28.228  1.00  0.00     0.010 A 
ATOM     82  C   UNL A   1      42.764  23.691  26.033  1.00  0.00     0.010 A 
ATOM     83  C   UNL A   1      43.025  21.641  27.918  1.00  0.00     0.020 A 
ATOM     84  C   UNL A   1      42.304  22.408  25.729  1.00  0.00     0.020 A 
ATOM     85  C   UNL A   1      42.453  21.386  26.668  1.00  0.00     0.054 A 
BRANCH  85  86
ATOM     86  S   UNL A   1      41.874  19.709  26.291  1.00  0.00     0.124 S 
ATOM     87  O   UNL A   1      40.441  19.916  26.118  1.00  0.00    -0.237 OA
ATOM     88  O   UNL A   1      42.619  19.380  25.077  1.00  0.00    -0.237 OA
ATOM     89  O   UNL A   1      42.261  18.942  27.473  1.00  0.00    -0.744 OA
ENDBRANCH  85  86
ENDBRANCH  57  80
BRANCH  69  90
ATOM     90  C   UNL A   1      49.377  27.183  25.940  1.00  0.00    -0.014 A 
ATOM     91  C   UNL A   1      49.576  27.408  24.567  1.00  0.00     0.010 A 
ATOM     92  C   UNL A   1      50.399  26.578  26.694  1.00  0.00     0.010 A 
ATOM     93  C   UNL A   1      50.768  27.015  23.953  1.00  0.00     0.020 A 
ATOM     94  C   UNL A   1      51.603  26.206  26.089  1.00  0.00     0.020 A 
ATOM     95  C   UNL A   1      51.774  26.416  24.718  1.00  0.00     0.054 A 
BRANCH  95  96
ATOM     96  S   UNL A   1      53.333  25.963  23.909  1.00  0.00     0.124 S 
ATOM     97  O   UNL A   1      52.937  25.893  22.505  1.00  0.00    -0.237 OA
ATOM     98  O   UNL A   1      54.214  27.075  24.259  1.00  0.00    -0.237 OA
ATOM     99  O   UNL A   1      53.682  24.683  24.523  1.00  0.00    -0.744 OA
ENDBRANCH  95  96
ENDBRANCH  69  90
ENDBRANCH  43  44
ENDBRANCH  35  38
ENDBRANCH  33  34
ENDBRANCH  32  33
ENDBRANCH   1  32
TORSDOF 18
ENDMDL
MODEL 3
REMARK VINA RESULT:      -9.0      5.013     12.612
REMARK SMILES C[C@@H](C(=O)NCCCNC(=O)c1ccc(-c2c3nc(c(-c4ccc(S(=O)(=O)[O-])cc4)c4ccc([nH]4)c(-c4ccc(S(=O)(=O)[O-])cc4)c4nc(c(-c5ccc(S(=O)(=O)[O-])cc5)c5ccc2[nH]5)C=C4)C=C3)cc1)c1ccc(-c2cccc(OC(=O)Nc3ccccc3)c2)c(F)c1
REMARK SMILES IDX 6 1 5 2 3 3 4 4 2 6 1 7 72 8 73 9 94 10 74 11 92 12 75 13
REMARK SMILES IDX 93 14 76 15 77 16 91 17 78 18 80 19 79 20 81 21 82 22 83 23
REMARK SMILES IDX 84 24 85 26 86 27 90 28 87 29 89 30 88 31 7 32 8 33 9 34
REMARK SMILES IDX 10 35 11 37 12 38 13 39 71 40 14 41 70 42 15 43 16 44 17 45
REMARK SMILES IDX 64 46 18 47 69 48 63 49 65 50 19 51 68 52 62 53 61 54 20 56
REMARK SMILES IDX 50 57 31 58 49 59 32 60 35 61 48 62 66 63 33 64 34 65 47 67
REMARK SMILES IDX 67 68 36 69 21 70 22 71 30 72 23 73 29 74 24 75 25 76 26 77
REMARK SMILES IDX 27 78 28 79 51 80 52 81 60 82 53 83 59 84 54 85 55 86 56 87
REMARK SMILES IDX 57 88 58 89 37 90 38 91 46 92 39 93 45 94 40 95 41 96 42 97
REMARK SMILES IDX 43 98 44 99
REMARK H PARENT 5 5 84 25 9 36 65 55 35 66
REMARK Flexibility Score: inf
ROOT
ATOM      1  C   UNL A   1      34.457  32.612  28.025  1.00  0.00     0.117 C 
ENDROOT
BRANCH   1   2
ATOM      2  N   UNL A   1      35.089  31.309  27.941  1.00  0.00    -0.356 N 
ATOM      3  C   UNL A   1      34.684  30.159  27.328  1.00  0.00     0.227 C 
ATOM      4  O   UNL A   1      35.367  29.154  27.541  1.00  0.00    -0.274 OA
ATOM      5  H   UNL A   1      35.954  31.242  28.407  1.00  0.00     0.163 HD
BRANCH   3   6
ATOM      6  C   UNL A   1      33.471  30.164  26.380  1.00  0.00     0.105 C 
ATOM      7  C   UNL A   1      32.272  30.852  27.044  1.00  0.00     0.023 C 
BRANCH   6   8
ATOM      8  C   UNL A   1      33.147  28.760  25.856  1.00  0.00    -0.033 A 
ATOM      9  C   UNL A   1      33.593  28.372  24.579  1.00  0.00     0.005 A 
ATOM     10  C   UNL A   1      32.403  27.831  26.595  1.00  0.00     0.044 A 
ATOM     11  C   UNL A   1      33.298  27.102  24.057  1.00  0.00     0.012 A 
ATOM     12  C   UNL A   1      32.101  26.580  26.066  1.00  0.00     0.131 A 
ATOM     13  C   UNL A   1      32.527  26.192  24.791  1.00  0.00     0.018 A 
ATOM     14  F   UNL A   1      31.360  25.745  26.814  1.00  0.00    -0.206 F 
BRANCH  13  15
ATOM     15  C   UNL A   1      32.104  24.906  24.226  1.00  0.00    -0.012 A 
ATOM     16  C   UNL A   1      30.920  24.763  23.490  1.00  0.00     0.009 A 
ATOM     17  C   UNL A   1      32.920  23.777  24.414  1.00  0.00     0.056 A 
ATOM     18  C   UNL A   1      30.568  23.524  22.944  1.00  0.00     0.004 A 
ATOM     19  C   UNL A   1      32.562  22.543  23.887  1.00  0.00     0.133 A 
ATOM     20  C   UNL A   1      31.390  22.413  23.142  1.00  0.00     0.047 A 
BRANCH  19  21
ATOM     21  O   UNL A   1      33.317  21.357  24.057  1.00  0.00    -0.410 OA
BRANCH  21  22
ATOM     22  C   UNL A   1      33.336  20.558  25.201  1.00  0.00     0.417 C 
ATOM     23  O   UNL A   1      32.455  19.776  25.550  1.00  0.00    -0.224 OA
ATOM     24  N   UNL A   1      34.506  20.595  25.913  1.00  0.00    -0.291 N 
ATOM     25  H   UNL A   1      34.565  19.934  26.640  1.00  0.00     0.173 HD
BRANCH  24  26
ATOM     26  C   UNL A   1      35.634  21.416  25.779  1.00  0.00     0.044 A 
ATOM     27  C   UNL A   1      35.521  22.725  26.261  1.00  0.00     0.026 A 
ATOM     28  C   UNL A   1      36.825  21.014  25.174  1.00  0.00     0.026 A 
ATOM     29  C   UNL A   1      36.602  23.605  26.186  1.00  0.00     0.002 A 
ATOM     30  C   UNL A   1      37.900  21.902  25.081  1.00  0.00     0.002 A 
ATOM     31  C   UNL A   1      37.793  23.191  25.597  1.00  0.00     0.000 A 
ENDBRANCH  24  26
ENDBRANCH  21  22
ENDBRANCH  19  21
ENDBRANCH  13  15
ENDBRANCH   6   8
ENDBRANCH   3   6
ENDBRANCH   1   2
BRANCH   1  32
ATOM     32  C   UNL A   1      35.098  33.482  29.107  1.00  0.00     0.042 C 
BRANCH  32  33
ATOM     33  C   UNL A   1      36.335  32.868  29.758  1.00  0.00     0.118 C 
BRANCH  33  34
ATOM     34  N   UNL A   1      36.008  31.783  30.671  1.00  0.00    -0.352 N 
ATOM     35  C   UNL A   1      36.709  30.640  30.968  1.00  0.00     0.251 C 
ATOM     36  H   UNL A   1      35.153  31.884  31.149  1.00  0.00     0.163 HD
ATOM     37  O   UNL A   1      36.170  29.757  31.630  1.00  0.00    -0.269 OA
BRANCH  35  38
ATOM     38  C   UNL A   1      38.093  30.452  30.475  1.00  0.00     0.039 A 
ATOM     39  C   UNL A   1      39.146  30.510  31.393  1.00  0.00     0.014 A 
ATOM     40  C   UNL A   1      38.359  30.233  29.121  1.00  0.00     0.014 A 
ATOM     41  C   UNL A   1      40.454  30.263  30.968  1.00  0.00     0.010 A 
ATOM     42  C   UNL A   1      39.657  29.928  28.708  1.00  0.00     0.010 A 
ATOM     43  C   UNL A   1      40.715  29.923  29.630  1.00  0.00    -0.014 A 
BRANCH  43  44
ATOM     44  C   UNL A   1      42.069  29.493  29.195  1.00  0.00     0.031 A 
ATOM     45  C   UNL A   1      43.190  30.489  29.063  1.00  0.00     0.074 A 
ATOM     46  C   UNL A   1      42.265  28.208  28.834  1.00  0.00     0.049 A 
ATOM     47  N   UNL A   1      44.405  30.302  28.617  1.00  0.00    -0.248 NA
ATOM     48  C   UNL A   1      42.905  31.876  29.467  1.00  0.00     0.031 C 
ATOM     49  C   UNL A   1      41.247  27.153  28.873  1.00  0.00     0.029 A 
ATOM     50  N   UNL A   1      43.378  27.572  28.344  1.00  0.00    -0.354 N 
ATOM     51  C   UNL A   1      45.025  31.546  28.667  1.00  0.00     0.074 A 
ATOM     52  C   UNL A   1      44.043  32.486  29.165  1.00  0.00     0.031 C 
ATOM     53  C   UNL A   1      41.784  26.004  28.434  1.00  0.00     0.029 A 
ATOM     54  C   UNL A   1      43.169  26.246  28.042  1.00  0.00     0.049 A 
ATOM     55  H   UNL A   1      44.245  28.022  28.221  1.00  0.00     0.167 HD
ATOM     56  C   UNL A   1      46.297  31.869  28.337  1.00  0.00     0.031 A 
ATOM     57  C   UNL A   1      43.988  25.330  27.489  1.00  0.00     0.031 A 
ATOM     58  C   UNL A   1      47.279  30.928  27.864  1.00  0.00     0.049 A 
ATOM     59  C   UNL A   1      45.390  25.726  27.115  1.00  0.00     0.074 A 
ATOM     60  C   UNL A   1      48.619  31.151  27.594  1.00  0.00     0.029 A 
ATOM     61  N   UNL A   1      47.029  29.597  27.579  1.00  0.00    -0.354 N 
ATOM     62  N   UNL A   1      45.983  26.887  27.260  1.00  0.00    -0.248 NA
ATOM     63  C   UNL A   1      46.232  24.689  26.502  1.00  0.00     0.031 C 
ATOM     64  C   UNL A   1      49.167  29.966  27.092  1.00  0.00     0.029 A 
ATOM     65  C   UNL A   1      48.179  28.994  27.096  1.00  0.00     0.049 A 
ATOM     66  H   UNL A   1      46.163  29.144  27.700  1.00  0.00     0.167 HD
ATOM     67  C   UNL A   1      47.271  26.714  26.768  1.00  0.00     0.074 A 
ATOM     68  C   UNL A   1      47.381  25.334  26.345  1.00  0.00     0.031 C 
ATOM     69  C   UNL A   1      48.274  27.622  26.672  1.00  0.00     0.031 A 
BRANCH  56  70
ATOM     70  C   UNL A   1      46.722  33.307  28.472  1.00  0.00    -0.014 A 
ATOM     71  C   UNL A   1      47.263  33.793  29.675  1.00  0.00     0.010 A 
ATOM     72  C   UNL A   1      46.676  34.154  27.348  1.00  0.00     0.010 A 
ATOM     73  C   UNL A   1      47.740  35.103  29.756  1.00  0.00     0.020 A 
ATOM     74  C   UNL A   1      47.170  35.459  27.420  1.00  0.00     0.020 A 
ATOM     75  C   UNL A   1      47.693  35.928  28.626  1.00  0.00     0.054 A 
BRANCH  75  76
ATOM     76  S   UNL A   1      48.382  37.603  28.743  1.00  0.00     0.124 S 
ATOM     77  O   UNL A   1      47.191  38.431  28.569  1.00  0.00    -0.237 OA
ATOM     78  O   UNL A   1      48.964  37.617  30.082  1.00  0.00    -0.237 OA
ATOM     79  O   UNL A   1      49.345  37.660  27.647  1.00  0.00    -0.744 OA
ENDBRANCH  75  76
ENDBRANCH  56  70
BRANCH  57  80
ATOM     80  C   UNL A   1      43.498  23.950  27.223  1.00  0.00    -0.014 A 
ATOM     81  C   UNL A   1      42.974  23.606  25.965  1.00  0.00     0.010 A 
ATOM     82  C   UNL A   1      43.532  22.979  28.241  1.00  0.00     0.010 A 
ATOM     83  C   UNL A   1      42.464  22.324  25.739  1.00  0.00     0.020 A 
ATOM     84  C   UNL A   1      43.047  21.689  28.009  1.00  0.00     0.020 A 
ATOM     85  C   UNL A   1      42.499  21.375  26.764  1.00  0.00     0.054 A 
BRANCH  85  86
ATOM     86  S   UNL A   1      41.852  19.711  26.446  1.00  0.00     0.124 S 
ATOM     87  O   UNL A   1      42.254  18.995  27.652  1.00  0.00    -0.237 OA
ATOM     88  O   UNL A   1      40.418  19.949  26.298  1.00  0.00    -0.237 OA
ATOM     89  O   UNL A   1      42.537  19.310  25.219  1.00  0.00    -0.744 OA
ENDBRANCH  85  86
ENDBRANCH  57  80
BRANCH  69  90
ATOM     90  C   UNL A   1      49.579  27.151  26.092  1.00  0.00    -0.014 A 
ATOM     91  C   UNL A   1      50.604  26.669  26.924  1.00  0.00     0.010 A 
ATOM     92  C   UNL A   1      49.761  27.139  24.698  1.00  0.00     0.010 A 
ATOM     93  C   UNL A   1      51.801  26.204  26.372  1.00  0.00     0.020 A 
ATOM     94  C   UNL A   1      50.946  26.651  24.141  1.00  0.00     0.020 A 
ATOM     95  C   UNL A   1      51.964  26.198  24.983  1.00  0.00     0.054 A 
BRANCH  95  96
ATOM     96  S   UNL A   1      53.505  25.540  24.289  1.00  0.00     0.124 S 
ATOM     97  O   UNL A   1      53.374  25.887  22.877  1.00  0.00    -0.237 OA
ATOM     98  O   UNL A   1      54.531  26.276  25.025  1.00  0.00    -0.237 OA
ATOM     99  O   UNL A   1      53.437  24.111  24.589  1.00  0.00    -0.744 OA
ENDBRANCH  95  96
ENDBRANCH  69  90
ENDBRANCH  43  44
ENDBRANCH  35  38
ENDBRANCH  33  34
ENDBRANCH  32  33
ENDBRANCH   1  32
TORSDOF 18
ENDMDL
