MODEL 1
REMARK VINA RESULT:     -10.7      0.000      0.000
REMARK SMILES CC[C@]1(C(=O)NCCCNC(=O)c2ccc(-c3c4nc(c(-c5ccc(S(=O)(=O)[O-])cc5)c5ccc([nH]5)c(-c5ccc(S(=O)(=O)[O-])cc5)c5nc(c(-c6ccc(S(=O)(=O)[O-])cc6)c6ccc3[nH]6)C=C5)C=C4)cc2)CCN(C(=O)[C@]2(C)CCCO2)C1
REMARK SMILES IDX 8 1 7 2 6 3 4 4 5 5 3 7 73 8 84 9 74 10 75 11 2 12 1 13
REMARK SMILES IDX 76 14 77 15 78 16 80 17 83 18 79 19 81 20 82 21 9 22 10 23
REMARK SMILES IDX 11 24 12 26 13 27 14 28 72 29 15 30 71 31 16 32 17 33 18 34
REMARK SMILES IDX 65 35 19 36 70 37 64 38 66 39 20 40 69 41 63 42 62 43 21 45
REMARK SMILES IDX 51 46 32 47 50 48 33 49 36 50 49 51 67 52 34 53 35 54 48 56
REMARK SMILES IDX 68 57 37 58 22 59 23 60 31 61 24 62 30 63 25 64 26 65 27 66
REMARK SMILES IDX 28 67 29 68 52 69 53 70 61 71 54 72 60 73 55 74 56 75 57 76
REMARK SMILES IDX 58 77 59 78 38 79 39 80 47 81 40 82 46 83 41 84 42 85 43 86
REMARK SMILES IDX 44 87 45 88
REMARK H PARENT 6 6 10 25 66 44 36 55
REMARK Flexibility Score: inf
ROOT
ATOM      1  C   UNL A   1      34.004  28.005  25.789  1.00  0.00     0.042 C 
ENDROOT
BRANCH   1   2
ATOM      2  C   UNL A   1      33.097  28.505  24.668  1.00  0.00     0.117 C 
BRANCH   2   3
ATOM      3  N   UNL A   1      33.420  27.858  23.411  1.00  0.00    -0.355 N 
ATOM      4  C   UNL A   1      33.104  26.651  22.891  1.00  0.00     0.228 C 
ATOM      5  O   UNL A   1      33.867  26.250  22.006  1.00  0.00    -0.274 OA
ATOM      6  H   UNL A   1      33.982  28.407  22.818  1.00  0.00     0.163 HD
BRANCH   4   7
ATOM      7  C   UNL A   1      31.902  25.810  23.351  1.00  0.00     0.068 C 
ATOM      8  C   UNL A   1      31.933  24.399  22.731  1.00  0.00     0.040 C 
ATOM      9  C   UNL A   1      31.884  25.548  24.871  1.00  0.00     0.136 C 
ATOM     10  C   UNL A   1      31.274  23.524  23.783  1.00  0.00     0.121 C 
ATOM     11  N   UNL A   1      31.727  24.103  25.028  1.00  0.00    -0.339 N 
BRANCH   7  12
ATOM     12  C   UNL A   1      30.598  26.525  22.891  1.00  0.00     0.015 C 
ATOM     13  C   UNL A   1      29.663  26.935  24.029  1.00  0.00     0.005 C 
ENDBRANCH   7  12
BRANCH  11  14
ATOM     14  C   UNL A   1      31.901  23.505  26.260  1.00  0.00     0.254 C 
ATOM     15  O   UNL A   1      31.159  23.824  27.199  1.00  0.00    -0.272 OA
BRANCH  14  16
ATOM     16  C   UNL A   1      33.084  22.506  26.505  1.00  0.00     0.144 C 
ATOM     17  C   UNL A   1      34.394  23.054  25.918  1.00  0.00     0.048 C 
ATOM     18  O   UNL A   1      32.891  21.196  25.950  1.00  0.00    -0.365 OA
ATOM     19  C   UNL A   1      33.246  22.326  28.026  1.00  0.00     0.053 C 
ATOM     20  C   UNL A   1      34.737  22.109  24.794  1.00  0.00     0.032 C 
ATOM     21  C   UNL A   1      34.075  20.823  25.229  1.00  0.00     0.162 C 
ENDBRANCH  14  16
ENDBRANCH  11  14
ENDBRANCH   4   7
ENDBRANCH   2   3
ENDBRANCH   1   2
BRANCH   1  22
ATOM     22  C   UNL A   1      33.515  28.344  27.195  1.00  0.00     0.118 C 
BRANCH  22  23
ATOM     23  N   UNL A   1      33.454  29.776  27.445  1.00  0.00    -0.352 N 
ATOM     24  C   UNL A   1      34.388  30.604  28.011  1.00  0.00     0.251 C 
ATOM     25  H   UNL A   1      32.619  30.216  27.165  1.00  0.00     0.163 HD
ATOM     26  O   UNL A   1      34.085  31.761  28.298  1.00  0.00    -0.269 OA
BRANCH  24  27
ATOM     27  C   UNL A   1      35.744  30.097  28.302  1.00  0.00     0.039 A 
ATOM     28  C   UNL A   1      36.714  30.153  27.298  1.00  0.00     0.014 A 
ATOM     29  C   UNL A   1      36.061  29.576  29.560  1.00  0.00     0.014 A 
ATOM     30  C   UNL A   1      38.020  29.748  27.579  1.00  0.00     0.010 A 
ATOM     31  C   UNL A   1      37.380  29.248  29.860  1.00  0.00     0.010 A 
ATOM     32  C   UNL A   1      38.373  29.329  28.872  1.00  0.00    -0.014 A 
BRANCH  32  33
ATOM     33  C   UNL A   1      39.775  28.978  29.211  1.00  0.00     0.031 A 
ATOM     34  C   UNL A   1      40.670  29.989  29.875  1.00  0.00     0.074 A 
ATOM     35  C   UNL A   1      40.260  27.768  28.869  1.00  0.00     0.049 A 
ATOM     36  N   UNL A   1      41.934  29.886  30.198  1.00  0.00    -0.248 NA
ATOM     37  C   UNL A   1      40.073  31.296  30.200  1.00  0.00     0.031 C 
ATOM     38  C   UNL A   1      39.502  26.712  28.192  1.00  0.00     0.029 A 
ATOM     39  N   UNL A   1      41.507  27.221  29.040  1.00  0.00    -0.354 N 
ATOM     40  C   UNL A   1      42.286  31.111  30.750  1.00  0.00     0.074 A 
ATOM     41  C   UNL A   1      41.119  31.962  30.669  1.00  0.00     0.031 C 
ATOM     42  C   UNL A   1      40.290  25.636  28.034  1.00  0.00     0.029 A 
ATOM     43  C   UNL A   1      41.620  25.939  28.553  1.00  0.00     0.049 A 
ATOM     44  H   UNL A   1      42.252  27.701  29.470  1.00  0.00     0.167 HD
ATOM     45  C   UNL A   1      43.467  31.489  31.296  1.00  0.00     0.031 A 
ATOM     46  C   UNL A   1      42.676  25.102  28.520  1.00  0.00     0.031 A 
ATOM     47  C   UNL A   1      44.625  30.638  31.375  1.00  0.00     0.049 A 
ATOM     48  C   UNL A   1      43.987  25.556  29.104  1.00  0.00     0.074 A 
ATOM     49  C   UNL A   1      45.855  30.912  31.948  1.00  0.00     0.029 A 
ATOM     50  N   UNL A   1      44.700  29.350  30.866  1.00  0.00    -0.354 N 
ATOM     51  N   UNL A   1      44.283  26.699  29.673  1.00  0.00    -0.248 NA
ATOM     52  C   UNL A   1      45.103  24.602  29.047  1.00  0.00     0.031 C 
ATOM     53  C   UNL A   1      46.691  29.813  31.731  1.00  0.00     0.029 A 
ATOM     54  C   UNL A   1      45.962  28.827  31.087  1.00  0.00     0.049 A 
ATOM     55  H   UNL A   1      43.963  28.878  30.414  1.00  0.00     0.167 HD
ATOM     56  C   UNL A   1      45.611  26.592  30.071  1.00  0.00     0.074 A 
ATOM     57  C   UNL A   1      46.054  25.266  29.690  1.00  0.00     0.031 C 
ATOM     58  C   UNL A   1      46.391  27.505  30.699  1.00  0.00     0.031 A 
BRANCH  45  59
ATOM     59  C   UNL A   1      43.566  32.889  31.844  1.00  0.00    -0.014 A 
ATOM     60  C   UNL A   1      44.042  33.949  31.049  1.00  0.00     0.010 A 
ATOM     61  C   UNL A   1      43.142  33.160  33.158  1.00  0.00     0.010 A 
ATOM     62  C   UNL A   1      44.130  35.242  31.571  1.00  0.00     0.020 A 
ATOM     63  C   UNL A   1      43.198  34.458  33.674  1.00  0.00     0.020 A 
ATOM     64  C   UNL A   1      43.709  35.488  32.880  1.00  0.00     0.054 A 
BRANCH  64  65
ATOM     65  S   UNL A   1      43.814  37.181  33.522  1.00  0.00     0.124 S 
ATOM     66  O   UNL A   1      42.648  37.243  34.399  1.00  0.00    -0.237 OA
ATOM     67  O   UNL A   1      45.110  37.186  34.198  1.00  0.00    -0.237 OA
ATOM     68  O   UNL A   1      43.737  38.013  32.324  1.00  0.00    -0.744 OA
ENDBRANCH  64  65
ENDBRANCH  45  59
BRANCH  46  69
ATOM     69  C   UNL A   1      42.532  23.746  27.924  1.00  0.00    -0.014 A 
ATOM     70  C   UNL A   1      41.997  22.686  28.678  1.00  0.00     0.010 A 
ATOM     71  C   UNL A   1      42.915  23.509  26.591  1.00  0.00     0.010 A 
ATOM     72  C   UNL A   1      41.864  21.412  28.117  1.00  0.00     0.020 A 
ATOM     73  C   UNL A   1      42.756  22.245  26.016  1.00  0.00     0.020 A 
ATOM     74  C   UNL A   1      42.240  21.201  26.788  1.00  0.00     0.054 A 
BRANCH  74  75
ATOM     75  S   UNL A   1      42.007  19.555  26.064  1.00  0.00     0.124 S 
ATOM     76  O   UNL A   1      42.828  19.631  24.860  1.00  0.00    -0.237 OA
ATOM     77  O   UNL A   1      42.507  18.675  27.117  1.00  0.00    -0.237 OA
ATOM     78  O   UNL A   1      40.565  19.482  25.837  1.00  0.00    -0.744 OA
ENDBRANCH  74  75
ENDBRANCH  46  69
BRANCH  58  79
ATOM     79  C   UNL A   1      47.798  27.096  31.048  1.00  0.00    -0.014 A 
ATOM     80  C   UNL A   1      48.872  27.345  30.176  1.00  0.00     0.010 A 
ATOM     81  C   UNL A   1      48.055  26.505  32.300  1.00  0.00     0.010 A 
ATOM     82  C   UNL A   1      50.173  26.982  30.536  1.00  0.00     0.020 A 
ATOM     83  C   UNL A   1      49.358  26.170  32.676  1.00  0.00     0.020 A 
ATOM     84  C   UNL A   1      50.408  26.399  31.785  1.00  0.00     0.054 A 
BRANCH  84  85
ATOM     85  S   UNL A   1      52.111  25.983  32.246  1.00  0.00     0.124 S 
ATOM     86  O   UNL A   1      52.123  26.284  33.675  1.00  0.00    -0.237 OA
ATOM     87  O   UNL A   1      52.199  24.566  31.902  1.00  0.00    -0.237 OA
ATOM     88  O   UNL A   1      52.923  26.871  31.416  1.00  0.00    -0.744 OA
ENDBRANCH  84  85
ENDBRANCH  58  79
ENDBRANCH  32  33
ENDBRANCH  24  27
ENDBRANCH  22  23
ENDBRANCH   1  22
TORSDOF 16
ENDMDL
MODEL 2
REMARK VINA RESULT:     -10.3      4.399     10.064
REMARK SMILES CC[C@]1(C(=O)NCCCNC(=O)c2ccc(-c3c4nc(c(-c5ccc(S(=O)(=O)[O-])cc5)c5ccc([nH]5)c(-c5ccc(S(=O)(=O)[O-])cc5)c5nc(c(-c6ccc(S(=O)(=O)[O-])cc6)c6ccc3[nH]6)C=C5)C=C4)cc2)CCN(C(=O)[C@]2(C)CCCO2)C1
REMARK SMILES IDX 8 1 7 2 6 3 4 4 5 5 3 7 73 8 84 9 74 10 75 11 2 12 1 13
REMARK SMILES IDX 76 14 77 15 78 16 80 17 83 18 79 19 81 20 82 21 9 22 10 23
REMARK SMILES IDX 11 24 12 26 13 27 14 28 72 29 15 30 71 31 16 32 17 33 18 34
REMARK SMILES IDX 65 35 19 36 70 37 64 38 66 39 20 40 69 41 63 42 62 43 21 45
REMARK SMILES IDX 51 46 32 47 50 48 33 49 36 50 49 51 67 52 34 53 35 54 48 56
REMARK SMILES IDX 68 57 37 58 22 59 23 60 31 61 24 62 30 63 25 64 26 65 27 66
REMARK SMILES IDX 28 67 29 68 52 69 53 70 61 71 54 72 60 73 55 74 56 75 57 76
REMARK SMILES IDX 58 77 59 78 38 79 39 80 47 81 40 82 46 83 41 84 42 85 43 86
REMARK SMILES IDX 44 87 45 88
REMARK H PARENT 6 6 10 25 66 44 36 55
REMARK Flexibility Score: inf
ROOT
ATOM      1  C   UNL A   1      37.213  23.312  25.691  1.00  0.00     0.042 C 
ENDROOT
BRANCH   1   2
ATOM      2  C   UNL A   1      36.165  23.972  24.798  1.00  0.00     0.117 C 
BRANCH   2   3
ATOM      3  N   UNL A   1      35.191  24.698  25.591  1.00  0.00    -0.355 N 
ATOM      4  C   UNL A   1      33.841  24.655  25.652  1.00  0.00     0.228 C 
ATOM      5  O   UNL A   1      33.309  25.673  26.109  1.00  0.00    -0.274 OA
ATOM      6  H   UNL A   1      35.592  25.353  26.206  1.00  0.00     0.163 HD
BRANCH   4   7
ATOM      7  C   UNL A   1      33.002  23.454  25.186  1.00  0.00     0.068 C 
ATOM      8  C   UNL A   1      33.089  23.267  23.658  1.00  0.00     0.040 C 
ATOM      9  C   UNL A   1      33.493  22.107  25.755  1.00  0.00     0.136 C 
ATOM     10  C   UNL A   1      32.944  21.768  23.466  1.00  0.00     0.121 C 
ATOM     11  N   UNL A   1      33.645  21.217  24.605  1.00  0.00    -0.339 N 
BRANCH   7  12
ATOM     12  C   UNL A   1      31.516  23.716  25.569  1.00  0.00     0.015 C 
ATOM     13  C   UNL A   1      30.891  22.638  26.456  1.00  0.00     0.005 C 
ENDBRANCH   7  12
BRANCH  11  14
ATOM     14  C   UNL A   1      34.287  20.002  24.734  1.00  0.00     0.254 C 
ATOM     15  O   UNL A   1      35.516  19.979  24.892  1.00  0.00    -0.272 OA
BRANCH  14  16
ATOM     16  C   UNL A   1      33.495  18.658  24.587  1.00  0.00     0.144 C 
ATOM     17  C   UNL A   1      34.457  17.470  24.428  1.00  0.00     0.048 C 
ATOM     18  O   UNL A   1      32.585  18.612  23.477  1.00  0.00    -0.365 OA
ATOM     19  C   UNL A   1      32.653  18.461  25.862  1.00  0.00     0.053 C 
ATOM     20  C   UNL A   1      34.217  16.965  23.028  1.00  0.00     0.032 C 
ATOM     21  C   UNL A   1      32.789  17.382  22.765  1.00  0.00     0.162 C 
ENDBRANCH  14  16
ENDBRANCH  11  14
ENDBRANCH   4   7
ENDBRANCH   2   3
ENDBRANCH   1   2
BRANCH   1  22
ATOM     22  C   UNL A   1      38.131  24.292  26.417  1.00  0.00     0.118 C 
BRANCH  22  23
ATOM     23  N   UNL A   1      39.542  24.031  26.178  1.00  0.00    -0.352 N 
ATOM     24  C   UNL A   1      40.644  24.722  26.614  1.00  0.00     0.251 C 
ATOM     25  H   UNL A   1      39.735  23.242  25.622  1.00  0.00     0.163 HD
ATOM     26  O   UNL A   1      41.754  24.447  26.162  1.00  0.00    -0.269 OA
BRANCH  24  27
ATOM     27  C   UNL A   1      40.491  25.810  27.599  1.00  0.00     0.039 A 
ATOM     28  C   UNL A   1      39.548  25.667  28.619  1.00  0.00     0.014 A 
ATOM     29  C   UNL A   1      41.277  26.962  27.523  1.00  0.00     0.014 A 
ATOM     30  C   UNL A   1      39.442  26.652  29.603  1.00  0.00     0.010 A 
ATOM     31  C   UNL A   1      41.225  27.904  28.547  1.00  0.00     0.010 A 
ATOM     32  C   UNL A   1      40.306  27.759  29.597  1.00  0.00    -0.014 A 
BRANCH  32  33
ATOM     33  C   UNL A   1      40.267  28.771  30.683  1.00  0.00     0.031 A 
ATOM     34  C   UNL A   1      41.189  28.649  31.866  1.00  0.00     0.074 A 
ATOM     35  C   UNL A   1      39.362  29.768  30.631  1.00  0.00     0.049 A 
ATOM     36  N   UNL A   1      41.264  29.402  32.934  1.00  0.00    -0.248 NA
ATOM     37  C   UNL A   1      42.136  27.521  31.860  1.00  0.00     0.031 C 
ATOM     38  C   UNL A   1      38.391  29.976  29.553  1.00  0.00     0.029 A 
ATOM     39  N   UNL A   1      39.107  30.794  31.507  1.00  0.00    -0.354 N 
ATOM     40  C   UNL A   1      42.253  28.835  33.729  1.00  0.00     0.074 A 
ATOM     41  C   UNL A   1      42.712  27.644  33.047  1.00  0.00     0.031 C 
ATOM     42  C   UNL A   1      37.670  31.078  29.816  1.00  0.00     0.029 A 
ATOM     43  C   UNL A   1      38.091  31.627  31.101  1.00  0.00     0.049 A 
ATOM     44  H   UNL A   1      39.604  30.921  32.347  1.00  0.00     0.167 HD
ATOM     45  C   UNL A   1      42.749  29.276  34.909  1.00  0.00     0.031 A 
ATOM     46  C   UNL A   1      37.551  32.708  31.698  1.00  0.00     0.031 A 
ATOM     47  C   UNL A   1      42.290  30.462  35.583  1.00  0.00     0.049 A 
ATOM     48  C   UNL A   1      38.099  33.161  33.025  1.00  0.00     0.074 A 
ATOM     49  C   UNL A   1      42.759  31.017  36.761  1.00  0.00     0.029 A 
ATOM     50  N   UNL A   1      41.256  31.274  35.142  1.00  0.00    -0.354 N 
ATOM     51  N   UNL A   1      39.073  32.644  33.733  1.00  0.00    -0.248 NA
ATOM     52  C   UNL A   1      37.478  34.349  33.628  1.00  0.00     0.031 C 
ATOM     53  C   UNL A   1      41.968  32.130  37.063  1.00  0.00     0.029 A 
ATOM     54  C   UNL A   1      41.053  32.310  36.038  1.00  0.00     0.049 A 
ATOM     55  H   UNL A   1      40.742  31.134  34.314  1.00  0.00     0.167 HD
ATOM     56  C   UNL A   1      39.205  33.460  34.851  1.00  0.00     0.074 A 
ATOM     57  C   UNL A   1      38.219  34.513  34.716  1.00  0.00     0.031 C 
ATOM     58  C   UNL A   1      40.065  33.351  35.892  1.00  0.00     0.031 A 
BRANCH  45  59
ATOM     59  C   UNL A   1      43.845  28.465  35.551  1.00  0.00    -0.014 A 
ATOM     60  C   UNL A   1      45.201  28.729  35.279  1.00  0.00     0.010 A 
ATOM     61  C   UNL A   1      43.520  27.450  36.470  1.00  0.00     0.010 A 
ATOM     62  C   UNL A   1      46.206  27.968  35.881  1.00  0.00     0.020 A 
ATOM     63  C   UNL A   1      44.524  26.707  37.099  1.00  0.00     0.020 A 
ATOM     64  C   UNL A   1      45.861  26.961  36.785  1.00  0.00     0.054 A 
BRANCH  64  65
ATOM     65  S   UNL A   1      47.190  26.004  37.567  1.00  0.00     0.124 S 
ATOM     66  O   UNL A   1      48.380  26.722  37.119  1.00  0.00    -0.237 OA
ATOM     67  O   UNL A   1      46.878  26.130  38.989  1.00  0.00    -0.237 OA
ATOM     68  O   UNL A   1      47.025  24.663  37.013  1.00  0.00    -0.744 OA
ENDBRANCH  64  65
ENDBRANCH  45  59
BRANCH  46  69
ATOM     69  C   UNL A   1      36.438  33.444  31.039  1.00  0.00    -0.014 A 
ATOM     70  C   UNL A   1      36.562  33.889  29.710  1.00  0.00     0.010 A 
ATOM     71  C   UNL A   1      35.238  33.692  31.731  1.00  0.00     0.010 A 
ATOM     72  C   UNL A   1      35.516  34.581  29.093  1.00  0.00     0.020 A 
ATOM     73  C   UNL A   1      34.179  34.357  31.108  1.00  0.00     0.020 A 
ATOM     74  C   UNL A   1      34.329  34.807  29.794  1.00  0.00     0.054 A 
BRANCH  74  75
ATOM     75  S   UNL A   1      32.965  35.658  28.955  1.00  0.00     0.124 S 
ATOM     76  O   UNL A   1      33.666  36.704  28.217  1.00  0.00    -0.237 OA
ATOM     77  O   UNL A   1      32.381  34.593  28.144  1.00  0.00    -0.237 OA
ATOM     78  O   UNL A   1      32.124  36.124  30.055  1.00  0.00    -0.744 OA
ENDBRANCH  74  75
ENDBRANCH  46  69
BRANCH  58  79
ATOM     79  C   UNL A   1      40.009  34.416  36.956  1.00  0.00    -0.014 A 
ATOM     80  C   UNL A   1      39.143  34.306  38.058  1.00  0.00     0.010 A 
ATOM     81  C   UNL A   1      40.883  35.516  36.879  1.00  0.00     0.010 A 
ATOM     82  C   UNL A   1      39.131  35.292  39.048  1.00  0.00     0.020 A 
ATOM     83  C   UNL A   1      40.896  36.489  37.883  1.00  0.00     0.020 A 
ATOM     84  C   UNL A   1      40.009  36.376  38.955  1.00  0.00     0.054 A 
BRANCH  84  85
ATOM     85  S   UNL A   1      40.006  37.617  40.277  1.00  0.00     0.124 S 
ATOM     86  O   UNL A   1      41.318  38.237  40.118  1.00  0.00    -0.237 OA
ATOM     87  O   UNL A   1      38.866  38.459  39.923  1.00  0.00    -0.237 OA
ATOM     88  O   UNL A   1      39.835  36.827  41.495  1.00  0.00    -0.744 OA
ENDBRANCH  84  85
ENDBRANCH  58  79
ENDBRANCH  32  33
ENDBRANCH  24  27
ENDBRANCH  22  23
ENDBRANCH   1  22
TORSDOF 16
ENDMDL
MODEL 3
REMARK VINA RESULT:     -10.2      3.120      3.849
REMARK SMILES CC[C@]1(C(=O)NCCCNC(=O)c2ccc(-c3c4nc(c(-c5ccc(S(=O)(=O)[O-])cc5)c5ccc([nH]5)c(-c5ccc(S(=O)(=O)[O-])cc5)c5nc(c(-c6ccc(S(=O)(=O)[O-])cc6)c6ccc3[nH]6)C=C5)C=C4)cc2)CCN(C(=O)[C@]2(C)CCCO2)C1
REMARK SMILES IDX 8 1 7 2 6 3 4 4 5 5 3 7 73 8 84 9 74 10 75 11 2 12 1 13
REMARK SMILES IDX 76 14 77 15 78 16 80 17 83 18 79 19 81 20 82 21 9 22 10 23
REMARK SMILES IDX 11 24 12 26 13 27 14 28 72 29 15 30 71 31 16 32 17 33 18 34
REMARK SMILES IDX 65 35 19 36 70 37 64 38 66 39 20 40 69 41 63 42 62 43 21 45
REMARK SMILES IDX 51 46 32 47 50 48 33 49 36 50 49 51 67 52 34 53 35 54 48 56
REMARK SMILES IDX 68 57 37 58 22 59 23 60 31 61 24 62 30 63 25 64 26 65 27 66
REMARK SMILES IDX 28 67 29 68 52 69 53 70 61 71 54 72 60 73 55 74 56 75 57 76
REMARK SMILES IDX 58 77 59 78 38 79 39 80 47 81 40 82 46 83 41 84 42 85 43 86
REMARK SMILES IDX 44 87 45 88
REMARK H PARENT 6 6 10 25 66 44 36 55
REMARK Flexibility Score: inf
ROOT
ATOM      1  C   UNL A   1      33.785  28.874  27.262  1.00  0.00     0.042 C 
ENDROOT
BRANCH   1   2
ATOM      2  C   UNL A   1      32.896  29.781  26.415  1.00  0.00     0.117 C 
BRANCH   2   3
ATOM      3  N   UNL A   1      33.274  29.719  25.016  1.00  0.00    -0.355 N 
ATOM      4  C   UNL A   1      32.844  28.963  23.982  1.00  0.00     0.228 C 
ATOM      5  O   UNL A   1      33.643  28.862  23.044  1.00  0.00    -0.274 OA
ATOM      6  H   UNL A   1      33.985  30.354  24.771  1.00  0.00     0.163 HD
BRANCH   4   7
ATOM      7  C   UNL A   1      31.478  28.258  23.947  1.00  0.00     0.068 C 
ATOM      8  C   UNL A   1      31.391  27.258  22.776  1.00  0.00     0.040 C 
ATOM      9  C   UNL A   1      31.202  27.395  25.195  1.00  0.00     0.136 C 
ATOM     10  C   UNL A   1      30.466  26.171  23.294  1.00  0.00     0.121 C 
ATOM     11  N   UNL A   1      30.814  26.078  24.694  1.00  0.00    -0.339 N 
BRANCH   7  12
ATOM     12  C   UNL A   1      30.373  29.338  23.757  1.00  0.00     0.015 C 
ATOM     13  C   UNL A   1      30.134  29.754  22.306  1.00  0.00     0.005 C 
ENDBRANCH   7  12
BRANCH  11  14
ATOM     14  C   UNL A   1      30.719  24.999  25.550  1.00  0.00     0.254 C 
ATOM     15  O   UNL A   1      29.885  25.023  26.466  1.00  0.00    -0.272 OA
BRANCH  14  16
ATOM     16  C   UNL A   1      31.714  23.794  25.434  1.00  0.00     0.144 C 
ATOM     17  C   UNL A   1      31.571  22.848  26.637  1.00  0.00     0.048 C 
ATOM     18  O   UNL A   1      33.100  24.162  25.354  1.00  0.00    -0.365 OA
ATOM     19  C   UNL A   1      31.381  23.025  24.142  1.00  0.00     0.053 C 
ATOM     20  C   UNL A   1      32.879  22.965  27.377  1.00  0.00     0.032 C 
ATOM     21  C   UNL A   1      33.844  23.363  26.286  1.00  0.00     0.162 C 
ENDBRANCH  14  16
ENDBRANCH  11  14
ENDBRANCH   4   7
ENDBRANCH   2   3
ENDBRANCH   1   2
BRANCH   1  22
ATOM     22  C   UNL A   1      35.183  29.428  27.525  1.00  0.00     0.118 C 
BRANCH  22  23
ATOM     23  N   UNL A   1      35.260  30.219  28.744  1.00  0.00    -0.352 N 
ATOM     24  C   UNL A   1      36.304  30.378  29.617  1.00  0.00     0.251 C 
ATOM     25  H   UNL A   1      34.440  30.713  28.976  1.00  0.00     0.163 HD
ATOM     26  O   UNL A   1      36.121  30.952  30.690  1.00  0.00    -0.269 OA
BRANCH  24  27
ATOM     27  C   UNL A   1      37.636  29.837  29.282  1.00  0.00     0.039 A 
ATOM     28  C   UNL A   1      38.042  29.826  27.946  1.00  0.00     0.014 A 
ATOM     29  C   UNL A   1      38.483  29.347  30.280  1.00  0.00     0.014 A 
ATOM     30  C   UNL A   1      39.326  29.387  27.619  1.00  0.00     0.010 A 
ATOM     31  C   UNL A   1      39.789  28.985  29.961  1.00  0.00     0.010 A 
ATOM     32  C   UNL A   1      40.224  29.000  28.628  1.00  0.00    -0.014 A 
BRANCH  32  33
ATOM     33  C   UNL A   1      41.621  28.614  28.307  1.00  0.00     0.031 A 
ATOM     34  C   UNL A   1      42.708  29.655  28.279  1.00  0.00     0.074 A 
ATOM     35  C   UNL A   1      41.901  27.335  27.985  1.00  0.00     0.049 A 
ATOM     36  N   UNL A   1      43.971  29.519  27.970  1.00  0.00    -0.248 NA
ATOM     37  C   UNL A   1      42.319  31.033  28.624  1.00  0.00     0.031 C 
ATOM     38  C   UNL A   1      40.929  26.240  27.943  1.00  0.00     0.029 A 
ATOM     39  N   UNL A   1      43.085  26.740  27.627  1.00  0.00    -0.354 N 
ATOM     40  C   UNL A   1      44.525  30.790  28.069  1.00  0.00     0.074 A 
ATOM     41  C   UNL A   1      43.449  31.694  28.415  1.00  0.00     0.031 C 
ATOM     42  C   UNL A   1      41.561  25.102  27.612  1.00  0.00     0.029 A 
ATOM     43  C   UNL A   1      42.971  25.394  27.371  1.00  0.00     0.049 A 
ATOM     44  H   UNL A   1      43.936  27.231  27.559  1.00  0.00     0.167 HD
ATOM     45  C   UNL A   1      45.816  31.169  27.909  1.00  0.00     0.031 A 
ATOM     46  C   UNL A   1      43.894  24.494  26.977  1.00  0.00     0.031 A 
ATOM     47  C   UNL A   1      46.882  30.266  27.566  1.00  0.00     0.049 A 
ATOM     48  C   UNL A   1      45.316  24.945  26.775  1.00  0.00     0.074 A 
ATOM     49  C   UNL A   1      48.231  30.544  27.424  1.00  0.00     0.029 A 
ATOM     50  N   UNL A   1      46.725  28.912  27.310  1.00  0.00    -0.354 N 
ATOM     51  N   UNL A   1      45.830  26.141  26.930  1.00  0.00    -0.248 NA
ATOM     52  C   UNL A   1      46.282  23.922  26.353  1.00  0.00     0.031 C 
ATOM     53  C   UNL A   1      48.878  29.370  27.023  1.00  0.00     0.029 A 
ATOM     54  C   UNL A   1      47.945  28.346  26.983  1.00  0.00     0.049 A 
ATOM     55  H   UNL A   1      45.870  28.425  27.353  1.00  0.00     0.167 HD
ATOM     56  C   UNL A   1      47.186  26.009  26.655  1.00  0.00     0.074 A 
ATOM     57  C   UNL A   1      47.413  24.613  26.338  1.00  0.00     0.031 C 
ATOM     58  C   UNL A   1      48.157  26.955  26.667  1.00  0.00     0.031 A 
BRANCH  45  59
ATOM     59  C   UNL A   1      46.143  32.628  28.097  1.00  0.00    -0.014 A 
ATOM     60  C   UNL A   1      46.056  33.537  27.025  1.00  0.00     0.010 A 
ATOM     61  C   UNL A   1      46.504  33.107  29.369  1.00  0.00     0.010 A 
ATOM     62  C   UNL A   1      46.364  34.886  27.214  1.00  0.00     0.020 A 
ATOM     63  C   UNL A   1      46.782  34.463  29.569  1.00  0.00     0.020 A 
ATOM     64  C   UNL A   1      46.726  35.341  28.484  1.00  0.00     0.054 A 
BRANCH  64  65
ATOM     65  S   UNL A   1      47.098  37.103  28.702  1.00  0.00     0.124 S 
ATOM     66  O   UNL A   1      48.378  37.228  28.010  1.00  0.00    -0.237 OA
ATOM     67  O   UNL A   1      45.963  37.751  28.047  1.00  0.00    -0.237 OA
ATOM     68  O   UNL A   1      47.154  37.269  30.152  1.00  0.00    -0.744 OA
ENDBRANCH  64  65
ENDBRANCH  45  59
BRANCH  46  69
ATOM     69  C   UNL A   1      43.504  23.073  26.762  1.00  0.00    -0.014 A 
ATOM     70  C   UNL A   1      43.691  22.463  25.509  1.00  0.00     0.010 A 
ATOM     71  C   UNL A   1      42.956  22.317  27.814  1.00  0.00     0.010 A 
ATOM     72  C   UNL A   1      43.323  21.129  25.307  1.00  0.00     0.020 A 
ATOM     73  C   UNL A   1      42.614  20.975  27.626  1.00  0.00     0.020 A 
ATOM     74  C   UNL A   1      42.791  20.392  26.369  1.00  0.00     0.054 A 
BRANCH  74  75
ATOM     75  S   UNL A   1      42.371  18.648  26.099  1.00  0.00     0.124 S 
ATOM     76  O   UNL A   1      40.968  18.729  25.708  1.00  0.00    -0.237 OA
ATOM     77  O   UNL A   1      43.303  18.261  25.044  1.00  0.00    -0.237 OA
ATOM     78  O   UNL A   1      42.625  18.031  27.400  1.00  0.00    -0.744 OA
ENDBRANCH  74  75
ENDBRANCH  46  69
BRANCH  58  79
ATOM     79  C   UNL A   1      49.564  26.513  26.364  1.00  0.00    -0.014 A 
ATOM     80  C   UNL A   1      50.137  26.712  25.096  1.00  0.00     0.010 A 
ATOM     81  C   UNL A   1      50.345  25.941  27.386  1.00  0.00     0.010 A 
ATOM     82  C   UNL A   1      51.455  26.320  24.847  1.00  0.00     0.020 A 
ATOM     83  C   UNL A   1      51.673  25.577  27.150  1.00  0.00     0.020 A 
ATOM     84  C   UNL A   1      52.216  25.757  25.877  1.00  0.00     0.054 A 
BRANCH  84  85
ATOM     85  S   UNL A   1      53.938  25.302  25.540  1.00  0.00     0.124 S 
ATOM     86  O   UNL A   1      53.931  23.866  25.803  1.00  0.00    -0.237 OA
ATOM     87  O   UNL A   1      54.102  25.683  24.140  1.00  0.00    -0.237 OA
ATOM     88  O   UNL A   1      54.703  26.105  26.492  1.00  0.00    -0.744 OA
ENDBRANCH  84  85
ENDBRANCH  58  79
ENDBRANCH  32  33
ENDBRANCH  24  27
ENDBRANCH  22  23
ENDBRANCH   1  22
TORSDOF 16
ENDMDL
