MODEL 1
REMARK VINA RESULT:     -11.2      0.000      0.000
REMARK SMILES [NH3+][C@H]1C=C[C@@H](C(=O)N2CCC(CC(=O)NCCCNC(=O)c3ccc(-c4c5nc(c(-c6ccc(S(=O)(=O)[O-])cc6)c6ccc([nH]6)c(-c6ccc(S(=O)(=O)[O-])cc6)c6nc(c(-c7ccc(S(=O)(=O)[O-])cc7)c7ccc4[nH]7)C=C6)C=C5)cc3)CC2)C1
REMARK SMILES IDX 17 1 16 2 15 3 13 4 14 5 12 7 11 8 6 9 7 10 8 11 9 12 83 13
REMARK SMILES IDX 10 14 82 15 5 16 2 17 3 18 84 19 4 20 1 21 18 25 19 26 20 27
REMARK SMILES IDX 21 29 22 30 23 31 81 32 24 33 80 34 25 35 26 36 27 37 74 38
REMARK SMILES IDX 28 39 79 40 73 41 75 42 29 43 78 44 72 45 71 46 30 48 60 49
REMARK SMILES IDX 41 50 59 51 42 52 45 53 58 54 76 55 43 56 44 57 57 59 77 60
REMARK SMILES IDX 46 61 31 62 32 63 40 64 33 65 39 66 34 67 35 68 36 69 37 70
REMARK SMILES IDX 38 71 61 72 62 73 70 74 63 75 69 76 64 77 65 78 66 79 67 80
REMARK SMILES IDX 68 81 47 82 48 83 56 84 49 85 55 86 50 87 51 88 52 89 53 90
REMARK SMILES IDX 54 91
REMARK H PARENT 15 6 1 22 1 23 1 24 19 28 75 47 45 58
REMARK Flexibility Score: inf
ROOT
ATOM      1  C   UNL A   1      35.380  23.527  26.279  1.00  0.00     0.042 C 
ENDROOT
BRANCH   1   2
ATOM      2  C   UNL A   1      33.999  23.799  25.680  1.00  0.00     0.117 C 
BRANCH   2   3
ATOM      3  N   UNL A   1      33.932  23.483  24.258  1.00  0.00    -0.356 N 
ATOM      4  C   UNL A   1      33.841  24.294  23.166  1.00  0.00     0.220 C 
ATOM      5  O   UNL A   1      33.790  23.770  22.051  1.00  0.00    -0.275 OA
ATOM      6  H   UNL A   1      33.957  22.522  24.051  1.00  0.00     0.163 HD
BRANCH   4   7
ATOM      7  C   UNL A   1      33.796  25.800  23.316  1.00  0.00     0.103 C 
BRANCH   7   8
ATOM      8  C   UNL A   1      32.473  26.316  23.910  1.00  0.00     0.002 C 
ATOM      9  C   UNL A   1      30.211  29.258  22.794  1.00  0.00     0.229 C 
ATOM     10  O   UNL A   1      31.100  29.433  21.962  1.00  0.00    -0.274 OA
ATOM     11  N   UNL A   1      30.279  28.239  23.738  1.00  0.00    -0.342 N 
ATOM     12  C   UNL A   1      31.258  28.385  24.800  1.00  0.00     0.120 C 
ATOM     13  C   UNL A   1      30.066  26.869  23.303  1.00  0.00     0.120 C 
ATOM     14  C   UNL A   1      32.596  27.762  24.409  1.00  0.00     0.026 C 
ATOM     15  C   UNL A   1      31.364  26.206  22.851  1.00  0.00     0.026 C 
BRANCH   9  16
ATOM     16  C   UNL A   1      28.959  30.145  22.849  1.00  0.00     0.107 C 
ATOM     17  C   UNL A   1      28.536  32.561  23.101  1.00  0.00     0.205 C 
ATOM     18  C   UNL A   1      28.452  32.125  21.682  1.00  0.00     0.033 C 
ATOM     19  C   UNL A   1      29.084  31.323  23.828  1.00  0.00     0.087 C 
ATOM     20  C   UNL A   1      28.664  30.813  21.540  1.00  0.00    -0.012 C 
BRANCH  17  21
ATOM     21  N   UNL A   1      29.407  33.715  23.252  1.00  0.00    -0.352 N 
ATOM     22  H   UNL A   1      30.348  33.473  22.945  1.00  0.00     0.345 HD
ATOM     23  H   UNL A   1      29.432  33.996  24.233  1.00  0.00     0.345 HD
ATOM     24  H   UNL A   1      29.052  34.486  22.686  1.00  0.00     0.345 HD
ENDBRANCH  17  21
ENDBRANCH   9  16
ENDBRANCH   7   8
ENDBRANCH   4   7
ENDBRANCH   2   3
ENDBRANCH   1   2
BRANCH   1  25
ATOM     25  C   UNL A   1      36.531  23.671  25.293  1.00  0.00     0.118 C 
BRANCH  25  26
ATOM     26  N   UNL A   1      37.580  22.700  25.546  1.00  0.00    -0.352 N 
ATOM     27  C   UNL A   1      38.836  22.880  26.075  1.00  0.00     0.251 C 
ATOM     28  H   UNL A   1      37.358  21.771  25.302  1.00  0.00     0.163 HD
ATOM     29  O   UNL A   1      39.662  21.978  25.961  1.00  0.00    -0.269 OA
BRANCH  27  30
ATOM     30  C   UNL A   1      39.212  24.139  26.770  1.00  0.00     0.039 A 
ATOM     31  C   UNL A   1      39.983  25.080  26.081  1.00  0.00     0.014 A 
ATOM     32  C   UNL A   1      38.887  24.368  28.111  1.00  0.00     0.014 A 
ATOM     33  C   UNL A   1      40.399  26.254  26.720  1.00  0.00     0.010 A 
ATOM     34  C   UNL A   1      39.239  25.572  28.725  1.00  0.00     0.010 A 
ATOM     35  C   UNL A   1      40.020  26.519  28.046  1.00  0.00    -0.014 A 
BRANCH  35  36
ATOM     36  C   UNL A   1      40.468  27.753  28.746  1.00  0.00     0.031 A 
ATOM     37  C   UNL A   1      41.846  27.822  29.357  1.00  0.00     0.074 A 
ATOM     38  C   UNL A   1      39.629  28.799  28.878  1.00  0.00     0.049 A 
ATOM     39  N   UNL A   1      42.396  28.787  30.050  1.00  0.00    -0.248 NA
ATOM     40  C   UNL A   1      42.709  26.641  29.188  1.00  0.00     0.031 C 
ATOM     41  C   UNL A   1      38.257  28.856  28.370  1.00  0.00     0.029 A 
ATOM     42  N   UNL A   1      39.808  30.018  29.488  1.00  0.00    -0.354 N 
ATOM     43  C   UNL A   1      43.652  28.320  30.423  1.00  0.00     0.074 A 
ATOM     44  C   UNL A   1      43.768  26.972  29.911  1.00  0.00     0.031 C 
ATOM     45  C   UNL A   1      37.726  30.052  28.671  1.00  0.00     0.029 A 
ATOM     46  C   UNL A   1      38.705  30.837  29.420  1.00  0.00     0.049 A 
ATOM     47  H   UNL A   1      40.646  30.279  29.932  1.00  0.00     0.167 HD
ATOM     48  C   UNL A   1      44.629  28.957  31.112  1.00  0.00     0.031 A 
ATOM     49  C   UNL A   1      38.499  32.076  29.905  1.00  0.00     0.031 A 
ATOM     50  C   UNL A   1      44.531  30.310  31.596  1.00  0.00     0.049 A 
ATOM     51  C   UNL A   1      39.606  32.776  30.645  1.00  0.00     0.074 A 
ATOM     52  C   UNL A   1      45.493  31.062  32.246  1.00  0.00     0.029 A 
ATOM     53  N   UNL A   1      43.407  31.111  31.479  1.00  0.00    -0.354 N 
ATOM     54  N   UNL A   1      40.808  32.337  30.934  1.00  0.00    -0.248 NA
ATOM     55  C   UNL A   1      39.333  34.142  31.113  1.00  0.00     0.031 C 
ATOM     56  C   UNL A   1      44.937  32.308  32.556  1.00  0.00     0.029 A 
ATOM     57  C   UNL A   1      43.645  32.346  32.059  1.00  0.00     0.049 A 
ATOM     58  H   UNL A   1      42.563  30.843  31.047  1.00  0.00     0.167 HD
ATOM     59  C   UNL A   1      41.441  33.381  31.599  1.00  0.00     0.074 A 
ATOM     60  C   UNL A   1      40.495  34.477  31.658  1.00  0.00     0.031 C 
ATOM     61  C   UNL A   1      42.694  33.427  32.114  1.00  0.00     0.031 A 
BRANCH  48  62
ATOM     62  C   UNL A   1      45.894  28.191  31.390  1.00  0.00    -0.014 A 
ATOM     63  C   UNL A   1      46.025  27.395  32.542  1.00  0.00     0.010 A 
ATOM     64  C   UNL A   1      46.959  28.245  30.472  1.00  0.00     0.010 A 
ATOM     65  C   UNL A   1      47.214  26.707  32.797  1.00  0.00     0.020 A 
ATOM     66  C   UNL A   1      48.142  27.537  30.710  1.00  0.00     0.020 A 
ATOM     67  C   UNL A   1      48.269  26.790  31.882  1.00  0.00     0.054 A 
BRANCH  67  68
ATOM     68  S   UNL A   1      49.800  25.883  32.231  1.00  0.00     0.124 S 
ATOM     69  O   UNL A   1      49.945  25.067  31.027  1.00  0.00    -0.237 OA
ATOM     70  O   UNL A   1      50.783  26.952  32.385  1.00  0.00    -0.237 OA
ATOM     71  O   UNL A   1      49.494  25.142  33.452  1.00  0.00    -0.744 OA
ENDBRANCH  67  68
ENDBRANCH  48  62
BRANCH  49  72
ATOM     72  C   UNL A   1      37.189  32.746  29.687  1.00  0.00    -0.014 A 
ATOM     73  C   UNL A   1      36.202  32.722  30.687  1.00  0.00     0.010 A 
ATOM     74  C   UNL A   1      36.934  33.434  28.486  1.00  0.00     0.010 A 
ATOM     75  C   UNL A   1      34.977  33.365  30.487  1.00  0.00     0.020 A 
ATOM     76  C   UNL A   1      35.719  34.097  28.292  1.00  0.00     0.020 A 
ATOM     77  C   UNL A   1      34.744  34.051  29.291  1.00  0.00     0.054 A 
BRANCH  77  78
ATOM     78  S   UNL A   1      33.175  34.938  29.079  1.00  0.00     0.124 S 
ATOM     79  O   UNL A   1      32.517  34.145  28.045  1.00  0.00    -0.237 OA
ATOM     80  O   UNL A   1      32.582  34.858  30.412  1.00  0.00    -0.237 OA
ATOM     81  O   UNL A   1      33.594  36.277  28.673  1.00  0.00    -0.744 OA
ENDBRANCH  77  78
ENDBRANCH  49  72
BRANCH  61  82
ATOM     82  C   UNL A   1      43.130  34.712  32.764  1.00  0.00    -0.014 A 
ATOM     83  C   UNL A   1      43.710  35.747  32.009  1.00  0.00     0.010 A 
ATOM     84  C   UNL A   1      42.904  34.908  34.138  1.00  0.00     0.010 A 
ATOM     85  C   UNL A   1      44.082  36.945  32.624  1.00  0.00     0.020 A 
ATOM     86  C   UNL A   1      43.255  36.112  34.752  1.00  0.00     0.020 A 
ATOM     87  C   UNL A   1      43.855  37.119  33.993  1.00  0.00     0.054 A 
BRANCH  87  88
ATOM     88  S   UNL A   1      44.305  38.700  34.763  1.00  0.00     0.124 S 
ATOM     89  O   UNL A   1      44.057  38.430  36.176  1.00  0.00    -0.237 OA
ATOM     90  O   UNL A   1      45.708  38.855  34.387  1.00  0.00    -0.237 OA
ATOM     91  O   UNL A   1      43.393  39.658  34.142  1.00  0.00    -0.744 OA
ENDBRANCH  87  88
ENDBRANCH  61  82
ENDBRANCH  35  36
ENDBRANCH  27  30
ENDBRANCH  25  26
ENDBRANCH   1  25
TORSDOF 16
ENDMDL
MODEL 2
REMARK VINA RESULT:     -11.1      2.666      9.619
REMARK SMILES [NH3+][C@H]1C=C[C@@H](C(=O)N2CCC(CC(=O)NCCCNC(=O)c3ccc(-c4c5nc(c(-c6ccc(S(=O)(=O)[O-])cc6)c6ccc([nH]6)c(-c6ccc(S(=O)(=O)[O-])cc6)c6nc(c(-c7ccc(S(=O)(=O)[O-])cc7)c7ccc4[nH]7)C=C6)C=C5)cc3)CC2)C1
REMARK SMILES IDX 17 1 16 2 15 3 13 4 14 5 12 7 11 8 6 9 7 10 8 11 9 12 83 13
REMARK SMILES IDX 10 14 82 15 5 16 2 17 3 18 84 19 4 20 1 21 18 25 19 26 20 27
REMARK SMILES IDX 21 29 22 30 23 31 81 32 24 33 80 34 25 35 26 36 27 37 74 38
REMARK SMILES IDX 28 39 79 40 73 41 75 42 29 43 78 44 72 45 71 46 30 48 60 49
REMARK SMILES IDX 41 50 59 51 42 52 45 53 58 54 76 55 43 56 44 57 57 59 77 60
REMARK SMILES IDX 46 61 31 62 32 63 40 64 33 65 39 66 34 67 35 68 36 69 37 70
REMARK SMILES IDX 38 71 61 72 62 73 70 74 63 75 69 76 64 77 65 78 66 79 67 80
REMARK SMILES IDX 68 81 47 82 48 83 56 84 49 85 55 86 50 87 51 88 52 89 53 90
REMARK SMILES IDX 54 91
REMARK H PARENT 15 6 1 22 1 23 1 24 19 28 75 47 45 58
REMARK Flexibility Score: inf
ROOT
ATOM      1  C   UNL A   1      33.091  28.165  25.288  1.00  0.00     0.042 C 
ENDROOT
BRANCH   1   2
ATOM      2  C   UNL A   1      31.797  28.977  25.218  1.00  0.00     0.117 C 
BRANCH   2   3
ATOM      3  N   UNL A   1      31.312  29.147  23.854  1.00  0.00    -0.356 N 
ATOM      4  C   UNL A   1      30.548  28.335  23.070  1.00  0.00     0.220 C 
ATOM      5  O   UNL A   1      30.276  28.712  21.928  1.00  0.00    -0.275 OA
ATOM      6  H   UNL A   1      31.580  29.991  23.427  1.00  0.00     0.163 HD
BRANCH   4   7
ATOM      7  C   UNL A   1      30.050  27.000  23.583  1.00  0.00     0.103 C 
BRANCH   7   8
ATOM      8  C   UNL A   1      30.718  25.795  22.898  1.00  0.00     0.002 C 
ATOM      9  C   UNL A   1      34.010  23.938  23.757  1.00  0.00     0.229 C 
ATOM     10  O   UNL A   1      34.100  24.806  24.626  1.00  0.00    -0.274 OA
ATOM     11  N   UNL A   1      32.942  23.899  22.867  1.00  0.00    -0.342 N 
ATOM     12  C   UNL A   1      32.889  24.934  21.851  1.00  0.00     0.120 C 
ATOM     13  C   UNL A   1      31.642  23.469  23.354  1.00  0.00     0.120 C 
ATOM     14  C   UNL A   1      32.103  26.148  22.338  1.00  0.00     0.026 C 
ATOM     15  C   UNL A   1      30.826  24.635  23.902  1.00  0.00     0.026 C 
BRANCH   9  16
ATOM     16  C   UNL A   1      35.063  22.832  23.597  1.00  0.00     0.107 C 
ATOM     17  C   UNL A   1      37.045  22.106  24.870  1.00  0.00     0.205 C 
ATOM     18  C   UNL A   1      35.857  21.258  25.156  1.00  0.00     0.033 C 
ATOM     19  C   UNL A   1      36.472  23.260  24.033  1.00  0.00     0.087 C 
ATOM     20  C   UNL A   1      34.783  21.636  24.456  1.00  0.00    -0.012 C 
BRANCH  17  21
ATOM     21  N   UNL A   1      37.670  22.576  26.095  1.00  0.00    -0.352 N 
ATOM     22  H   UNL A   1      37.724  23.594  26.080  1.00  0.00     0.345 HD
ATOM     23  H   UNL A   1      38.611  22.187  26.168  1.00  0.00     0.345 HD
ATOM     24  H   UNL A   1      37.115  22.277  26.897  1.00  0.00     0.345 HD
ENDBRANCH  17  21
ENDBRANCH   9  16
ENDBRANCH   7   8
ENDBRANCH   4   7
ENDBRANCH   2   3
ENDBRANCH   1   2
BRANCH   1  25
ATOM     25  C   UNL A   1      33.890  28.368  26.568  1.00  0.00     0.118 C 
BRANCH  25  26
ATOM     26  N   UNL A   1      33.737  29.715  27.088  1.00  0.00    -0.352 N 
ATOM     27  C   UNL A   1      34.568  30.439  27.911  1.00  0.00     0.251 C 
ATOM     28  H   UNL A   1      32.915  30.180  26.809  1.00  0.00     0.163 HD
ATOM     29  O   UNL A   1      34.132  31.455  28.446  1.00  0.00    -0.269 OA
BRANCH  27  30
ATOM     30  C   UNL A   1      35.968  30.013  28.169  1.00  0.00     0.039 A 
ATOM     31  C   UNL A   1      36.305  29.556  29.446  1.00  0.00     0.014 A 
ATOM     32  C   UNL A   1      36.967  30.136  27.199  1.00  0.00     0.014 A 
ATOM     33  C   UNL A   1      37.626  29.196  29.741  1.00  0.00     0.010 A 
ATOM     34  C   UNL A   1      38.269  29.707  27.470  1.00  0.00     0.010 A 
ATOM     35  C   UNL A   1      38.619  29.255  28.751  1.00  0.00    -0.014 A 
BRANCH  35  36
ATOM     36  C   UNL A   1      40.031  28.892  29.051  1.00  0.00     0.031 A 
ATOM     37  C   UNL A   1      40.960  29.905  29.674  1.00  0.00     0.074 A 
ATOM     38  C   UNL A   1      40.501  27.671  28.726  1.00  0.00     0.049 A 
ATOM     39  N   UNL A   1      42.232  29.795  29.960  1.00  0.00    -0.248 NA
ATOM     40  C   UNL A   1      40.388  31.224  29.993  1.00  0.00     0.031 C 
ATOM     41  C   UNL A   1      39.726  26.607  28.086  1.00  0.00     0.029 A 
ATOM     42  N   UNL A   1      41.750  27.122  28.886  1.00  0.00    -0.354 N 
ATOM     43  C   UNL A   1      42.619  31.032  30.464  1.00  0.00     0.074 A 
ATOM     44  C   UNL A   1      41.454  31.890  30.409  1.00  0.00     0.031 C 
ATOM     45  C   UNL A   1      40.509  25.528  27.926  1.00  0.00     0.029 A 
ATOM     46  C   UNL A   1      41.850  25.832  28.421  1.00  0.00     0.049 A 
ATOM     47  H   UNL A   1      42.503  27.607  29.294  1.00  0.00     0.167 HD
ATOM     48  C   UNL A   1      43.824  31.419  30.945  1.00  0.00     0.031 A 
ATOM     49  C   UNL A   1      42.898  24.986  28.392  1.00  0.00     0.031 A 
ATOM     50  C   UNL A   1      44.977  30.560  31.031  1.00  0.00     0.049 A 
ATOM     51  C   UNL A   1      44.221  25.427  28.955  1.00  0.00     0.074 A 
ATOM     52  C   UNL A   1      46.222  30.843  31.565  1.00  0.00     0.029 A 
ATOM     53  N   UNL A   1      45.024  29.253  30.576  1.00  0.00    -0.354 N 
ATOM     54  N   UNL A   1      44.547  26.583  29.481  1.00  0.00    -0.248 NA
ATOM     55  C   UNL A   1      45.314  24.444  28.931  1.00  0.00     0.031 C 
ATOM     56  C   UNL A   1      47.035  29.717  31.398  1.00  0.00     0.029 A 
ATOM     57  C   UNL A   1      46.282  28.719  30.801  1.00  0.00     0.049 A 
ATOM     58  H   UNL A   1      44.274  28.773  30.154  1.00  0.00     0.167 HD
ATOM     59  C   UNL A   1      45.876  26.459  29.870  1.00  0.00     0.074 A 
ATOM     60  C   UNL A   1      46.290  25.112  29.531  1.00  0.00     0.031 C 
ATOM     61  C   UNL A   1      46.681  27.379  30.457  1.00  0.00     0.031 A 
BRANCH  48  62
ATOM     62  C   UNL A   1      43.960  32.843  31.413  1.00  0.00    -0.014 A 
ATOM     63  C   UNL A   1      43.720  33.194  32.754  1.00  0.00     0.010 A 
ATOM     64  C   UNL A   1      44.360  33.841  30.506  1.00  0.00     0.010 A 
ATOM     65  C   UNL A   1      43.828  34.524  33.168  1.00  0.00     0.020 A 
ATOM     66  C   UNL A   1      44.495  35.170  30.922  1.00  0.00     0.020 A 
ATOM     67  C   UNL A   1      44.208  35.506  32.246  1.00  0.00     0.054 A 
BRANCH  67  68
ATOM     68  S   UNL A   1      44.349  37.224  32.809  1.00  0.00     0.124 S 
ATOM     69  O   UNL A   1      44.356  37.954  31.543  1.00  0.00    -0.237 OA
ATOM     70  O   UNL A   1      43.151  37.398  33.625  1.00  0.00    -0.237 OA
ATOM     71  O   UNL A   1      45.609  37.245  33.546  1.00  0.00    -0.744 OA
ENDBRANCH  67  68
ENDBRANCH  48  62
BRANCH  49  72
ATOM     72  C   UNL A   1      42.730  23.622  27.823  1.00  0.00    -0.014 A 
ATOM     73  C   UNL A   1      42.228  22.577  28.616  1.00  0.00     0.010 A 
ATOM     74  C   UNL A   1      43.048  23.370  26.476  1.00  0.00     0.010 A 
ATOM     75  C   UNL A   1      42.056  21.299  28.077  1.00  0.00     0.020 A 
ATOM     76  C   UNL A   1      42.856  22.099  25.927  1.00  0.00     0.020 A 
ATOM     77  C   UNL A   1      42.369  21.069  26.734  1.00  0.00     0.054 A 
BRANCH  77  78
ATOM     78  S   UNL A   1      42.073  19.421  26.034  1.00  0.00     0.124 S 
ATOM     79  O   UNL A   1      42.533  18.548  27.110  1.00  0.00    -0.237 OA
ATOM     80  O   UNL A   1      40.631  19.429  25.798  1.00  0.00    -0.237 OA
ATOM     81  O   UNL A   1      42.893  19.413  24.825  1.00  0.00    -0.744 OA
ENDBRANCH  77  78
ENDBRANCH  49  72
BRANCH  61  82
ATOM     82  C   UNL A   1      48.085  26.956  30.796  1.00  0.00    -0.014 A 
ATOM     83  C   UNL A   1      49.136  27.130  29.880  1.00  0.00     0.010 A 
ATOM     84  C   UNL A   1      48.363  26.427  32.070  1.00  0.00     0.010 A 
ATOM     85  C   UNL A   1      50.439  26.758  30.222  1.00  0.00     0.020 A 
ATOM     86  C   UNL A   1      49.667  26.073  32.423  1.00  0.00     0.020 A 
ATOM     87  C   UNL A   1      50.696  26.229  31.491  1.00  0.00     0.054 A 
BRANCH  87  88
ATOM     88  S   UNL A   1      52.402  25.794  31.931  1.00  0.00     0.124 S 
ATOM     89  O   UNL A   1      53.118  26.088  30.693  1.00  0.00    -0.237 OA
ATOM     90  O   UNL A   1      52.686  26.689  33.050  1.00  0.00    -0.237 OA
ATOM     91  O   UNL A   1      52.318  24.378  32.282  1.00  0.00    -0.744 OA
ENDBRANCH  87  88
ENDBRANCH  61  82
ENDBRANCH  35  36
ENDBRANCH  27  30
ENDBRANCH  25  26
ENDBRANCH   1  25
TORSDOF 16
ENDMDL
MODEL 3
REMARK VINA RESULT:     -11.1      1.822      2.347
REMARK SMILES [NH3+][C@H]1C=C[C@@H](C(=O)N2CCC(CC(=O)NCCCNC(=O)c3ccc(-c4c5nc(c(-c6ccc(S(=O)(=O)[O-])cc6)c6ccc([nH]6)c(-c6ccc(S(=O)(=O)[O-])cc6)c6nc(c(-c7ccc(S(=O)(=O)[O-])cc7)c7ccc4[nH]7)C=C6)C=C5)cc3)CC2)C1
REMARK SMILES IDX 17 1 16 2 15 3 13 4 14 5 12 7 11 8 6 9 7 10 8 11 9 12 83 13
REMARK SMILES IDX 10 14 82 15 5 16 2 17 3 18 84 19 4 20 1 21 18 25 19 26 20 27
REMARK SMILES IDX 21 29 22 30 23 31 81 32 24 33 80 34 25 35 26 36 27 37 74 38
REMARK SMILES IDX 28 39 79 40 73 41 75 42 29 43 78 44 72 45 71 46 30 48 60 49
REMARK SMILES IDX 41 50 59 51 42 52 45 53 58 54 76 55 43 56 44 57 57 59 77 60
REMARK SMILES IDX 46 61 31 62 32 63 40 64 33 65 39 66 34 67 35 68 36 69 37 70
REMARK SMILES IDX 38 71 61 72 62 73 70 74 63 75 69 76 64 77 65 78 66 79 67 80
REMARK SMILES IDX 68 81 47 82 48 83 56 84 49 85 55 86 50 87 51 88 52 89 53 90
REMARK SMILES IDX 54 91
REMARK H PARENT 15 6 1 22 1 23 1 24 19 28 75 47 45 58
REMARK Flexibility Score: inf
ROOT
ATOM      1  C   UNL A   1      35.228  23.014  25.435  1.00  0.00     0.042 C 
ENDROOT
BRANCH   1   2
ATOM      2  C   UNL A   1      35.179  21.713  24.632  1.00  0.00     0.117 C 
BRANCH   2   3
ATOM      3  N   UNL A   1      34.049  20.868  25.000  1.00  0.00    -0.356 N 
ATOM      4  C   UNL A   1      32.747  20.894  24.601  1.00  0.00     0.220 C 
ATOM      5  O   UNL A   1      31.973  20.058  25.074  1.00  0.00    -0.275 OA
ATOM      6  H   UNL A   1      34.264  20.157  25.645  1.00  0.00     0.163 HD
BRANCH   4   7
ATOM      7  C   UNL A   1      32.257  21.926  23.607  1.00  0.00     0.103 C 
BRANCH   7   8
ATOM      8  C   UNL A   1      31.311  22.970  24.227  1.00  0.00     0.002 C 
ATOM      9  C   UNL A   1      32.091  26.422  25.808  1.00  0.00     0.229 C 
ATOM     10  O   UNL A   1      33.257  26.097  25.583  1.00  0.00    -0.274 OA
ATOM     11  N   UNL A   1      31.023  25.588  25.496  1.00  0.00    -0.342 N 
ATOM     12  C   UNL A   1      30.857  24.394  26.304  1.00  0.00     0.120 C 
ATOM     13  C   UNL A   1      30.650  25.424  24.101  1.00  0.00     0.120 C 
ATOM     14  C   UNL A   1      31.619  23.213  25.711  1.00  0.00     0.026 C 
ATOM     15  C   UNL A   1      31.418  24.285  23.436  1.00  0.00     0.026 C 
BRANCH   9  16
ATOM     16  C   UNL A   1      31.729  27.773  26.443  1.00  0.00     0.107 C 
ATOM     17  C   UNL A   1      32.961  29.839  26.983  1.00  0.00     0.205 C 
ATOM     18  C   UNL A   1      32.193  29.963  25.715  1.00  0.00     0.033 C 
ATOM     19  C   UNL A   1      32.839  28.348  27.335  1.00  0.00     0.087 C 
ATOM     20  C   UNL A   1      31.509  28.851  25.425  1.00  0.00    -0.012 C 
BRANCH  17  21
ATOM     21  N   UNL A   1      34.344  30.249  26.809  1.00  0.00    -0.352 N 
ATOM     22  H   UNL A   1      34.566  30.283  25.814  1.00  0.00     0.345 HD
ATOM     23  H   UNL A   1      34.959  29.578  27.271  1.00  0.00     0.345 HD
ATOM     24  H   UNL A   1      34.479  31.173  27.219  1.00  0.00     0.345 HD
ENDBRANCH  17  21
ENDBRANCH   9  16
ENDBRANCH   7   8
ENDBRANCH   4   7
ENDBRANCH   2   3
ENDBRANCH   1   2
BRANCH   1  25
ATOM     25  C   UNL A   1      36.594  23.688  25.452  1.00  0.00     0.118 C 
BRANCH  25  26
ATOM     26  N   UNL A   1      37.658  22.738  25.718  1.00  0.00    -0.352 N 
ATOM     27  C   UNL A   1      38.918  22.949  26.228  1.00  0.00     0.251 C 
ATOM     28  H   UNL A   1      37.447  21.800  25.501  1.00  0.00     0.163 HD
ATOM     29  O   UNL A   1      39.754  22.055  26.129  1.00  0.00    -0.269 OA
BRANCH  27  30
ATOM     30  C   UNL A   1      39.284  24.231  26.886  1.00  0.00     0.039 A 
ATOM     31  C   UNL A   1      40.044  25.159  26.168  1.00  0.00     0.014 A 
ATOM     32  C   UNL A   1      38.961  24.494  28.221  1.00  0.00     0.014 A 
ATOM     33  C   UNL A   1      40.451  26.355  26.772  1.00  0.00     0.010 A 
ATOM     34  C   UNL A   1      39.305  25.719  28.799  1.00  0.00     0.010 A 
ATOM     35  C   UNL A   1      40.074  26.653  28.091  1.00  0.00    -0.014 A 
BRANCH  35  36
ATOM     36  C   UNL A   1      40.513  27.911  28.754  1.00  0.00     0.031 A 
ATOM     37  C   UNL A   1      41.900  28.018  29.337  1.00  0.00     0.074 A 
ATOM     38  C   UNL A   1      39.657  28.945  28.878  1.00  0.00     0.049 A 
ATOM     39  N   UNL A   1      42.446  29.008  29.997  1.00  0.00    -0.248 NA
ATOM     40  C   UNL A   1      42.781  26.849  29.179  1.00  0.00     0.031 C 
ATOM     41  C   UNL A   1      38.275  28.966  28.395  1.00  0.00     0.029 A 
ATOM     42  N   UNL A   1      39.825  30.180  29.457  1.00  0.00    -0.354 N 
ATOM     43  C   UNL A   1      43.716  28.573  30.357  1.00  0.00     0.074 A 
ATOM     44  C   UNL A   1      43.848  27.215  29.873  1.00  0.00     0.031 C 
ATOM     45  C   UNL A   1      37.728  30.159  28.679  1.00  0.00     0.029 A 
ATOM     46  C   UNL A   1      38.707  30.978  29.391  1.00  0.00     0.049 A 
ATOM     47  H   UNL A   1      40.667  30.467  29.878  1.00  0.00     0.167 HD
ATOM     48  C   UNL A   1      44.694  29.243  31.012  1.00  0.00     0.031 A 
ATOM     49  C   UNL A   1      38.488  32.224  29.852  1.00  0.00     0.031 A 
ATOM     50  C   UNL A   1      44.581  30.604  31.467  1.00  0.00     0.049 A 
ATOM     51  C   UNL A   1      39.596  32.960  30.554  1.00  0.00     0.074 A 
ATOM     52  C   UNL A   1      45.542  31.388  32.081  1.00  0.00     0.029 A 
ATOM     53  N   UNL A   1      43.441  31.383  31.353  1.00  0.00    -0.354 N 
ATOM     54  N   UNL A   1      40.811  32.549  30.830  1.00  0.00    -0.248 NA
ATOM     55  C   UNL A   1      39.306  34.332  30.996  1.00  0.00     0.031 C 
ATOM     56  C   UNL A   1      44.969  32.631  32.373  1.00  0.00     0.029 A 
ATOM     57  C   UNL A   1      43.667  32.635  31.900  1.00  0.00     0.049 A 
ATOM     58  H   UNL A   1      42.594  31.090  30.944  1.00  0.00     0.167 HD
ATOM     59  C   UNL A   1      41.436  33.619  31.459  1.00  0.00     0.074 A 
ATOM     60  C   UNL A   1      40.472  34.700  31.511  1.00  0.00     0.031 C 
ATOM     61  C   UNL A   1      42.699  33.700  31.948  1.00  0.00     0.031 A 
BRANCH  48  62
ATOM     62  C   UNL A   1      45.979  28.505  31.283  1.00  0.00    -0.014 A 
ATOM     63  C   UNL A   1      46.112  27.665  32.403  1.00  0.00     0.010 A 
ATOM     64  C   UNL A   1      47.059  28.633  30.391  1.00  0.00     0.010 A 
ATOM     65  C   UNL A   1      47.318  27.005  32.653  1.00  0.00     0.020 A 
ATOM     66  C   UNL A   1      48.259  27.954  30.623  1.00  0.00     0.020 A 
ATOM     67  C   UNL A   1      48.388  27.161  31.764  1.00  0.00     0.054 A 
BRANCH  67  68
ATOM     68  S   UNL A   1      49.940  26.288  32.106  1.00  0.00     0.124 S 
ATOM     69  O   UNL A   1      50.925  27.178  31.493  1.00  0.00    -0.237 OA
ATOM     70  O   UNL A   1      49.967  26.233  33.565  1.00  0.00    -0.237 OA
ATOM     71  O   UNL A   1      49.767  24.999  31.440  1.00  0.00    -0.744 OA
ENDBRANCH  67  68
ENDBRANCH  48  62
BRANCH  49  72
ATOM     72  C   UNL A   1      37.162  32.866  29.643  1.00  0.00    -0.014 A 
ATOM     73  C   UNL A   1      36.259  32.997  30.712  1.00  0.00     0.010 A 
ATOM     74  C   UNL A   1      36.809  33.372  28.379  1.00  0.00     0.010 A 
ATOM     75  C   UNL A   1      35.020  33.613  30.519  1.00  0.00     0.020 A 
ATOM     76  C   UNL A   1      35.579  34.010  28.188  1.00  0.00     0.020 A 
ATOM     77  C   UNL A   1      34.689  34.119  29.258  1.00  0.00     0.054 A 
BRANCH  77  78
ATOM     78  S   UNL A   1      33.104  34.978  29.045  1.00  0.00     0.124 S 
ATOM     79  O   UNL A   1      33.534  36.299  28.598  1.00  0.00    -0.237 OA
ATOM     80  O   UNL A   1      32.430  34.158  28.041  1.00  0.00    -0.237 OA
ATOM     81  O   UNL A   1      32.509  34.928  30.378  1.00  0.00    -0.744 OA
ENDBRANCH  77  78
ENDBRANCH  49  72
BRANCH  61  82
ATOM     82  C   UNL A   1      43.123  35.007  32.560  1.00  0.00    -0.014 A 
ATOM     83  C   UNL A   1      43.725  36.011  31.782  1.00  0.00     0.010 A 
ATOM     84  C   UNL A   1      42.865  35.254  33.921  1.00  0.00     0.010 A 
ATOM     85  C   UNL A   1      44.086  37.231  32.361  1.00  0.00     0.020 A 
ATOM     86  C   UNL A   1      43.205  36.479  34.499  1.00  0.00     0.020 A 
ATOM     87  C   UNL A   1      43.827  37.456  33.717  1.00  0.00     0.054 A 
BRANCH  87  88
ATOM     88  S   UNL A   1      44.263  39.063  34.438  1.00  0.00     0.124 S 
ATOM     89  O   UNL A   1      43.238  39.936  33.874  1.00  0.00    -0.237 OA
ATOM     90  O   UNL A   1      44.157  38.813  35.873  1.00  0.00    -0.237 OA
ATOM     91  O   UNL A   1      45.621  39.301  33.953  1.00  0.00    -0.744 OA
ENDBRANCH  87  88
ENDBRANCH  61  82
ENDBRANCH  35  36
ENDBRANCH  27  30
ENDBRANCH  25  26
ENDBRANCH   1  25
TORSDOF 16
ENDMDL
