MODEL 1
REMARK VINA RESULT:     -14.2      0.000      0.000
REMARK SMILES Cc1ccc(NC(=O)c2cnn3c2NC2=C(C(=O)CCC2)[C@H]3c2ccc(C(=O)NCCCNC(=O)c3ccc(-c4c5nc(c(-c6ccc(S(=O)(=O)[O-])cc6)c6ccc([nH]6)c(-c6ccc(S(=O)(=O)[O-])cc6)c6nc(c(-c7ccc(S(=O)(=O)[O-])cc7)c7ccc4[nH]7)C=C6)C=C5)cc3)cc2)cc1
REMARK SMILES IDX 31 1 30 2 29 3 27 4 28 5 26 7 23 8 24 9 97 10 25 11 96 12
REMARK SMILES IDX 22 13 9 14 10 15 13 16 11 17 12 18 14 19 15 20 16 22 21 23
REMARK SMILES IDX 17 24 20 25 18 26 19 27 7 28 6 29 8 31 5 32 1 33 2 34 3 35
REMARK SMILES IDX 99 36 4 37 98 38 32 39 33 40 34 41 35 43 36 44 37 45 95 46
REMARK SMILES IDX 38 47 94 48 39 49 40 50 41 51 88 52 42 53 93 54 87 55 89 56
REMARK SMILES IDX 43 57 92 58 86 59 85 60 44 62 74 63 55 64 73 65 56 66 59 67
REMARK SMILES IDX 72 68 90 69 57 70 58 71 71 73 91 74 60 75 45 76 46 77 54 78
REMARK SMILES IDX 47 79 53 80 48 81 49 82 50 83 51 84 52 85 75 86 76 87 84 88
REMARK SMILES IDX 77 89 83 90 78 91 79 92 80 93 81 94 82 95 61 96 62 97 70 98
REMARK SMILES IDX 63 99 69 100 64 101 65 102 66 103 67 104 68 105
REMARK H PARENT 29 6 14 21 6 30 33 42 89 61 59 72
REMARK Flexibility Score: inf
ROOT
ATOM      1  C   UNL A   1      38.119  21.490  25.646  1.00  0.00     0.042 C 
ENDROOT
BRANCH   1   2
ATOM      2  C   UNL A   1      36.957  21.569  24.657  1.00  0.00     0.118 C 
BRANCH   2   3
ATOM      3  N   UNL A   1      35.776  20.845  25.118  1.00  0.00    -0.352 N 
ATOM      4  C   UNL A   1      34.461  21.215  25.284  1.00  0.00     0.251 C 
ATOM      5  O   UNL A   1      33.634  20.325  25.494  1.00  0.00    -0.269 OA
ATOM      6  H   UNL A   1      35.957  19.907  25.358  1.00  0.00     0.163 HD
BRANCH   4   7
ATOM      7  C   UNL A   1      33.963  22.622  25.188  1.00  0.00     0.039 A 
ATOM      8  C   UNL A   1      33.157  25.324  24.757  1.00  0.00    -0.019 A 
ATOM      9  C   UNL A   1      32.840  24.323  23.824  1.00  0.00     0.007 A 
ATOM     10  C   UNL A   1      33.674  24.896  25.990  1.00  0.00     0.007 A 
ATOM     11  C   UNL A   1      33.248  22.995  24.037  1.00  0.00     0.014 A 
ATOM     12  C   UNL A   1      34.104  23.577  26.187  1.00  0.00     0.014 A 
BRANCH   8  13
ATOM     13  C   UNL A   1      33.144  26.836  24.363  1.00  0.00     0.175 C 
ATOM     14  C   UNL A   1      29.714  27.204  23.412  1.00  0.00     0.102 A 
ATOM     15  C   UNL A   1      30.438  27.565  22.236  1.00  0.00     0.151 A 
ATOM     16  C   UNL A   1      30.688  27.201  24.387  1.00  0.00     0.142 A 
ATOM     17  N   UNL A   1      31.766  27.518  22.392  1.00  0.00    -0.178 NA
ATOM     18  N   UNL A   1      31.880  27.162  23.683  1.00  0.00    -0.237 N 
ATOM     19  N   UNL A   1      30.761  27.196  25.755  1.00  0.00    -0.343 N 
ATOM     20  C   UNL A   1      31.947  27.636  26.369  1.00  0.00     0.026 C 
ATOM     21  H   UNL A   1      29.999  26.890  26.297  1.00  0.00     0.168 HD
ATOM     22  C   UNL A   1      33.069  27.696  25.608  1.00  0.00     0.044 C 
ATOM     23  C   UNL A   1      31.901  28.345  27.692  1.00  0.00     0.055 C 
ATOM     24  C   UNL A   1      33.683  29.049  25.580  1.00  0.00     0.163 C 
ATOM     25  C   UNL A   1      32.413  29.786  27.594  1.00  0.00     0.014 C 
ATOM     26  O   UNL A   1      34.720  29.261  24.963  1.00  0.00    -0.294 OA
ATOM     27  C   UNL A   1      32.840  30.166  26.180  1.00  0.00     0.081 C 
BRANCH  14  28
ATOM     28  C   UNL A   1      28.295  26.983  23.577  1.00  0.00     0.261 C 
ATOM     29  N   UNL A   1      27.421  28.050  23.458  1.00  0.00    -0.322 N 
ATOM     30  H   UNL A   1      26.526  27.878  23.830  1.00  0.00     0.170 HD
ATOM     31  O   UNL A   1      27.852  25.873  23.874  1.00  0.00    -0.269 OA
BRANCH  29  32
ATOM     32  C   UNL A   1      27.575  29.340  22.901  1.00  0.00     0.041 A 
ATOM     33  C   UNL A   1      28.295  33.343  21.422  1.00  0.00     0.044 C 
ATOM     34  C   UNL A   1      27.998  31.966  21.939  1.00  0.00    -0.051 A 
ATOM     35  C   UNL A   1      28.073  30.874  21.076  1.00  0.00     0.005 A 
ATOM     36  C   UNL A   1      27.665  31.741  23.277  1.00  0.00     0.005 A 
ATOM     37  C   UNL A   1      27.825  29.584  21.552  1.00  0.00     0.026 A 
ATOM     38  C   UNL A   1      27.445  30.439  23.752  1.00  0.00     0.026 A 
ENDBRANCH  29  32
ENDBRANCH  14  28
ENDBRANCH   8  13
ENDBRANCH   4   7
ENDBRANCH   2   3
ENDBRANCH   1   2
BRANCH   1  39
ATOM     39  C   UNL A   1      38.631  22.841  26.132  1.00  0.00     0.118 C 
BRANCH  39  40
ATOM     40  N   UNL A   1      40.022  22.765  26.582  1.00  0.00    -0.352 N 
ATOM     41  C   UNL A   1      40.844  23.790  27.017  1.00  0.00     0.251 C 
ATOM     42  H   UNL A   1      40.425  21.866  26.574  1.00  0.00     0.163 HD
ATOM     43  O   UNL A   1      42.035  23.648  27.223  1.00  0.00    -0.269 OA
BRANCH  41  44
ATOM     44  C   UNL A   1      40.175  25.066  27.321  1.00  0.00     0.039 A 
ATOM     45  C   UNL A   1      40.456  26.142  26.472  1.00  0.00     0.014 A 
ATOM     46  C   UNL A   1      39.613  25.249  28.580  1.00  0.00     0.014 A 
ATOM     47  C   UNL A   1      40.358  27.436  26.968  1.00  0.00     0.010 A 
ATOM     48  C   UNL A   1      39.603  26.529  29.098  1.00  0.00     0.010 A 
ATOM     49  C   UNL A   1      40.032  27.610  28.312  1.00  0.00    -0.014 A 
BRANCH  49  50
ATOM     50  C   UNL A   1      40.198  28.876  29.014  1.00  0.00     0.031 A 
ATOM     51  C   UNL A   1      39.175  29.933  28.866  1.00  0.00     0.074 A 
ATOM     52  C   UNL A   1      41.235  29.053  29.864  1.00  0.00     0.049 A 
ATOM     53  N   UNL A   1      39.377  31.186  29.099  1.00  0.00    -0.248 NA
ATOM     54  C   UNL A   1      37.834  29.650  28.367  1.00  0.00     0.031 C 
ATOM     55  C   UNL A   1      41.373  30.107  30.866  1.00  0.00     0.029 A 
ATOM     56  N   UNL A   1      42.492  28.442  29.844  1.00  0.00    -0.354 N 
ATOM     57  C   UNL A   1      38.146  31.805  29.101  1.00  0.00     0.074 A 
ATOM     58  C   UNL A   1      37.239  30.832  28.539  1.00  0.00     0.031 C 
ATOM     59  C   UNL A   1      42.677  30.276  31.135  1.00  0.00     0.029 A 
ATOM     60  C   UNL A   1      43.414  29.439  30.203  1.00  0.00     0.049 A 
ATOM     61  H   UNL A   1      42.691  27.503  29.624  1.00  0.00     0.167 HD
ATOM     62  C   UNL A   1      37.998  33.008  29.724  1.00  0.00     0.031 A 
ATOM     63  C   UNL A   1      44.432  29.868  29.402  1.00  0.00     0.031 A 
ATOM     64  C   UNL A   1      39.280  33.537  30.188  1.00  0.00     0.049 A 
ATOM     65  C   UNL A   1      44.386  31.359  29.135  1.00  0.00     0.074 A 
ATOM     66  C   UNL A   1      39.891  33.582  31.431  1.00  0.00     0.029 A 
ATOM     67  N   UNL A   1      40.259  33.863  29.257  1.00  0.00    -0.354 N 
ATOM     68  N   UNL A   1      43.336  32.104  29.343  1.00  0.00    -0.248 NA
ATOM     69  C   UNL A   1      45.502  32.120  28.582  1.00  0.00     0.031 C 
ATOM     70  C   UNL A   1      41.267  33.874  31.234  1.00  0.00     0.029 A 
ATOM     71  C   UNL A   1      41.483  34.033  29.876  1.00  0.00     0.049 A 
ATOM     72  H   UNL A   1      40.103  33.959  28.290  1.00  0.00     0.167 HD
ATOM     73  C   UNL A   1      43.603  33.399  28.981  1.00  0.00     0.074 A 
ATOM     74  C   UNL A   1      44.978  33.358  28.517  1.00  0.00     0.031 C 
ATOM     75  C   UNL A   1      42.663  34.386  29.094  1.00  0.00     0.031 A 
BRANCH  62  76
ATOM     76  C   UNL A   1      36.656  33.550  30.178  1.00  0.00    -0.014 A 
ATOM     77  C   UNL A   1      35.719  33.988  29.218  1.00  0.00     0.010 A 
ATOM     78  C   UNL A   1      36.280  33.723  31.524  1.00  0.00     0.010 A 
ATOM     79  C   UNL A   1      34.538  34.657  29.577  1.00  0.00     0.020 A 
ATOM     80  C   UNL A   1      35.123  34.421  31.899  1.00  0.00     0.020 A 
ATOM     81  C   UNL A   1      34.262  34.899  30.919  1.00  0.00     0.054 A 
BRANCH  81  82
ATOM     82  S   UNL A   1      32.782  35.842  31.367  1.00  0.00     0.124 S 
ATOM     83  O   UNL A   1      33.345  37.062  31.940  1.00  0.00    -0.237 OA
ATOM     84  O   UNL A   1      32.110  36.001  30.081  1.00  0.00    -0.237 OA
ATOM     85  O   UNL A   1      32.094  34.975  32.323  1.00  0.00    -0.744 OA
ENDBRANCH  81  82
ENDBRANCH  62  76
BRANCH  63  86
ATOM     86  C   UNL A   1      44.950  28.844  28.454  1.00  0.00    -0.014 A 
ATOM     87  C   UNL A   1      44.291  28.721  27.211  1.00  0.00     0.010 A 
ATOM     88  C   UNL A   1      46.261  28.353  28.582  1.00  0.00     0.010 A 
ATOM     89  C   UNL A   1      44.983  28.280  26.082  1.00  0.00     0.020 A 
ATOM     90  C   UNL A   1      46.956  27.906  27.447  1.00  0.00     0.020 A 
ATOM     91  C   UNL A   1      46.330  27.936  26.196  1.00  0.00     0.054 A 
BRANCH  91  92
ATOM     92  S   UNL A   1      47.290  27.741  24.662  1.00  0.00     0.124 S 
ATOM     93  O   UNL A   1      46.673  28.727  23.782  1.00  0.00    -0.237 OA
ATOM     94  O   UNL A   1      48.647  28.060  25.110  1.00  0.00    -0.237 OA
ATOM     95  O   UNL A   1      47.067  26.345  24.302  1.00  0.00    -0.744 OA
ENDBRANCH  91  92
ENDBRANCH  63  86
BRANCH  75  96
ATOM     96  C   UNL A   1      42.755  35.802  28.559  1.00  0.00    -0.014 A 
ATOM     97  C   UNL A   1      42.330  36.209  27.286  1.00  0.00     0.010 A 
ATOM     98  C   UNL A   1      43.196  36.829  29.434  1.00  0.00     0.010 A 
ATOM     99  C   UNL A   1      42.388  37.555  26.888  1.00  0.00     0.020 A 
ATOM    100  C   UNL A   1      43.216  38.178  29.066  1.00  0.00     0.020 A 
ATOM    101  C   UNL A   1      42.831  38.531  27.781  1.00  0.00     0.054 A 
BRANCH 101 102
ATOM    102  S   UNL A   1      42.829  40.271  27.281  1.00  0.00     0.124 S 
ATOM    103  O   UNL A   1      43.157  40.946  28.534  1.00  0.00    -0.237 OA
ATOM    104  O   UNL A   1      43.869  40.317  26.256  1.00  0.00    -0.237 OA
ATOM    105  O   UNL A   1      41.471  40.486  26.788  1.00  0.00    -0.744 OA
ENDBRANCH 101 102
ENDBRANCH  75  96
ENDBRANCH  49  50
ENDBRANCH  41  44
ENDBRANCH  39  40
ENDBRANCH   1  39
TORSDOF 16
ENDMDL
MODEL 2
REMARK VINA RESULT:     -13.8      3.899      5.630
REMARK SMILES Cc1ccc(NC(=O)c2cnn3c2NC2=C(C(=O)CCC2)[C@H]3c2ccc(C(=O)NCCCNC(=O)c3ccc(-c4c5nc(c(-c6ccc(S(=O)(=O)[O-])cc6)c6ccc([nH]6)c(-c6ccc(S(=O)(=O)[O-])cc6)c6nc(c(-c7ccc(S(=O)(=O)[O-])cc7)c7ccc4[nH]7)C=C6)C=C5)cc3)cc2)cc1
REMARK SMILES IDX 31 1 30 2 29 3 27 4 28 5 26 7 23 8 24 9 97 10 25 11 96 12
REMARK SMILES IDX 22 13 9 14 10 15 13 16 11 17 12 18 14 19 15 20 16 22 21 23
REMARK SMILES IDX 17 24 20 25 18 26 19 27 7 28 6 29 8 31 5 32 1 33 2 34 3 35
REMARK SMILES IDX 99 36 4 37 98 38 32 39 33 40 34 41 35 43 36 44 37 45 95 46
REMARK SMILES IDX 38 47 94 48 39 49 40 50 41 51 88 52 42 53 93 54 87 55 89 56
REMARK SMILES IDX 43 57 92 58 86 59 85 60 44 62 74 63 55 64 73 65 56 66 59 67
REMARK SMILES IDX 72 68 90 69 57 70 58 71 71 73 91 74 60 75 45 76 46 77 54 78
REMARK SMILES IDX 47 79 53 80 48 81 49 82 50 83 51 84 52 85 75 86 76 87 84 88
REMARK SMILES IDX 77 89 83 90 78 91 79 92 80 93 81 94 82 95 61 96 62 97 70 98
REMARK SMILES IDX 63 99 69 100 64 101 65 102 66 103 67 104 68 105
REMARK H PARENT 29 6 14 21 6 30 33 42 89 61 59 72
REMARK Flexibility Score: inf
ROOT
ATOM      1  C   UNL A   1      41.190  24.349  27.504  1.00  0.00     0.042 C 
ENDROOT
BRANCH   1   2
ATOM      2  C   UNL A   1      39.885  23.895  26.851  1.00  0.00     0.118 C 
BRANCH   2   3
ATOM      3  N   UNL A   1      39.848  22.456  26.612  1.00  0.00    -0.352 N 
ATOM      4  C   UNL A   1      38.973  21.647  25.921  1.00  0.00     0.251 C 
ATOM      5  O   UNL A   1      39.310  20.480  25.710  1.00  0.00    -0.269 OA
ATOM      6  H   UNL A   1      40.595  21.967  27.026  1.00  0.00     0.163 HD
BRANCH   4   7
ATOM      7  C   UNL A   1      37.658  22.103  25.375  1.00  0.00     0.039 A 
ATOM      8  C   UNL A   1      35.137  22.726  24.194  1.00  0.00    -0.019 A 
ATOM      9  C   UNL A   1      35.290  21.587  25.002  1.00  0.00     0.007 A 
ATOM     10  C   UNL A   1      36.202  23.641  24.188  1.00  0.00     0.007 A 
ATOM     11  C   UNL A   1      36.536  21.280  25.574  1.00  0.00     0.014 A 
ATOM     12  C   UNL A   1      37.450  23.320  24.736  1.00  0.00     0.014 A 
BRANCH   8  13
ATOM     13  C   UNL A   1      33.948  22.856  23.188  1.00  0.00     0.175 C 
ATOM     14  C   UNL A   1      31.226  23.220  25.482  1.00  0.00     0.102 A 
ATOM     15  C   UNL A   1      30.892  22.052  24.733  1.00  0.00     0.151 A 
ATOM     16  C   UNL A   1      32.248  23.778  24.746  1.00  0.00     0.142 A 
ATOM     17  N   UNL A   1      31.787  21.751  23.784  1.00  0.00    -0.178 NA
ATOM     18  N   UNL A   1      32.671  22.755  23.912  1.00  0.00    -0.237 N 
ATOM     19  N   UNL A   1      32.910  24.975  24.663  1.00  0.00    -0.343 N 
ATOM     20  C   UNL A   1      33.602  25.284  23.479  1.00  0.00     0.026 C 
ATOM     21  H   UNL A   1      32.901  25.606  25.418  1.00  0.00     0.168 HD
ATOM     22  C   UNL A   1      33.892  24.264  22.632  1.00  0.00     0.044 C 
ATOM     23  C   UNL A   1      33.698  26.704  23.001  1.00  0.00     0.055 C 
ATOM     24  C   UNL A   1      33.347  24.470  21.264  1.00  0.00     0.163 C 
ATOM     25  C   UNL A   1      33.003  26.908  21.651  1.00  0.00     0.014 C 
ATOM     26  O   UNL A   1      33.550  23.654  20.372  1.00  0.00    -0.294 OA
ATOM     27  C   UNL A   1      32.372  25.629  21.113  1.00  0.00     0.081 C 
BRANCH  14  28
ATOM     28  C   UNL A   1      30.599  23.751  26.671  1.00  0.00     0.261 C 
ATOM     29  N   UNL A   1      30.300  25.101  26.738  1.00  0.00    -0.322 N 
ATOM     30  H   UNL A   1      30.120  25.426  27.650  1.00  0.00     0.170 HD
ATOM     31  O   UNL A   1      30.374  23.035  27.648  1.00  0.00    -0.269 OA
BRANCH  29  32
ATOM     32  C   UNL A   1      30.204  26.097  25.741  1.00  0.00     0.041 A 
ATOM     33  C   UNL A   1      30.244  29.116  22.640  1.00  0.00     0.044 C 
ATOM     34  C   UNL A   1      30.207  28.102  23.744  1.00  0.00    -0.051 A 
ATOM     35  C   UNL A   1      29.372  26.990  23.634  1.00  0.00     0.005 A 
ATOM     36  C   UNL A   1      31.006  28.227  24.883  1.00  0.00     0.005 A 
ATOM     37  C   UNL A   1      29.349  26.025  24.643  1.00  0.00     0.026 A 
ATOM     38  C   UNL A   1      30.997  27.238  25.879  1.00  0.00     0.026 A 
ENDBRANCH  29  32
ENDBRANCH  14  28
ENDBRANCH   8  13
ENDBRANCH   4   7
ENDBRANCH   2   3
ENDBRANCH   1   2
BRANCH   1  39
ATOM     39  C   UNL A   1      41.401  25.860  27.515  1.00  0.00     0.118 C 
BRANCH  39  40
ATOM     40  N   UNL A   1      42.018  26.331  26.275  1.00  0.00    -0.352 N 
ATOM     41  C   UNL A   1      41.960  27.594  25.710  1.00  0.00     0.251 C 
ATOM     42  H   UNL A   1      42.543  25.663  25.778  1.00  0.00     0.163 HD
ATOM     43  O   UNL A   1      42.381  27.845  24.596  1.00  0.00    -0.269 OA
BRANCH  41  44
ATOM     44  C   UNL A   1      41.445  28.665  26.580  1.00  0.00     0.039 A 
ATOM     45  C   UNL A   1      42.369  29.284  27.429  1.00  0.00     0.014 A 
ATOM     46  C   UNL A   1      40.073  28.766  26.785  1.00  0.00     0.014 A 
ATOM     47  C   UNL A   1      41.920  29.847  28.617  1.00  0.00     0.010 A 
ATOM     48  C   UNL A   1      39.641  29.245  28.005  1.00  0.00     0.010 A 
ATOM     49  C   UNL A   1      40.569  29.728  28.941  1.00  0.00    -0.014 A 
BRANCH  49  50
ATOM     50  C   UNL A   1      40.044  29.998  30.273  1.00  0.00     0.031 A 
ATOM     51  C   UNL A   1      39.326  31.264  30.532  1.00  0.00     0.074 A 
ATOM     52  C   UNL A   1      40.134  29.061  31.244  1.00  0.00     0.049 A 
ATOM     53  N   UNL A   1      39.160  31.787  31.700  1.00  0.00    -0.248 NA
ATOM     54  C   UNL A   1      38.786  32.084  29.453  1.00  0.00     0.031 C 
ATOM     55  C   UNL A   1      39.397  29.036  32.505  1.00  0.00     0.029 A 
ATOM     56  N   UNL A   1      41.084  28.047  31.391  1.00  0.00    -0.354 N 
ATOM     57  C   UNL A   1      38.240  32.803  31.566  1.00  0.00     0.074 A 
ATOM     58  C   UNL A   1      38.121  33.014  30.142  1.00  0.00     0.031 C 
ATOM     59  C   UNL A   1      40.088  28.303  33.391  1.00  0.00     0.029 A 
ATOM     60  C   UNL A   1      41.356  27.964  32.766  1.00  0.00     0.049 A 
ATOM     61  H   UNL A   1      41.483  27.501  30.675  1.00  0.00     0.167 HD
ATOM     62  C   UNL A   1      37.560  33.244  32.662  1.00  0.00     0.031 A 
ATOM     63  C   UNL A   1      42.584  28.178  33.321  1.00  0.00     0.031 A 
ATOM     64  C   UNL A   1      38.056  32.626  33.891  1.00  0.00     0.049 A 
ATOM     65  C   UNL A   1      42.578  29.273  34.368  1.00  0.00     0.074 A 
ATOM     66  C   UNL A   1      37.586  31.595  34.688  1.00  0.00     0.029 A 
ATOM     67  N   UNL A   1      39.362  32.873  34.298  1.00  0.00    -0.354 N 
ATOM     68  N   UNL A   1      41.621  30.149  34.499  1.00  0.00    -0.248 NA
ATOM     69  C   UNL A   1      43.660  29.489  35.323  1.00  0.00     0.031 C 
ATOM     70  C   UNL A   1      38.646  31.178  35.536  1.00  0.00     0.029 A 
ATOM     71  C   UNL A   1      39.747  31.973  35.273  1.00  0.00     0.049 A 
ATOM     72  H   UNL A   1      39.934  33.591  33.941  1.00  0.00     0.167 HD
ATOM     73  C   UNL A   1      41.922  31.019  35.516  1.00  0.00     0.074 A 
ATOM     74  C   UNL A   1      43.208  30.558  36.005  1.00  0.00     0.031 C 
ATOM     75  C   UNL A   1      41.082  32.044  35.857  1.00  0.00     0.031 A 
BRANCH  62  76
ATOM     76  C   UNL A   1      36.248  34.001  32.577  1.00  0.00    -0.014 A 
ATOM     77  C   UNL A   1      35.465  33.912  31.407  1.00  0.00     0.010 A 
ATOM     78  C   UNL A   1      35.762  34.869  33.574  1.00  0.00     0.010 A 
ATOM     79  C   UNL A   1      34.336  34.720  31.198  1.00  0.00     0.020 A 
ATOM     80  C   UNL A   1      34.657  35.709  33.368  1.00  0.00     0.020 A 
ATOM     81  C   UNL A   1      33.956  35.640  32.171  1.00  0.00     0.054 A 
BRANCH  81  82
ATOM     82  S   UNL A   1      32.553  36.741  31.855  1.00  0.00     0.124 S 
ATOM     83  O   UNL A   1      33.014  38.010  32.413  1.00  0.00    -0.237 OA
ATOM     84  O   UNL A   1      32.440  36.695  30.401  1.00  0.00    -0.237 OA
ATOM     85  O   UNL A   1      31.450  36.115  32.583  1.00  0.00    -0.744 OA
ENDBRANCH  81  82
ENDBRANCH  62  76
BRANCH  63  86
ATOM     86  C   UNL A   1      43.732  27.847  32.433  1.00  0.00    -0.014 A 
ATOM     87  C   UNL A   1      44.140  26.497  32.380  1.00  0.00     0.010 A 
ATOM     88  C   UNL A   1      44.092  28.710  31.382  1.00  0.00     0.010 A 
ATOM     89  C   UNL A   1      44.740  25.981  31.229  1.00  0.00     0.020 A 
ATOM     90  C   UNL A   1      44.698  28.193  30.227  1.00  0.00     0.020 A 
ATOM     91  C   UNL A   1      44.956  26.821  30.136  1.00  0.00     0.054 A 
BRANCH  91  92
ATOM     92  S   UNL A   1      45.374  26.048  28.542  1.00  0.00     0.124 S 
ATOM     93  O   UNL A   1      44.814  26.993  27.582  1.00  0.00    -0.237 OA
ATOM     94  O   UNL A   1      46.836  26.003  28.600  1.00  0.00    -0.237 OA
ATOM     95  O   UNL A   1      44.709  24.752  28.613  1.00  0.00    -0.744 OA
ENDBRANCH  91  92
ENDBRANCH  63  86
BRANCH  75  96
ATOM     96  C   UNL A   1      41.371  33.183  36.816  1.00  0.00    -0.014 A 
ATOM     97  C   UNL A   1      42.094  34.340  36.494  1.00  0.00     0.010 A 
ATOM     98  C   UNL A   1      40.782  33.146  38.107  1.00  0.00     0.010 A 
ATOM     99  C   UNL A   1      42.263  35.381  37.422  1.00  0.00     0.020 A 
ATOM    100  C   UNL A   1      40.904  34.196  39.023  1.00  0.00     0.020 A 
ATOM    101  C   UNL A   1      41.667  35.303  38.680  1.00  0.00     0.054 A 
BRANCH 101 102
ATOM    102  S   UNL A   1      41.829  36.685  39.838  1.00  0.00     0.124 S 
ATOM    103  O   UNL A   1      43.280  36.812  39.955  1.00  0.00    -0.237 OA
ATOM    104  O   UNL A   1      41.160  37.778  39.136  1.00  0.00    -0.237 OA
ATOM    105  O   UNL A   1      41.142  36.213  41.037  1.00  0.00    -0.744 OA
ENDBRANCH 101 102
ENDBRANCH  75  96
ENDBRANCH  49  50
ENDBRANCH  41  44
ENDBRANCH  39  40
ENDBRANCH   1  39
TORSDOF 16
ENDMDL
MODEL 3
REMARK VINA RESULT:     -13.5      2.459      3.790
REMARK SMILES Cc1ccc(NC(=O)c2cnn3c2NC2=C(C(=O)CCC2)[C@H]3c2ccc(C(=O)NCCCNC(=O)c3ccc(-c4c5nc(c(-c6ccc(S(=O)(=O)[O-])cc6)c6ccc([nH]6)c(-c6ccc(S(=O)(=O)[O-])cc6)c6nc(c(-c7ccc(S(=O)(=O)[O-])cc7)c7ccc4[nH]7)C=C6)C=C5)cc3)cc2)cc1
REMARK SMILES IDX 31 1 30 2 29 3 27 4 28 5 26 7 23 8 24 9 97 10 25 11 96 12
REMARK SMILES IDX 22 13 9 14 10 15 13 16 11 17 12 18 14 19 15 20 16 22 21 23
REMARK SMILES IDX 17 24 20 25 18 26 19 27 7 28 6 29 8 31 5 32 1 33 2 34 3 35
REMARK SMILES IDX 99 36 4 37 98 38 32 39 33 40 34 41 35 43 36 44 37 45 95 46
REMARK SMILES IDX 38 47 94 48 39 49 40 50 41 51 88 52 42 53 93 54 87 55 89 56
REMARK SMILES IDX 43 57 92 58 86 59 85 60 44 62 74 63 55 64 73 65 56 66 59 67
REMARK SMILES IDX 72 68 90 69 57 70 58 71 71 73 91 74 60 75 45 76 46 77 54 78
REMARK SMILES IDX 47 79 53 80 48 81 49 82 50 83 51 84 52 85 75 86 76 87 84 88
REMARK SMILES IDX 77 89 83 90 78 91 79 92 80 93 81 94 82 95 61 96 62 97 70 98
REMARK SMILES IDX 63 99 69 100 64 101 65 102 66 103 67 104 68 105
REMARK H PARENT 29 6 14 21 6 30 33 42 89 61 59 72
REMARK Flexibility Score: inf
ROOT
ATOM      1  C   UNL A   1      41.336  21.221  26.163  1.00  0.00     0.042 C 
ENDROOT
BRANCH   1   2
ATOM      2  C   UNL A   1      39.863  21.422  26.514  1.00  0.00     0.118 C 
BRANCH   2   3
ATOM      3  N   UNL A   1      39.544  22.812  26.827  1.00  0.00    -0.352 N 
ATOM      4  C   UNL A   1      38.446  23.599  26.564  1.00  0.00     0.251 C 
ATOM      5  O   UNL A   1      38.366  24.687  27.137  1.00  0.00    -0.269 OA
ATOM      6  H   UNL A   1      40.255  23.278  27.324  1.00  0.00     0.163 HD
BRANCH   4   7
ATOM      7  C   UNL A   1      37.323  23.203  25.658  1.00  0.00     0.039 A 
ATOM      8  C   UNL A   1      35.201  22.707  23.819  1.00  0.00    -0.019 A 
ATOM      9  C   UNL A   1      36.479  23.064  23.360  1.00  0.00     0.007 A 
ATOM     10  C   UNL A   1      35.086  22.389  25.181  1.00  0.00     0.007 A 
ATOM     11  C   UNL A   1      37.519  23.316  24.271  1.00  0.00     0.014 A 
ATOM     12  C   UNL A   1      36.116  22.667  26.089  1.00  0.00     0.014 A 
BRANCH   8  13
ATOM     13  C   UNL A   1      33.937  22.871  22.914  1.00  0.00     0.175 C 
ATOM     14  C   UNL A   1      31.423  23.302  25.423  1.00  0.00     0.102 A 
ATOM     15  C   UNL A   1      30.997  22.145  24.704  1.00  0.00     0.151 A 
ATOM     16  C   UNL A   1      32.396  23.834  24.606  1.00  0.00     0.142 A 
ATOM     17  N   UNL A   1      31.803  21.822  23.685  1.00  0.00    -0.178 NA
ATOM     18  N   UNL A   1      32.722  22.802  23.740  1.00  0.00    -0.237 N 
ATOM     19  N   UNL A   1      33.080  25.014  24.469  1.00  0.00    -0.343 N 
ATOM     20  C   UNL A   1      33.681  25.306  23.232  1.00  0.00     0.026 C 
ATOM     21  H   UNL A   1      33.150  25.643  25.222  1.00  0.00     0.168 HD
ATOM     22  C   UNL A   1      33.873  24.281  22.364  1.00  0.00     0.044 C 
ATOM     23  C   UNL A   1      33.775  26.724  22.748  1.00  0.00     0.055 C 
ATOM     24  C   UNL A   1      33.224  24.505  21.045  1.00  0.00     0.163 C 
ATOM     25  C   UNL A   1      32.977  26.950  21.459  1.00  0.00     0.014 C 
ATOM     26  O   UNL A   1      33.331  23.685  20.140  1.00  0.00    -0.294 OA
ATOM     27  C   UNL A   1      32.270  25.689  20.975  1.00  0.00     0.081 C 
BRANCH  14  28
ATOM     28  C   UNL A   1      30.910  23.847  26.660  1.00  0.00     0.261 C 
ATOM     29  N   UNL A   1      30.621  25.199  26.740  1.00  0.00    -0.322 N 
ATOM     30  H   UNL A   1      30.528  25.533  27.661  1.00  0.00     0.170 HD
ATOM     31  O   UNL A   1      30.773  23.142  27.660  1.00  0.00    -0.269 OA
BRANCH  29  32
ATOM     32  C   UNL A   1      30.437  26.186  25.747  1.00  0.00     0.041 A 
ATOM     33  C   UNL A   1      30.201  29.181  22.631  1.00  0.00     0.044 C 
ATOM     34  C   UNL A   1      30.261  28.175  23.742  1.00  0.00    -0.051 A 
ATOM     35  C   UNL A   1      29.440  27.048  23.698  1.00  0.00     0.005 A 
ATOM     36  C   UNL A   1      31.138  28.323  24.819  1.00  0.00     0.005 A 
ATOM     37  C   UNL A   1      29.507  26.090  24.713  1.00  0.00     0.026 A 
ATOM     38  C   UNL A   1      31.218  27.341  25.819  1.00  0.00     0.026 A 
ENDBRANCH  29  32
ENDBRANCH  14  28
ENDBRANCH   8  13
ENDBRANCH   4   7
ENDBRANCH   2   3
ENDBRANCH   1   2
BRANCH   1  39
ATOM     39  C   UNL A   1      42.132  22.512  26.003  1.00  0.00     0.118 C 
BRANCH  39  40
ATOM     40  N   UNL A   1      43.430  22.437  26.673  1.00  0.00    -0.352 N 
ATOM     41  C   UNL A   1      44.118  23.440  27.333  1.00  0.00     0.251 C 
ATOM     42  H   UNL A   1      43.872  21.557  26.652  1.00  0.00     0.163 HD
ATOM     43  O   UNL A   1      45.264  23.317  27.726  1.00  0.00    -0.269 OA
BRANCH  41  44
ATOM     44  C   UNL A   1      43.347  24.659  27.634  1.00  0.00     0.039 A 
ATOM     45  C   UNL A   1      43.413  25.693  26.695  1.00  0.00     0.014 A 
ATOM     46  C   UNL A   1      42.908  24.873  28.936  1.00  0.00     0.014 A 
ATOM     47  C   UNL A   1      43.225  27.003  27.119  1.00  0.00     0.010 A 
ATOM     48  C   UNL A   1      42.810  26.179  29.373  1.00  0.00     0.010 A 
ATOM     49  C   UNL A   1      43.028  27.239  28.479  1.00  0.00    -0.014 A 
BRANCH  49  50
ATOM     50  C   UNL A   1      43.127  28.564  29.078  1.00  0.00     0.031 A 
ATOM     51  C   UNL A   1      41.897  29.346  29.327  1.00  0.00     0.074 A 
ATOM     52  C   UNL A   1      44.325  29.040  29.485  1.00  0.00     0.049 A 
ATOM     53  N   UNL A   1      41.861  30.627  29.478  1.00  0.00    -0.248 NA
ATOM     54  C   UNL A   1      40.576  28.725  29.358  1.00  0.00     0.031 C 
ATOM     55  C   UNL A   1      44.557  30.177  30.373  1.00  0.00     0.029 A 
ATOM     56  N   UNL A   1      45.597  28.730  28.997  1.00  0.00    -0.354 N 
ATOM     57  C   UNL A   1      40.604  30.948  29.940  1.00  0.00     0.074 A 
ATOM     58  C   UNL A   1      39.817  29.752  29.747  1.00  0.00     0.031 C 
ATOM     59  C   UNL A   1      45.788  30.658  30.141  1.00  0.00     0.029 A 
ATOM     60  C   UNL A   1      46.317  29.936  28.996  1.00  0.00     0.049 A 
ATOM     61  H   UNL A   1      45.923  27.846  28.711  1.00  0.00     0.167 HD
ATOM     62  C   UNL A   1      40.406  32.134  30.583  1.00  0.00     0.031 A 
ATOM     63  C   UNL A   1      46.841  30.517  27.878  1.00  0.00     0.031 A 
ATOM     64  C   UNL A   1      41.601  32.976  30.543  1.00  0.00     0.049 A 
ATOM     65  C   UNL A   1      46.344  31.931  27.658  1.00  0.00     0.074 A 
ATOM     66  C   UNL A   1      42.589  33.261  31.472  1.00  0.00     0.029 A 
ATOM     67  N   UNL A   1      42.068  33.437  29.318  1.00  0.00    -0.354 N 
ATOM     68  N   UNL A   1      45.294  32.434  28.246  1.00  0.00    -0.248 NA
ATOM     69  C   UNL A   1      46.968  32.877  26.737  1.00  0.00     0.031 C 
ATOM     70  C   UNL A   1      43.686  33.839  30.781  1.00  0.00     0.029 A 
ATOM     71  C   UNL A   1      43.353  33.930  29.441  1.00  0.00     0.049 A 
ATOM     72  H   UNL A   1      41.555  33.416  28.479  1.00  0.00     0.167 HD
ATOM     73  C   UNL A   1      45.093  33.722  27.820  1.00  0.00     0.074 A 
ATOM     74  C   UNL A   1      46.174  33.954  26.880  1.00  0.00     0.031 C 
ATOM     75  C   UNL A   1      44.048  34.476  28.281  1.00  0.00     0.031 A 
BRANCH  62  76
ATOM     76  C   UNL A   1      39.230  32.393  31.506  1.00  0.00    -0.014 A 
ATOM     77  C   UNL A   1      37.977  32.741  30.958  1.00  0.00     0.010 A 
ATOM     78  C   UNL A   1      39.303  32.384  32.912  1.00  0.00     0.010 A 
ATOM     79  C   UNL A   1      36.902  33.162  31.758  1.00  0.00     0.020 A 
ATOM     80  C   UNL A   1      38.252  32.836  33.724  1.00  0.00     0.020 A 
ATOM     81  C   UNL A   1      37.057  33.238  33.139  1.00  0.00     0.054 A 
BRANCH  81  82
ATOM     82  S   UNL A   1      35.696  33.867  34.154  1.00  0.00     0.124 S 
ATOM     83  O   UNL A   1      34.547  33.130  33.635  1.00  0.00    -0.237 OA
ATOM     84  O   UNL A   1      36.118  33.508  35.504  1.00  0.00    -0.237 OA
ATOM     85  O   UNL A   1      35.684  35.301  33.869  1.00  0.00    -0.744 OA
ENDBRANCH  81  82
ENDBRANCH  62  76
BRANCH  63  86
ATOM     86  C   UNL A   1      47.213  29.562  26.798  1.00  0.00    -0.014 A 
ATOM     87  C   UNL A   1      48.259  28.654  27.070  1.00  0.00     0.010 A 
ATOM     88  C   UNL A   1      46.307  29.267  25.764  1.00  0.00     0.010 A 
ATOM     89  C   UNL A   1      48.297  27.406  26.445  1.00  0.00     0.020 A 
ATOM     90  C   UNL A   1      46.347  28.014  25.133  1.00  0.00     0.020 A 
ATOM     91  C   UNL A   1      47.302  27.071  25.527  1.00  0.00     0.054 A 
BRANCH  91  92
ATOM     92  S   UNL A   1      47.158  25.326  25.029  1.00  0.00     0.124 S 
ATOM     93  O   UNL A   1      45.727  25.189  24.785  1.00  0.00    -0.237 OA
ATOM     94  O   UNL A   1      48.007  25.280  23.837  1.00  0.00    -0.237 OA
ATOM     95  O   UNL A   1      47.673  24.604  26.187  1.00  0.00    -0.744 OA
ENDBRANCH  91  92
ENDBRANCH  63  86
BRANCH  75  96
ATOM     96  C   UNL A   1      43.597  35.827  27.760  1.00  0.00    -0.014 A 
ATOM     97  C   UNL A   1      42.345  36.088  27.185  1.00  0.00     0.010 A 
ATOM     98  C   UNL A   1      44.444  36.947  27.961  1.00  0.00     0.010 A 
ATOM     99  C   UNL A   1      41.977  37.384  26.786  1.00  0.00     0.020 A 
ATOM    100  C   UNL A   1      44.072  38.249  27.611  1.00  0.00     0.020 A 
ATOM    101  C   UNL A   1      42.843  38.456  27.002  1.00  0.00     0.054 A 
BRANCH 101 102
ATOM    102  S   UNL A   1      42.325  40.132  26.553  1.00  0.00     0.124 S 
ATOM    103  O   UNL A   1      42.437  40.835  27.828  1.00  0.00    -0.237 OA
ATOM    104  O   UNL A   1      43.304  40.516  25.539  1.00  0.00    -0.237 OA
ATOM    105  O   UNL A   1      40.964  39.949  26.054  1.00  0.00    -0.744 OA
ENDBRANCH 101 102
ENDBRANCH  75  96
ENDBRANCH  49  50
ENDBRANCH  41  44
ENDBRANCH  39  40
ENDBRANCH   1  39
TORSDOF 16
ENDMDL
