MODEL 1
REMARK VINA RESULT:      -9.4      0.000      0.000
REMARK SMILES CC(C)(CCc1ccc(Cl)c2ccccc12)C(=O)NCCCNC(=O)c1ccc(-c2c3nc(c(-c4ccc(S(=O)(=O)[O-])cc4)c4ccc([nH]4)c(-c4ccc(S(=O)(=O)[O-])cc4)c4nc(c(-c5ccc(S(=O)(=O)[O-])cc5)c5ccc2[nH]5)C=C4)C=C3)cc1
REMARK SMILES IDX 21 1 20 2 19 3 17 4 18 5 2 7 1 8 3 9 4 10 5 11 6 12 7 13
REMARK SMILES IDX 16 14 8 15 11 16 15 17 9 18 12 19 14 20 10 21 13 22 22 23
REMARK SMILES IDX 23 24 24 25 25 27 26 28 27 29 85 30 28 31 84 32 29 33 30 34
REMARK SMILES IDX 31 35 78 36 32 37 83 38 77 39 79 40 33 41 82 42 76 43 75 44
REMARK SMILES IDX 34 46 64 47 45 48 63 49 46 50 49 51 62 52 80 53 47 54 48 55
REMARK SMILES IDX 61 57 81 58 50 59 35 60 36 61 44 62 37 63 43 64 38 65 39 66
REMARK SMILES IDX 40 67 41 68 42 69 65 70 66 71 74 72 67 73 73 74 68 75 69 76
REMARK SMILES IDX 70 77 71 78 72 79 51 80 52 81 60 82 53 83 59 84 54 85 55 86
REMARK SMILES IDX 56 87 57 88 58 89
REMARK H PARENT 19 6 23 26 79 45 49 56
REMARK Flexibility Score: inf
ROOT
ATOM      1  C   UNL A   1      34.591  33.062  29.630  1.00  0.00     0.042 C 
ENDROOT
BRANCH   1   2
ATOM      2  C   UNL A   1      35.635  34.080  30.091  1.00  0.00     0.117 C 
BRANCH   2   3
ATOM      3  N   UNL A   1      35.358  34.756  31.355  1.00  0.00    -0.356 N 
ATOM      4  C   UNL A   1      36.022  34.893  32.539  1.00  0.00     0.225 C 
ATOM      5  O   UNL A   1      35.535  35.714  33.325  1.00  0.00    -0.275 OA
ATOM      6  H   UNL A   1      34.490  35.221  31.352  1.00  0.00     0.163 HD
BRANCH   4   7
ATOM      7  C   UNL A   1      37.292  34.098  32.918  1.00  0.00     0.044 C 
ATOM      8  C   UNL A   1      37.843  34.625  34.267  1.00  0.00     0.021 C 
ATOM      9  C   UNL A   1      38.405  34.415  31.893  1.00  0.00     0.021 C 
BRANCH   7  10
ATOM     10  C   UNL A   1      37.029  32.564  33.023  1.00  0.00     0.021 C 
BRANCH  10  11
ATOM     11  C   UNL A   1      37.437  31.815  34.333  1.00  0.00     0.037 C 
BRANCH  11  12
ATOM     12  C   UNL A   1      38.787  31.116  34.445  1.00  0.00    -0.040 A 
ATOM     13  C   UNL A   1      39.743  31.625  35.323  1.00  0.00     0.006 A 
ATOM     14  C   UNL A   1      39.100  29.909  33.751  1.00  0.00    -0.014 A 
ATOM     15  C   UNL A   1      41.037  31.125  35.383  1.00  0.00     0.021 A 
ATOM     16  C   UNL A   1      40.419  29.361  33.838  1.00  0.00     0.001 A 
ATOM     17  C   UNL A   1      38.147  29.188  32.993  1.00  0.00     0.009 A 
ATOM     18  C   UNL A   1      41.385  30.023  34.621  1.00  0.00     0.048 A 
ATOM     19  C   UNL A   1      40.713  28.157  33.159  1.00  0.00     0.010 A 
ATOM     20  C   UNL A   1      38.461  27.984  32.356  1.00  0.00     0.001 A 
ATOM     21  Cl  UNL A   1      43.037  29.504  34.731  1.00  0.00    -0.084 Cl
ATOM     22  C   UNL A   1      39.745  27.471  32.436  1.00  0.00     0.001 A 
ENDBRANCH  11  12
ENDBRANCH  10  11
ENDBRANCH   7  10
ENDBRANCH   4   7
ENDBRANCH   2   3
ENDBRANCH   1   2
BRANCH   1  23
ATOM     23  C   UNL A   1      34.433  32.898  28.123  1.00  0.00     0.118 C 
BRANCH  23  24
ATOM     24  N   UNL A   1      33.663  31.731  27.748  1.00  0.00    -0.352 N 
ATOM     25  C   UNL A   1      34.064  30.421  27.644  1.00  0.00     0.251 C 
ATOM     26  H   UNL A   1      32.717  31.900  27.536  1.00  0.00     0.163 HD
ATOM     27  O   UNL A   1      33.280  29.588  27.194  1.00  0.00    -0.269 OA
BRANCH  25  28
ATOM     28  C   UNL A   1      35.435  30.014  28.027  1.00  0.00     0.039 A 
ATOM     29  C   UNL A   1      36.429  30.028  27.045  1.00  0.00     0.014 A 
ATOM     30  C   UNL A   1      35.745  29.592  29.325  1.00  0.00     0.014 A 
ATOM     31  C   UNL A   1      37.739  29.669  27.373  1.00  0.00     0.010 A 
ATOM     32  C   UNL A   1      37.068  29.295  29.665  1.00  0.00     0.010 A 
ATOM     33  C   UNL A   1      38.078  29.322  28.691  1.00  0.00    -0.014 A 
BRANCH  33  34
ATOM     34  C   UNL A   1      39.484  28.984  29.047  1.00  0.00     0.031 A 
ATOM     35  C   UNL A   1      40.350  29.980  29.771  1.00  0.00     0.074 A 
ATOM     36  C   UNL A   1      39.990  27.783  28.704  1.00  0.00     0.049 A 
ATOM     37  N   UNL A   1      41.588  29.853  30.180  1.00  0.00    -0.248 NA
ATOM     38  C   UNL A   1      39.756  31.294  30.059  1.00  0.00     0.031 C 
ATOM     39  C   UNL A   1      39.266  26.736  27.980  1.00  0.00     0.029 A 
ATOM     40  N   UNL A   1      41.230  27.235  28.926  1.00  0.00    -0.354 N 
ATOM     41  C   UNL A   1      41.922  31.070  30.765  1.00  0.00     0.074 A 
ATOM     42  C   UNL A   1      40.775  31.938  30.608  1.00  0.00     0.031 C 
ATOM     43  C   UNL A   1      40.060  25.661  27.851  1.00  0.00     0.029 A 
ATOM     44  C   UNL A   1      41.361  25.953  28.445  1.00  0.00     0.049 A 
ATOM     45  H   UNL A   1      41.956  27.715  29.385  1.00  0.00     0.167 HD
ATOM     46  C   UNL A   1      43.068  31.427  31.394  1.00  0.00     0.031 A 
ATOM     47  C   UNL A   1      42.408  25.104  28.476  1.00  0.00     0.031 A 
ATOM     48  C   UNL A   1      44.213  30.566  31.540  1.00  0.00     0.049 A 
ATOM     49  C   UNL A   1      43.685  25.534  29.146  1.00  0.00     0.074 A 
ATOM     50  C   UNL A   1      45.405  30.822  32.194  1.00  0.00     0.029 A 
ATOM     51  N   UNL A   1      44.314  29.285  31.016  1.00  0.00    -0.354 N 
ATOM     52  N   UNL A   1      43.958  26.666  29.749  1.00  0.00    -0.248 NA
ATOM     53  C   UNL A   1      44.790  24.566  29.150  1.00  0.00     0.031 C 
ATOM     54  C   UNL A   1      46.250  29.721  32.013  1.00  0.00     0.029 A 
ATOM     55  C   UNL A   1      45.559  28.751  31.306  1.00  0.00     0.049 A 
ATOM     56  H   UNL A   1      43.606  28.825  30.511  1.00  0.00     0.167 HD
ATOM     57  C   UNL A   1      45.256  26.536  30.230  1.00  0.00     0.074 A 
ATOM     58  C   UNL A   1      45.708  25.210  29.859  1.00  0.00     0.031 C 
ATOM     59  C   UNL A   1      46.004  27.432  30.923  1.00  0.00     0.031 A 
BRANCH  46  60
ATOM     60  C   UNL A   1      43.142  32.827  31.954  1.00  0.00    -0.014 A 
ATOM     61  C   UNL A   1      43.628  33.897  31.182  1.00  0.00     0.010 A 
ATOM     62  C   UNL A   1      42.708  33.078  33.269  1.00  0.00     0.010 A 
ATOM     63  C   UNL A   1      43.736  35.178  31.731  1.00  0.00     0.020 A 
ATOM     64  C   UNL A   1      42.782  34.364  33.812  1.00  0.00     0.020 A 
ATOM     65  C   UNL A   1      43.319  35.401  33.047  1.00  0.00     0.054 A 
BRANCH  65  66
ATOM     66  S   UNL A   1      43.479  37.071  33.738  1.00  0.00     0.124 S 
ATOM     67  O   UNL A   1      44.644  36.926  34.607  1.00  0.00    -0.237 OA
ATOM     68  O   UNL A   1      43.684  37.892  32.548  1.00  0.00    -0.237 OA
ATOM     69  O   UNL A   1      42.209  37.285  34.428  1.00  0.00    -0.744 OA
ENDBRANCH  65  66
ENDBRANCH  46  60
BRANCH  47  70
ATOM     70  C   UNL A   1      42.277  23.748  27.875  1.00  0.00    -0.014 A 
ATOM     71  C   UNL A   1      43.025  23.396  26.737  1.00  0.00     0.010 A 
ATOM     72  C   UNL A   1      41.427  22.790  28.456  1.00  0.00     0.010 A 
ATOM     73  C   UNL A   1      42.922  22.113  26.190  1.00  0.00     0.020 A 
ATOM     74  C   UNL A   1      41.342  21.498  27.929  1.00  0.00     0.020 A 
ATOM     75  C   UNL A   1      42.087  21.170  26.795  1.00  0.00     0.054 A 
BRANCH  75  76
ATOM     76  S   UNL A   1      42.029  19.489  26.113  1.00  0.00     0.124 S 
ATOM     77  O   UNL A   1      42.574  18.696  27.209  1.00  0.00    -0.237 OA
ATOM     78  O   UNL A   1      40.603  19.308  25.848  1.00  0.00    -0.237 OA
ATOM     79  O   UNL A   1      42.870  19.575  24.921  1.00  0.00    -0.744 OA
ENDBRANCH  75  76
ENDBRANCH  47  70
BRANCH  59  80
ATOM     80  C   UNL A   1      47.381  27.001  31.355  1.00  0.00    -0.014 A 
ATOM     81  C   UNL A   1      47.603  26.399  32.607  1.00  0.00     0.010 A 
ATOM     82  C   UNL A   1      48.465  27.156  30.470  1.00  0.00     0.010 A 
ATOM     83  C   UNL A   1      48.888  25.991  32.978  1.00  0.00     0.020 A 
ATOM     84  C   UNL A   1      49.745  26.722  30.825  1.00  0.00     0.020 A 
ATOM     85  C   UNL A   1      49.950  26.156  32.084  1.00  0.00     0.054 A 
BRANCH  85  86
ATOM     86  S   UNL A   1      51.601  25.580  32.574  1.00  0.00     0.124 S 
ATOM     87  O   UNL A   1      51.330  24.209  32.999  1.00  0.00    -0.237 OA
ATOM     88  O   UNL A   1      52.367  25.715  31.338  1.00  0.00    -0.237 OA
ATOM     89  O   UNL A   1      51.985  26.499  33.643  1.00  0.00    -0.744 OA
ENDBRANCH  85  86
ENDBRANCH  59  80
ENDBRANCH  33  34
ENDBRANCH  25  28
ENDBRANCH  23  24
ENDBRANCH   1  23
TORSDOF 16
ENDMDL
MODEL 2
REMARK VINA RESULT:      -9.1      3.798      6.659
REMARK SMILES CC(C)(CCc1ccc(Cl)c2ccccc12)C(=O)NCCCNC(=O)c1ccc(-c2c3nc(c(-c4ccc(S(=O)(=O)[O-])cc4)c4ccc([nH]4)c(-c4ccc(S(=O)(=O)[O-])cc4)c4nc(c(-c5ccc(S(=O)(=O)[O-])cc5)c5ccc2[nH]5)C=C4)C=C3)cc1
REMARK SMILES IDX 21 1 20 2 19 3 17 4 18 5 2 7 1 8 3 9 4 10 5 11 6 12 7 13
REMARK SMILES IDX 16 14 8 15 11 16 15 17 9 18 12 19 14 20 10 21 13 22 22 23
REMARK SMILES IDX 23 24 24 25 25 27 26 28 27 29 85 30 28 31 84 32 29 33 30 34
REMARK SMILES IDX 31 35 78 36 32 37 83 38 77 39 79 40 33 41 82 42 76 43 75 44
REMARK SMILES IDX 34 46 64 47 45 48 63 49 46 50 49 51 62 52 80 53 47 54 48 55
REMARK SMILES IDX 61 57 81 58 50 59 35 60 36 61 44 62 37 63 43 64 38 65 39 66
REMARK SMILES IDX 40 67 41 68 42 69 65 70 66 71 74 72 67 73 73 74 68 75 69 76
REMARK SMILES IDX 70 77 71 78 72 79 51 80 52 81 60 82 53 83 59 84 54 85 55 86
REMARK SMILES IDX 56 87 57 88 58 89
REMARK H PARENT 19 6 23 26 79 45 49 56
REMARK Flexibility Score: inf
ROOT
ATOM      1  C   UNL A   1      32.028  27.726  27.501  1.00  0.00     0.042 C 
ENDROOT
BRANCH   1   2
ATOM      2  C   UNL A   1      31.556  26.748  26.424  1.00  0.00     0.117 C 
BRANCH   2   3
ATOM      3  N   UNL A   1      31.368  27.305  25.088  1.00  0.00    -0.356 N 
ATOM      4  C   UNL A   1      31.701  26.911  23.825  1.00  0.00     0.225 C 
ATOM      5  O   UNL A   1      31.194  27.576  22.914  1.00  0.00    -0.275 OA
ATOM      6  H   UNL A   1      30.888  28.165  25.102  1.00  0.00     0.163 HD
BRANCH   4   7
ATOM      7  C   UNL A   1      32.645  25.730  23.506  1.00  0.00     0.044 C 
ATOM      8  C   UNL A   1      33.992  25.937  24.245  1.00  0.00     0.021 C 
ATOM      9  C   UNL A   1      33.014  25.775  22.005  1.00  0.00     0.021 C 
BRANCH   7  10
ATOM     10  C   UNL A   1      32.036  24.352  23.907  1.00  0.00     0.021 C 
BRANCH  10  11
ATOM     11  C   UNL A   1      32.677  23.555  25.090  1.00  0.00     0.037 C 
BRANCH  11  12
ATOM     12  C   UNL A   1      33.251  22.160  24.872  1.00  0.00    -0.040 A 
ATOM     13  C   UNL A   1      32.402  21.135  24.455  1.00  0.00     0.006 A 
ATOM     14  C   UNL A   1      34.641  21.861  24.995  1.00  0.00    -0.014 A 
ATOM     15  C   UNL A   1      32.822  19.815  24.362  1.00  0.00     0.021 A 
ATOM     16  C   UNL A   1      35.092  20.510  24.861  1.00  0.00     0.001 A 
ATOM     17  C   UNL A   1      35.625  22.854  25.211  1.00  0.00     0.009 A 
ATOM     18  C   UNL A   1      34.149  19.497  24.597  1.00  0.00     0.048 A 
ATOM     19  C   UNL A   1      36.472  20.227  24.969  1.00  0.00     0.010 A 
ATOM     20  C   UNL A   1      36.987  22.548  25.286  1.00  0.00     0.001 A 
ATOM     21  Cl  UNL A   1      34.563  17.815  24.503  1.00  0.00    -0.084 Cl
ATOM     22  C   UNL A   1      37.410  21.234  25.168  1.00  0.00     0.001 A 
ENDBRANCH  11  12
ENDBRANCH  10  11
ENDBRANCH   7  10
ENDBRANCH   4   7
ENDBRANCH   2   3
ENDBRANCH   1   2
BRANCH   1  23
ATOM     23  C   UNL A   1      33.352  28.430  27.234  1.00  0.00     0.118 C 
BRANCH  23  24
ATOM     24  N   UNL A   1      33.278  29.870  27.370  1.00  0.00    -0.352 N 
ATOM     25  C   UNL A   1      34.227  30.751  27.826  1.00  0.00     0.251 C 
ATOM     26  H   UNL A   1      32.423  30.276  27.097  1.00  0.00     0.163 HD
ATOM     27  O   UNL A   1      33.927  31.934  27.976  1.00  0.00    -0.269 OA
BRANCH  25  28
ATOM     28  C   UNL A   1      35.589  30.285  28.176  1.00  0.00     0.039 A 
ATOM     29  C   UNL A   1      36.583  30.351  27.196  1.00  0.00     0.014 A 
ATOM     30  C   UNL A   1      35.890  29.762  29.438  1.00  0.00     0.014 A 
ATOM     31  C   UNL A   1      37.885  29.939  27.494  1.00  0.00     0.010 A 
ATOM     32  C   UNL A   1      37.206  29.411  29.753  1.00  0.00     0.010 A 
ATOM     33  C   UNL A   1      38.216  29.487  28.782  1.00  0.00    -0.014 A 
BRANCH  33  34
ATOM     34  C   UNL A   1      39.615  29.093  29.109  1.00  0.00     0.031 A 
ATOM     35  C   UNL A   1      40.535  30.053  29.815  1.00  0.00     0.074 A 
ATOM     36  C   UNL A   1      40.065  27.872  28.757  1.00  0.00     0.049 A 
ATOM     37  N   UNL A   1      41.774  29.875  30.199  1.00  0.00    -0.248 NA
ATOM     38  C   UNL A   1      40.000  31.390  30.114  1.00  0.00     0.031 C 
ATOM     39  C   UNL A   1      39.284  26.856  28.048  1.00  0.00     0.029 A 
ATOM     40  N   UNL A   1      41.285  27.275  28.953  1.00  0.00    -0.354 N 
ATOM     41  C   UNL A   1      42.170  31.077  30.777  1.00  0.00     0.074 A 
ATOM     42  C   UNL A   1      41.056  31.992  30.643  1.00  0.00     0.031 C 
ATOM     43  C   UNL A   1      40.031  25.750  27.903  1.00  0.00     0.029 A 
ATOM     44  C   UNL A   1      41.355  25.989  28.471  1.00  0.00     0.049 A 
ATOM     45  H   UNL A   1      42.040  27.724  29.398  1.00  0.00     0.167 HD
ATOM     46  C   UNL A   1      43.342  31.388  31.381  1.00  0.00     0.031 A 
ATOM     47  C   UNL A   1      42.367  25.098  28.481  1.00  0.00     0.031 A 
ATOM     48  C   UNL A   1      44.453  30.481  31.505  1.00  0.00     0.049 A 
ATOM     49  C   UNL A   1      43.673  25.476  29.125  1.00  0.00     0.074 A 
ATOM     50  C   UNL A   1      45.668  30.688  32.134  1.00  0.00     0.029 A 
ATOM     51  N   UNL A   1      44.492  29.197  30.979  1.00  0.00    -0.354 N 
ATOM     52  N   UNL A   1      44.004  26.596  29.721  1.00  0.00    -0.248 NA
ATOM     53  C   UNL A   1      44.738  24.463  29.107  1.00  0.00     0.031 C 
ATOM     54  C   UNL A   1      46.463  29.554  31.937  1.00  0.00     0.029 A 
ATOM     55  C   UNL A   1      45.720  28.613  31.244  1.00  0.00     0.049 A 
ATOM     56  H   UNL A   1      43.755  28.767  30.489  1.00  0.00     0.167 HD
ATOM     57  C   UNL A   1      45.306  26.412  30.176  1.00  0.00     0.074 A 
ATOM     58  C   UNL A   1      45.696  25.070  29.797  1.00  0.00     0.031 C 
ATOM     59  C   UNL A   1      46.103  27.277  30.853  1.00  0.00     0.031 A 
BRANCH  46  60
ATOM     60  C   UNL A   1      43.484  32.783  31.940  1.00  0.00    -0.014 A 
ATOM     61  C   UNL A   1      42.995  33.111  33.217  1.00  0.00     0.010 A 
ATOM     62  C   UNL A   1      44.127  33.779  31.180  1.00  0.00     0.010 A 
ATOM     63  C   UNL A   1      43.090  34.419  33.700  1.00  0.00     0.020 A 
ATOM     64  C   UNL A   1      44.256  35.081  31.674  1.00  0.00     0.020 A 
ATOM     65  C   UNL A   1      43.714  35.398  32.921  1.00  0.00     0.054 A 
BRANCH  65  66
ATOM     66  S   UNL A   1      43.816  37.089  33.568  1.00  0.00     0.124 S 
ATOM     67  O   UNL A   1      43.909  37.876  32.340  1.00  0.00    -0.237 OA
ATOM     68  O   UNL A   1      42.564  37.227  34.306  1.00  0.00    -0.237 OA
ATOM     69  O   UNL A   1      45.023  37.075  34.391  1.00  0.00    -0.744 OA
ENDBRANCH  65  66
ENDBRANCH  46  60
BRANCH  47  70
ATOM     70  C   UNL A   1      42.169  23.748  27.883  1.00  0.00    -0.014 A 
ATOM     71  C   UNL A   1      42.479  23.513  26.532  1.00  0.00     0.010 A 
ATOM     72  C   UNL A   1      41.699  22.682  28.671  1.00  0.00     0.010 A 
ATOM     73  C   UNL A   1      42.319  22.239  25.979  1.00  0.00     0.020 A 
ATOM     74  C   UNL A   1      41.564  21.400  28.130  1.00  0.00     0.020 A 
ATOM     75  C   UNL A   1      41.870  21.188  26.784  1.00  0.00     0.054 A 
BRANCH  75  76
ATOM     76  S   UNL A   1      41.744  19.528  26.064  1.00  0.00     0.124 S 
ATOM     77  O   UNL A   1      42.641  19.623  24.918  1.00  0.00    -0.237 OA
ATOM     78  O   UNL A   1      42.203  18.676  27.159  1.00  0.00    -0.237 OA
ATOM     79  O   UNL A   1      40.325  19.402  25.741  1.00  0.00    -0.744 OA
ENDBRANCH  75  76
ENDBRANCH  47  70
BRANCH  59  80
ATOM     80  C   UNL A   1      47.470  26.791  31.258  1.00  0.00    -0.014 A 
ATOM     81  C   UNL A   1      47.656  25.991  32.399  1.00  0.00     0.010 A 
ATOM     82  C   UNL A   1      48.582  27.100  30.450  1.00  0.00     0.010 A 
ATOM     83  C   UNL A   1      48.934  25.536  32.744  1.00  0.00     0.020 A 
ATOM     84  C   UNL A   1      49.855  26.622  30.775  1.00  0.00     0.020 A 
ATOM     85  C   UNL A   1      50.024  25.856  31.928  1.00  0.00     0.054 A 
BRANCH  85  86
ATOM     86  S   UNL A   1      51.664  25.219  32.376  1.00  0.00     0.124 S 
ATOM     87  O   UNL A   1      51.391  23.800  32.588  1.00  0.00    -0.237 OA
ATOM     88  O   UNL A   1      52.463  25.535  31.195  1.00  0.00    -0.237 OA
ATOM     89  O   UNL A   1      52.012  25.972  33.577  1.00  0.00    -0.744 OA
ENDBRANCH  85  86
ENDBRANCH  59  80
ENDBRANCH  33  34
ENDBRANCH  25  28
ENDBRANCH  23  24
ENDBRANCH   1  23
TORSDOF 16
ENDMDL
MODEL 3
REMARK VINA RESULT:      -9.1      3.572      6.360
REMARK SMILES CC(C)(CCc1ccc(Cl)c2ccccc12)C(=O)NCCCNC(=O)c1ccc(-c2c3nc(c(-c4ccc(S(=O)(=O)[O-])cc4)c4ccc([nH]4)c(-c4ccc(S(=O)(=O)[O-])cc4)c4nc(c(-c5ccc(S(=O)(=O)[O-])cc5)c5ccc2[nH]5)C=C4)C=C3)cc1
REMARK SMILES IDX 21 1 20 2 19 3 17 4 18 5 2 7 1 8 3 9 4 10 5 11 6 12 7 13
REMARK SMILES IDX 16 14 8 15 11 16 15 17 9 18 12 19 14 20 10 21 13 22 22 23
REMARK SMILES IDX 23 24 24 25 25 27 26 28 27 29 85 30 28 31 84 32 29 33 30 34
REMARK SMILES IDX 31 35 78 36 32 37 83 38 77 39 79 40 33 41 82 42 76 43 75 44
REMARK SMILES IDX 34 46 64 47 45 48 63 49 46 50 49 51 62 52 80 53 47 54 48 55
REMARK SMILES IDX 61 57 81 58 50 59 35 60 36 61 44 62 37 63 43 64 38 65 39 66
REMARK SMILES IDX 40 67 41 68 42 69 65 70 66 71 74 72 67 73 73 74 68 75 69 76
REMARK SMILES IDX 70 77 71 78 72 79 51 80 52 81 60 82 53 83 59 84 54 85 55 86
REMARK SMILES IDX 56 87 57 88 58 89
REMARK H PARENT 19 6 23 26 79 45 49 56
REMARK Flexibility Score: inf
ROOT
ATOM      1  C   UNL A   1      33.080  27.757  25.767  1.00  0.00     0.042 C 
ENDROOT
BRANCH   1   2
ATOM      2  C   UNL A   1      33.194  28.793  24.647  1.00  0.00     0.117 C 
BRANCH   2   3
ATOM      3  N   UNL A   1      32.025  29.642  24.436  1.00  0.00    -0.356 N 
ATOM      4  C   UNL A   1      30.736  29.425  24.046  1.00  0.00     0.225 C 
ATOM      5  O   UNL A   1      29.978  30.395  24.167  1.00  0.00    -0.275 OA
ATOM      6  H   UNL A   1      32.211  30.592  24.617  1.00  0.00     0.163 HD
BRANCH   4   7
ATOM      7  C   UNL A   1      30.215  28.084  23.483  1.00  0.00     0.044 C 
ATOM      8  C   UNL A   1      31.178  27.584  22.377  1.00  0.00     0.021 C 
ATOM      9  C   UNL A   1      28.877  28.335  22.749  1.00  0.00     0.021 C 
BRANCH   7  10
ATOM     10  C   UNL A   1      30.069  26.988  24.583  1.00  0.00     0.021 C 
BRANCH  10  11
ATOM     11  C   UNL A   1      30.229  25.486  24.181  1.00  0.00     0.037 C 
BRANCH  11  12
ATOM     12  C   UNL A   1      31.147  24.560  24.972  1.00  0.00    -0.040 A 
ATOM     13  C   UNL A   1      30.754  24.141  26.243  1.00  0.00     0.006 A 
ATOM     14  C   UNL A   1      32.362  24.029  24.445  1.00  0.00    -0.014 A 
ATOM     15  C   UNL A   1      31.591  23.408  27.074  1.00  0.00     0.021 A 
ATOM     16  C   UNL A   1      33.212  23.237  25.279  1.00  0.00     0.001 A 
ATOM     17  C   UNL A   1      32.763  24.215  23.101  1.00  0.00     0.009 A 
ATOM     18  C   UNL A   1      32.826  22.988  26.610  1.00  0.00     0.048 A 
ATOM     19  C   UNL A   1      34.405  22.704  24.742  1.00  0.00     0.010 A 
ATOM     20  C   UNL A   1      33.935  23.651  22.590  1.00  0.00     0.001 A 
ATOM     21  Cl  UNL A   1      33.815  22.120  27.741  1.00  0.00    -0.084 Cl
ATOM     22  C   UNL A   1      34.757  22.898  23.411  1.00  0.00     0.001 A 
ENDBRANCH  11  12
ENDBRANCH  10  11
ENDBRANCH   7  10
ENDBRANCH   4   7
ENDBRANCH   2   3
ENDBRANCH   1   2
BRANCH   1  23
ATOM     23  C   UNL A   1      33.520  28.214  27.152  1.00  0.00     0.118 C 
BRANCH  23  24
ATOM     24  N   UNL A   1      33.399  29.643  27.353  1.00  0.00    -0.352 N 
ATOM     25  C   UNL A   1      34.316  30.530  27.861  1.00  0.00     0.251 C 
ATOM     26  H   UNL A   1      32.536  30.035  27.087  1.00  0.00     0.163 HD
ATOM     27  O   UNL A   1      33.978  31.695  28.061  1.00  0.00    -0.269 OA
BRANCH  25  28
ATOM     28  C   UNL A   1      35.687  30.090  28.208  1.00  0.00     0.039 A 
ATOM     29  C   UNL A   1      36.663  30.114  27.207  1.00  0.00     0.014 A 
ATOM     30  C   UNL A   1      36.015  29.630  29.489  1.00  0.00     0.014 A 
ATOM     31  C   UNL A   1      37.972  29.724  27.500  1.00  0.00     0.010 A 
ATOM     32  C   UNL A   1      37.339  29.302  29.795  1.00  0.00     0.010 A 
ATOM     33  C   UNL A   1      38.330  29.337  28.802  1.00  0.00    -0.014 A 
BRANCH  33  34
ATOM     34  C   UNL A   1      39.737  28.968  29.122  1.00  0.00     0.031 A 
ATOM     35  C   UNL A   1      40.642  29.940  29.830  1.00  0.00     0.074 A 
ATOM     36  C   UNL A   1      40.209  27.757  28.761  1.00  0.00     0.049 A 
ATOM     37  N   UNL A   1      41.886  29.784  30.208  1.00  0.00    -0.248 NA
ATOM     38  C   UNL A   1      40.083  31.266  30.139  1.00  0.00     0.031 C 
ATOM     39  C   UNL A   1      39.445  26.731  28.049  1.00  0.00     0.029 A 
ATOM     40  N   UNL A   1      41.441  27.182  28.949  1.00  0.00    -0.354 N 
ATOM     41  C   UNL A   1      42.261  30.990  30.792  1.00  0.00     0.074 A 
ATOM     42  C   UNL A   1      41.129  31.884  30.668  1.00  0.00     0.031 C 
ATOM     43  C   UNL A   1      40.212  25.640  27.895  1.00  0.00     0.029 A 
ATOM     44  C   UNL A   1      41.533  25.901  28.459  1.00  0.00     0.049 A 
ATOM     45  H   UNL A   1      42.189  27.643  29.394  1.00  0.00     0.167 HD
ATOM     46  C   UNL A   1      43.429  31.319  31.394  1.00  0.00     0.031 A 
ATOM     47  C   UNL A   1      42.562  25.029  28.460  1.00  0.00     0.031 A 
ATOM     48  C   UNL A   1      44.558  30.432  31.508  1.00  0.00     0.049 A 
ATOM     49  C   UNL A   1      43.863  25.427  29.101  1.00  0.00     0.074 A 
ATOM     50  C   UNL A   1      45.771  30.659  32.134  1.00  0.00     0.029 A 
ATOM     51  N   UNL A   1      44.619  29.153  30.975  1.00  0.00    -0.354 N 
ATOM     52  N   UNL A   1      44.175  26.550  29.703  1.00  0.00    -0.248 NA
ATOM     53  C   UNL A   1      44.947  24.436  29.073  1.00  0.00     0.031 C 
ATOM     54  C   UNL A   1      46.587  29.541  31.927  1.00  0.00     0.029 A 
ATOM     55  C   UNL A   1      45.858  28.590  31.232  1.00  0.00     0.049 A 
ATOM     56  H   UNL A   1      43.888  28.711  30.485  1.00  0.00     0.167 HD
ATOM     57  C   UNL A   1      45.482  26.389  30.152  1.00  0.00     0.074 A 
ATOM     58  C   UNL A   1      45.895  25.056  29.763  1.00  0.00     0.031 C 
ATOM     59  C   UNL A   1      46.265  27.264  30.831  1.00  0.00     0.031 A 
BRANCH  46  60
ATOM     60  C   UNL A   1      43.547  32.713  31.960  1.00  0.00    -0.014 A 
ATOM     61  C   UNL A   1      43.191  32.992  33.292  1.00  0.00     0.010 A 
ATOM     62  C   UNL A   1      44.033  33.758  31.152  1.00  0.00     0.010 A 
ATOM     63  C   UNL A   1      43.259  34.298  33.787  1.00  0.00     0.020 A 
ATOM     64  C   UNL A   1      44.136  35.060  31.653  1.00  0.00     0.020 A 
ATOM     65  C   UNL A   1      43.725  35.325  32.961  1.00  0.00     0.054 A 
BRANCH  65  66
ATOM     66  S   UNL A   1      43.795  37.011  33.626  1.00  0.00     0.124 S 
ATOM     67  O   UNL A   1      43.865  37.813  32.406  1.00  0.00    -0.237 OA
ATOM     68  O   UNL A   1      42.543  37.114  34.371  1.00  0.00    -0.237 OA
ATOM     69  O   UNL A   1      45.005  37.013  34.443  1.00  0.00    -0.744 OA
ENDBRANCH  65  66
ENDBRANCH  46  60
BRANCH  47  70
ATOM     70  C   UNL A   1      42.387  23.679  27.855  1.00  0.00    -0.014 A 
ATOM     71  C   UNL A   1      42.764  23.440  26.522  1.00  0.00     0.010 A 
ATOM     72  C   UNL A   1      41.871  22.617  28.620  1.00  0.00     0.010 A 
ATOM     73  C   UNL A   1      42.626  22.166  25.964  1.00  0.00     0.020 A 
ATOM     74  C   UNL A   1      41.757  21.335  28.074  1.00  0.00     0.020 A 
ATOM     75  C   UNL A   1      42.130  21.119  26.746  1.00  0.00     0.054 A 
BRANCH  75  76
ATOM     76  S   UNL A   1      42.032  19.458  26.023  1.00  0.00     0.124 S 
ATOM     77  O   UNL A   1      42.583  18.628  27.088  1.00  0.00    -0.237 OA
ATOM     78  O   UNL A   1      40.599  19.307  25.780  1.00  0.00    -0.237 OA
ATOM     79  O   UNL A   1      42.852  19.560  24.818  1.00  0.00    -0.744 OA
ENDBRANCH  75  76
ENDBRANCH  47  70
BRANCH  59  80
ATOM     80  C   UNL A   1      47.643  26.801  31.228  1.00  0.00    -0.014 A 
ATOM     81  C   UNL A   1      48.755  27.004  30.391  1.00  0.00     0.010 A 
ATOM     82  C   UNL A   1      47.834  26.197  32.485  1.00  0.00     0.010 A 
ATOM     83  C   UNL A   1      50.027  26.581  30.790  1.00  0.00     0.020 A 
ATOM     84  C   UNL A   1      49.109  25.801  32.900  1.00  0.00     0.020 A 
ATOM     85  C   UNL A   1      50.195  25.982  32.042  1.00  0.00     0.054 A 
BRANCH  85  86
ATOM     86  S   UNL A   1      51.862  25.480  32.553  1.00  0.00     0.124 S 
ATOM     87  O   UNL A   1      51.828  25.731  33.992  1.00  0.00    -0.237 OA
ATOM     88  O   UNL A   1      51.908  24.074  32.161  1.00  0.00    -0.237 OA
ATOM     89  O   UNL A   1      52.740  26.363  31.789  1.00  0.00    -0.744 OA
ENDBRANCH  85  86
ENDBRANCH  59  80
ENDBRANCH  33  34
ENDBRANCH  25  28
ENDBRANCH  23  24
ENDBRANCH   1  23
TORSDOF 16
ENDMDL
