MODEL 1
REMARK VINA RESULT:     -11.4      0.000      0.000
REMARK SMILES O=C(NCCCNC(=O)c1ncoc1-c1cc(F)cc(F)c1)c1ccc(-c2c3nc(c(-c4ccc(S(=O)(=O)[O-])cc4)c4ccc([nH]4)c(-c4ccc(S(=O)(=O)[O-])cc4)c4nc(c(-c5ccc(S(=O)(=O)[O-])cc5)c5ccc2[nH]5)C=C4)C=C3)cc1
REMARK SMILES IDX 4 1 3 2 1 3 2 4 23 6 24 7 82 8 25 9 81 10 26 11 27 12 28 13
REMARK SMILES IDX 75 14 29 15 80 16 74 17 76 18 30 19 79 20 73 21 72 22 31 24
REMARK SMILES IDX 61 25 42 26 60 27 43 28 46 29 59 30 77 31 44 32 45 33 58 35
REMARK SMILES IDX 78 36 47 37 32 38 33 39 41 40 34 41 40 42 35 43 36 44 37 45
REMARK SMILES IDX 38 46 39 47 62 48 63 49 71 50 64 51 70 52 65 53 66 54 67 55
REMARK SMILES IDX 68 56 69 57 48 58 49 59 57 60 50 61 56 62 51 63 52 64 53 65
REMARK SMILES IDX 54 66 55 67 5 68 6 69 7 70 8 71 9 73 10 74 11 75 14 76 12 77
REMARK SMILES IDX 13 78 15 79 16 80 22 81 17 82 20 83 18 84 19 85 21 86
REMARK H PARENT 3 5 76 23 46 34 7 72
REMARK Flexibility Score: inf
ROOT
ATOM      1  C   UNL A   1      33.672  28.576  27.318  1.00  0.00     0.118 C 
ENDROOT
BRANCH   1   2
ATOM      2  N   UNL A   1      33.645  29.974  27.725  1.00  0.00    -0.352 N 
ATOM      3  O   UNL A   1      34.292  31.876  28.727  1.00  0.00    -0.269 OA
ATOM      4  C   UNL A   1      34.599  30.752  28.336  1.00  0.00     0.251 C 
ATOM      5  H   UNL A   1      32.800  30.442  27.529  1.00  0.00     0.163 HD
BRANCH   4   6
ATOM      6  C   UNL A   1      35.976  30.248  28.551  1.00  0.00     0.039 A 
ATOM      7  C   UNL A   1      36.358  29.665  29.759  1.00  0.00     0.014 A 
ATOM      8  C   UNL A   1      36.894  30.326  27.497  1.00  0.00     0.014 A 
ATOM      9  C   UNL A   1      37.689  29.308  29.968  1.00  0.00     0.010 A 
ATOM     10  C   UNL A   1      38.213  29.894  27.683  1.00  0.00     0.010 A 
ATOM     11  C   UNL A   1      38.633  29.424  28.935  1.00  0.00    -0.014 A 
BRANCH  11  12
ATOM     12  C   UNL A   1      40.045  29.034  29.190  1.00  0.00     0.031 A 
ATOM     13  C   UNL A   1      40.974  29.943  29.954  1.00  0.00     0.074 A 
ATOM     14  C   UNL A   1      40.481  27.827  28.778  1.00  0.00     0.049 A 
ATOM     15  N   UNL A   1      42.204  29.719  30.346  1.00  0.00    -0.248 NA
ATOM     16  C   UNL A   1      40.464  31.274  30.318  1.00  0.00     0.031 C 
ATOM     17  C   UNL A   1      39.688  26.861  28.012  1.00  0.00     0.029 A 
ATOM     18  N   UNL A   1      41.681  27.193  28.971  1.00  0.00    -0.354 N 
ATOM     19  C   UNL A   1      42.623  30.885  30.977  1.00  0.00     0.074 A 
ATOM     20  C   UNL A   1      41.522  31.822  30.900  1.00  0.00     0.031 C 
ATOM     21  C   UNL A   1      40.400  25.734  27.856  1.00  0.00     0.029 A 
ATOM     22  C   UNL A   1      41.712  25.912  28.472  1.00  0.00     0.049 A 
ATOM     23  H   UNL A   1      42.448  27.614  29.423  1.00  0.00     0.167 HD
ATOM     24  C   UNL A   1      43.810  31.151  31.574  1.00  0.00     0.031 A 
ATOM     25  C   UNL A   1      42.679  24.977  28.513  1.00  0.00     0.031 A 
ATOM     26  C   UNL A   1      44.900  30.217  31.671  1.00  0.00     0.049 A 
ATOM     27  C   UNL A   1      43.975  25.286  29.203  1.00  0.00     0.074 A 
ATOM     28  C   UNL A   1      46.127  30.385  32.289  1.00  0.00     0.029 A 
ATOM     29  N   UNL A   1      44.895  28.937  31.136  1.00  0.00    -0.354 N 
ATOM     30  N   UNL A   1      44.334  26.382  29.826  1.00  0.00    -0.248 NA
ATOM     31  C   UNL A   1      44.995  24.228  29.200  1.00  0.00     0.031 C 
ATOM     32  C   UNL A   1      46.877  29.217  32.103  1.00  0.00     0.029 A 
ATOM     33  C   UNL A   1      46.101  28.310  31.400  1.00  0.00     0.049 A 
ATOM     34  H   UNL A   1      44.145  28.534  30.643  1.00  0.00     0.167 HD
ATOM     35  C   UNL A   1      45.617  26.142  30.301  1.00  0.00     0.074 A 
ATOM     36  C   UNL A   1      45.964  24.790  29.910  1.00  0.00     0.031 C 
ATOM     37  C   UNL A   1      46.434  26.968  30.999  1.00  0.00     0.031 A 
BRANCH  24  38
ATOM     38  C   UNL A   1      43.999  32.526  32.155  1.00  0.00    -0.014 A 
ATOM     39  C   UNL A   1      43.680  32.798  33.498  1.00  0.00     0.010 A 
ATOM     40  C   UNL A   1      44.531  33.553  31.354  1.00  0.00     0.010 A 
ATOM     41  C   UNL A   1      43.853  34.084  34.017  1.00  0.00     0.020 A 
ATOM     42  C   UNL A   1      44.724  34.836  31.877  1.00  0.00     0.020 A 
ATOM     43  C   UNL A   1      44.365  35.098  33.201  1.00  0.00     0.054 A 
BRANCH  43  44
ATOM     44  S   UNL A   1      44.586  36.757  33.898  1.00  0.00     0.124 S 
ATOM     45  O   UNL A   1      45.979  36.715  34.337  1.00  0.00    -0.237 OA
ATOM     46  O   UNL A   1      44.316  37.628  32.756  1.00  0.00    -0.237 OA
ATOM     47  O   UNL A   1      43.596  36.817  34.970  1.00  0.00    -0.744 OA
ENDBRANCH  43  44
ENDBRANCH  24  38
BRANCH  25  48
ATOM     48  C   UNL A   1      42.439  23.645  27.898  1.00  0.00    -0.014 A 
ATOM     49  C   UNL A   1      42.808  23.401  26.564  1.00  0.00     0.010 A 
ATOM     50  C   UNL A   1      41.872  22.605  28.656  1.00  0.00     0.010 A 
ATOM     51  C   UNL A   1      42.609  22.140  25.995  1.00  0.00     0.020 A 
ATOM     52  C   UNL A   1      41.691  21.338  28.097  1.00  0.00     0.020 A 
ATOM     53  C   UNL A   1      42.053  21.116  26.766  1.00  0.00     0.054 A 
BRANCH  53  54
ATOM     54  S   UNL A   1      41.866  19.465  26.037  1.00  0.00     0.124 S 
ATOM     55  O   UNL A   1      42.345  18.604  27.113  1.00  0.00    -0.237 OA
ATOM     56  O   UNL A   1      40.433  19.396  25.761  1.00  0.00    -0.237 OA
ATOM     57  O   UNL A   1      42.718  19.521  24.852  1.00  0.00    -0.744 OA
ENDBRANCH  53  54
ENDBRANCH  25  48
BRANCH  37  58
ATOM     58  C   UNL A   1      47.775  26.421  31.401  1.00  0.00    -0.014 A 
ATOM     59  C   UNL A   1      48.876  26.494  30.530  1.00  0.00     0.010 A 
ATOM     60  C   UNL A   1      47.941  25.849  32.674  1.00  0.00     0.010 A 
ATOM     61  C   UNL A   1      50.114  25.971  30.914  1.00  0.00     0.020 A 
ATOM     62  C   UNL A   1      49.181  25.341  33.068  1.00  0.00     0.020 A 
ATOM     63  C   UNL A   1      50.257  25.390  32.177  1.00  0.00     0.054 A 
BRANCH  63  64
ATOM     64  S   UNL A   1      51.876  24.736  32.668  1.00  0.00     0.124 S 
ATOM     65  O   UNL A   1      51.924  25.081  34.087  1.00  0.00    -0.237 OA
ATOM     66  O   UNL A   1      51.756  23.310  32.372  1.00  0.00    -0.237 OA
ATOM     67  O   UNL A   1      52.812  25.465  31.816  1.00  0.00    -0.744 OA
ENDBRANCH  63  64
ENDBRANCH  37  58
ENDBRANCH  11  12
ENDBRANCH   4   6
ENDBRANCH   1   2
BRANCH   1  68
ATOM     68  C   UNL A   1      32.351  28.101  26.712  1.00  0.00     0.042 C 
BRANCH  68  69
ATOM     69  C   UNL A   1      31.588  29.176  25.942  1.00  0.00     0.118 C 
BRANCH  69  70
ATOM     70  N   UNL A   1      32.061  29.302  24.575  1.00  0.00    -0.351 N 
ATOM     71  C   UNL A   1      31.547  28.786  23.412  1.00  0.00     0.273 C 
ATOM     72  H   UNL A   1      32.878  29.841  24.466  1.00  0.00     0.163 HD
ATOM     73  O   UNL A   1      32.261  28.829  22.405  1.00  0.00    -0.267 OA
BRANCH  71  74
ATOM     74  C   UNL A   1      30.206  28.218  23.380  1.00  0.00     0.174 A 
ATOM     75  N   UNL A   1      29.862  26.937  23.790  1.00  0.00    -0.211 NA
ATOM     76  C   UNL A   1      29.052  28.902  23.037  1.00  0.00     0.167 A 
ATOM     77  C   UNL A   1      28.554  26.914  23.685  1.00  0.00     0.309 A 
ATOM     78  O   UNL A   1      27.987  28.067  23.246  1.00  0.00    -0.443 OA
BRANCH  76  79
ATOM     79  C   UNL A   1      28.737  30.215  22.511  1.00  0.00     0.026 A 
ATOM     80  C   UNL A   1      28.204  30.351  21.224  1.00  0.00     0.051 A 
ATOM     81  C   UNL A   1      28.965  31.363  23.279  1.00  0.00     0.051 A 
ATOM     82  C   UNL A   1      27.911  31.617  20.725  1.00  0.00     0.126 A 
ATOM     83  C   UNL A   1      28.674  32.619  22.751  1.00  0.00     0.126 A 
ATOM     84  F   UNL A   1      27.391  31.733  19.496  1.00  0.00    -0.207 F 
ATOM     85  C   UNL A   1      28.145  32.759  21.476  1.00  0.00     0.078 A 
ATOM     86  F   UNL A   1      28.912  33.712  23.488  1.00  0.00    -0.207 F 
ENDBRANCH  76  79
ENDBRANCH  71  74
ENDBRANCH  69  70
ENDBRANCH  68  69
ENDBRANCH   1  68
TORSDOF 14
ENDMDL
MODEL 2
REMARK VINA RESULT:     -11.2      3.291      4.736
REMARK SMILES O=C(NCCCNC(=O)c1ncoc1-c1cc(F)cc(F)c1)c1ccc(-c2c3nc(c(-c4ccc(S(=O)(=O)[O-])cc4)c4ccc([nH]4)c(-c4ccc(S(=O)(=O)[O-])cc4)c4nc(c(-c5ccc(S(=O)(=O)[O-])cc5)c5ccc2[nH]5)C=C4)C=C3)cc1
REMARK SMILES IDX 4 1 3 2 1 3 2 4 23 6 24 7 82 8 25 9 81 10 26 11 27 12 28 13
REMARK SMILES IDX 75 14 29 15 80 16 74 17 76 18 30 19 79 20 73 21 72 22 31 24
REMARK SMILES IDX 61 25 42 26 60 27 43 28 46 29 59 30 77 31 44 32 45 33 58 35
REMARK SMILES IDX 78 36 47 37 32 38 33 39 41 40 34 41 40 42 35 43 36 44 37 45
REMARK SMILES IDX 38 46 39 47 62 48 63 49 71 50 64 51 70 52 65 53 66 54 67 55
REMARK SMILES IDX 68 56 69 57 48 58 49 59 57 60 50 61 56 62 51 63 52 64 53 65
REMARK SMILES IDX 54 66 55 67 5 68 6 69 7 70 8 71 9 73 10 74 11 75 14 76 12 77
REMARK SMILES IDX 13 78 15 79 16 80 22 81 17 82 20 83 18 84 19 85 21 86
REMARK H PARENT 3 5 76 23 46 34 7 72
REMARK Flexibility Score: inf
ROOT
ATOM      1  C   UNL A   1      33.556  28.263  27.217  1.00  0.00     0.118 C 
ENDROOT
BRANCH   1   2
ATOM      2  N   UNL A   1      33.501  29.679  27.553  1.00  0.00    -0.352 N 
ATOM      3  O   UNL A   1      34.115  31.644  28.449  1.00  0.00    -0.269 OA
ATOM      4  C   UNL A   1      34.444  30.508  28.111  1.00  0.00     0.251 C 
ATOM      5  H   UNL A   1      32.643  30.116  27.345  1.00  0.00     0.163 HD
BRANCH   4   6
ATOM      6  C   UNL A   1      35.834  30.048  28.333  1.00  0.00     0.039 A 
ATOM      7  C   UNL A   1      36.231  29.490  29.549  1.00  0.00     0.014 A 
ATOM      8  C   UNL A   1      36.752  30.141  27.280  1.00  0.00     0.014 A 
ATOM      9  C   UNL A   1      37.572  29.175  29.763  1.00  0.00     0.010 A 
ATOM     10  C   UNL A   1      38.082  29.751  27.472  1.00  0.00     0.010 A 
ATOM     11  C   UNL A   1      38.514  29.307  28.730  1.00  0.00    -0.014 A 
BRANCH  11  12
ATOM     12  C   UNL A   1      39.937  28.962  28.991  1.00  0.00     0.031 A 
ATOM     13  C   UNL A   1      40.840  29.912  29.736  1.00  0.00     0.074 A 
ATOM     14  C   UNL A   1      40.406  27.760  28.601  1.00  0.00     0.049 A 
ATOM     15  N   UNL A   1      42.076  29.730  30.131  1.00  0.00    -0.248 NA
ATOM     16  C   UNL A   1      40.293  31.234  30.075  1.00  0.00     0.031 C 
ATOM     17  C   UNL A   1      39.640  26.758  27.855  1.00  0.00     0.029 A 
ATOM     18  N   UNL A   1      41.623  27.164  28.805  1.00  0.00    -0.354 N 
ATOM     19  C   UNL A   1      42.462  30.919  30.739  1.00  0.00     0.074 A 
ATOM     20  C   UNL A   1      41.336  31.823  30.646  1.00  0.00     0.031 C 
ATOM     21  C   UNL A   1      40.384  25.649  27.720  1.00  0.00     0.029 A 
ATOM     22  C   UNL A   1      41.690  25.875  28.331  1.00  0.00     0.049 A 
ATOM     23  H   UNL A   1      42.379  27.615  29.249  1.00  0.00     0.167 HD
ATOM     24  C   UNL A   1      43.641  31.230  31.330  1.00  0.00     0.031 A 
ATOM     25  C   UNL A   1      42.683  24.968  28.389  1.00  0.00     0.031 A 
ATOM     26  C   UNL A   1      44.757  30.328  31.444  1.00  0.00     0.049 A 
ATOM     27  C   UNL A   1      43.971  25.327  29.072  1.00  0.00     0.074 A 
ATOM     28  C   UNL A   1      45.980  30.543  32.058  1.00  0.00     0.029 A 
ATOM     29  N   UNL A   1      44.788  29.039  30.934  1.00  0.00    -0.354 N 
ATOM     30  N   UNL A   1      44.298  26.445  29.673  1.00  0.00    -0.248 NA
ATOM     31  C   UNL A   1      45.020  24.298  29.088  1.00  0.00     0.031 C 
ATOM     32  C   UNL A   1      46.762  29.393  31.893  1.00  0.00     0.029 A 
ATOM     33  C   UNL A   1      46.012  28.451  31.208  1.00  0.00     0.049 A 
ATOM     34  H   UNL A   1      44.049  28.606  30.449  1.00  0.00     0.167 HD
ATOM     35  C   UNL A   1      45.588  26.250  30.152  1.00  0.00     0.074 A 
ATOM     36  C   UNL A   1      45.973  24.901  29.786  1.00  0.00     0.031 C 
ATOM     37  C   UNL A   1      46.382  27.112  30.833  1.00  0.00     0.031 A 
BRANCH  24  38
ATOM     38  C   UNL A   1      43.792  32.621  31.884  1.00  0.00    -0.014 A 
ATOM     39  C   UNL A   1      44.295  33.669  31.092  1.00  0.00     0.010 A 
ATOM     40  C   UNL A   1      43.397  32.889  33.207  1.00  0.00     0.010 A 
ATOM     41  C   UNL A   1      44.437  34.952  31.628  1.00  0.00     0.020 A 
ATOM     42  C   UNL A   1      43.519  34.176  33.739  1.00  0.00     0.020 A 
ATOM     43  C   UNL A   1      44.057  35.196  32.951  1.00  0.00     0.054 A 
BRANCH  43  44
ATOM     44  S   UNL A   1      44.245  36.870  33.623  1.00  0.00     0.124 S 
ATOM     45  O   UNL A   1      44.706  37.613  32.452  1.00  0.00    -0.237 OA
ATOM     46  O   UNL A   1      42.894  37.191  34.077  1.00  0.00    -0.237 OA
ATOM     47  O   UNL A   1      45.233  36.706  34.687  1.00  0.00    -0.744 OA
ENDBRANCH  43  44
ENDBRANCH  24  38
BRANCH  25  48
ATOM     48  C   UNL A   1      42.481  23.619  27.800  1.00  0.00    -0.014 A 
ATOM     49  C   UNL A   1      42.921  23.339  26.494  1.00  0.00     0.010 A 
ATOM     50  C   UNL A   1      41.878  22.598  28.557  1.00  0.00     0.010 A 
ATOM     51  C   UNL A   1      42.756  22.063  25.952  1.00  0.00     0.020 A 
ATOM     52  C   UNL A   1      41.732  21.314  28.024  1.00  0.00     0.020 A 
ATOM     53  C   UNL A   1      42.163  21.057  26.721  1.00  0.00     0.054 A 
BRANCH  53  54
ATOM     54  S   UNL A   1      42.021  19.386  26.030  1.00  0.00     0.124 S 
ATOM     55  O   UNL A   1      42.871  19.475  24.847  1.00  0.00    -0.237 OA
ATOM     56  O   UNL A   1      42.529  18.547  27.113  1.00  0.00    -0.237 OA
ATOM     57  O   UNL A   1      40.591  19.250  25.767  1.00  0.00    -0.744 OA
ENDBRANCH  53  54
ENDBRANCH  25  48
BRANCH  37  58
ATOM     58  C   UNL A   1      47.738  26.610  31.244  1.00  0.00    -0.014 A 
ATOM     59  C   UNL A   1      47.924  25.949  32.471  1.00  0.00     0.010 A 
ATOM     60  C   UNL A   1      48.834  26.782  30.382  1.00  0.00     0.010 A 
ATOM     61  C   UNL A   1      49.193  25.499  32.844  1.00  0.00     0.020 A 
ATOM     62  C   UNL A   1      50.101  26.317  30.742  1.00  0.00     0.020 A 
ATOM     63  C   UNL A   1      50.276  25.693  31.980  1.00  0.00     0.054 A 
BRANCH  63  64
ATOM     64  S   UNL A   1      51.913  25.083  32.469  1.00  0.00     0.124 S 
ATOM     65  O   UNL A   1      51.722  23.636  32.420  1.00  0.00    -0.237 OA
ATOM     66  O   UNL A   1      52.789  25.637  31.440  1.00  0.00    -0.237 OA
ATOM     67  O   UNL A   1      52.102  25.643  33.806  1.00  0.00    -0.744 OA
ENDBRANCH  63  64
ENDBRANCH  37  58
ENDBRANCH  11  12
ENDBRANCH   4   6
ENDBRANCH   1   2
BRANCH   1  68
ATOM     68  C   UNL A   1      33.265  27.984  25.743  1.00  0.00     0.042 C 
BRANCH  68  69
ATOM     69  C   UNL A   1      32.875  26.539  25.439  1.00  0.00     0.118 C 
BRANCH  69  70
ATOM     70  N   UNL A   1      33.329  26.121  24.125  1.00  0.00    -0.351 N 
ATOM     71  C   UNL A   1      33.533  24.861  23.622  1.00  0.00     0.273 C 
ATOM     72  H   UNL A   1      33.519  26.856  23.498  1.00  0.00     0.163 HD
ATOM     73  O   UNL A   1      34.152  24.766  22.557  1.00  0.00    -0.267 OA
BRANCH  71  74
ATOM     74  C   UNL A   1      33.029  23.689  24.324  1.00  0.00     0.174 A 
ATOM     75  N   UNL A   1      31.690  23.361  24.489  1.00  0.00    -0.211 NA
ATOM     76  C   UNL A   1      33.806  22.665  24.839  1.00  0.00     0.167 A 
ATOM     77  C   UNL A   1      31.723  22.186  25.074  1.00  0.00     0.309 A 
ATOM     78  O   UNL A   1      32.966  21.692  25.310  1.00  0.00    -0.443 OA
BRANCH  76  79
ATOM     79  C   UNL A   1      35.224  22.418  25.009  1.00  0.00     0.026 A 
ATOM     80  C   UNL A   1      35.747  21.136  24.797  1.00  0.00     0.051 A 
ATOM     81  C   UNL A   1      36.087  23.452  25.389  1.00  0.00     0.051 A 
ATOM     82  C   UNL A   1      37.109  20.907  24.969  1.00  0.00     0.126 A 
ATOM     83  C   UNL A   1      37.444  23.193  25.565  1.00  0.00     0.126 A 
ATOM     84  F   UNL A   1      37.601  19.679  24.754  1.00  0.00    -0.207 F 
ATOM     85  C   UNL A   1      37.968  21.926  25.356  1.00  0.00     0.078 A 
ATOM     86  F   UNL A   1      38.258  24.187  25.944  1.00  0.00    -0.207 F 
ENDBRANCH  76  79
ENDBRANCH  71  74
ENDBRANCH  69  70
ENDBRANCH  68  69
ENDBRANCH   1  68
TORSDOF 14
ENDMDL
MODEL 3
REMARK VINA RESULT:     -11.2      5.539     10.505
REMARK SMILES O=C(NCCCNC(=O)c1ncoc1-c1cc(F)cc(F)c1)c1ccc(-c2c3nc(c(-c4ccc(S(=O)(=O)[O-])cc4)c4ccc([nH]4)c(-c4ccc(S(=O)(=O)[O-])cc4)c4nc(c(-c5ccc(S(=O)(=O)[O-])cc5)c5ccc2[nH]5)C=C4)C=C3)cc1
REMARK SMILES IDX 4 1 3 2 1 3 2 4 23 6 24 7 82 8 25 9 81 10 26 11 27 12 28 13
REMARK SMILES IDX 75 14 29 15 80 16 74 17 76 18 30 19 79 20 73 21 72 22 31 24
REMARK SMILES IDX 61 25 42 26 60 27 43 28 46 29 59 30 77 31 44 32 45 33 58 35
REMARK SMILES IDX 78 36 47 37 32 38 33 39 41 40 34 41 40 42 35 43 36 44 37 45
REMARK SMILES IDX 38 46 39 47 62 48 63 49 71 50 64 51 70 52 65 53 66 54 67 55
REMARK SMILES IDX 68 56 69 57 48 58 49 59 57 60 50 61 56 62 51 63 52 64 53 65
REMARK SMILES IDX 54 66 55 67 5 68 6 69 7 70 8 71 9 73 10 74 11 75 14 76 12 77
REMARK SMILES IDX 13 78 15 79 16 80 22 81 17 82 20 83 18 84 19 85 21 86
REMARK H PARENT 3 5 76 23 46 34 7 72
REMARK Flexibility Score: inf
ROOT
ATOM      1  C   UNL A   1      39.053  20.813  25.747  1.00  0.00     0.118 C 
ENDROOT
BRANCH   1   2
ATOM      2  N   UNL A   1      40.045  19.753  25.857  1.00  0.00    -0.352 N 
ATOM      3  O   UNL A   1      42.064  18.779  25.987  1.00  0.00    -0.269 OA
ATOM      4  C   UNL A   1      41.398  19.807  26.093  1.00  0.00     0.251 C 
ATOM      5  H   UNL A   1      39.686  18.842  25.745  1.00  0.00     0.163 HD
BRANCH   4   6
ATOM      6  C   UNL A   1      42.064  21.083  26.444  1.00  0.00     0.039 A 
ATOM      7  C   UNL A   1      42.438  21.372  27.757  1.00  0.00     0.014 A 
ATOM      8  C   UNL A   1      42.357  21.994  25.422  1.00  0.00     0.014 A 
ATOM      9  C   UNL A   1      42.956  22.628  28.070  1.00  0.00     0.010 A 
ATOM     10  C   UNL A   1      42.951  23.224  25.728  1.00  0.00     0.010 A 
ATOM     11  C   UNL A   1      43.214  23.571  27.062  1.00  0.00    -0.014 A 
BRANCH  11  12
ATOM     12  C   UNL A   1      43.767  24.901  27.430  1.00  0.00     0.031 A 
ATOM     13  C   UNL A   1      45.210  25.241  27.162  1.00  0.00     0.074 A 
ATOM     14  C   UNL A   1      42.948  25.829  27.963  1.00  0.00     0.049 A 
ATOM     15  N   UNL A   1      45.830  26.383  27.332  1.00  0.00    -0.248 NA
ATOM     16  C   UNL A   1      46.070  24.167  26.643  1.00  0.00     0.031 C 
ATOM     17  C   UNL A   1      41.535  25.620  28.291  1.00  0.00     0.029 A 
ATOM     18  N   UNL A   1      43.174  27.141  28.292  1.00  0.00    -0.354 N 
ATOM     19  C   UNL A   1      47.153  26.158  26.969  1.00  0.00     0.074 A 
ATOM     20  C   UNL A   1      47.252  24.766  26.586  1.00  0.00     0.031 C 
ATOM     21  C   UNL A   1      41.007  26.779  28.714  1.00  0.00     0.029 A 
ATOM     22  C   UNL A   1      42.049  27.801  28.727  1.00  0.00     0.049 A 
ATOM     23  H   UNL A   1      44.058  27.571  28.223  1.00  0.00     0.167 HD
ATOM     24  C   UNL A   1      48.190  27.030  26.948  1.00  0.00     0.031 A 
ATOM     25  C   UNL A   1      41.867  29.085  29.085  1.00  0.00     0.031 A 
ATOM     26  C   UNL A   1      48.094  28.419  27.309  1.00  0.00     0.049 A 
ATOM     27  C   UNL A   1      43.026  30.038  29.028  1.00  0.00     0.074 A 
ATOM     28  C   UNL A   1      49.083  29.387  27.283  1.00  0.00     0.029 A 
ATOM     29  N   UNL A   1      46.939  29.041  27.761  1.00  0.00    -0.354 N 
ATOM     30  N   UNL A   1      44.259  29.811  28.644  1.00  0.00    -0.248 NA
ATOM     31  C   UNL A   1      42.765  31.422  29.446  1.00  0.00     0.031 C 
ATOM     32  C   UNL A   1      48.534  30.589  27.748  1.00  0.00     0.029 A 
ATOM     33  C   UNL A   1      47.194  30.375  28.028  1.00  0.00     0.049 A 
ATOM     34  H   UNL A   1      46.067  28.598  27.874  1.00  0.00     0.167 HD
ATOM     35  C   UNL A   1      44.919  31.027  28.763  1.00  0.00     0.074 A 
ATOM     36  C   UNL A   1      43.945  31.991  29.236  1.00  0.00     0.031 C 
ATOM     37  C   UNL A   1      46.217  31.320  28.503  1.00  0.00     0.031 A 
BRANCH  24  38
ATOM     38  C   UNL A   1      49.535  26.495  26.535  1.00  0.00    -0.014 A 
ATOM     39  C   UNL A   1      49.945  26.516  25.190  1.00  0.00     0.010 A 
ATOM     40  C   UNL A   1      50.413  25.991  27.512  1.00  0.00     0.010 A 
ATOM     41  C   UNL A   1      51.193  26.005  24.824  1.00  0.00     0.020 A 
ATOM     42  C   UNL A   1      51.671  25.498  27.152  1.00  0.00     0.020 A 
ATOM     43  C   UNL A   1      52.045  25.491  25.806  1.00  0.00     0.054 A 
BRANCH  43  44
ATOM     44  S   UNL A   1      53.663  24.838  25.310  1.00  0.00     0.124 S 
ATOM     45  O   UNL A   1      53.949  25.625  24.112  1.00  0.00    -0.237 OA
ATOM     46  O   UNL A   1      54.502  25.134  26.468  1.00  0.00    -0.237 OA
ATOM     47  O   UNL A   1      53.407  23.419  25.078  1.00  0.00    -0.744 OA
ENDBRANCH  43  44
ENDBRANCH  24  38
BRANCH  25  48
ATOM     48  C   UNL A   1      40.519  29.546  29.507  1.00  0.00    -0.014 A 
ATOM     49  C   UNL A   1      40.224  29.730  30.870  1.00  0.00     0.010 A 
ATOM     50  C   UNL A   1      39.535  29.836  28.545  1.00  0.00     0.010 A 
ATOM     51  C   UNL A   1      38.965  30.190  31.264  1.00  0.00     0.020 A 
ATOM     52  C   UNL A   1      38.283  30.318  28.935  1.00  0.00     0.020 A 
ATOM     53  C   UNL A   1      38.003  30.483  30.294  1.00  0.00     0.054 A 
BRANCH  53  54
ATOM     54  S   UNL A   1      36.398  31.149  30.816  1.00  0.00     0.124 S 
ATOM     55  O   UNL A   1      36.733  32.535  31.127  1.00  0.00    -0.237 OA
ATOM     56  O   UNL A   1      35.567  30.948  29.631  1.00  0.00    -0.237 OA
ATOM     57  O   UNL A   1      36.044  30.316  31.963  1.00  0.00    -0.744 OA
ENDBRANCH  53  54
ENDBRANCH  25  48
BRANCH  37  58
ATOM     58  C   UNL A   1      46.649  32.745  28.706  1.00  0.00    -0.014 A 
ATOM     59  C   UNL A   1      46.541  33.688  27.669  1.00  0.00     0.010 A 
ATOM     60  C   UNL A   1      47.146  33.150  29.957  1.00  0.00     0.010 A 
ATOM     61  C   UNL A   1      46.959  35.007  27.870  1.00  0.00     0.020 A 
ATOM     62  C   UNL A   1      47.546  34.472  30.167  1.00  0.00     0.020 A 
ATOM     63  C   UNL A   1      47.466  35.388  29.115  1.00  0.00     0.054 A 
BRANCH  63  64
ATOM     64  S   UNL A   1      47.981  37.109  29.366  1.00  0.00     0.124 S 
ATOM     65  O   UNL A   1      47.025  37.835  28.534  1.00  0.00    -0.237 OA
ATOM     66  O   UNL A   1      47.824  37.291  30.807  1.00  0.00    -0.237 OA
ATOM     67  O   UNL A   1      49.363  37.126  28.891  1.00  0.00    -0.744 OA
ENDBRANCH  63  64
ENDBRANCH  37  58
ENDBRANCH  11  12
ENDBRANCH   4   6
ENDBRANCH   1   2
BRANCH   1  68
ATOM     68  C   UNL A   1      37.805  20.391  24.972  1.00  0.00     0.042 C 
BRANCH  68  69
ATOM     69  C   UNL A   1      36.548  21.183  25.320  1.00  0.00     0.118 C 
BRANCH  69  70
ATOM     70  N   UNL A   1      36.197  22.128  24.275  1.00  0.00    -0.351 N 
ATOM     71  C   UNL A   1      34.967  22.581  23.871  1.00  0.00     0.273 C 
ATOM     72  H   UNL A   1      36.961  22.501  23.778  1.00  0.00     0.163 HD
ATOM     73  O   UNL A   1      34.908  23.196  22.803  1.00  0.00    -0.267 OA
BRANCH  71  74
ATOM     74  C   UNL A   1      33.783  22.344  24.687  1.00  0.00     0.174 A 
ATOM     75  N   UNL A   1      33.141  23.290  25.473  1.00  0.00    -0.211 NA
ATOM     76  C   UNL A   1      33.052  21.168  24.719  1.00  0.00     0.167 A 
ATOM     77  C   UNL A   1      32.081  22.660  25.922  1.00  0.00     0.309 A 
ATOM     78  O   UNL A   1      31.949  21.375  25.503  1.00  0.00    -0.443 OA
BRANCH  76  79
ATOM     79  C   UNL A   1      33.197  19.837  24.165  1.00  0.00     0.026 A 
ATOM     80  C   UNL A   1      32.393  19.426  23.094  1.00  0.00     0.051 A 
ATOM     81  C   UNL A   1      34.136  18.943  24.692  1.00  0.00     0.051 A 
ATOM     82  C   UNL A   1      32.534  18.143  22.573  1.00  0.00     0.126 A 
ATOM     83  C   UNL A   1      34.249  17.661  24.159  1.00  0.00     0.126 A 
ATOM     84  F   UNL A   1      31.767  17.765  21.542  1.00  0.00    -0.207 F 
ATOM     85  C   UNL A   1      33.456  17.250  23.099  1.00  0.00     0.078 A 
ATOM     86  F   UNL A   1      35.141  16.809  24.683  1.00  0.00    -0.207 F 
ENDBRANCH  76  79
ENDBRANCH  71  74
ENDBRANCH  69  70
ENDBRANCH  68  69
ENDBRANCH   1  68
TORSDOF 14
ENDMDL
