MODEL 1
REMARK VINA RESULT:     -13.3      0.000      0.000
REMARK SMILES Cc1noc2c1-c1c(c(C(=O)NCCCNC(=O)c3ccc(-c4c5nc(c(-c6ccc(S(=O)(=O)[O-])cc6)c6ccc([nH]6)c(-c6ccc(S(=O)(=O)[O-])cc6)c6nc(c(-c7ccc(S(=O)(=O)[O-])cc7)c7ccc4[nH]7)C=C6)C=C5)cc3)nn1C)CC2
REMARK SMILES IDX 16 1 17 2 18 3 15 5 14 6 13 7 12 8 10 9 11 10 9 12 1 13 2 14
REMARK SMILES IDX 3 15 6 16 4 17 5 18 7 19 83 20 8 21 80 22 82 23 79 24 81 25
REMARK SMILES IDX 19 26 20 27 78 28 21 29 77 30 22 31 23 32 24 33 71 34 25 35
REMARK SMILES IDX 76 36 70 37 72 38 26 39 75 40 69 41 68 42 27 44 57 45 38 46
REMARK SMILES IDX 56 47 39 48 42 49 55 50 73 51 40 52 41 53 54 55 74 56 43 57
REMARK SMILES IDX 28 58 29 59 37 60 30 61 36 62 31 63 32 64 33 65 34 66 35 67
REMARK SMILES IDX 58 68 59 69 67 70 60 71 66 72 61 73 62 74 63 75 64 76 65 77
REMARK SMILES IDX 44 78 45 79 53 80 46 81 52 82 47 83 48 84 49 85 50 86 51 87
REMARK H PARENT 16 4 12 11 72 43 42 54
REMARK Flexibility Score: inf
ROOT
ATOM      1  N   UNL A   1      38.958  21.605  26.506  1.00  0.00    -0.352 N 
ATOM      2  C   UNL A   1      40.023  22.091  27.276  1.00  0.00     0.251 C 
ATOM      3  O   UNL A   1      40.767  21.359  27.882  1.00  0.00    -0.269 OA
ATOM      4  H   UNL A   1      38.688  20.673  26.669  1.00  0.00     0.163 HD
ENDROOT
BRANCH   1   5
ATOM      5  C   UNL A   1      38.200  22.341  25.476  1.00  0.00     0.118 C 
BRANCH   5   6
ATOM      6  C   UNL A   1      37.265  21.495  24.659  1.00  0.00     0.042 C 
BRANCH   6   7
ATOM      7  C   UNL A   1      35.979  21.180  25.391  1.00  0.00     0.118 C 
BRANCH   7   8
ATOM      8  N   UNL A   1      35.221  20.004  25.123  1.00  0.00    -0.351 N 
ATOM      9  C   UNL A   1      33.920  19.960  24.631  1.00  0.00     0.272 C 
ATOM     10  O   UNL A   1      33.546  18.844  24.252  1.00  0.00    -0.267 OA
ATOM     11  H   UNL A   1      35.660  19.140  25.302  1.00  0.00     0.163 HD
BRANCH   9  12
ATOM     12  C   UNL A   1      32.983  21.149  24.615  1.00  0.00     0.154 A 
ATOM     13  C   UNL A   1      29.926  25.767  25.710  1.00  0.00     0.071 C 
ATOM     14  C   UNL A   1      30.801  25.601  24.534  1.00  0.00     0.090 A 
ATOM     15  N   UNL A   1      30.983  26.659  23.720  1.00  0.00    -0.084 NA
ATOM     16  C   UNL A   1      31.544  24.493  24.090  1.00  0.00     0.066 A 
ATOM     17  O   UNL A   1      31.826  26.230  22.709  1.00  0.00    -0.360 OA
ATOM     18  C   UNL A   1      32.133  24.939  22.935  1.00  0.00     0.146 A 
ATOM     19  C   UNL A   1      31.847  23.103  24.504  1.00  0.00     0.077 A 
ATOM     20  C   UNL A   1      32.968  24.195  21.981  1.00  0.00     0.084 C 
ATOM     21  C   UNL A   1      32.854  22.391  23.856  1.00  0.00     0.012 A 
ATOM     22  N   UNL A   1      31.360  22.288  25.470  1.00  0.00    -0.267 N 
ATOM     23  C   UNL A   1      33.633  23.019  22.705  1.00  0.00     0.048 C 
ATOM     24  N   UNL A   1      31.995  21.116  25.538  1.00  0.00    -0.167 NA
ATOM     25  C   UNL A   1      30.252  22.502  26.366  1.00  0.00     0.174 C 
ENDBRANCH   9  12
ENDBRANCH   7   8
ENDBRANCH   6   7
ENDBRANCH   5   6
ENDBRANCH   1   5
BRANCH   2  26
ATOM     26  C   UNL A   1      40.167  23.561  27.320  1.00  0.00     0.039 A 
ATOM     27  C   UNL A   1      39.086  24.446  27.289  1.00  0.00     0.014 A 
ATOM     28  C   UNL A   1      41.437  23.990  27.657  1.00  0.00     0.014 A 
ATOM     29  C   UNL A   1      39.295  25.753  27.736  1.00  0.00     0.010 A 
ATOM     30  C   UNL A   1      41.524  25.114  28.415  1.00  0.00     0.010 A 
ATOM     31  C   UNL A   1      40.519  26.064  28.340  1.00  0.00    -0.014 A 
BRANCH  31  32
ATOM     32  C   UNL A   1      40.828  27.332  28.983  1.00  0.00     0.031 A 
ATOM     33  C   UNL A   1      41.835  28.165  28.283  1.00  0.00     0.074 A 
ATOM     34  C   UNL A   1      40.022  27.839  29.946  1.00  0.00     0.049 A 
ATOM     35  N   UNL A   1      43.081  28.312  28.589  1.00  0.00    -0.248 NA
ATOM     36  C   UNL A   1      41.469  28.768  26.991  1.00  0.00     0.031 C 
ATOM     37  C   UNL A   1      38.756  27.288  30.468  1.00  0.00     0.029 A 
ATOM     38  N   UNL A   1      40.081  29.044  30.563  1.00  0.00    -0.354 N 
ATOM     39  C   UNL A   1      43.574  29.259  27.697  1.00  0.00     0.074 A 
ATOM     40  C   UNL A   1      42.640  29.282  26.601  1.00  0.00     0.031 C 
ATOM     41  C   UNL A   1      38.061  28.257  31.101  1.00  0.00     0.029 A 
ATOM     42  C   UNL A   1      38.915  29.420  31.220  1.00  0.00     0.049 A 
ATOM     43  H   UNL A   1      40.888  29.608  30.548  1.00  0.00     0.167 HD
ATOM     44  C   UNL A   1      44.517  30.170  28.083  1.00  0.00     0.031 A 
ATOM     45  C   UNL A   1      38.661  30.613  31.812  1.00  0.00     0.031 A 
ATOM     46  C   UNL A   1      45.017  29.862  29.404  1.00  0.00     0.049 A 
ATOM     47  C   UNL A   1      39.982  31.240  32.070  1.00  0.00     0.074 A 
ATOM     48  C   UNL A   1      45.632  28.775  29.992  1.00  0.00     0.029 A 
ATOM     49  N   UNL A   1      44.507  30.617  30.439  1.00  0.00    -0.354 N 
ATOM     50  N   UNL A   1      40.870  30.726  32.880  1.00  0.00    -0.248 NA
ATOM     51  C   UNL A   1      40.512  32.150  31.067  1.00  0.00     0.031 C 
ATOM     52  C   UNL A   1      45.054  28.688  31.293  1.00  0.00     0.029 A 
ATOM     53  C   UNL A   1      44.191  29.773  31.469  1.00  0.00     0.049 A 
ATOM     54  H   UNL A   1      44.389  31.595  30.436  1.00  0.00     0.167 HD
ATOM     55  C   UNL A   1      42.085  30.889  32.226  1.00  0.00     0.074 A 
ATOM     56  C   UNL A   1      41.815  31.866  31.171  1.00  0.00     0.031 C 
ATOM     57  C   UNL A   1      43.111  30.004  32.410  1.00  0.00     0.031 A 
BRANCH  44  58
ATOM     58  C   UNL A   1      44.654  31.570  27.517  1.00  0.00    -0.014 A 
ATOM     59  C   UNL A   1      45.868  31.908  26.879  1.00  0.00     0.010 A 
ATOM     60  C   UNL A   1      43.785  32.634  27.825  1.00  0.00     0.010 A 
ATOM     61  C   UNL A   1      46.248  33.242  26.690  1.00  0.00     0.020 A 
ATOM     62  C   UNL A   1      44.135  33.968  27.600  1.00  0.00     0.020 A 
ATOM     63  C   UNL A   1      45.386  34.264  27.078  1.00  0.00     0.054 A 
BRANCH  63  64
ATOM     64  S   UNL A   1      45.942  35.980  26.969  1.00  0.00     0.124 S 
ATOM     65  O   UNL A   1      46.798  35.939  25.787  1.00  0.00    -0.237 OA
ATOM     66  O   UNL A   1      44.683  36.703  26.819  1.00  0.00    -0.237 OA
ATOM     67  O   UNL A   1      46.633  36.195  28.238  1.00  0.00    -0.744 OA
ENDBRANCH  63  64
ENDBRANCH  44  58
BRANCH  45  68
ATOM     68  C   UNL A   1      37.367  31.338  31.885  1.00  0.00    -0.014 A 
ATOM     69  C   UNL A   1      36.832  31.763  33.114  1.00  0.00     0.010 A 
ATOM     70  C   UNL A   1      36.779  31.846  30.706  1.00  0.00     0.010 A 
ATOM     71  C   UNL A   1      35.785  32.704  33.162  1.00  0.00     0.020 A 
ATOM     72  C   UNL A   1      35.734  32.780  30.746  1.00  0.00     0.020 A 
ATOM     73  C   UNL A   1      35.256  33.221  31.976  1.00  0.00     0.054 A 
BRANCH  73  74
ATOM     74  S   UNL A   1      34.024  34.557  32.049  1.00  0.00     0.124 S 
ATOM     75  O   UNL A   1      33.598  34.665  30.656  1.00  0.00    -0.237 OA
ATOM     76  O   UNL A   1      33.028  34.023  32.973  1.00  0.00    -0.237 OA
ATOM     77  O   UNL A   1      34.783  35.700  32.556  1.00  0.00    -0.744 OA
ENDBRANCH  73  74
ENDBRANCH  45  68
BRANCH  57  78
ATOM     78  C   UNL A   1      43.033  29.023  33.560  1.00  0.00    -0.014 A 
ATOM     79  C   UNL A   1      43.571  29.267  34.838  1.00  0.00     0.010 A 
ATOM     80  C   UNL A   1      42.205  27.902  33.383  1.00  0.00     0.010 A 
ATOM     81  C   UNL A   1      43.287  28.402  35.910  1.00  0.00     0.020 A 
ATOM     82  C   UNL A   1      41.904  27.049  34.447  1.00  0.00     0.020 A 
ATOM     83  C   UNL A   1      42.449  27.301  35.706  1.00  0.00     0.054 A 
BRANCH  83  84
ATOM     84  S   UNL A   1      42.018  26.229  37.107  1.00  0.00     0.124 S 
ATOM     85  O   UNL A   1      40.699  26.721  37.490  1.00  0.00    -0.237 OA
ATOM     86  O   UNL A   1      42.045  24.893  36.515  1.00  0.00    -0.237 OA
ATOM     87  O   UNL A   1      43.080  26.484  38.080  1.00  0.00    -0.744 OA
ENDBRANCH  83  84
ENDBRANCH  57  78
ENDBRANCH  31  32
ENDBRANCH   2  26
TORSDOF 13
ENDMDL
MODEL 2
REMARK VINA RESULT:     -13.1      2.006      2.735
REMARK SMILES Cc1noc2c1-c1c(c(C(=O)NCCCNC(=O)c3ccc(-c4c5nc(c(-c6ccc(S(=O)(=O)[O-])cc6)c6ccc([nH]6)c(-c6ccc(S(=O)(=O)[O-])cc6)c6nc(c(-c7ccc(S(=O)(=O)[O-])cc7)c7ccc4[nH]7)C=C6)C=C5)cc3)nn1C)CC2
REMARK SMILES IDX 16 1 17 2 18 3 15 5 14 6 13 7 12 8 10 9 11 10 9 12 1 13 2 14
REMARK SMILES IDX 3 15 6 16 4 17 5 18 7 19 83 20 8 21 80 22 82 23 79 24 81 25
REMARK SMILES IDX 19 26 20 27 78 28 21 29 77 30 22 31 23 32 24 33 71 34 25 35
REMARK SMILES IDX 76 36 70 37 72 38 26 39 75 40 69 41 68 42 27 44 57 45 38 46
REMARK SMILES IDX 56 47 39 48 42 49 55 50 73 51 40 52 41 53 54 55 74 56 43 57
REMARK SMILES IDX 28 58 29 59 37 60 30 61 36 62 31 63 32 64 33 65 34 66 35 67
REMARK SMILES IDX 58 68 59 69 67 70 60 71 66 72 61 73 62 74 63 75 64 76 65 77
REMARK SMILES IDX 44 78 45 79 53 80 46 81 52 82 47 83 48 84 49 85 50 86 51 87
REMARK H PARENT 16 4 12 11 72 43 42 54
REMARK Flexibility Score: inf
ROOT
ATOM      1  N   UNL A   1      40.746  22.771  26.662  1.00  0.00    -0.352 N 
ATOM      2  C   UNL A   1      41.862  23.321  26.017  1.00  0.00     0.251 C 
ATOM      3  O   UNL A   1      42.567  22.671  25.285  1.00  0.00    -0.269 OA
ATOM      4  H   UNL A   1      40.698  21.789  26.694  1.00  0.00     0.163 HD
ENDROOT
BRANCH   1   5
ATOM      5  C   UNL A   1      39.636  23.507  27.298  1.00  0.00     0.118 C 
BRANCH   5   6
ATOM      6  C   UNL A   1      38.544  23.933  26.358  1.00  0.00     0.042 C 
BRANCH   6   7
ATOM      7  C   UNL A   1      37.726  22.764  25.852  1.00  0.00     0.118 C 
BRANCH   7   8
ATOM      8  N   UNL A   1      37.507  22.536  24.462  1.00  0.00    -0.351 N 
ATOM      9  C   UNL A   1      36.462  23.048  23.702  1.00  0.00     0.272 C 
ATOM     10  O   UNL A   1      36.597  22.918  22.480  1.00  0.00    -0.267 OA
ATOM     11  H   UNL A   1      38.159  21.962  23.997  1.00  0.00     0.163 HD
BRANCH   9  12
ATOM     12  C   UNL A   1      35.207  23.656  24.291  1.00  0.00     0.154 A 
ATOM     13  C   UNL A   1      30.076  25.768  25.335  1.00  0.00     0.071 C 
ATOM     14  C   UNL A   1      30.706  24.679  26.105  1.00  0.00     0.090 A 
ATOM     15  N   UNL A   1      29.972  24.056  27.048  1.00  0.00    -0.084 NA
ATOM     16  C   UNL A   1      31.992  24.116  26.017  1.00  0.00     0.066 A 
ATOM     17  O   UNL A   1      30.797  23.099  27.613  1.00  0.00    -0.360 OA
ATOM     18  C   UNL A   1      31.995  23.161  27.002  1.00  0.00     0.146 A 
ATOM     19  C   UNL A   1      33.227  24.252  25.212  1.00  0.00     0.077 A 
ATOM     20  C   UNL A   1      33.100  22.297  27.443  1.00  0.00     0.084 C 
ATOM     21  C   UNL A   1      34.237  23.299  25.325  1.00  0.00     0.012 A 
ATOM     22  N   UNL A   1      33.642  25.145  24.282  1.00  0.00    -0.267 N 
ATOM     23  C   UNL A   1      34.095  22.126  26.289  1.00  0.00     0.048 C 
ATOM     24  N   UNL A   1      34.823  24.831  23.742  1.00  0.00    -0.167 NA
ATOM     25  C   UNL A   1      33.016  26.370  23.854  1.00  0.00     0.174 C 
ENDBRANCH   9  12
ENDBRANCH   7   8
ENDBRANCH   6   7
ENDBRANCH   5   6
ENDBRANCH   1   5
BRANCH   2  26
ATOM     26  C   UNL A   1      42.135  24.744  26.306  1.00  0.00     0.039 A 
ATOM     27  C   UNL A   1      41.603  25.802  25.565  1.00  0.00     0.014 A 
ATOM     28  C   UNL A   1      42.751  24.958  27.526  1.00  0.00     0.014 A 
ATOM     29  C   UNL A   1      41.589  27.071  26.150  1.00  0.00     0.010 A 
ATOM     30  C   UNL A   1      42.397  26.083  28.202  1.00  0.00     0.010 A 
ATOM     31  C   UNL A   1      41.955  27.189  27.496  1.00  0.00    -0.014 A 
BRANCH  31  32
ATOM     32  C   UNL A   1      41.850  28.411  28.279  1.00  0.00     0.031 A 
ATOM     33  C   UNL A   1      42.932  29.399  28.054  1.00  0.00     0.074 A 
ATOM     34  C   UNL A   1      40.693  28.743  28.900  1.00  0.00     0.049 A 
ATOM     35  N   UNL A   1      43.953  29.631  28.809  1.00  0.00    -0.248 NA
ATOM     36  C   UNL A   1      42.991  30.089  26.754  1.00  0.00     0.031 C 
ATOM     37  C   UNL A   1      39.401  28.028  28.880  1.00  0.00     0.029 A 
ATOM     38  N   UNL A   1      40.375  29.882  29.561  1.00  0.00    -0.354 N 
ATOM     39  C   UNL A   1      44.617  30.702  28.221  1.00  0.00     0.074 A 
ATOM     40  C   UNL A   1      44.150  30.746  26.859  1.00  0.00     0.031 C 
ATOM     41  C   UNL A   1      38.410  28.861  29.262  1.00  0.00     0.029 A 
ATOM     42  C   UNL A   1      39.013  30.082  29.756  1.00  0.00     0.049 A 
ATOM     43  H   UNL A   1      41.056  30.518  29.880  1.00  0.00     0.167 HD
ATOM     44  C   UNL A   1      45.234  31.655  28.981  1.00  0.00     0.031 A 
ATOM     45  C   UNL A   1      38.416  31.182  30.278  1.00  0.00     0.031 A 
ATOM     46  C   UNL A   1      45.253  31.267  30.374  1.00  0.00     0.049 A 
ATOM     47  C   UNL A   1      39.465  31.900  31.045  1.00  0.00     0.074 A 
ATOM     48  C   UNL A   1      45.741  30.189  31.086  1.00  0.00     0.029 A 
ATOM     49  N   UNL A   1      44.313  31.866  31.185  1.00  0.00    -0.354 N 
ATOM     50  N   UNL A   1      40.053  31.395  32.097  1.00  0.00    -0.248 NA
ATOM     51  C   UNL A   1      40.207  32.951  30.366  1.00  0.00     0.031 C 
ATOM     52  C   UNL A   1      44.744  29.922  32.071  1.00  0.00     0.029 A 
ATOM     53  C   UNL A   1      43.750  30.899  31.973  1.00  0.00     0.049 A 
ATOM     54  H   UNL A   1      44.084  32.824  31.194  1.00  0.00     0.167 HD
ATOM     55  C   UNL A   1      41.393  31.734  31.953  1.00  0.00     0.074 A 
ATOM     56  C   UNL A   1      41.407  32.780  30.931  1.00  0.00     0.031 C 
ATOM     57  C   UNL A   1      42.382  30.934  32.456  1.00  0.00     0.031 A 
BRANCH  44  58
ATOM     58  C   UNL A   1      45.395  33.110  28.588  1.00  0.00    -0.014 A 
ATOM     59  C   UNL A   1      46.706  33.625  28.481  1.00  0.00     0.010 A 
ATOM     60  C   UNL A   1      44.347  34.051  28.599  1.00  0.00     0.010 A 
ATOM     61  C   UNL A   1      46.957  35.001  28.524  1.00  0.00     0.020 A 
ATOM     62  C   UNL A   1      44.584  35.428  28.597  1.00  0.00     0.020 A 
ATOM     63  C   UNL A   1      45.891  35.892  28.609  1.00  0.00     0.054 A 
BRANCH  63  64
ATOM     64  S   UNL A   1      46.227  37.657  28.814  1.00  0.00     0.124 S 
ATOM     65  O   UNL A   1      45.098  38.079  29.637  1.00  0.00    -0.237 OA
ATOM     66  O   UNL A   1      47.529  37.648  29.474  1.00  0.00    -0.237 OA
ATOM     67  O   UNL A   1      46.230  38.163  27.444  1.00  0.00    -0.744 OA
ENDBRANCH  63  64
ENDBRANCH  44  58
BRANCH  45  68
ATOM     68  C   UNL A   1      37.106  31.772  29.904  1.00  0.00    -0.014 A 
ATOM     69  C   UNL A   1      36.116  32.033  30.869  1.00  0.00     0.010 A 
ATOM     70  C   UNL A   1      36.926  32.327  28.618  1.00  0.00     0.010 A 
ATOM     71  C   UNL A   1      35.017  32.863  30.574  1.00  0.00     0.020 A 
ATOM     72  C   UNL A   1      35.833  33.150  28.316  1.00  0.00     0.020 A 
ATOM     73  C   UNL A   1      34.893  33.433  29.303  1.00  0.00     0.054 A 
BRANCH  73  74
ATOM     74  S   UNL A   1      33.567  34.635  28.983  1.00  0.00     0.124 S 
ATOM     75  O   UNL A   1      32.710  33.911  28.047  1.00  0.00    -0.237 OA
ATOM     76  O   UNL A   1      33.006  34.853  30.312  1.00  0.00    -0.237 OA
ATOM     77  O   UNL A   1      34.272  35.784  28.416  1.00  0.00    -0.744 OA
ENDBRANCH  73  74
ENDBRANCH  45  68
BRANCH  57  78
ATOM     78  C   UNL A   1      42.012  29.843  33.436  1.00  0.00    -0.014 A 
ATOM     79  C   UNL A   1      41.751  28.509  33.065  1.00  0.00     0.010 A 
ATOM     80  C   UNL A   1      42.134  30.148  34.802  1.00  0.00     0.010 A 
ATOM     81  C   UNL A   1      41.612  27.510  34.044  1.00  0.00     0.020 A 
ATOM     82  C   UNL A   1      42.014  29.157  35.779  1.00  0.00     0.020 A 
ATOM     83  C   UNL A   1      41.751  27.841  35.396  1.00  0.00     0.054 A 
BRANCH  83  84
ATOM     84  S   UNL A   1      41.650  26.538  36.656  1.00  0.00     0.124 S 
ATOM     85  O   UNL A   1      41.481  25.331  35.852  1.00  0.00    -0.237 OA
ATOM     86  O   UNL A   1      42.928  26.658  37.352  1.00  0.00    -0.237 OA
ATOM     87  O   UNL A   1      40.484  26.916  37.455  1.00  0.00    -0.744 OA
ENDBRANCH  83  84
ENDBRANCH  57  78
ENDBRANCH  31  32
ENDBRANCH   2  26
TORSDOF 13
ENDMDL
MODEL 3
REMARK VINA RESULT:     -13.0      3.102      8.382
REMARK SMILES Cc1noc2c1-c1c(c(C(=O)NCCCNC(=O)c3ccc(-c4c5nc(c(-c6ccc(S(=O)(=O)[O-])cc6)c6ccc([nH]6)c(-c6ccc(S(=O)(=O)[O-])cc6)c6nc(c(-c7ccc(S(=O)(=O)[O-])cc7)c7ccc4[nH]7)C=C6)C=C5)cc3)nn1C)CC2
REMARK SMILES IDX 16 1 17 2 18 3 15 5 14 6 13 7 12 8 10 9 11 10 9 12 1 13 2 14
REMARK SMILES IDX 3 15 6 16 4 17 5 18 7 19 83 20 8 21 80 22 82 23 79 24 81 25
REMARK SMILES IDX 19 26 20 27 78 28 21 29 77 30 22 31 23 32 24 33 71 34 25 35
REMARK SMILES IDX 76 36 70 37 72 38 26 39 75 40 69 41 68 42 27 44 57 45 38 46
REMARK SMILES IDX 56 47 39 48 42 49 55 50 73 51 40 52 41 53 54 55 74 56 43 57
REMARK SMILES IDX 28 58 29 59 37 60 30 61 36 62 31 63 32 64 33 65 34 66 35 67
REMARK SMILES IDX 58 68 59 69 67 70 60 71 66 72 61 73 62 74 63 75 64 76 65 77
REMARK SMILES IDX 44 78 45 79 53 80 46 81 52 82 47 83 48 84 49 85 50 86 51 87
REMARK H PARENT 16 4 12 11 72 43 42 54
REMARK Flexibility Score: inf
ROOT
ATOM      1  N   UNL A   1      32.724  33.313  27.690  1.00  0.00    -0.352 N 
ATOM      2  C   UNL A   1      33.160  34.309  28.575  1.00  0.00     0.251 C 
ATOM      3  O   UNL A   1      32.511  35.302  28.796  1.00  0.00    -0.269 OA
ATOM      4  H   UNL A   1      31.997  33.560  27.075  1.00  0.00     0.163 HD
ENDROOT
BRANCH   1   5
ATOM      5  C   UNL A   1      33.238  31.934  27.583  1.00  0.00     0.118 C 
BRANCH   5   6
ATOM      6  C   UNL A   1      32.364  30.996  26.800  1.00  0.00     0.042 C 
BRANCH   6   7
ATOM      7  C   UNL A   1      33.156  29.902  26.116  1.00  0.00     0.118 C 
BRANCH   7   8
ATOM      8  N   UNL A   1      33.306  29.847  24.700  1.00  0.00    -0.351 N 
ATOM      9  C   UNL A   1      33.105  28.730  23.896  1.00  0.00     0.272 C 
ATOM     10  O   UNL A   1      33.060  28.964  22.683  1.00  0.00    -0.267 OA
ATOM     11  H   UNL A   1      33.578  30.679  24.248  1.00  0.00     0.163 HD
BRANCH   9  12
ATOM     12  C   UNL A   1      33.018  27.314  24.425  1.00  0.00     0.154 A 
ATOM     13  C   UNL A   1      33.594  22.416  27.172  1.00  0.00     0.071 C 
ATOM     14  C   UNL A   1      32.318  23.137  27.005  1.00  0.00     0.090 A 
ATOM     15  N   UNL A   1      31.231  22.667  27.647  1.00  0.00    -0.084 NA
ATOM     16  C   UNL A   1      32.010  24.304  26.284  1.00  0.00     0.066 A 
ATOM     17  O   UNL A   1      30.187  23.514  27.313  1.00  0.00    -0.360 OA
ATOM     18  C   UNL A   1      30.664  24.467  26.491  1.00  0.00     0.146 A 
ATOM     19  C   UNL A   1      32.688  25.322  25.448  1.00  0.00     0.077 A 
ATOM     20  C   UNL A   1      29.760  25.476  25.919  1.00  0.00     0.084 C 
ATOM     21  C   UNL A   1      32.014  26.488  25.094  1.00  0.00     0.012 A 
ATOM     22  N   UNL A   1      33.932  25.421  24.921  1.00  0.00    -0.267 N 
ATOM     23  C   UNL A   1      30.572  26.718  25.536  1.00  0.00     0.048 C 
ATOM     24  N   UNL A   1      34.143  26.576  24.286  1.00  0.00    -0.167 NA
ATOM     25  C   UNL A   1      34.997  24.451  24.917  1.00  0.00     0.174 C 
ENDBRANCH   9  12
ENDBRANCH   7   8
ENDBRANCH   6   7
ENDBRANCH   5   6
ENDBRANCH   1   5
BRANCH   2  26
ATOM     26  C   UNL A   1      34.477  34.078  29.204  1.00  0.00     0.039 A 
ATOM     27  C   UNL A   1      34.642  33.498  30.465  1.00  0.00     0.014 A 
ATOM     28  C   UNL A   1      35.545  34.242  28.343  1.00  0.00     0.014 A 
ATOM     29  C   UNL A   1      35.893  32.965  30.782  1.00  0.00     0.010 A 
ATOM     30  C   UNL A   1      36.606  33.412  28.517  1.00  0.00     0.010 A 
ATOM     31  C   UNL A   1      36.863  32.892  29.774  1.00  0.00    -0.014 A 
BRANCH  31  32
ATOM     32  C   UNL A   1      38.153  32.232  29.911  1.00  0.00     0.031 A 
ATOM     33  C   UNL A   1      38.179  30.809  29.496  1.00  0.00     0.074 A 
ATOM     34  C   UNL A   1      39.287  32.951  30.085  1.00  0.00     0.049 A 
ATOM     35  N   UNL A   1      38.161  29.769  30.259  1.00  0.00    -0.248 NA
ATOM     36  C   UNL A   1      38.031  30.495  28.065  1.00  0.00     0.031 C 
ATOM     37  C   UNL A   1      39.449  34.417  30.126  1.00  0.00     0.029 A 
ATOM     38  N   UNL A   1      40.573  32.524  30.110  1.00  0.00    -0.354 N 
ATOM     39  C   UNL A   1      38.298  28.678  29.407  1.00  0.00     0.074 A 
ATOM     40  C   UNL A   1      37.936  29.162  28.098  1.00  0.00     0.031 C 
ATOM     41  C   UNL A   1      40.741  34.742  29.906  1.00  0.00     0.029 A 
ATOM     42  C   UNL A   1      41.522  33.523  29.928  1.00  0.00     0.049 A 
ATOM     43  H   UNL A   1      40.816  31.579  30.248  1.00  0.00     0.167 HD
ATOM     44  C   UNL A   1      39.006  27.571  29.782  1.00  0.00     0.031 A 
ATOM     45  C   UNL A   1      42.862  33.361  29.792  1.00  0.00     0.031 A 
ATOM     46  C   UNL A   1      39.372  27.646  31.179  1.00  0.00     0.049 A 
ATOM     47  C   UNL A   1      43.179  32.027  30.359  1.00  0.00     0.074 A 
ATOM     48  C   UNL A   1      38.684  27.776  32.368  1.00  0.00     0.029 A 
ATOM     49  N   UNL A   1      40.671  28.020  31.447  1.00  0.00    -0.354 N 
ATOM     50  N   UNL A   1      43.004  31.726  31.618  1.00  0.00    -0.248 NA
ATOM     51  C   UNL A   1      43.217  30.891  29.451  1.00  0.00     0.031 C 
ATOM     52  C   UNL A   1      39.479  28.661  33.155  1.00  0.00     0.029 A 
ATOM     53  C   UNL A   1      40.650  28.951  32.450  1.00  0.00     0.049 A 
ATOM     54  H   UNL A   1      41.476  27.678  30.994  1.00  0.00     0.167 HD
ATOM     55  C   UNL A   1      42.472  30.442  31.608  1.00  0.00     0.074 A 
ATOM     56  C   UNL A   1      42.729  29.941  30.257  1.00  0.00     0.031 C 
ATOM     57  C   UNL A   1      41.620  30.021  32.591  1.00  0.00     0.031 A 
BRANCH  44  58
ATOM     58  C   UNL A   1      39.770  26.667  28.835  1.00  0.00    -0.014 A 
ATOM     59  C   UNL A   1      39.126  25.498  28.373  1.00  0.00     0.010 A 
ATOM     60  C   UNL A   1      41.157  26.754  28.609  1.00  0.00     0.010 A 
ATOM     61  C   UNL A   1      39.851  24.424  27.844  1.00  0.00     0.020 A 
ATOM     62  C   UNL A   1      41.885  25.706  28.040  1.00  0.00     0.020 A 
ATOM     63  C   UNL A   1      41.232  24.528  27.707  1.00  0.00     0.054 A 
BRANCH  63  64
ATOM     64  S   UNL A   1      42.179  23.087  27.164  1.00  0.00     0.124 S 
ATOM     65  O   UNL A   1      43.392  23.709  26.643  1.00  0.00    -0.237 OA
ATOM     66  O   UNL A   1      42.332  22.333  28.404  1.00  0.00    -0.237 OA
ATOM     67  O   UNL A   1      41.311  22.468  26.165  1.00  0.00    -0.744 OA
ENDBRANCH  63  64
ENDBRANCH  44  58
BRANCH  45  68
ATOM     68  C   UNL A   1      43.795  34.152  28.950  1.00  0.00    -0.014 A 
ATOM     69  C   UNL A   1      44.956  34.734  29.489  1.00  0.00     0.010 A 
ATOM     70  C   UNL A   1      43.676  34.116  27.543  1.00  0.00     0.010 A 
ATOM     71  C   UNL A   1      45.984  35.209  28.652  1.00  0.00     0.020 A 
ATOM     72  C   UNL A   1      44.692  34.590  26.704  1.00  0.00     0.020 A 
ATOM     73  C   UNL A   1      45.854  35.117  27.263  1.00  0.00     0.054 A 
BRANCH  73  74
ATOM     74  S   UNL A   1      47.252  35.577  26.196  1.00  0.00     0.124 S 
ATOM     75  O   UNL A   1      47.172  34.581  25.130  1.00  0.00    -0.237 OA
ATOM     76  O   UNL A   1      46.922  36.944  25.808  1.00  0.00    -0.237 OA
ATOM     77  O   UNL A   1      48.414  35.450  27.076  1.00  0.00    -0.744 OA
ENDBRANCH  73  74
ENDBRANCH  45  68
BRANCH  57  78
ATOM     78  C   UNL A   1      41.498  30.844  33.854  1.00  0.00    -0.014 A 
ATOM     79  C   UNL A   1      40.618  31.934  34.000  1.00  0.00     0.010 A 
ATOM     80  C   UNL A   1      42.161  30.359  34.995  1.00  0.00     0.010 A 
ATOM     81  C   UNL A   1      40.413  32.523  35.260  1.00  0.00     0.020 A 
ATOM     82  C   UNL A   1      41.948  30.929  36.252  1.00  0.00     0.020 A 
ATOM     83  C   UNL A   1      41.077  32.011  36.380  1.00  0.00     0.054 A 
BRANCH  83  84
ATOM     84  S   UNL A   1      40.753  32.720  38.019  1.00  0.00     0.124 S 
ATOM     85  O   UNL A   1      39.316  32.515  38.176  1.00  0.00    -0.237 OA
ATOM     86  O   UNL A   1      41.603  31.918  38.895  1.00  0.00    -0.237 OA
ATOM     87  O   UNL A   1      41.166  34.117  37.882  1.00  0.00    -0.744 OA
ENDBRANCH  83  84
ENDBRANCH  57  78
ENDBRANCH  31  32
ENDBRANCH   2  26
TORSDOF 13
ENDMDL
