MODEL 1
REMARK VINA RESULT:     -11.0      0.000      0.000
REMARK SMILES Nc1cccc(C(=O)N2CCC[C@H]2C(=O)NCCCNC(=O)c2ccc(-c3c4nc(c(-c5ccc(S(=O)(=O)[O-])cc5)c5ccc([nH]5)c(-c5ccc(S(=O)(=O)[O-])cc5)c5nc(c(-c6ccc(S(=O)(=O)[O-])cc6)c6ccc3[nH]6)C=C5)C=C4)cc2)c1
REMARK SMILES IDX 18 1 17 2 16 3 14 4 15 5 13 7 9 8 10 9 11 10 12 11 7 12 8 13
REMARK SMILES IDX 6 14 2 15 3 16 83 17 4 18 5 19 1 20 19 23 20 24 21 25 22 27
REMARK SMILES IDX 23 28 24 29 82 30 25 31 81 32 26 33 27 34 28 35 75 36 29 37
REMARK SMILES IDX 80 38 74 39 76 40 30 41 79 42 73 43 72 44 31 46 61 47 42 48
REMARK SMILES IDX 60 49 43 50 46 51 59 52 77 53 44 54 45 55 58 57 78 58 47 59
REMARK SMILES IDX 32 60 33 61 41 62 34 63 40 64 35 65 36 66 37 67 38 68 39 69
REMARK SMILES IDX 62 70 63 71 71 72 64 73 70 74 65 75 66 76 67 77 68 78 69 79
REMARK SMILES IDX 48 80 49 81 57 82 50 83 56 84 51 85 52 86 53 87 54 88 55 89
REMARK H PARENT 16 6 1 21 1 22 20 26 76 45 46 56
REMARK Flexibility Score: inf
ROOT
ATOM      1  C   UNL A   1      32.471  27.782  26.822  1.00  0.00     0.042 C 
ENDROOT
BRANCH   1   2
ATOM      2  C   UNL A   1      32.448  26.454  26.083  1.00  0.00     0.117 C 
BRANCH   2   3
ATOM      3  N   UNL A   1      31.468  25.524  26.596  1.00  0.00    -0.354 N 
ATOM      4  C   UNL A   1      31.329  24.181  26.408  1.00  0.00     0.242 C 
ATOM      5  O   UNL A   1      30.581  23.595  27.201  1.00  0.00    -0.273 OA
ATOM      6  H   UNL A   1      30.786  25.928  27.178  1.00  0.00     0.163 HD
BRANCH   4   7
ATOM      7  C   UNL A   1      32.202  23.370  25.424  1.00  0.00     0.174 C 
ATOM      8  N   UNL A   1      32.733  22.075  25.855  1.00  0.00    -0.327 N 
ATOM      9  C   UNL A   1      32.233  20.992  25.026  1.00  0.00     0.121 C 
ATOM     10  C   UNL A   1      31.920  21.673  23.707  1.00  0.00     0.024 C 
ATOM     11  C   UNL A   1      31.469  23.078  24.108  1.00  0.00     0.037 C 
BRANCH   8  12
ATOM     12  C   UNL A   1      33.793  22.081  26.752  1.00  0.00     0.254 C 
ATOM     13  O   UNL A   1      33.601  22.098  27.967  1.00  0.00    -0.269 OA
BRANCH  12  14
ATOM     14  C   UNL A   1      35.197  22.172  26.269  1.00  0.00     0.042 A 
ATOM     15  C   UNL A   1      37.153  21.161  25.224  1.00  0.00     0.032 A 
ATOM     16  C   UNL A   1      37.740  22.424  25.143  1.00  0.00     0.025 A 
ATOM     17  C   UNL A   1      35.852  21.061  25.718  1.00  0.00     0.039 A 
ATOM     18  C   UNL A   1      37.076  23.553  25.627  1.00  0.00     0.003 A 
ATOM     19  C   UNL A   1      35.810  23.427  26.201  1.00  0.00     0.014 A 
BRANCH  15  20
ATOM     20  N   UNL A   1      37.782  20.050  24.678  1.00  0.00    -0.399 N 
ATOM     21  H   UNL A   1      38.764  19.979  24.702  1.00  0.00     0.156 HD
ATOM     22  H   UNL A   1      37.247  19.333  24.267  1.00  0.00     0.156 HD
ENDBRANCH  15  20
ENDBRANCH  12  14
ENDBRANCH   8  12
ENDBRANCH   4   7
ENDBRANCH   2   3
ENDBRANCH   1   2
BRANCH   1  23
ATOM     23  C   UNL A   1      33.769  28.555  26.646  1.00  0.00     0.118 C 
BRANCH  23  24
ATOM     24  N   UNL A   1      33.652  29.939  27.092  1.00  0.00    -0.352 N 
ATOM     25  C   UNL A   1      34.480  30.684  27.892  1.00  0.00     0.251 C 
ATOM     26  H   UNL A   1      32.853  30.413  26.767  1.00  0.00     0.163 HD
ATOM     27  O   UNL A   1      34.083  31.767  28.322  1.00  0.00    -0.269 OA
BRANCH  25  28
ATOM     28  C   UNL A   1      35.831  30.198  28.249  1.00  0.00     0.039 A 
ATOM     29  C   UNL A   1      36.837  30.219  27.277  1.00  0.00     0.014 A 
ATOM     30  C   UNL A   1      36.103  29.683  29.519  1.00  0.00     0.014 A 
ATOM     31  C   UNL A   1      38.121  29.771  27.594  1.00  0.00     0.010 A 
ATOM     32  C   UNL A   1      37.402  29.318  29.860  1.00  0.00     0.010 A 
ATOM     33  C   UNL A   1      38.421  29.340  28.897  1.00  0.00    -0.014 A 
BRANCH  33  34
ATOM     34  C   UNL A   1      39.784  28.883  29.266  1.00  0.00     0.031 A 
ATOM     35  C   UNL A   1      40.724  29.818  29.980  1.00  0.00     0.074 A 
ATOM     36  C   UNL A   1      40.200  27.655  28.903  1.00  0.00     0.049 A 
ATOM     37  N   UNL A   1      41.970  29.626  30.333  1.00  0.00    -0.248 NA
ATOM     38  C   UNL A   1      40.206  31.155  30.313  1.00  0.00     0.031 C 
ATOM     39  C   UNL A   1      39.400  26.672  28.168  1.00  0.00     0.029 A 
ATOM     40  N   UNL A   1      41.404  27.026  29.094  1.00  0.00    -0.354 N 
ATOM     41  C   UNL A   1      42.389  30.821  30.905  1.00  0.00     0.074 A 
ATOM     42  C   UNL A   1      41.283  31.748  30.805  1.00  0.00     0.031 C 
ATOM     43  C   UNL A   1      40.127  25.558  27.992  1.00  0.00     0.029 A 
ATOM     44  C   UNL A   1      41.455  25.758  28.565  1.00  0.00     0.049 A 
ATOM     45  H   UNL A   1      42.162  27.443  29.565  1.00  0.00     0.167 HD
ATOM     46  C   UNL A   1      43.581  31.118  31.478  1.00  0.00     0.031 A 
ATOM     47  C   UNL A   1      42.456  24.858  28.537  1.00  0.00     0.031 A 
ATOM     48  C   UNL A   1      44.675  30.190  31.584  1.00  0.00     0.049 A 
ATOM     49  C   UNL A   1      43.767  25.201  29.189  1.00  0.00     0.074 A 
ATOM     50  C   UNL A   1      45.902  30.370  32.197  1.00  0.00     0.029 A 
ATOM     51  N   UNL A   1      44.676  28.906  31.057  1.00  0.00    -0.354 N 
ATOM     52  N   UNL A   1      44.123  26.314  29.785  1.00  0.00    -0.248 NA
ATOM     53  C   UNL A   1      44.804  24.161  29.179  1.00  0.00     0.031 C 
ATOM     54  C   UNL A   1      46.663  29.212  32.000  1.00  0.00     0.029 A 
ATOM     55  C   UNL A   1      45.888  28.289  31.314  1.00  0.00     0.049 A 
ATOM     56  H   UNL A   1      43.924  28.494  30.572  1.00  0.00     0.167 HD
ATOM     57  C   UNL A   1      45.418  26.099  30.246  1.00  0.00     0.074 A 
ATOM     58  C   UNL A   1      45.775  24.747  29.867  1.00  0.00     0.031 C 
ATOM     59  C   UNL A   1      46.233  26.944  30.924  1.00  0.00     0.031 A 
BRANCH  46  60
ATOM     60  C   UNL A   1      43.758  32.513  32.020  1.00  0.00    -0.014 A 
ATOM     61  C   UNL A   1      43.421  32.827  33.350  1.00  0.00     0.010 A 
ATOM     62  C   UNL A   1      44.267  33.527  31.188  1.00  0.00     0.010 A 
ATOM     63  C   UNL A   1      43.531  34.140  33.818  1.00  0.00     0.020 A 
ATOM     64  C   UNL A   1      44.410  34.834  31.663  1.00  0.00     0.020 A 
ATOM     65  C   UNL A   1      44.016  35.138  32.968  1.00  0.00     0.054 A 
BRANCH  65  66
ATOM     66  S   UNL A   1      44.139  36.834  33.596  1.00  0.00     0.124 S 
ATOM     67  O   UNL A   1      44.127  37.613  32.360  1.00  0.00    -0.237 OA
ATOM     68  O   UNL A   1      42.943  36.958  34.426  1.00  0.00    -0.237 OA
ATOM     69  O   UNL A   1      45.404  36.843  34.326  1.00  0.00    -0.744 OA
ENDBRANCH  65  66
ENDBRANCH  46  60
BRANCH  47  70
ATOM     70  C   UNL A   1      42.236  23.537  27.890  1.00  0.00    -0.014 A 
ATOM     71  C   UNL A   1      42.769  23.269  26.617  1.00  0.00     0.010 A 
ATOM     72  C   UNL A   1      41.539  22.521  28.567  1.00  0.00     0.010 A 
ATOM     73  C   UNL A   1      42.607  22.010  26.032  1.00  0.00     0.020 A 
ATOM     74  C   UNL A   1      41.398  21.252  27.997  1.00  0.00     0.020 A 
ATOM     75  C   UNL A   1      41.930  21.006  26.731  1.00  0.00     0.054 A 
BRANCH  75  76
ATOM     76  S   UNL A   1      41.808  19.353  25.990  1.00  0.00     0.124 S 
ATOM     77  O   UNL A   1      42.672  19.479  24.821  1.00  0.00    -0.237 OA
ATOM     78  O   UNL A   1      42.311  18.492  27.059  1.00  0.00    -0.237 OA
ATOM     79  O   UNL A   1      40.382  19.210  25.706  1.00  0.00    -0.744 OA
ENDBRANCH  75  76
ENDBRANCH  47  70
BRANCH  59  80
ATOM     80  C   UNL A   1      47.584  26.422  31.335  1.00  0.00    -0.014 A 
ATOM     81  C   UNL A   1      47.780  25.795  32.577  1.00  0.00     0.010 A 
ATOM     82  C   UNL A   1      48.663  26.516  30.437  1.00  0.00     0.010 A 
ATOM     83  C   UNL A   1      49.038  25.299  32.928  1.00  0.00     0.020 A 
ATOM     84  C   UNL A   1      49.916  25.997  30.771  1.00  0.00     0.020 A 
ATOM     85  C   UNL A   1      50.099  25.404  32.022  1.00  0.00     0.054 A 
BRANCH  85  86
ATOM     86  S   UNL A   1      51.714  24.718  32.482  1.00  0.00     0.124 S 
ATOM     87  O   UNL A   1      51.511  23.289  32.261  1.00  0.00    -0.237 OA
ATOM     88  O   UNL A   1      52.621  25.376  31.545  1.00  0.00    -0.237 OA
ATOM     89  O   UNL A   1      51.875  25.116  33.878  1.00  0.00    -0.744 OA
ENDBRANCH  85  86
ENDBRANCH  59  80
ENDBRANCH  33  34
ENDBRANCH  25  28
ENDBRANCH  23  24
ENDBRANCH   1  23
TORSDOF 16
ENDMDL
MODEL 2
REMARK VINA RESULT:     -10.7      3.011      9.598
REMARK SMILES Nc1cccc(C(=O)N2CCC[C@H]2C(=O)NCCCNC(=O)c2ccc(-c3c4nc(c(-c5ccc(S(=O)(=O)[O-])cc5)c5ccc([nH]5)c(-c5ccc(S(=O)(=O)[O-])cc5)c5nc(c(-c6ccc(S(=O)(=O)[O-])cc6)c6ccc3[nH]6)C=C5)C=C4)cc2)c1
REMARK SMILES IDX 18 1 17 2 16 3 14 4 15 5 13 7 9 8 10 9 11 10 12 11 7 12 8 13
REMARK SMILES IDX 6 14 2 15 3 16 83 17 4 18 5 19 1 20 19 23 20 24 21 25 22 27
REMARK SMILES IDX 23 28 24 29 82 30 25 31 81 32 26 33 27 34 28 35 75 36 29 37
REMARK SMILES IDX 80 38 74 39 76 40 30 41 79 42 73 43 72 44 31 46 61 47 42 48
REMARK SMILES IDX 60 49 43 50 46 51 59 52 77 53 44 54 45 55 58 57 78 58 47 59
REMARK SMILES IDX 32 60 33 61 41 62 34 63 40 64 35 65 36 66 37 67 38 68 39 69
REMARK SMILES IDX 62 70 63 71 71 72 64 73 70 74 65 75 66 76 67 77 68 78 69 79
REMARK SMILES IDX 48 80 49 81 57 82 50 83 56 84 51 85 52 86 53 87 54 88 55 89
REMARK H PARENT 16 6 1 21 1 22 20 26 76 45 46 56
REMARK Flexibility Score: inf
ROOT
ATOM      1  C   UNL A   1      35.084  23.297  26.399  1.00  0.00     0.042 C 
ENDROOT
BRANCH   1   2
ATOM      2  C   UNL A   1      33.830  23.916  25.805  1.00  0.00     0.117 C 
BRANCH   2   3
ATOM      3  N   UNL A   1      33.903  24.110  24.375  1.00  0.00    -0.354 N 
ATOM      4  C   UNL A   1      33.590  25.189  23.603  1.00  0.00     0.242 C 
ATOM      5  O   UNL A   1      34.029  25.177  22.446  1.00  0.00    -0.273 OA
ATOM      6  H   UNL A   1      34.234  23.330  23.873  1.00  0.00     0.163 HD
BRANCH   4   7
ATOM      7  C   UNL A   1      32.926  26.466  24.166  1.00  0.00     0.174 C 
ATOM      8  N   UNL A   1      31.610  26.356  24.799  1.00  0.00    -0.327 N 
ATOM      9  C   UNL A   1      31.656  26.748  26.197  1.00  0.00     0.121 C 
ATOM     10  C   UNL A   1      32.833  27.703  26.256  1.00  0.00     0.024 C 
ATOM     11  C   UNL A   1      33.809  27.162  25.211  1.00  0.00     0.037 C 
BRANCH   8  12
ATOM     12  C   UNL A   1      30.511  26.180  23.969  1.00  0.00     0.254 C 
ATOM     13  O   UNL A   1      30.199  25.066  23.551  1.00  0.00    -0.269 OA
BRANCH  12  14
ATOM     14  C   UNL A   1      29.736  27.350  23.476  1.00  0.00     0.042 A 
ATOM     15  C   UNL A   1      29.603  29.428  22.209  1.00  0.00     0.032 A 
ATOM     16  C   UNL A   1      28.216  29.405  22.351  1.00  0.00     0.025 A 
ATOM     17  C   UNL A   1      30.343  28.355  22.709  1.00  0.00     0.039 A 
ATOM     18  C   UNL A   1      27.587  28.377  23.056  1.00  0.00     0.003 A 
ATOM     19  C   UNL A   1      28.346  27.355  23.628  1.00  0.00     0.014 A 
BRANCH  15  20
ATOM     20  N   UNL A   1      30.223  30.411  21.448  1.00  0.00    -0.399 N 
ATOM     21  H   UNL A   1      31.195  30.378  21.299  1.00  0.00     0.156 HD
ATOM     22  H   UNL A   1      29.690  31.142  21.060  1.00  0.00     0.156 HD
ENDBRANCH  15  20
ENDBRANCH  12  14
ENDBRANCH   8  12
ENDBRANCH   4   7
ENDBRANCH   2   3
ENDBRANCH   1   2
BRANCH   1  23
ATOM     23  C   UNL A   1      36.371  23.783  25.749  1.00  0.00     0.118 C 
BRANCH  23  24
ATOM     24  N   UNL A   1      37.439  22.793  25.828  1.00  0.00    -0.352 N 
ATOM     25  C   UNL A   1      38.747  22.932  26.217  1.00  0.00     0.251 C 
ATOM     26  H   UNL A   1      37.180  21.882  25.561  1.00  0.00     0.163 HD
ATOM     27  O   UNL A   1      39.536  22.012  26.001  1.00  0.00    -0.269 OA
BRANCH  25  28
ATOM     28  C   UNL A   1      39.216  24.169  26.877  1.00  0.00     0.039 A 
ATOM     29  C   UNL A   1      39.977  25.083  26.141  1.00  0.00     0.014 A 
ATOM     30  C   UNL A   1      38.948  24.416  28.226  1.00  0.00     0.014 A 
ATOM     31  C   UNL A   1      40.425  26.260  26.744  1.00  0.00     0.010 A 
ATOM     32  C   UNL A   1      39.320  25.628  28.801  1.00  0.00     0.010 A 
ATOM     33  C   UNL A   1      40.079  26.555  28.072  1.00  0.00    -0.014 A 
BRANCH  33  34
ATOM     34  C   UNL A   1      40.520  27.811  28.727  1.00  0.00     0.031 A 
ATOM     35  C   UNL A   1      41.901  27.907  29.320  1.00  0.00     0.074 A 
ATOM     36  C   UNL A   1      39.660  28.841  28.850  1.00  0.00     0.049 A 
ATOM     37  N   UNL A   1      42.449  28.894  29.983  1.00  0.00    -0.248 NA
ATOM     38  C   UNL A   1      42.771  26.728  29.173  1.00  0.00     0.031 C 
ATOM     39  C   UNL A   1      38.280  28.855  28.359  1.00  0.00     0.029 A 
ATOM     40  N   UNL A   1      39.817  30.072  29.435  1.00  0.00    -0.354 N 
ATOM     41  C   UNL A   1      43.712  28.446  30.352  1.00  0.00     0.074 A 
ATOM     42  C   UNL A   1      43.829  27.082  29.885  1.00  0.00     0.031 C 
ATOM     43  C   UNL A   1      37.726  30.044  28.643  1.00  0.00     0.029 A 
ATOM     44  C   UNL A   1      38.694  30.862  29.367  1.00  0.00     0.049 A 
ATOM     45  H   UNL A   1      40.655  30.363  29.863  1.00  0.00     0.167 HD
ATOM     46  C   UNL A   1      44.694  29.113  31.006  1.00  0.00     0.031 A 
ATOM     47  C   UNL A   1      38.464  32.102  29.840  1.00  0.00     0.031 A 
ATOM     48  C   UNL A   1      44.576  30.473  31.461  1.00  0.00     0.049 A 
ATOM     49  C   UNL A   1      39.570  32.831  30.551  1.00  0.00     0.074 A 
ATOM     50  C   UNL A   1      45.530  31.261  32.079  1.00  0.00     0.029 A 
ATOM     51  N   UNL A   1      43.429  31.247  31.350  1.00  0.00    -0.354 N 
ATOM     52  N   UNL A   1      40.781  32.416  30.832  1.00  0.00    -0.248 NA
ATOM     53  C   UNL A   1      39.282  34.202  30.994  1.00  0.00     0.031 C 
ATOM     54  C   UNL A   1      44.945  32.495  32.386  1.00  0.00     0.029 A 
ATOM     55  C   UNL A   1      43.644  32.496  31.906  1.00  0.00     0.049 A 
ATOM     56  H   UNL A   1      42.586  30.951  30.936  1.00  0.00     0.167 HD
ATOM     57  C   UNL A   1      41.411  33.484  31.463  1.00  0.00     0.074 A 
ATOM     58  C   UNL A   1      40.448  34.565  31.510  1.00  0.00     0.031 C 
ATOM     59  C   UNL A   1      42.674  33.561  31.952  1.00  0.00     0.031 A 
BRANCH  46  60
ATOM     60  C   UNL A   1      45.974  28.366  31.277  1.00  0.00    -0.014 A 
ATOM     61  C   UNL A   1      46.152  27.628  32.463  1.00  0.00     0.010 A 
ATOM     62  C   UNL A   1      47.016  28.401  30.333  1.00  0.00     0.010 A 
ATOM     63  C   UNL A   1      47.369  26.994  32.727  1.00  0.00     0.020 A 
ATOM     64  C   UNL A   1      48.223  27.740  30.579  1.00  0.00     0.020 A 
ATOM     65  C   UNL A   1      48.401  27.061  31.786  1.00  0.00     0.054 A 
BRANCH  65  66
ATOM     66  S   UNL A   1      49.974  26.238  32.158  1.00  0.00     0.124 S 
ATOM     67  O   UNL A   1      50.946  27.235  31.717  1.00  0.00    -0.237 OA
ATOM     68  O   UNL A   1      49.897  26.034  33.603  1.00  0.00    -0.237 OA
ATOM     69  O   UNL A   1      49.924  25.018  31.357  1.00  0.00    -0.744 OA
ENDBRANCH  65  66
ENDBRANCH  46  60
BRANCH  47  70
ATOM     70  C   UNL A   1      37.136  32.734  29.621  1.00  0.00    -0.014 A 
ATOM     71  C   UNL A   1      36.156  32.700  30.629  1.00  0.00     0.010 A 
ATOM     72  C   UNL A   1      36.863  33.422  28.425  1.00  0.00     0.010 A 
ATOM     73  C   UNL A   1      34.927  33.340  30.444  1.00  0.00     0.020 A 
ATOM     74  C   UNL A   1      35.645  34.085  28.246  1.00  0.00     0.020 A 
ATOM     75  C   UNL A   1      34.683  34.036  29.256  1.00  0.00     0.054 A 
BRANCH  75  76
ATOM     76  S   UNL A   1      33.116  34.934  29.073  1.00  0.00     0.124 S 
ATOM     77  O   UNL A   1      32.414  34.123  28.084  1.00  0.00    -0.237 OA
ATOM     78  O   UNL A   1      32.570  34.892  30.428  1.00  0.00    -0.237 OA
ATOM     79  O   UNL A   1      33.532  36.259  28.620  1.00  0.00    -0.744 OA
ENDBRANCH  75  76
ENDBRANCH  47  70
BRANCH  59  80
ATOM     80  C   UNL A   1      43.104  34.873  32.554  1.00  0.00    -0.014 A 
ATOM     81  C   UNL A   1      42.933  35.140  33.924  1.00  0.00     0.010 A 
ATOM     82  C   UNL A   1      43.737  35.831  31.742  1.00  0.00     0.010 A 
ATOM     83  C   UNL A   1      43.360  36.356  34.464  1.00  0.00     0.020 A 
ATOM     84  C   UNL A   1      44.190  37.037  32.283  1.00  0.00     0.020 A 
ATOM     85  C   UNL A   1      43.985  37.297  33.639  1.00  0.00     0.054 A 
BRANCH  85  86
ATOM     86  S   UNL A   1      44.566  38.853  34.370  1.00  0.00     0.124 S 
ATOM     87  O   UNL A   1      45.839  39.055  33.684  1.00  0.00    -0.237 OA
ATOM     88  O   UNL A   1      43.504  39.791  34.015  1.00  0.00    -0.237 OA
ATOM     89  O   UNL A   1      44.668  38.549  35.796  1.00  0.00    -0.744 OA
ENDBRANCH  85  86
ENDBRANCH  59  80
ENDBRANCH  33  34
ENDBRANCH  25  28
ENDBRANCH  23  24
ENDBRANCH   1  23
TORSDOF 16
ENDMDL
MODEL 3
REMARK VINA RESULT:     -10.7      3.856      5.438
REMARK SMILES Nc1cccc(C(=O)N2CCC[C@H]2C(=O)NCCCNC(=O)c2ccc(-c3c4nc(c(-c5ccc(S(=O)(=O)[O-])cc5)c5ccc([nH]5)c(-c5ccc(S(=O)(=O)[O-])cc5)c5nc(c(-c6ccc(S(=O)(=O)[O-])cc6)c6ccc3[nH]6)C=C5)C=C4)cc2)c1
REMARK SMILES IDX 18 1 17 2 16 3 14 4 15 5 13 7 9 8 10 9 11 10 12 11 7 12 8 13
REMARK SMILES IDX 6 14 2 15 3 16 83 17 4 18 5 19 1 20 19 23 20 24 21 25 22 27
REMARK SMILES IDX 23 28 24 29 82 30 25 31 81 32 26 33 27 34 28 35 75 36 29 37
REMARK SMILES IDX 80 38 74 39 76 40 30 41 79 42 73 43 72 44 31 46 61 47 42 48
REMARK SMILES IDX 60 49 43 50 46 51 59 52 77 53 44 54 45 55 58 57 78 58 47 59
REMARK SMILES IDX 32 60 33 61 41 62 34 63 40 64 35 65 36 66 37 67 38 68 39 69
REMARK SMILES IDX 62 70 63 71 71 72 64 73 70 74 65 75 66 76 67 77 68 78 69 79
REMARK SMILES IDX 48 80 49 81 57 82 50 83 56 84 51 85 52 86 53 87 54 88 55 89
REMARK H PARENT 16 6 1 21 1 22 20 26 76 45 46 56
REMARK Flexibility Score: inf
ROOT
ATOM      1  C   UNL A   1      33.928  29.885  27.187  1.00  0.00     0.042 C 
ENDROOT
BRANCH   1   2
ATOM      2  C   UNL A   1      33.565  28.810  26.177  1.00  0.00     0.117 C 
BRANCH   2   3
ATOM      3  N   UNL A   1      33.848  29.183  24.809  1.00  0.00    -0.354 N 
ATOM      4  C   UNL A   1      33.585  28.542  23.636  1.00  0.00     0.242 C 
ATOM      5  O   UNL A   1      33.673  29.226  22.609  1.00  0.00    -0.273 OA
ATOM      6  H   UNL A   1      34.310  30.047  24.708  1.00  0.00     0.163 HD
BRANCH   4   7
ATOM      7  C   UNL A   1      32.994  27.115  23.568  1.00  0.00     0.174 C 
ATOM      8  N   UNL A   1      31.631  26.940  23.062  1.00  0.00    -0.327 N 
ATOM      9  C   UNL A   1      31.609  26.126  21.859  1.00  0.00     0.121 C 
ATOM     10  C   UNL A   1      32.856  25.272  21.988  1.00  0.00     0.024 C 
ATOM     11  C   UNL A   1      33.856  26.175  22.713  1.00  0.00     0.037 C 
BRANCH   8  12
ATOM     12  C   UNL A   1      30.584  27.306  23.897  1.00  0.00     0.254 C 
ATOM     13  O   UNL A   1      30.401  26.744  24.976  1.00  0.00    -0.269 OA
BRANCH  12  14
ATOM     14  C   UNL A   1      29.587  28.321  23.465  1.00  0.00     0.042 A 
ATOM     15  C   UNL A   1      29.047  30.469  22.446  1.00  0.00     0.032 A 
ATOM     16  C   UNL A   1      27.701  30.105  22.433  1.00  0.00     0.025 A 
ATOM     17  C   UNL A   1      29.986  29.538  22.892  1.00  0.00     0.039 A 
ATOM     18  C   UNL A   1      27.290  28.869  22.940  1.00  0.00     0.003 A 
ATOM     19  C   UNL A   1      28.230  27.982  23.466  1.00  0.00     0.014 A 
BRANCH  15  20
ATOM     20  N   UNL A   1      29.464  31.666  21.877  1.00  0.00    -0.399 N 
ATOM     21  H   UNL A   1      29.016  32.508  22.122  1.00  0.00     0.156 HD
ATOM     22  H   UNL A   1      30.205  31.672  21.230  1.00  0.00     0.156 HD
ENDBRANCH  15  20
ENDBRANCH  12  14
ENDBRANCH   8  12
ENDBRANCH   4   7
ENDBRANCH   2   3
ENDBRANCH   1   2
BRANCH   1  23
ATOM     23  C   UNL A   1      35.246  29.629  27.903  1.00  0.00     0.118 C 
BRANCH  23  24
ATOM     24  N   UNL A   1      35.333  30.339  29.174  1.00  0.00    -0.352 N 
ATOM     25  C   UNL A   1      36.374  30.443  30.060  1.00  0.00     0.251 C 
ATOM     26  H   UNL A   1      34.515  30.820  29.435  1.00  0.00     0.163 HD
ATOM     27  O   UNL A   1      36.163  30.912  31.179  1.00  0.00    -0.269 OA
BRANCH  25  28
ATOM     28  C   UNL A   1      37.733  29.991  29.692  1.00  0.00     0.039 A 
ATOM     29  C   UNL A   1      38.106  29.994  28.344  1.00  0.00     0.014 A 
ATOM     30  C   UNL A   1      38.627  29.524  30.659  1.00  0.00     0.014 A 
ATOM     31  C   UNL A   1      39.387  29.576  27.976  1.00  0.00     0.010 A 
ATOM     32  C   UNL A   1      39.931  29.192  30.301  1.00  0.00     0.010 A 
ATOM     33  C   UNL A   1      40.319  29.196  28.954  1.00  0.00    -0.014 A 
BRANCH  33  34
ATOM     34  C   UNL A   1      41.695  28.773  28.591  1.00  0.00     0.031 A 
ATOM     35  C   UNL A   1      42.807  29.787  28.547  1.00  0.00     0.074 A 
ATOM     36  C   UNL A   1      41.931  27.495  28.235  1.00  0.00     0.049 A 
ATOM     37  N   UNL A   1      44.058  29.625  28.196  1.00  0.00    -0.248 NA
ATOM     38  C   UNL A   1      42.462  31.170  28.917  1.00  0.00     0.031 C 
ATOM     39  C   UNL A   1      40.928  26.429  28.193  1.00  0.00     0.029 A 
ATOM     40  N   UNL A   1      43.089  26.879  27.833  1.00  0.00    -0.354 N 
ATOM     41  C   UNL A   1      44.640  30.886  28.279  1.00  0.00     0.074 A 
ATOM     42  C   UNL A   1      43.594  31.808  28.663  1.00  0.00     0.031 C 
ATOM     43  C   UNL A   1      41.519  25.287  27.810  1.00  0.00     0.029 A 
ATOM     44  C   UNL A   1      42.931  25.545  27.543  1.00  0.00     0.049 A 
ATOM     45  H   UNL A   1      43.952  27.348  27.758  1.00  0.00     0.167 HD
ATOM     46  C   UNL A   1      45.930  31.242  28.072  1.00  0.00     0.031 A 
ATOM     47  C   UNL A   1      43.818  24.631  27.105  1.00  0.00     0.031 A 
ATOM     48  C   UNL A   1      46.969  30.319  27.700  1.00  0.00     0.049 A 
ATOM     49  C   UNL A   1      45.249  25.043  26.893  1.00  0.00     0.074 A 
ATOM     50  C   UNL A   1      48.319  30.565  27.524  1.00  0.00     0.029 A 
ATOM     51  N   UNL A   1      46.772  28.970  27.440  1.00  0.00    -0.354 N 
ATOM     52  N   UNL A   1      45.795  26.226  27.042  1.00  0.00    -0.248 NA
ATOM     53  C   UNL A   1      46.185  23.993  26.471  1.00  0.00     0.031 C 
ATOM     54  C   UNL A   1      48.930  29.376  27.111  1.00  0.00     0.029 A 
ATOM     55  C   UNL A   1      47.971  28.375  27.086  1.00  0.00     0.049 A 
ATOM     56  H   UNL A   1      45.906  28.505  27.499  1.00  0.00     0.167 HD
ATOM     57  C   UNL A   1      47.146  26.058  26.757  1.00  0.00     0.074 A 
ATOM     58  C   UNL A   1      47.332  24.657  26.438  1.00  0.00     0.031 C 
ATOM     59  C   UNL A   1      48.140  26.980  26.764  1.00  0.00     0.031 A 
BRANCH  46  60
ATOM     60  C   UNL A   1      46.278  32.700  28.233  1.00  0.00    -0.014 A 
ATOM     61  C   UNL A   1      46.192  33.594  27.150  1.00  0.00     0.010 A 
ATOM     62  C   UNL A   1      46.697  33.184  29.486  1.00  0.00     0.010 A 
ATOM     63  C   UNL A   1      46.580  34.929  27.300  1.00  0.00     0.020 A 
ATOM     64  C   UNL A   1      47.053  34.525  29.648  1.00  0.00     0.020 A 
ATOM     65  C   UNL A   1      47.017  35.384  28.547  1.00  0.00     0.054 A 
BRANCH  65  66
ATOM     66  S   UNL A   1      47.523  37.118  28.713  1.00  0.00     0.124 S 
ATOM     67  O   UNL A   1      46.908  37.489  29.986  1.00  0.00    -0.237 OA
ATOM     68  O   UNL A   1      48.981  37.028  28.725  1.00  0.00    -0.237 OA
ATOM     69  O   UNL A   1      46.951  37.761  27.534  1.00  0.00    -0.744 OA
ENDBRANCH  65  66
ENDBRANCH  46  60
BRANCH  47  70
ATOM     70  C   UNL A   1      43.373  23.232  26.870  1.00  0.00    -0.014 A 
ATOM     71  C   UNL A   1      43.299  22.717  25.564  1.00  0.00     0.010 A 
ATOM     72  C   UNL A   1      43.073  22.389  27.955  1.00  0.00     0.010 A 
ATOM     73  C   UNL A   1      42.933  21.385  25.347  1.00  0.00     0.020 A 
ATOM     74  C   UNL A   1      42.730  21.050  27.744  1.00  0.00     0.020 A 
ATOM     75  C   UNL A   1      42.658  20.558  26.440  1.00  0.00     0.054 A 
BRANCH  75  76
ATOM     76  S   UNL A   1      42.270  18.810  26.140  1.00  0.00     0.124 S 
ATOM     77  O   UNL A   1      40.888  18.880  25.680  1.00  0.00    -0.237 OA
ATOM     78  O   UNL A   1      43.256  18.438  25.128  1.00  0.00    -0.237 OA
ATOM     79  O   UNL A   1      42.468  18.187  27.447  1.00  0.00    -0.744 OA
ENDBRANCH  75  76
ENDBRANCH  47  70
BRANCH  59  80
ATOM     80  C   UNL A   1      49.532  26.499  26.450  1.00  0.00    -0.014 A 
ATOM     81  C   UNL A   1      50.082  26.640  25.164  1.00  0.00     0.010 A 
ATOM     82  C   UNL A   1      50.320  25.946  27.475  1.00  0.00     0.010 A 
ATOM     83  C   UNL A   1      51.384  26.206  24.901  1.00  0.00     0.020 A 
ATOM     84  C   UNL A   1      51.632  25.536  27.225  1.00  0.00     0.020 A 
ATOM     85  C   UNL A   1      52.150  25.656  25.934  1.00  0.00     0.054 A 
BRANCH  85  86
ATOM     86  S   UNL A   1      53.852  25.136  25.579  1.00  0.00     0.124 S 
ATOM     87  O   UNL A   1      54.577  25.660  26.733  1.00  0.00    -0.237 OA
ATOM     88  O   UNL A   1      53.736  23.681  25.517  1.00  0.00    -0.237 OA
ATOM     89  O   UNL A   1      54.154  25.785  24.305  1.00  0.00    -0.744 OA
ENDBRANCH  85  86
ENDBRANCH  59  80
ENDBRANCH  33  34
ENDBRANCH  25  28
ENDBRANCH  23  24
ENDBRANCH   1  23
TORSDOF 16
ENDMDL
