MODEL 1
REMARK VINA RESULT:      -9.8      0.000      0.000
REMARK SMILES Cc1ccc2oc(-c3ccc4c(c3)OCO4)c/c(=N\[C@H](C)C(=O)NCCCNC(=O)c3ccc(-c4c5nc(c(-c6ccc(S(=O)(=O)[O-])cc6)c6ccc([nH]6)c(-c6ccc(S(=O)(=O)[O-])cc6)c6nc(c(-c7ccc(S(=O)(=O)[O-])cc7)c7ccc4[nH]7)C=C6)C=C5)cc3)c2c1
REMARK SMILES IDX 26 1 25 2 24 3 22 4 23 5 20 7 21 8 19 9 1 10 2 11 3 12 92 13
REMARK SMILES IDX 4 14 91 15 5 16 18 17 6 18 17 19 7 20 8 21 9 22 13 23 10 24
REMARK SMILES IDX 12 25 11 26 14 27 16 28 15 29 27 30 28 31 29 32 30 34 31 35
REMARK SMILES IDX 32 36 90 37 33 38 89 39 34 40 35 41 36 42 83 43 37 44 88 45
REMARK SMILES IDX 82 46 84 47 38 48 87 49 81 50 80 51 39 53 69 54 50 55 68 56
REMARK SMILES IDX 51 57 54 58 67 59 85 60 52 61 53 62 66 64 86 65 55 66 40 67
REMARK SMILES IDX 41 68 49 69 42 70 48 71 43 72 44 73 45 74 46 75 47 76 70 77
REMARK SMILES IDX 71 78 79 79 72 80 78 81 73 82 74 83 75 84 76 85 77 86 56 87
REMARK SMILES IDX 57 88 65 89 58 90 64 91 59 92 60 93 61 94 62 95 63 96
REMARK H PARENT 24 6 28 33 84 52 54 63
REMARK Flexibility Score: inf
ROOT
ATOM      1  C   UNL A   1      40.800  35.317  35.807  1.00  0.00     0.042 C 
ENDROOT
BRANCH   1   2
ATOM      2  C   UNL A   1      40.756  35.478  37.319  1.00  0.00     0.117 C 
BRANCH   2   3
ATOM      3  N   UNL A   1      41.298  34.339  38.038  1.00  0.00    -0.354 N 
ATOM      4  C   UNL A   1      40.692  33.219  38.532  1.00  0.00     0.244 C 
ATOM      5  O   UNL A   1      41.432  32.354  39.018  1.00  0.00    -0.273 OA
ATOM      6  H   UNL A   1      42.268  34.381  38.195  1.00  0.00     0.163 HD
BRANCH   4   7
ATOM      7  C   UNL A   1      39.158  33.063  38.598  1.00  0.00     0.191 C 
ATOM      8  C   UNL A   1      38.606  34.128  39.524  1.00  0.00     0.044 C 
BRANCH   7   9
ATOM      9  N   UNL A   1      38.617  32.924  37.243  1.00  0.00    -0.271 NA
ATOM     10  C   UNL A   1      35.154  34.119  33.567  1.00  0.00     0.044 C 
ATOM     11  C   UNL A   1      36.157  33.032  33.815  1.00  0.00    -0.050 A 
ATOM     12  C   UNL A   1      36.231  31.927  32.955  1.00  0.00     0.007 A 
ATOM     13  C   UNL A   1      37.063  33.132  34.881  1.00  0.00     0.017 A 
ATOM     14  C   UNL A   1      37.180  30.926  33.168  1.00  0.00     0.048 A 
ATOM     15  C   UNL A   1      38.024  32.134  35.087  1.00  0.00     0.043 A 
ATOM     16  C   UNL A   1      38.076  31.032  34.231  1.00  0.00     0.136 A 
ATOM     17  C   UNL A   1      38.942  32.174  36.263  1.00  0.00     0.073 A 
ATOM     18  O   UNL A   1      38.974  30.007  34.391  1.00  0.00    -0.456 OA
ATOM     19  C   UNL A   1      40.073  31.231  36.157  1.00  0.00     0.076 A 
ATOM     20  C   UNL A   1      39.998  30.215  35.288  1.00  0.00     0.136 A 
BRANCH  20  21
ATOM     21  C   UNL A   1      41.057  29.206  35.278  1.00  0.00     0.021 A 
ATOM     22  C   UNL A   1      41.093  28.234  34.252  1.00  0.00     0.016 A 
ATOM     23  C   UNL A   1      41.980  29.157  36.331  1.00  0.00     0.062 A 
ATOM     24  C   UNL A   1      42.040  27.206  34.279  1.00  0.00     0.051 A 
ATOM     25  C   UNL A   1      42.904  28.136  36.324  1.00  0.00     0.166 A 
ATOM     26  C   UNL A   1      42.929  27.186  35.331  1.00  0.00     0.165 A 
ATOM     27  O   UNL A   1      43.865  27.928  37.265  1.00  0.00    -0.454 OA
ATOM     28  O   UNL A   1      43.901  26.259  35.527  1.00  0.00    -0.454 OA
ATOM     29  C   UNL A   1      44.551  26.787  36.700  1.00  0.00     0.468 C 
ENDBRANCH  20  21
ENDBRANCH   7   9
ENDBRANCH   4   7
ENDBRANCH   2   3
ENDBRANCH   1   2
BRANCH   1  30
ATOM     30  C   UNL A   1      41.704  36.323  35.114  1.00  0.00     0.118 C 
BRANCH  30  31
ATOM     31  N   UNL A   1      43.031  36.400  35.716  1.00  0.00    -0.352 N 
ATOM     32  C   UNL A   1      44.044  35.473  35.772  1.00  0.00     0.251 C 
ATOM     33  H   UNL A   1      43.233  37.257  36.155  1.00  0.00     0.163 HD
ATOM     34  O   UNL A   1      45.017  35.684  36.492  1.00  0.00    -0.269 OA
BRANCH  32  35
ATOM     35  C   UNL A   1      43.957  34.214  34.998  1.00  0.00     0.039 A 
ATOM     36  C   UNL A   1      44.318  34.175  33.650  1.00  0.00     0.014 A 
ATOM     37  C   UNL A   1      43.520  33.050  35.635  1.00  0.00     0.014 A 
ATOM     38  C   UNL A   1      44.066  33.031  32.901  1.00  0.00     0.010 A 
ATOM     39  C   UNL A   1      43.365  31.869  34.901  1.00  0.00     0.010 A 
ATOM     40  C   UNL A   1      43.593  31.863  33.518  1.00  0.00    -0.014 A 
BRANCH  40  41
ATOM     41  C   UNL A   1      43.368  30.644  32.697  1.00  0.00     0.031 A 
ATOM     42  C   UNL A   1      42.113  30.487  31.881  1.00  0.00     0.074 A 
ATOM     43  C   UNL A   1      44.330  29.701  32.648  1.00  0.00     0.049 A 
ATOM     44  N   UNL A   1      41.762  29.494  31.103  1.00  0.00    -0.248 NA
ATOM     45  C   UNL A   1      41.125  31.577  31.938  1.00  0.00     0.031 C 
ATOM     46  C   UNL A   1      45.602  29.761  33.374  1.00  0.00     0.029 A 
ATOM     47  N   UNL A   1      44.410  28.530  31.938  1.00  0.00    -0.354 N 
ATOM     48  C   UNL A   1      40.514  29.831  30.594  1.00  0.00     0.074 A 
ATOM     49  C   UNL A   1      40.152  31.107  31.168  1.00  0.00     0.031 C 
ATOM     50  C   UNL A   1      46.359  28.713  33.022  1.00  0.00     0.029 A 
ATOM     51  C   UNL A   1      45.600  27.862  32.111  1.00  0.00     0.049 A 
ATOM     52  H   UNL A   1      43.685  28.199  31.360  1.00  0.00     0.167 HD
ATOM     53  C   UNL A   1      39.747  29.142  29.715  1.00  0.00     0.031 A 
ATOM     54  C   UNL A   1      46.034  26.688  31.612  1.00  0.00     0.031 A 
ATOM     55  C   UNL A   1      40.125  27.878  29.136  1.00  0.00     0.049 A 
ATOM     56  C   UNL A   1      45.137  25.910  30.696  1.00  0.00     0.074 A 
ATOM     57  C   UNL A   1      39.422  27.115  28.220  1.00  0.00     0.029 A 
ATOM     58  N   UNL A   1      41.301  27.195  29.408  1.00  0.00    -0.354 N 
ATOM     59  N   UNL A   1      43.958  26.245  30.229  1.00  0.00    -0.248 NA
ATOM     60  C   UNL A   1      45.613  24.594  30.251  1.00  0.00     0.031 C 
ATOM     61  C   UNL A   1      40.142  25.941  27.988  1.00  0.00     0.029 A 
ATOM     62  C   UNL A   1      41.326  26.002  28.706  1.00  0.00     0.049 A 
ATOM     63  H   UNL A   1      42.012  27.511  30.012  1.00  0.00     0.167 HD
ATOM     64  C   UNL A   1      43.549  25.179  29.437  1.00  0.00     0.074 A 
ATOM     65  C   UNL A   1      44.618  24.201  29.465  1.00  0.00     0.031 C 
ATOM     66  C   UNL A   1      42.389  25.029  28.755  1.00  0.00     0.031 A 
BRANCH  53  67
ATOM     67  C   UNL A   1      38.417  29.721  29.311  1.00  0.00    -0.014 A 
ATOM     68  C   UNL A   1      38.366  30.738  28.338  1.00  0.00     0.010 A 
ATOM     69  C   UNL A   1      37.235  29.356  29.980  1.00  0.00     0.010 A 
ATOM     70  C   UNL A   1      37.166  31.400  28.063  1.00  0.00     0.020 A 
ATOM     71  C   UNL A   1      36.028  30.000  29.690  1.00  0.00     0.020 A 
ATOM     72  C   UNL A   1      36.006  31.034  28.750  1.00  0.00     0.054 A 
BRANCH  72  73
ATOM     73  S   UNL A   1      34.463  31.926  28.405  1.00  0.00     0.124 S 
ATOM     74  O   UNL A   1      34.049  32.355  29.737  1.00  0.00    -0.237 OA
ATOM     75  O   UNL A   1      34.903  32.990  27.505  1.00  0.00    -0.237 OA
ATOM     76  O   UNL A   1      33.613  30.913  27.783  1.00  0.00    -0.744 OA
ENDBRANCH  72  73
ENDBRANCH  53  67
BRANCH  54  77
ATOM     77  C   UNL A   1      47.389  26.200  31.989  1.00  0.00    -0.014 A 
ATOM     78  C   UNL A   1      48.454  26.281  31.071  1.00  0.00     0.010 A 
ATOM     79  C   UNL A   1      47.598  25.559  33.222  1.00  0.00     0.010 A 
ATOM     80  C   UNL A   1      49.678  25.669  31.346  1.00  0.00     0.020 A 
ATOM     81  C   UNL A   1      48.834  24.972  33.515  1.00  0.00     0.020 A 
ATOM     82  C   UNL A   1      49.854  25.002  32.561  1.00  0.00     0.054 A 
BRANCH  82  83
ATOM     83  S   UNL A   1      51.429  24.157  32.872  1.00  0.00     0.124 S 
ATOM     84  O   UNL A   1      51.352  23.903  34.307  1.00  0.00    -0.237 OA
ATOM     85  O   UNL A   1      51.335  22.977  32.017  1.00  0.00    -0.237 OA
ATOM     86  O   UNL A   1      52.429  25.140  32.463  1.00  0.00    -0.744 OA
ENDBRANCH  82  83
ENDBRANCH  54  77
BRANCH  66  87
ATOM     87  C   UNL A   1      42.177  23.749  27.992  1.00  0.00    -0.014 A 
ATOM     88  C   UNL A   1      41.410  22.714  28.557  1.00  0.00     0.010 A 
ATOM     89  C   UNL A   1      42.861  23.519  26.785  1.00  0.00     0.010 A 
ATOM     90  C   UNL A   1      41.369  21.455  27.955  1.00  0.00     0.020 A 
ATOM     91  C   UNL A   1      42.799  22.267  26.165  1.00  0.00     0.020 A 
ATOM     92  C   UNL A   1      42.076  21.236  26.771  1.00  0.00     0.054 A 
BRANCH  92  93
ATOM     93  S   UNL A   1      42.056  19.579  26.033  1.00  0.00     0.124 S 
ATOM     94  O   UNL A   1      40.646  19.409  25.697  1.00  0.00    -0.237 OA
ATOM     95  O   UNL A   1      42.962  19.723  24.895  1.00  0.00    -0.237 OA
ATOM     96  O   UNL A   1      42.550  18.720  27.106  1.00  0.00    -0.744 OA
ENDBRANCH  92  93
ENDBRANCH  66  87
ENDBRANCH  40  41
ENDBRANCH  32  35
ENDBRANCH  30  31
ENDBRANCH   1  30
TORSDOF 15
ENDMDL
MODEL 2
REMARK VINA RESULT:      -9.5      5.870     11.822
REMARK SMILES Cc1ccc2oc(-c3ccc4c(c3)OCO4)c/c(=N\[C@H](C)C(=O)NCCCNC(=O)c3ccc(-c4c5nc(c(-c6ccc(S(=O)(=O)[O-])cc6)c6ccc([nH]6)c(-c6ccc(S(=O)(=O)[O-])cc6)c6nc(c(-c7ccc(S(=O)(=O)[O-])cc7)c7ccc4[nH]7)C=C6)C=C5)cc3)c2c1
REMARK SMILES IDX 26 1 25 2 24 3 22 4 23 5 20 7 21 8 19 9 1 10 2 11 3 12 92 13
REMARK SMILES IDX 4 14 91 15 5 16 18 17 6 18 17 19 7 20 8 21 9 22 13 23 10 24
REMARK SMILES IDX 12 25 11 26 14 27 16 28 15 29 27 30 28 31 29 32 30 34 31 35
REMARK SMILES IDX 32 36 90 37 33 38 89 39 34 40 35 41 36 42 83 43 37 44 88 45
REMARK SMILES IDX 82 46 84 47 38 48 87 49 81 50 80 51 39 53 69 54 50 55 68 56
REMARK SMILES IDX 51 57 54 58 67 59 85 60 52 61 53 62 66 64 86 65 55 66 40 67
REMARK SMILES IDX 41 68 49 69 42 70 48 71 43 72 44 73 45 74 46 75 47 76 70 77
REMARK SMILES IDX 71 78 79 79 72 80 78 81 73 82 74 83 75 84 76 85 77 86 56 87
REMARK SMILES IDX 57 88 65 89 58 90 64 91 59 92 60 93 61 94 62 95 63 96
REMARK H PARENT 24 6 28 33 84 52 54 63
REMARK Flexibility Score: inf
ROOT
ATOM      1  C   UNL A   1      34.526  32.285  28.830  1.00  0.00     0.042 C 
ENDROOT
BRANCH   1   2
ATOM      2  C   UNL A   1      33.883  31.724  27.571  1.00  0.00     0.117 C 
BRANCH   2   3
ATOM      3  N   UNL A   1      33.125  30.508  27.802  1.00  0.00    -0.354 N 
ATOM      4  C   UNL A   1      33.353  29.220  27.410  1.00  0.00     0.244 C 
ATOM      5  O   UNL A   1      32.578  28.359  27.846  1.00  0.00    -0.273 OA
ATOM      6  H   UNL A   1      32.305  30.634  28.333  1.00  0.00     0.163 HD
BRANCH   4   7
ATOM      7  C   UNL A   1      34.444  28.843  26.387  1.00  0.00     0.191 C 
ATOM      8  C   UNL A   1      35.749  28.637  27.129  1.00  0.00     0.044 C 
BRANCH   7   9
ATOM      9  N   UNL A   1      33.942  27.797  25.492  1.00  0.00    -0.271 NA
ATOM     10  C   UNL A   1      34.269  23.081  23.348  1.00  0.00     0.044 C 
ATOM     11  C   UNL A   1      33.544  24.364  23.068  1.00  0.00    -0.050 A 
ATOM     12  C   UNL A   1      32.782  24.507  21.899  1.00  0.00     0.007 A 
ATOM     13  C   UNL A   1      33.580  25.417  23.995  1.00  0.00     0.017 A 
ATOM     14  C   UNL A   1      32.086  25.690  21.647  1.00  0.00     0.048 A 
ATOM     15  C   UNL A   1      32.870  26.599  23.748  1.00  0.00     0.043 A 
ATOM     16  C   UNL A   1      32.129  26.731  22.573  1.00  0.00     0.136 A 
ATOM     17  C   UNL A   1      32.961  27.764  24.676  1.00  0.00     0.073 A 
ATOM     18  O   UNL A   1      31.432  27.871  22.258  1.00  0.00    -0.456 OA
ATOM     19  C   UNL A   1      31.928  28.790  24.433  1.00  0.00     0.076 A 
ATOM     20  C   UNL A   1      31.283  28.804  23.259  1.00  0.00     0.136 A 
BRANCH  20  21
ATOM     21  C   UNL A   1      30.358  29.898  22.967  1.00  0.00     0.021 A 
ATOM     22  C   UNL A   1      29.837  30.681  24.022  1.00  0.00     0.016 A 
ATOM     23  C   UNL A   1      29.928  30.111  21.650  1.00  0.00     0.062 A 
ATOM     24  C   UNL A   1      28.880  31.668  23.771  1.00  0.00     0.051 A 
ATOM     25  C   UNL A   1      28.990  31.096  21.435  1.00  0.00     0.166 A 
ATOM     26  C   UNL A   1      28.478  31.848  22.466  1.00  0.00     0.165 A 
ATOM     27  O   UNL A   1      28.454  31.434  20.231  1.00  0.00    -0.454 OA
ATOM     28  O   UNL A   1      27.551  32.745  22.040  1.00  0.00    -0.454 OA
ATOM     29  C   UNL A   1      27.610  32.544  20.615  1.00  0.00     0.468 C 
ENDBRANCH  20  21
ENDBRANCH   7   9
ENDBRANCH   4   7
ENDBRANCH   2   3
ENDBRANCH   1   2
BRANCH   1  30
ATOM     30  C   UNL A   1      35.814  31.578  29.223  1.00  0.00     0.118 C 
BRANCH  30  31
ATOM     31  N   UNL A   1      35.817  31.142  30.615  1.00  0.00    -0.352 N 
ATOM     32  C   UNL A   1      36.677  30.310  31.291  1.00  0.00     0.251 C 
ATOM     33  H   UNL A   1      35.081  31.502  31.159  1.00  0.00     0.163 HD
ATOM     34  O   UNL A   1      36.386  29.932  32.424  1.00  0.00    -0.269 OA
BRANCH  32  35
ATOM     35  C   UNL A   1      37.931  29.846  30.656  1.00  0.00     0.039 A 
ATOM     36  C   UNL A   1      38.863  29.095  31.374  1.00  0.00     0.014 A 
ATOM     37  C   UNL A   1      38.173  30.155  29.315  1.00  0.00     0.014 A 
ATOM     38  C   UNL A   1      40.105  28.818  30.815  1.00  0.00     0.010 A 
ATOM     39  C   UNL A   1      39.383  29.785  28.721  1.00  0.00     0.010 A 
ATOM     40  C   UNL A   1      40.378  29.154  29.480  1.00  0.00    -0.014 A 
BRANCH  40  41
ATOM     41  C   UNL A   1      41.703  28.812  28.898  1.00  0.00     0.031 A 
ATOM     42  C   UNL A   1      42.822  29.819  28.888  1.00  0.00     0.074 A 
ATOM     43  C   UNL A   1      41.909  27.566  28.427  1.00  0.00     0.049 A 
ATOM     44  N   UNL A   1      44.040  29.683  28.429  1.00  0.00    -0.248 NA
ATOM     45  C   UNL A   1      42.547  31.146  29.465  1.00  0.00     0.031 C 
ATOM     46  C   UNL A   1      40.906  26.498  28.413  1.00  0.00     0.029 A 
ATOM     47  N   UNL A   1      43.030  26.974  27.902  1.00  0.00    -0.354 N 
ATOM     48  C   UNL A   1      44.669  30.903  28.647  1.00  0.00     0.074 A 
ATOM     49  C   UNL A   1      43.693  31.780  29.255  1.00  0.00     0.031 C 
ATOM     50  C   UNL A   1      41.474  25.367  27.969  1.00  0.00     0.029 A 
ATOM     51  C   UNL A   1      42.855  25.646  27.589  1.00  0.00     0.049 A 
ATOM     52  H   UNL A   1      43.879  27.454  27.763  1.00  0.00     0.167 HD
ATOM     53  C   UNL A   1      45.949  31.254  28.376  1.00  0.00     0.031 A 
ATOM     54  C   UNL A   1      43.699  24.750  27.041  1.00  0.00     0.031 A 
ATOM     55  C   UNL A   1      46.917  30.367  27.785  1.00  0.00     0.049 A 
ATOM     56  C   UNL A   1      45.090  25.183  26.685  1.00  0.00     0.074 A 
ATOM     57  C   UNL A   1      48.245  30.626  27.491  1.00  0.00     0.029 A 
ATOM     58  N   UNL A   1      46.672  29.057  27.401  1.00  0.00    -0.354 N 
ATOM     59  N   UNL A   1      45.663  26.343  26.896  1.00  0.00    -0.248 NA
ATOM     60  C   UNL A   1      45.944  24.200  26.005  1.00  0.00     0.031 C 
ATOM     61  C   UNL A   1      48.784  29.496  26.873  1.00  0.00     0.029 A 
ATOM     62  C   UNL A   1      47.812  28.508  26.841  1.00  0.00     0.049 A 
ATOM     63  H   UNL A   1      45.813  28.587  27.511  1.00  0.00     0.167 HD
ATOM     64  C   UNL A   1      46.945  26.231  26.372  1.00  0.00     0.074 A 
ATOM     65  C   UNL A   1      47.073  24.882  25.858  1.00  0.00     0.031 C 
ATOM     66  C   UNL A   1      47.922  27.168  26.319  1.00  0.00     0.031 A 
BRANCH  53  67
ATOM     67  C   UNL A   1      46.398  32.653  28.708  1.00  0.00    -0.014 A 
ATOM     68  C   UNL A   1      46.351  33.653  27.718  1.00  0.00     0.010 A 
ATOM     69  C   UNL A   1      46.985  32.949  29.951  1.00  0.00     0.010 A 
ATOM     70  C   UNL A   1      46.909  34.913  27.953  1.00  0.00     0.020 A 
ATOM     71  C   UNL A   1      47.523  34.216  30.198  1.00  0.00     0.020 A 
ATOM     72  C   UNL A   1      47.503  35.183  29.189  1.00  0.00     0.054 A 
BRANCH  72  73
ATOM     73  S   UNL A   1      48.251  36.812  29.466  1.00  0.00     0.124 S 
ATOM     74  O   UNL A   1      47.178  37.535  30.141  1.00  0.00    -0.237 OA
ATOM     75  O   UNL A   1      49.416  36.494  30.290  1.00  0.00    -0.237 OA
ATOM     76  O   UNL A   1      48.567  37.279  28.117  1.00  0.00    -0.744 OA
ENDBRANCH  72  73
ENDBRANCH  53  67
BRANCH  54  77
ATOM     77  C   UNL A   1      43.221  23.360  26.803  1.00  0.00    -0.014 A 
ATOM     78  C   UNL A   1      42.889  22.528  27.890  1.00  0.00     0.010 A 
ATOM     79  C   UNL A   1      43.196  22.828  25.502  1.00  0.00     0.010 A 
ATOM     80  C   UNL A   1      42.611  21.175  27.689  1.00  0.00     0.020 A 
ATOM     81  C   UNL A   1      42.887  21.480  25.295  1.00  0.00     0.020 A 
ATOM     82  C   UNL A   1      42.630  20.655  26.393  1.00  0.00     0.054 A 
BRANCH  82  83
ATOM     83  S   UNL A   1      42.331  18.880  26.161  1.00  0.00     0.124 S 
ATOM     84  O   UNL A   1      42.550  18.362  27.508  1.00  0.00    -0.237 OA
ATOM     85  O   UNL A   1      40.948  18.846  25.690  1.00  0.00    -0.237 OA
ATOM     86  O   UNL A   1      43.332  18.494  25.170  1.00  0.00    -0.744 OA
ENDBRANCH  82  83
ENDBRANCH  54  77
BRANCH  66  87
ATOM     87  C   UNL A   1      49.224  26.798  25.660  1.00  0.00    -0.014 A 
ATOM     88  C   UNL A   1      50.250  26.207  26.419  1.00  0.00     0.010 A 
ATOM     89  C   UNL A   1      49.479  27.173  24.329  1.00  0.00     0.010 A 
ATOM     90  C   UNL A   1      51.525  26.040  25.874  1.00  0.00     0.020 A 
ATOM     91  C   UNL A   1      50.748  26.982  23.773  1.00  0.00     0.020 A 
ATOM     92  C   UNL A   1      51.769  26.443  24.560  1.00  0.00     0.054 A 
BRANCH  92  93
ATOM     93  S   UNL A   1      53.445  26.272  23.888  1.00  0.00     0.124 S 
ATOM     94  O   UNL A   1      54.034  27.571  24.196  1.00  0.00    -0.237 OA
ATOM     95  O   UNL A   1      53.981  25.143  24.645  1.00  0.00    -0.237 OA
ATOM     96  O   UNL A   1      53.221  26.009  22.469  1.00  0.00    -0.744 OA
ENDBRANCH  92  93
ENDBRANCH  66  87
ENDBRANCH  40  41
ENDBRANCH  32  35
ENDBRANCH  30  31
ENDBRANCH   1  30
TORSDOF 15
ENDMDL
MODEL 3
REMARK VINA RESULT:      -9.5      5.256     14.185
REMARK SMILES Cc1ccc2oc(-c3ccc4c(c3)OCO4)c/c(=N\[C@H](C)C(=O)NCCCNC(=O)c3ccc(-c4c5nc(c(-c6ccc(S(=O)(=O)[O-])cc6)c6ccc([nH]6)c(-c6ccc(S(=O)(=O)[O-])cc6)c6nc(c(-c7ccc(S(=O)(=O)[O-])cc7)c7ccc4[nH]7)C=C6)C=C5)cc3)c2c1
REMARK SMILES IDX 26 1 25 2 24 3 22 4 23 5 20 7 21 8 19 9 1 10 2 11 3 12 92 13
REMARK SMILES IDX 4 14 91 15 5 16 18 17 6 18 17 19 7 20 8 21 9 22 13 23 10 24
REMARK SMILES IDX 12 25 11 26 14 27 16 28 15 29 27 30 28 31 29 32 30 34 31 35
REMARK SMILES IDX 32 36 90 37 33 38 89 39 34 40 35 41 36 42 83 43 37 44 88 45
REMARK SMILES IDX 82 46 84 47 38 48 87 49 81 50 80 51 39 53 69 54 50 55 68 56
REMARK SMILES IDX 51 57 54 58 67 59 85 60 52 61 53 62 66 64 86 65 55 66 40 67
REMARK SMILES IDX 41 68 49 69 42 70 48 71 43 72 44 73 45 74 46 75 47 76 70 77
REMARK SMILES IDX 71 78 79 79 72 80 78 81 73 82 74 83 75 84 76 85 77 86 56 87
REMARK SMILES IDX 57 88 65 89 58 90 64 91 59 92 60 93 61 94 62 95 63 96
REMARK H PARENT 24 6 28 33 84 52 54 63
REMARK Flexibility Score: inf
ROOT
ATOM      1  C   UNL A   1      35.542  23.372  25.440  1.00  0.00     0.042 C 
ENDROOT
BRANCH   1   2
ATOM      2  C   UNL A   1      34.797  24.658  25.117  1.00  0.00     0.117 C 
BRANCH   2   3
ATOM      3  N   UNL A   1      33.666  24.464  24.228  1.00  0.00    -0.354 N 
ATOM      4  C   UNL A   1      32.357  24.836  24.347  1.00  0.00     0.244 C 
ATOM      5  O   UNL A   1      31.627  24.623  23.372  1.00  0.00    -0.273 OA
ATOM      6  H   UNL A   1      33.879  23.981  23.397  1.00  0.00     0.163 HD
BRANCH   4   7
ATOM      7  C   UNL A   1      31.767  25.392  25.660  1.00  0.00     0.191 C 
ATOM      8  C   UNL A   1      31.731  24.275  26.682  1.00  0.00     0.044 C 
BRANCH   7   9
ATOM      9  N   UNL A   1      32.414  26.664  25.993  1.00  0.00    -0.271 NA
ATOM     10  C   UNL A   1      35.778  29.486  28.760  1.00  0.00     0.044 C 
ATOM     11  C   UNL A   1      34.591  29.749  27.881  1.00  0.00    -0.050 A 
ATOM     12  C   UNL A   1      34.081  31.048  27.747  1.00  0.00     0.007 A 
ATOM     13  C   UNL A   1      34.008  28.705  27.145  1.00  0.00     0.017 A 
ATOM     14  C   UNL A   1      32.992  31.299  26.912  1.00  0.00     0.048 A 
ATOM     15  C   UNL A   1      32.924  28.961  26.297  1.00  0.00     0.043 A 
ATOM     16  C   UNL A   1      32.418  30.257  26.186  1.00  0.00     0.136 A 
ATOM     17  C   UNL A   1      32.233  27.855  25.570  1.00  0.00     0.073 A 
ATOM     18  O   UNL A   1      31.343  30.571  25.392  1.00  0.00    -0.456 OA
ATOM     19  C   UNL A   1      31.331  28.328  24.501  1.00  0.00     0.076 A 
ATOM     20  C   UNL A   1      30.922  29.603  24.508  1.00  0.00     0.136 A 
BRANCH  20  21
ATOM     21  C   UNL A   1      29.925  30.037  23.530  1.00  0.00     0.021 A 
ATOM     22  C   UNL A   1      29.131  29.079  22.860  1.00  0.00     0.016 A 
ATOM     23  C   UNL A   1      29.820  31.396  23.201  1.00  0.00     0.062 A 
ATOM     24  C   UNL A   1      28.241  29.467  21.855  1.00  0.00     0.051 A 
ATOM     25  C   UNL A   1      28.929  31.747  22.212  1.00  0.00     0.166 A 
ATOM     26  C   UNL A   1      28.167  30.810  21.555  1.00  0.00     0.165 A 
ATOM     27  O   UNL A   1      28.702  33.010  21.758  1.00  0.00    -0.454 OA
ATOM     28  O   UNL A   1      27.374  31.364  20.602  1.00  0.00    -0.454 OA
ATOM     29  C   UNL A   1      27.646  32.765  20.800  1.00  0.00     0.468 C 
ENDBRANCH  20  21
ENDBRANCH   7   9
ENDBRANCH   4   7
ENDBRANCH   2   3
ENDBRANCH   1   2
BRANCH   1  30
ATOM     30  C   UNL A   1      36.808  23.589  26.252  1.00  0.00     0.118 C 
BRANCH  30  31
ATOM     31  N   UNL A   1      37.736  22.467  26.164  1.00  0.00    -0.352 N 
ATOM     32  C   UNL A   1      39.105  22.426  26.279  1.00  0.00     0.251 C 
ATOM     33  H   UNL A   1      37.312  21.596  25.993  1.00  0.00     0.163 HD
ATOM     34  O   UNL A   1      39.704  21.393  25.987  1.00  0.00    -0.269 OA
BRANCH  32  35
ATOM     35  C   UNL A   1      39.861  23.619  26.720  1.00  0.00     0.039 A 
ATOM     36  C   UNL A   1      40.522  23.635  27.949  1.00  0.00     0.014 A 
ATOM     37  C   UNL A   1      39.920  24.737  25.884  1.00  0.00     0.014 A 
ATOM     38  C   UNL A   1      41.078  24.819  28.419  1.00  0.00     0.010 A 
ATOM     39  C   UNL A   1      40.570  25.898  26.316  1.00  0.00     0.010 A 
ATOM     40  C   UNL A   1      41.115  25.963  27.607  1.00  0.00    -0.014 A 
BRANCH  40  41
ATOM     41  C   UNL A   1      41.748  27.205  28.123  1.00  0.00     0.031 A 
ATOM     42  C   UNL A   1      43.234  27.415  28.012  1.00  0.00     0.074 A 
ATOM     43  C   UNL A   1      40.965  28.170  28.646  1.00  0.00     0.049 A 
ATOM     44  N   UNL A   1      43.947  28.442  28.401  1.00  0.00    -0.248 NA
ATOM     45  C   UNL A   1      44.026  26.344  27.384  1.00  0.00     0.031 C 
ATOM     46  C   UNL A   1      39.508  28.089  28.778  1.00  0.00     0.029 A 
ATOM     47  N   UNL A   1      41.272  29.416  29.131  1.00  0.00    -0.354 N 
ATOM     48  C   UNL A   1      45.264  28.136  28.081  1.00  0.00     0.074 A 
ATOM     49  C   UNL A   1      45.261  26.817  27.489  1.00  0.00     0.031 C 
ATOM     50  C   UNL A   1      39.043  29.256  29.245  1.00  0.00     0.029 A 
ATOM     51  C   UNL A   1      40.170  30.140  29.524  1.00  0.00     0.049 A 
ATOM     52  H   UNL A   1      42.193  29.759  29.192  1.00  0.00     0.167 HD
ATOM     53  C   UNL A   1      46.372  28.894  28.254  1.00  0.00     0.031 A 
ATOM     54  C   UNL A   1      40.069  31.369  30.066  1.00  0.00     0.031 A 
ATOM     55  C   UNL A   1      46.362  30.214  28.830  1.00  0.00     0.049 A 
ATOM     56  C   UNL A   1      41.318  32.161  30.312  1.00  0.00     0.074 A 
ATOM     57  C   UNL A   1      47.433  31.068  29.027  1.00  0.00     0.029 A 
ATOM     58  N   UNL A   1      45.234  30.873  29.297  1.00  0.00    -0.354 N 
ATOM     59  N   UNL A   1      42.555  31.852  30.005  1.00  0.00    -0.248 NA
ATOM     60  C   UNL A   1      41.168  33.457  30.989  1.00  0.00     0.031 C 
ATOM     61  C   UNL A   1      46.964  32.215  29.670  1.00  0.00     0.029 A 
ATOM     62  C   UNL A   1      45.589  32.107  29.814  1.00  0.00     0.049 A 
ATOM     63  H   UNL A   1      44.317  30.516  29.265  1.00  0.00     0.167 HD
ATOM     64  C   UNL A   1      43.332  32.913  30.454  1.00  0.00     0.074 A 
ATOM     65  C   UNL A   1      42.424  33.885  31.030  1.00  0.00     0.031 C 
ATOM     66  C   UNL A   1      44.677  33.059  30.398  1.00  0.00     0.031 A 
BRANCH  53  67
ATOM     67  C   UNL A   1      47.703  28.335  27.822  1.00  0.00    -0.014 A 
ATOM     68  C   UNL A   1      48.134  28.510  26.493  1.00  0.00     0.010 A 
ATOM     69  C   UNL A   1      48.466  27.531  28.687  1.00  0.00     0.010 A 
ATOM     70  C   UNL A   1      49.284  27.867  26.027  1.00  0.00     0.020 A 
ATOM     71  C   UNL A   1      49.631  26.905  28.232  1.00  0.00     0.020 A 
ATOM     72  C   UNL A   1      50.020  27.058  26.898  1.00  0.00     0.054 A 
BRANCH  72  73
ATOM     73  S   UNL A   1      51.493  26.204  26.269  1.00  0.00     0.124 S 
ATOM     74  O   UNL A   1      52.577  26.996  26.843  1.00  0.00    -0.237 OA
ATOM     75  O   UNL A   1      51.338  24.856  26.813  1.00  0.00    -0.237 OA
ATOM     76  O   UNL A   1      51.350  26.298  24.818  1.00  0.00    -0.744 OA
ENDBRANCH  72  73
ENDBRANCH  53  67
BRANCH  54  77
ATOM     77  C   UNL A   1      38.720  31.900  30.406  1.00  0.00    -0.014 A 
ATOM     78  C   UNL A   1      38.003  32.669  29.469  1.00  0.00     0.010 A 
ATOM     79  C   UNL A   1      38.192  31.731  31.697  1.00  0.00     0.010 A 
ATOM     80  C   UNL A   1      36.822  33.316  29.836  1.00  0.00     0.020 A 
ATOM     81  C   UNL A   1      36.993  32.352  32.059  1.00  0.00     0.020 A 
ATOM     82  C   UNL A   1      36.334  33.168  31.136  1.00  0.00     0.054 A 
BRANCH  82  83
ATOM     83  S   UNL A   1      34.834  34.071  31.613  1.00  0.00     0.124 S 
ATOM     84  O   UNL A   1      34.060  33.030  32.282  1.00  0.00    -0.237 OA
ATOM     85  O   UNL A   1      35.355  35.124  32.481  1.00  0.00    -0.237 OA
ATOM     86  O   UNL A   1      34.294  34.532  30.336  1.00  0.00    -0.744 OA
ENDBRANCH  82  83
ENDBRANCH  54  77
BRANCH  66  87
ATOM     87  C   UNL A   1      45.280  34.303  30.994  1.00  0.00    -0.014 A 
ATOM     88  C   UNL A   1      45.497  35.433  30.186  1.00  0.00     0.010 A 
ATOM     89  C   UNL A   1      45.766  34.296  32.313  1.00  0.00     0.010 A 
ATOM     90  C   UNL A   1      46.231  36.518  30.670  1.00  0.00     0.020 A 
ATOM     91  C   UNL A   1      46.479  35.392  32.810  1.00  0.00     0.020 A 
ATOM     92  C   UNL A   1      46.730  36.483  31.974  1.00  0.00     0.054 A 
BRANCH  92  93
ATOM     93  S   UNL A   1      47.730  37.876  32.566  1.00  0.00     0.124 S 
ATOM     94  O   UNL A   1      46.781  38.600  33.406  1.00  0.00    -0.237 OA
ATOM     95  O   UNL A   1      48.820  37.210  33.276  1.00  0.00    -0.237 OA
ATOM     96  O   UNL A   1      48.125  38.561  31.338  1.00  0.00    -0.744 OA
ENDBRANCH  92  93
ENDBRANCH  66  87
ENDBRANCH  40  41
ENDBRANCH  32  35
ENDBRANCH  30  31
ENDBRANCH   1  30
TORSDOF 15
ENDMDL
