MODEL 1
REMARK VINA RESULT:     -12.8      0.000      0.000
REMARK SMILES O=C(NCCCNC(=O)c1ccc(-c2c3nc(c(-c4ccc(S(=O)(=O)[O-])cc4)c4ccc([nH]4)c(-c4ccc(S(=O)(=O)[O-])cc4)c4nc(c(-c5ccc(S(=O)(=O)[O-])cc5)c5ccc2[nH]5)C=C4)C=C3)cc1)C1=NN(c2ccc(S(=O)(=O)[O-])cc2)C(=O)/C1=C/Nc1ccccc1
REMARK SMILES IDX 5 1 4 2 3 3 1 4 2 5 70 7 71 8 85 9 72 10 83 11 86 12 84 13
REMARK SMILES IDX 73 14 74 15 82 16 75 17 81 18 76 19 77 20 78 21 79 22 80 23
REMARK SMILES IDX 87 24 88 26 89 27 93 28 90 29 92 30 91 31 6 32 7 33 8 34
REMARK SMILES IDX 9 36 10 37 11 38 69 39 12 40 68 41 13 42 14 43 15 44 62 45
REMARK SMILES IDX 16 46 67 47 61 48 63 49 17 50 66 51 60 52 59 53 18 55 48 56
REMARK SMILES IDX 29 57 47 58 30 59 33 60 46 61 64 62 31 63 32 64 45 66 65 67
REMARK SMILES IDX 34 68 19 69 20 70 28 71 21 72 27 73 22 74 23 75 24 76 25 77
REMARK SMILES IDX 26 78 49 79 50 80 58 81 51 82 57 83 52 84 53 85 54 86 55 87
REMARK SMILES IDX 56 88 35 89 36 90 44 91 37 92 43 93 38 94 39 95 40 96 41 97
REMARK SMILES IDX 42 98
REMARK H PARENT 3 6 87 25 7 35 63 54 33 65
REMARK Flexibility Score: inf
ROOT
ATOM      1  C   UNL A   1      33.266  28.067  25.810  1.00  0.00     0.042 C 
ENDROOT
BRANCH   1   2
ATOM      2  C   UNL A   1      33.986  26.811  25.349  1.00  0.00     0.118 C 
BRANCH   2   3
ATOM      3  N   UNL A   1      34.103  26.720  23.903  1.00  0.00    -0.351 N 
ATOM      4  O   UNL A   1      33.686  25.822  21.864  1.00  0.00    -0.267 OA
ATOM      5  C   UNL A   1      33.690  25.701  23.083  1.00  0.00     0.272 C 
ATOM      6  H   UNL A   1      34.532  27.485  23.456  1.00  0.00     0.163 HD
BRANCH   5   7
ATOM      7  C   UNL A   1      33.149  24.441  23.677  1.00  0.00     0.163 C 
ATOM      8  N   UNL A   1      33.828  23.326  23.759  1.00  0.00    -0.158 NA
ATOM      9  C   UNL A   1      31.786  24.315  24.191  1.00  0.00     0.091 C 
ATOM     10  N   UNL A   1      32.939  22.390  24.298  1.00  0.00    -0.196 N 
ATOM     11  C   UNL A   1      31.699  22.928  24.679  1.00  0.00     0.282 C 
ATOM     12  C   UNL A   1      30.764  25.173  24.205  1.00  0.00     0.099 C 
ATOM     13  O   UNL A   1      30.726  22.430  25.218  1.00  0.00    -0.267 OA
BRANCH  10  14
ATOM     14  C   UNL A   1      33.258  21.017  24.177  1.00  0.00     0.069 A 
ATOM     15  C   UNL A   1      32.370  20.123  23.557  1.00  0.00     0.030 A 
ATOM     16  C   UNL A   1      34.419  20.502  24.774  1.00  0.00     0.030 A 
ATOM     17  C   UNL A   1      32.630  18.747  23.547  1.00  0.00     0.021 A 
ATOM     18  C   UNL A   1      34.673  19.129  24.795  1.00  0.00     0.021 A 
ATOM     19  C   UNL A   1      33.776  18.258  24.180  1.00  0.00     0.054 A 
BRANCH  19  20
ATOM     20  S   UNL A   1      34.041  16.511  24.265  1.00  0.00     0.124 S 
ATOM     21  O   UNL A   1      34.143  16.004  22.915  1.00  0.00    -0.237 OA
ATOM     22  O   UNL A   1      35.066  16.261  25.252  1.00  0.00    -0.237 OA
ATOM     23  O   UNL A   1      32.681  15.895  24.883  1.00  0.00    -0.744 OA
ENDBRANCH  19  20
ENDBRANCH  10  14
BRANCH  12  24
ATOM     24  N   UNL A   1      30.659  26.399  23.601  1.00  0.00    -0.361 N 
ATOM     25  H   UNL A   1      31.483  26.771  23.210  1.00  0.00     0.166 HD
BRANCH  24  26
ATOM     26  C   UNL A   1      29.499  27.177  23.481  1.00  0.00     0.038 A 
ATOM     27  C   UNL A   1      29.587  28.436  22.876  1.00  0.00     0.026 A 
ATOM     28  C   UNL A   1      28.241  26.714  23.886  1.00  0.00     0.026 A 
ATOM     29  C   UNL A   1      28.450  29.227  22.699  1.00  0.00     0.002 A 
ATOM     30  C   UNL A   1      27.106  27.514  23.734  1.00  0.00     0.002 A 
ATOM     31  C   UNL A   1      27.210  28.768  23.136  1.00  0.00     0.000 A 
ENDBRANCH  24  26
ENDBRANCH  12  24
ENDBRANCH   5   7
ENDBRANCH   2   3
ENDBRANCH   1   2
BRANCH   1  32
ATOM     32  C   UNL A   1      33.425  28.392  27.291  1.00  0.00     0.118 C 
BRANCH  32  33
ATOM     33  N   UNL A   1      33.402  29.818  27.582  1.00  0.00    -0.352 N 
ATOM     34  C   UNL A   1      34.383  30.637  28.093  1.00  0.00     0.251 C 
ATOM     35  H   UNL A   1      32.550  30.268  27.381  1.00  0.00     0.163 HD
ATOM     36  O   UNL A   1      34.102  31.802  28.370  1.00  0.00    -0.269 OA
BRANCH  34  37
ATOM     37  C   UNL A   1      35.750  30.128  28.347  1.00  0.00     0.039 A 
ATOM     38  C   UNL A   1      36.690  30.188  27.315  1.00  0.00     0.014 A 
ATOM     39  C   UNL A   1      36.115  29.582  29.580  1.00  0.00     0.014 A 
ATOM     40  C   UNL A   1      38.005  29.774  27.543  1.00  0.00     0.010 A 
ATOM     41  C   UNL A   1      37.447  29.259  29.836  1.00  0.00     0.010 A 
ATOM     42  C   UNL A   1      38.407  29.344  28.818  1.00  0.00    -0.014 A 
BRANCH  42  43
ATOM     43  C   UNL A   1      39.823  28.985  29.095  1.00  0.00     0.031 A 
ATOM     44  C   UNL A   1      40.754  29.980  29.739  1.00  0.00     0.074 A 
ATOM     45  C   UNL A   1      40.289  27.774  28.725  1.00  0.00     0.049 A 
ATOM     46  N   UNL A   1      42.019  29.843  30.049  1.00  0.00    -0.248 NA
ATOM     47  C   UNL A   1      40.203  31.309  30.048  1.00  0.00     0.031 C 
ATOM     48  C   UNL A   1      39.510  26.740  28.037  1.00  0.00     0.029 A 
ATOM     49  N   UNL A   1      41.528  27.206  28.878  1.00  0.00    -0.354 N 
ATOM     50  C   UNL A   1      42.417  31.069  30.571  1.00  0.00     0.074 A 
ATOM     51  C   UNL A   1      41.275  31.953  30.485  1.00  0.00     0.031 C 
ATOM     52  C   UNL A   1      40.278  25.652  27.865  1.00  0.00     0.029 A 
ATOM     53  C   UNL A   1      41.608  25.919  28.400  1.00  0.00     0.049 A 
ATOM     54  H   UNL A   1      42.289  27.676  29.290  1.00  0.00     0.167 HD
ATOM     55  C   UNL A   1      43.614  31.423  31.098  1.00  0.00     0.031 A 
ATOM     56  C   UNL A   1      42.634  25.045  28.401  1.00  0.00     0.031 A 
ATOM     57  C   UNL A   1      44.745  30.540  31.202  1.00  0.00     0.049 A 
ATOM     58  C   UNL A   1      43.941  25.449  29.024  1.00  0.00     0.074 A 
ATOM     59  C   UNL A   1      45.982  30.787  31.773  1.00  0.00     0.029 A 
ATOM     60  N   UNL A   1      44.776  29.237  30.732  1.00  0.00    -0.354 N 
ATOM     61  N   UNL A   1      44.276  26.593  29.572  1.00  0.00    -0.248 NA
ATOM     62  C   UNL A   1      45.003  24.433  29.046  1.00  0.00     0.031 C 
ATOM     63  C   UNL A   1      46.774  29.644  31.613  1.00  0.00     0.029 A 
ATOM     64  C   UNL A   1      46.013  28.670  30.988  1.00  0.00     0.049 A 
ATOM     65  H   UNL A   1      44.028  28.780  30.282  1.00  0.00     0.167 HD
ATOM     66  C   UNL A   1      45.578  26.426  30.026  1.00  0.00     0.074 A 
ATOM     67  C   UNL A   1      45.963  25.066  29.707  1.00  0.00     0.031 C 
ATOM     68  C   UNL A   1      46.385  27.319  30.654  1.00  0.00     0.031 A 
BRANCH  55  69
ATOM     69  C   UNL A   1      43.755  32.835  31.606  1.00  0.00    -0.014 A 
ATOM     70  C   UNL A   1      43.415  33.166  32.931  1.00  0.00     0.010 A 
ATOM     71  C   UNL A   1      44.258  33.839  30.759  1.00  0.00     0.010 A 
ATOM     72  C   UNL A   1      43.529  34.481  33.385  1.00  0.00     0.020 A 
ATOM     73  C   UNL A   1      44.400  35.152  31.218  1.00  0.00     0.020 A 
ATOM     74  C   UNL A   1      44.016  35.469  32.523  1.00  0.00     0.054 A 
BRANCH  74  75
ATOM     75  S   UNL A   1      44.167  37.167  33.141  1.00  0.00     0.124 S 
ATOM     76  O   UNL A   1      43.011  37.268  34.029  1.00  0.00    -0.237 OA
ATOM     77  O   UNL A   1      45.468  37.153  33.806  1.00  0.00    -0.237 OA
ATOM     78  O   UNL A   1      44.098  37.984  31.932  1.00  0.00    -0.744 OA
ENDBRANCH  74  75
ENDBRANCH  55  69
BRANCH  56  79
ATOM     79  C   UNL A   1      42.450  23.684  27.829  1.00  0.00    -0.014 A 
ATOM     80  C   UNL A   1      43.028  23.348  26.592  1.00  0.00     0.010 A 
ATOM     81  C   UNL A   1      41.708  22.712  28.525  1.00  0.00     0.010 A 
ATOM     82  C   UNL A   1      42.851  22.072  26.050  1.00  0.00     0.020 A 
ATOM     83  C   UNL A   1      41.552  21.427  27.999  1.00  0.00     0.020 A 
ATOM     84  C   UNL A   1      42.115  21.118  26.759  1.00  0.00     0.054 A 
BRANCH  84  85
ATOM     85  S   UNL A   1      41.945  19.450  26.066  1.00  0.00     0.124 S 
ATOM     86  O   UNL A   1      40.508  19.365  25.828  1.00  0.00    -0.237 OA
ATOM     87  O   UNL A   1      42.783  19.516  24.871  1.00  0.00    -0.237 OA
ATOM     88  O   UNL A   1      42.459  18.587  27.128  1.00  0.00    -0.744 OA
ENDBRANCH  84  85
ENDBRANCH  56  79
BRANCH  68  89
ATOM     89  C   UNL A   1      47.751  26.837  31.060  1.00  0.00    -0.014 A 
ATOM     90  C   UNL A   1      48.861  26.985  30.210  1.00  0.00     0.010 A 
ATOM     91  C   UNL A   1      47.927  26.234  32.319  1.00  0.00     0.010 A 
ATOM     92  C   UNL A   1      50.112  26.490  30.588  1.00  0.00     0.020 A 
ATOM     93  C   UNL A   1      49.182  25.763  32.712  1.00  0.00     0.020 A 
ATOM     94  C   UNL A   1      50.261  25.874  31.834  1.00  0.00     0.054 A 
BRANCH  94  95
ATOM     95  S   UNL A   1      51.895  25.241  32.308  1.00  0.00     0.124 S 
ATOM     96  O   UNL A   1      52.739  25.744  31.228  1.00  0.00    -0.237 OA
ATOM     97  O   UNL A   1      52.113  25.856  33.615  1.00  0.00    -0.237 OA
ATOM     98  O   UNL A   1      51.708  23.792  32.332  1.00  0.00    -0.744 OA
ENDBRANCH  94  95
ENDBRANCH  68  89
ENDBRANCH  42  43
ENDBRANCH  34  37
ENDBRANCH  32  33
ENDBRANCH   1  32
TORSDOF 17
ENDMDL
MODEL 2
REMARK VINA RESULT:     -12.5      3.097      3.882
REMARK SMILES O=C(NCCCNC(=O)c1ccc(-c2c3nc(c(-c4ccc(S(=O)(=O)[O-])cc4)c4ccc([nH]4)c(-c4ccc(S(=O)(=O)[O-])cc4)c4nc(c(-c5ccc(S(=O)(=O)[O-])cc5)c5ccc2[nH]5)C=C4)C=C3)cc1)C1=NN(c2ccc(S(=O)(=O)[O-])cc2)C(=O)/C1=C/Nc1ccccc1
REMARK SMILES IDX 5 1 4 2 3 3 1 4 2 5 70 7 71 8 85 9 72 10 83 11 86 12 84 13
REMARK SMILES IDX 73 14 74 15 82 16 75 17 81 18 76 19 77 20 78 21 79 22 80 23
REMARK SMILES IDX 87 24 88 26 89 27 93 28 90 29 92 30 91 31 6 32 7 33 8 34
REMARK SMILES IDX 9 36 10 37 11 38 69 39 12 40 68 41 13 42 14 43 15 44 62 45
REMARK SMILES IDX 16 46 67 47 61 48 63 49 17 50 66 51 60 52 59 53 18 55 48 56
REMARK SMILES IDX 29 57 47 58 30 59 33 60 46 61 64 62 31 63 32 64 45 66 65 67
REMARK SMILES IDX 34 68 19 69 20 70 28 71 21 72 27 73 22 74 23 75 24 76 25 77
REMARK SMILES IDX 26 78 49 79 50 80 58 81 51 82 57 83 52 84 53 85 54 86 55 87
REMARK SMILES IDX 56 88 35 89 36 90 44 91 37 92 43 93 38 94 39 95 40 96 41 97
REMARK SMILES IDX 42 98
REMARK H PARENT 3 6 87 25 7 35 63 54 33 65
REMARK Flexibility Score: inf
ROOT
ATOM      1  C   UNL A   1      34.131  30.137  27.300  1.00  0.00     0.042 C 
ENDROOT
BRANCH   1   2
ATOM      2  C   UNL A   1      33.775  28.903  26.487  1.00  0.00     0.118 C 
BRANCH   2   3
ATOM      3  N   UNL A   1      34.123  29.027  25.081  1.00  0.00    -0.351 N 
ATOM      4  O   UNL A   1      33.953  28.535  22.875  1.00  0.00    -0.267 OA
ATOM      5  C   UNL A   1      33.738  28.222  24.040  1.00  0.00     0.272 C 
ATOM      6  H   UNL A   1      34.708  29.784  24.847  1.00  0.00     0.163 HD
BRANCH   5   7
ATOM      7  C   UNL A   1      32.960  26.976  24.312  1.00  0.00     0.163 C 
ATOM      8  N   UNL A   1      33.506  25.796  24.459  1.00  0.00    -0.158 NA
ATOM      9  C   UNL A   1      31.501  26.941  24.399  1.00  0.00     0.091 C 
ATOM     10  N   UNL A   1      32.435  24.910  24.615  1.00  0.00    -0.196 N 
ATOM     11  C   UNL A   1      31.178  25.533  24.685  1.00  0.00     0.282 C 
ATOM     12  C   UNL A   1      30.582  27.892  24.217  1.00  0.00     0.099 C 
ATOM     13  O   UNL A   1      30.058  25.088  24.867  1.00  0.00    -0.267 OA
BRANCH  10  14
ATOM     14  C   UNL A   1      32.679  23.527  24.438  1.00  0.00     0.069 A 
ATOM     15  C   UNL A   1      32.233  22.858  23.287  1.00  0.00     0.030 A 
ATOM     16  C   UNL A   1      33.275  22.775  25.463  1.00  0.00     0.030 A 
ATOM     17  C   UNL A   1      32.366  21.469  23.170  1.00  0.00     0.021 A 
ATOM     18  C   UNL A   1      33.386  21.386  25.367  1.00  0.00     0.021 A 
ATOM     19  C   UNL A   1      32.931  20.740  24.219  1.00  0.00     0.054 A 
BRANCH  19  20
ATOM     20  S   UNL A   1      32.992  18.975  24.114  1.00  0.00     0.124 S 
ATOM     21  O   UNL A   1      32.288  18.569  22.919  1.00  0.00    -0.237 OA
ATOM     22  O   UNL A   1      34.350  18.558  24.378  1.00  0.00    -0.237 OA
ATOM     23  O   UNL A   1      32.121  18.435  25.363  1.00  0.00    -0.744 OA
ENDBRANCH  19  20
ENDBRANCH  10  14
BRANCH  12  24
ATOM     24  N   UNL A   1      30.744  29.169  23.748  1.00  0.00    -0.361 N 
ATOM     25  H   UNL A   1      31.645  29.558  23.829  1.00  0.00     0.166 HD
BRANCH  24  26
ATOM     26  C   UNL A   1      29.759  29.978  23.164  1.00  0.00     0.038 A 
ATOM     27  C   UNL A   1      29.344  31.134  23.837  1.00  0.00     0.026 A 
ATOM     28  C   UNL A   1      29.219  29.708  21.902  1.00  0.00     0.026 A 
ATOM     29  C   UNL A   1      28.397  31.990  23.273  1.00  0.00     0.002 A 
ATOM     30  C   UNL A   1      28.251  30.548  21.346  1.00  0.00     0.002 A 
ATOM     31  C   UNL A   1      27.844  31.691  22.031  1.00  0.00     0.000 A 
ENDBRANCH  24  26
ENDBRANCH  12  24
ENDBRANCH   5   7
ENDBRANCH   2   3
ENDBRANCH   1   2
BRANCH   1  32
ATOM     32  C   UNL A   1      35.520  30.115  27.927  1.00  0.00     0.118 C 
BRANCH  32  33
ATOM     33  N   UNL A   1      35.504  30.045  29.381  1.00  0.00    -0.352 N 
ATOM     34  C   UNL A   1      36.515  29.754  30.268  1.00  0.00     0.251 C 
ATOM     35  H   UNL A   1      34.632  30.237  29.795  1.00  0.00     0.163 HD
ATOM     36  O   UNL A   1      36.245  29.635  31.462  1.00  0.00    -0.269 OA
BRANCH  34  37
ATOM     37  C   UNL A   1      37.906  29.546  29.804  1.00  0.00     0.039 A 
ATOM     38  C   UNL A   1      38.881  29.195  30.742  1.00  0.00     0.014 A 
ATOM     39  C   UNL A   1      38.265  29.705  28.463  1.00  0.00     0.014 A 
ATOM     40  C   UNL A   1      40.188  28.931  30.325  1.00  0.00     0.010 A 
ATOM     41  C   UNL A   1      39.544  29.350  28.034  1.00  0.00     0.010 A 
ATOM     42  C   UNL A   1      40.523  28.966  28.961  1.00  0.00    -0.014 A 
BRANCH  42  43
ATOM     43  C   UNL A   1      41.888  28.602  28.497  1.00  0.00     0.031 A 
ATOM     44  C   UNL A   1      42.975  29.644  28.424  1.00  0.00     0.074 A 
ATOM     45  C   UNL A   1      42.142  27.340  28.096  1.00  0.00     0.049 A 
ATOM     46  N   UNL A   1      44.219  29.510  28.039  1.00  0.00    -0.248 NA
ATOM     47  C   UNL A   1      42.611  31.018  28.804  1.00  0.00     0.031 C 
ATOM     48  C   UNL A   1      41.164  26.249  28.057  1.00  0.00     0.029 A 
ATOM     49  N   UNL A   1      43.301  26.759  27.647  1.00  0.00    -0.354 N 
ATOM     50  C   UNL A   1      44.778  30.781  28.113  1.00  0.00     0.074 A 
ATOM     51  C   UNL A   1      43.725  31.681  28.527  1.00  0.00     0.031 C 
ATOM     52  C   UNL A   1      41.774  25.125  27.648  1.00  0.00     0.029 A 
ATOM     53  C   UNL A   1      43.174  25.418  27.367  1.00  0.00     0.049 A 
ATOM     54  H   UNL A   1      44.144  27.255  27.535  1.00  0.00     0.167 HD
ATOM     55  C   UNL A   1      46.058  31.165  27.883  1.00  0.00     0.031 A 
ATOM     56  C   UNL A   1      44.085  24.521  26.941  1.00  0.00     0.031 A 
ATOM     57  C   UNL A   1      47.112  30.269  27.490  1.00  0.00     0.049 A 
ATOM     58  C   UNL A   1      45.506  24.963  26.728  1.00  0.00     0.074 A 
ATOM     59  C   UNL A   1      48.453  30.550  27.290  1.00  0.00     0.029 A 
ATOM     60  N   UNL A   1      46.949  28.914  27.245  1.00  0.00    -0.354 N 
ATOM     61  N   UNL A   1      46.028  26.158  26.868  1.00  0.00    -0.248 NA
ATOM     62  C   UNL A   1      46.465  23.927  26.318  1.00  0.00     0.031 C 
ATOM     63  C   UNL A   1      49.092  29.372  26.886  1.00  0.00     0.029 A 
ATOM     64  C   UNL A   1      48.159  28.348  26.883  1.00  0.00     0.049 A 
ATOM     65  H   UNL A   1      46.096  28.426  27.317  1.00  0.00     0.167 HD
ATOM     66  C   UNL A   1      47.382  26.012  26.588  1.00  0.00     0.074 A 
ATOM     67  C   UNL A   1      47.600  24.611  26.291  1.00  0.00     0.031 C 
ATOM     68  C   UNL A   1      48.359  26.954  26.580  1.00  0.00     0.031 A 
BRANCH  55  69
ATOM     69  C   UNL A   1      46.383  32.626  28.057  1.00  0.00    -0.014 A 
ATOM     70  C   UNL A   1      46.783  33.136  29.307  1.00  0.00     0.010 A 
ATOM     71  C   UNL A   1      46.315  33.496  26.954  1.00  0.00     0.010 A 
ATOM     72  C   UNL A   1      47.061  34.495  29.461  1.00  0.00     0.020 A 
ATOM     73  C   UNL A   1      46.620  34.853  27.098  1.00  0.00     0.020 A 
ATOM     74  C   UNL A   1      46.973  35.348  28.356  1.00  0.00     0.054 A 
BRANCH  74  75
ATOM     75  S   UNL A   1      47.352  37.107  28.581  1.00  0.00     0.124 S 
ATOM     76  O   UNL A   1      48.546  37.052  29.421  1.00  0.00    -0.237 OA
ATOM     77  O   UNL A   1      47.570  37.566  27.212  1.00  0.00    -0.237 OA
ATOM     78  O   UNL A   1      46.157  37.639  29.231  1.00  0.00    -0.744 OA
ENDBRANCH  74  75
ENDBRANCH  55  69
BRANCH  56  79
ATOM     79  C   UNL A   1      43.687  23.103  26.730  1.00  0.00    -0.014 A 
ATOM     80  C   UNL A   1      44.037  22.436  25.542  1.00  0.00     0.010 A 
ATOM     81  C   UNL A   1      42.969  22.409  27.720  1.00  0.00     0.010 A 
ATOM     82  C   UNL A   1      43.658  21.105  25.340  1.00  0.00     0.020 A 
ATOM     83  C   UNL A   1      42.614  21.071  27.532  1.00  0.00     0.020 A 
ATOM     84  C   UNL A   1      42.951  20.430  26.337  1.00  0.00     0.054 A 
BRANCH  84  85
ATOM     85  S   UNL A   1      42.519  18.686  26.080  1.00  0.00     0.124 S 
ATOM     86  O   UNL A   1      43.448  18.297  25.024  1.00  0.00    -0.237 OA
ATOM     87  O   UNL A   1      42.772  18.100  27.394  1.00  0.00    -0.237 OA
ATOM     88  O   UNL A   1      41.111  18.738  25.691  1.00  0.00    -0.744 OA
ENDBRANCH  84  85
ENDBRANCH  56  79
BRANCH  68  89
ATOM     89  C   UNL A   1      49.754  26.488  26.266  1.00  0.00    -0.014 A 
ATOM     90  C   UNL A   1      50.561  25.883  27.247  1.00  0.00     0.010 A 
ATOM     91  C   UNL A   1      50.263  26.649  24.964  1.00  0.00     0.010 A 
ATOM     92  C   UNL A   1      51.869  25.498  26.946  1.00  0.00     0.020 A 
ATOM     93  C   UNL A   1      51.561  26.240  24.652  1.00  0.00     0.020 A 
ATOM     94  C   UNL A   1      52.364  25.687  25.652  1.00  0.00     0.054 A 
BRANCH  94  95
ATOM     95  S   UNL A   1      54.065  25.176  25.280  1.00  0.00     0.124 S 
ATOM     96  O   UNL A   1      54.753  25.488  26.529  1.00  0.00    -0.237 OA
ATOM     97  O   UNL A   1      53.918  23.754  24.981  1.00  0.00    -0.237 OA
ATOM     98  O   UNL A   1      54.433  26.012  24.139  1.00  0.00    -0.744 OA
ENDBRANCH  94  95
ENDBRANCH  68  89
ENDBRANCH  42  43
ENDBRANCH  34  37
ENDBRANCH  32  33
ENDBRANCH   1  32
TORSDOF 17
ENDMDL
MODEL 3
REMARK VINA RESULT:     -12.0      2.764      3.454
REMARK SMILES O=C(NCCCNC(=O)c1ccc(-c2c3nc(c(-c4ccc(S(=O)(=O)[O-])cc4)c4ccc([nH]4)c(-c4ccc(S(=O)(=O)[O-])cc4)c4nc(c(-c5ccc(S(=O)(=O)[O-])cc5)c5ccc2[nH]5)C=C4)C=C3)cc1)C1=NN(c2ccc(S(=O)(=O)[O-])cc2)C(=O)/C1=C/Nc1ccccc1
REMARK SMILES IDX 5 1 4 2 3 3 1 4 2 5 70 7 71 8 85 9 72 10 83 11 86 12 84 13
REMARK SMILES IDX 73 14 74 15 82 16 75 17 81 18 76 19 77 20 78 21 79 22 80 23
REMARK SMILES IDX 87 24 88 26 89 27 93 28 90 29 92 30 91 31 6 32 7 33 8 34
REMARK SMILES IDX 9 36 10 37 11 38 69 39 12 40 68 41 13 42 14 43 15 44 62 45
REMARK SMILES IDX 16 46 67 47 61 48 63 49 17 50 66 51 60 52 59 53 18 55 48 56
REMARK SMILES IDX 29 57 47 58 30 59 33 60 46 61 64 62 31 63 32 64 45 66 65 67
REMARK SMILES IDX 34 68 19 69 20 70 28 71 21 72 27 73 22 74 23 75 24 76 25 77
REMARK SMILES IDX 26 78 49 79 50 80 58 81 51 82 57 83 52 84 53 85 54 86 55 87
REMARK SMILES IDX 56 88 35 89 36 90 44 91 37 92 43 93 38 94 39 95 40 96 41 97
REMARK SMILES IDX 42 98
REMARK H PARENT 3 6 87 25 7 35 63 54 33 65
REMARK Flexibility Score: inf
ROOT
ATOM      1  C   UNL A   1      34.024  28.440  25.939  1.00  0.00     0.042 C 
ENDROOT
BRANCH   1   2
ATOM      2  C   UNL A   1      33.204  29.103  24.845  1.00  0.00     0.118 C 
BRANCH   2   3
ATOM      3  N   UNL A   1      33.760  28.905  23.516  1.00  0.00    -0.351 N 
ATOM      4  O   UNL A   1      33.957  27.873  21.508  1.00  0.00    -0.267 OA
ATOM      5  C   UNL A   1      33.578  27.839  22.672  1.00  0.00     0.272 C 
ATOM      6  H   UNL A   1      34.339  29.627  23.180  1.00  0.00     0.163 HD
BRANCH   5   7
ATOM      7  C   UNL A   1      32.824  26.639  23.143  1.00  0.00     0.163 C 
ATOM      8  N   UNL A   1      33.394  25.514  23.493  1.00  0.00    -0.158 NA
ATOM      9  C   UNL A   1      31.365  26.583  23.219  1.00  0.00     0.091 C 
ATOM     10  N   UNL A   1      32.341  24.641  23.786  1.00  0.00    -0.196 N 
ATOM     11  C   UNL A   1      31.070  25.236  23.736  1.00  0.00     0.282 C 
ATOM     12  C   UNL A   1      30.427  27.466  22.869  1.00  0.00     0.099 C 
ATOM     13  O   UNL A   1      29.958  24.801  23.978  1.00  0.00    -0.267 OA
BRANCH  10  14
ATOM     14  C   UNL A   1      32.619  23.255  23.848  1.00  0.00     0.069 A 
ATOM     15  C   UNL A   1      32.240  22.397  22.804  1.00  0.00     0.030 A 
ATOM     16  C   UNL A   1      33.180  22.695  25.007  1.00  0.00     0.030 A 
ATOM     17  C   UNL A   1      32.404  21.010  22.922  1.00  0.00     0.021 A 
ATOM     18  C   UNL A   1      33.321  21.312  25.144  1.00  0.00     0.021 A 
ATOM     19  C   UNL A   1      32.932  20.476  24.099  1.00  0.00     0.054 A 
BRANCH  19  20
ATOM     20  S   UNL A   1      33.030  18.721  24.287  1.00  0.00     0.124 S 
ATOM     21  O   UNL A   1      34.425  18.341  24.267  1.00  0.00    -0.237 OA
ATOM     22  O   UNL A   1      32.151  18.336  25.368  1.00  0.00    -0.237 OA
ATOM     23  O   UNL A   1      32.369  18.102  22.949  1.00  0.00    -0.744 OA
ENDBRANCH  19  20
ENDBRANCH  10  14
BRANCH  12  24
ATOM     24  N   UNL A   1      30.568  28.650  22.192  1.00  0.00    -0.361 N 
ATOM     25  H   UNL A   1      31.276  28.686  21.508  1.00  0.00     0.166 HD
BRANCH  24  26
ATOM     26  C   UNL A   1      29.807  29.813  22.374  1.00  0.00     0.038 A 
ATOM     27  C   UNL A   1      29.231  30.427  21.255  1.00  0.00     0.026 A 
ATOM     28  C   UNL A   1      29.548  30.349  23.640  1.00  0.00     0.026 A 
ATOM     29  C   UNL A   1      28.431  31.563  21.394  1.00  0.00     0.002 A 
ATOM     30  C   UNL A   1      28.770  31.501  23.781  1.00  0.00     0.002 A 
ATOM     31  C   UNL A   1      28.208  32.105  22.658  1.00  0.00     0.000 A 
ENDBRANCH  24  26
ENDBRANCH  12  24
ENDBRANCH   5   7
ENDBRANCH   2   3
ENDBRANCH   1   2
BRANCH   1  32
ATOM     32  C   UNL A   1      33.848  29.042  27.328  1.00  0.00     0.118 C 
BRANCH  32  33
ATOM     33  N   UNL A   1      33.697  30.489  27.323  1.00  0.00    -0.352 N 
ATOM     34  C   UNL A   1      34.451  31.464  27.935  1.00  0.00     0.251 C 
ATOM     35  H   UNL A   1      32.935  30.825  26.798  1.00  0.00     0.163 HD
ATOM     36  O   UNL A   1      34.067  32.631  27.891  1.00  0.00    -0.269 OA
BRANCH  34  37
ATOM     37  C   UNL A   1      35.690  31.124  28.673  1.00  0.00     0.039 A 
ATOM     38  C   UNL A   1      35.642  30.106  29.630  1.00  0.00     0.014 A 
ATOM     39  C   UNL A   1      36.891  31.799  28.444  1.00  0.00     0.014 A 
ATOM     40  C   UNL A   1      36.808  29.719  30.296  1.00  0.00     0.010 A 
ATOM     41  C   UNL A   1      38.071  31.350  29.038  1.00  0.00     0.010 A 
ATOM     42  C   UNL A   1      38.042  30.309  29.977  1.00  0.00    -0.014 A 
BRANCH  42  43
ATOM     43  C   UNL A   1      39.302  29.845  30.617  1.00  0.00     0.031 A 
ATOM     44  C   UNL A   1      39.811  30.505  31.873  1.00  0.00     0.074 A 
ATOM     45  C   UNL A   1      40.018  28.858  30.041  1.00  0.00     0.049 A 
ATOM     46  N   UNL A   1      40.890  30.238  32.564  1.00  0.00    -0.248 NA
ATOM     47  C   UNL A   1      39.022  31.627  32.406  1.00  0.00     0.031 C 
ATOM     48  C   UNL A   1      39.671  28.177  28.791  1.00  0.00     0.029 A 
ATOM     49  N   UNL A   1      41.184  28.252  30.434  1.00  0.00    -0.354 N 
ATOM     50  C   UNL A   1      40.918  31.166  33.598  1.00  0.00     0.074 A 
ATOM     51  C   UNL A   1      39.779  32.037  33.413  1.00  0.00     0.031 C 
ATOM     52  C   UNL A   1      40.582  27.222  28.542  1.00  0.00     0.029 A 
ATOM     53  C   UNL A   1      41.591  27.241  29.595  1.00  0.00     0.049 A 
ATOM     54  H   UNL A   1      41.684  28.516  31.241  1.00  0.00     0.167 HD
ATOM     55  C   UNL A   1      41.797  31.273  34.625  1.00  0.00     0.031 A 
ATOM     56  C   UNL A   1      42.652  26.414  29.668  1.00  0.00     0.031 A 
ATOM     57  C   UNL A   1      42.920  30.396  34.823  1.00  0.00     0.049 A 
ATOM     58  C   UNL A   1      43.592  26.528  30.836  1.00  0.00     0.074 A 
ATOM     59  C   UNL A   1      43.833  30.385  35.863  1.00  0.00     0.029 A 
ATOM     60  N   UNL A   1      43.281  29.368  33.966  1.00  0.00    -0.354 N 
ATOM     61  N   UNL A   1      43.563  27.372  31.839  1.00  0.00    -0.248 NA
ATOM     62  C   UNL A   1      44.698  25.561  30.889  1.00  0.00     0.031 C 
ATOM     63  C   UNL A   1      44.769  29.374  35.614  1.00  0.00     0.029 A 
ATOM     64  C   UNL A   1      44.408  28.724  34.446  1.00  0.00     0.049 A 
ATOM     65  H   UNL A   1      42.804  29.130  33.137  1.00  0.00     0.167 HD
ATOM     66  C   UNL A   1      44.631  27.021  32.657  1.00  0.00     0.074 A 
ATOM     67  C   UNL A   1      45.273  25.878  32.041  1.00  0.00     0.031 C 
ATOM     68  C   UNL A   1      45.043  27.594  33.816  1.00  0.00     0.031 A 
BRANCH  55  69
ATOM     69  C   UNL A   1      41.569  32.384  35.618  1.00  0.00    -0.014 A 
ATOM     70  C   UNL A   1      40.834  32.161  36.798  1.00  0.00     0.010 A 
ATOM     71  C   UNL A   1      42.116  33.658  35.384  1.00  0.00     0.010 A 
ATOM     72  C   UNL A   1      40.610  33.203  37.700  1.00  0.00     0.020 A 
ATOM     73  C   UNL A   1      41.918  34.697  36.299  1.00  0.00     0.020 A 
ATOM     74  C   UNL A   1      41.149  34.467  37.443  1.00  0.00     0.054 A 
BRANCH  74  75
ATOM     75  S   UNL A   1      40.855  35.799  38.638  1.00  0.00     0.124 S 
ATOM     76  O   UNL A   1      42.211  36.107  39.084  1.00  0.00    -0.237 OA
ATOM     77  O   UNL A   1      40.215  36.828  37.821  1.00  0.00    -0.237 OA
ATOM     78  O   UNL A   1      39.993  35.181  39.642  1.00  0.00    -0.744 OA
ENDBRANCH  74  75
ENDBRANCH  55  69
BRANCH  56  79
ATOM     79  C   UNL A   1      42.857  25.375  28.622  1.00  0.00    -0.014 A 
ATOM     80  C   UNL A   1      42.256  24.110  28.750  1.00  0.00     0.010 A 
ATOM     81  C   UNL A   1      43.641  25.651  27.487  1.00  0.00     0.010 A 
ATOM     82  C   UNL A   1      42.452  23.131  27.771  1.00  0.00     0.020 A 
ATOM     83  C   UNL A   1      43.815  24.683  26.494  1.00  0.00     0.020 A 
ATOM     84  C   UNL A   1      43.229  23.425  26.648  1.00  0.00     0.054 A 
BRANCH  84  85
ATOM     85  S   UNL A   1      43.423  22.160  25.361  1.00  0.00     0.124 S 
ATOM     86  O   UNL A   1      42.249  21.322  25.579  1.00  0.00    -0.237 OA
ATOM     87  O   UNL A   1      43.417  22.953  24.135  1.00  0.00    -0.237 OA
ATOM     88  O   UNL A   1      44.707  21.540  25.685  1.00  0.00    -0.744 OA
ENDBRANCH  84  85
ENDBRANCH  56  79
BRANCH  68  89
ATOM     89  C   UNL A   1      46.226  26.970  34.503  1.00  0.00    -0.014 A 
ATOM     90  C   UNL A   1      47.529  27.461  34.307  1.00  0.00     0.010 A 
ATOM     91  C   UNL A   1      46.028  25.878  35.368  1.00  0.00     0.010 A 
ATOM     92  C   UNL A   1      48.619  26.838  34.920  1.00  0.00     0.020 A 
ATOM     93  C   UNL A   1      47.113  25.270  36.005  1.00  0.00     0.020 A 
ATOM     94  C   UNL A   1      48.404  25.741  35.758  1.00  0.00     0.054 A 
BRANCH  94  95
ATOM     95  S   UNL A   1      49.832  24.947  36.548  1.00  0.00     0.124 S 
ATOM     96  O   UNL A   1      50.828  26.015  36.513  1.00  0.00    -0.237 OA
ATOM     97  O   UNL A   1      49.321  24.607  37.874  1.00  0.00    -0.237 OA
ATOM     98  O   UNL A   1      50.113  23.804  35.683  1.00  0.00    -0.744 OA
ENDBRANCH  94  95
ENDBRANCH  68  89
ENDBRANCH  42  43
ENDBRANCH  34  37
ENDBRANCH  32  33
ENDBRANCH   1  32
TORSDOF 17
ENDMDL
