MODEL 1
REMARK VINA RESULT:     -13.2      0.000      0.000
REMARK SMILES O=C1CCCC2=C1[C@H](c1ccc([N+](=O)[O-])cc1)CC(=O)N2c1ccccc1C(=O)NCCCNC(=O)c1ccc(-c2c3nc(c(-c4ccc(S(=O)(=O)[O-])cc4)c4ccc([nH]4)c(-c4ccc(S(=O)(=O)[O-])cc4)c4nc(c(-c5ccc(S(=O)(=O)[O-])cc5)c5ccc2[nH]5)C=C4)C=C3)cc1
REMARK SMILES IDX 32 1 31 2 30 3 28 4 29 5 27 7 22 8 23 9 24 10 26 11 25 12
REMARK SMILES IDX 21 13 1 14 2 15 3 16 7 17 4 18 6 19 8 20 5 21 18 22 19 23
REMARK SMILES IDX 20 24 9 25 10 26 17 27 11 28 16 29 12 30 13 31 14 32 15 33
REMARK SMILES IDX 33 34 34 35 35 36 36 38 37 39 38 40 96 41 39 42 95 43 40 44
REMARK SMILES IDX 41 45 42 46 89 47 43 48 94 49 88 50 90 51 44 52 93 53 87 54
REMARK SMILES IDX 86 55 45 57 75 58 56 59 74 60 57 61 60 62 73 63 91 64 58 65
REMARK SMILES IDX 59 66 72 68 92 69 61 70 46 71 47 72 55 73 48 74 54 75 49 76
REMARK SMILES IDX 50 77 51 78 52 79 53 80 76 81 77 82 85 83 78 84 84 85 79 86
REMARK SMILES IDX 80 87 81 88 82 89 83 90 62 91 63 92 71 93 64 94 70 95 65 96
REMARK SMILES IDX 66 97 67 98 68 99 69 100
REMARK H PARENT 30 6 34 37 90 56 60 67
REMARK Flexibility Score: inf
ROOT
ATOM      1  C   UNL A   1      39.319  22.260  26.497  1.00  0.00     0.042 C 
ENDROOT
BRANCH   1   2
ATOM      2  C   UNL A   1      38.025  21.924  25.743  1.00  0.00     0.118 C 
BRANCH   2   3
ATOM      3  N   UNL A   1      37.130  23.036  25.498  1.00  0.00    -0.352 N 
ATOM      4  C   UNL A   1      35.788  23.212  25.255  1.00  0.00     0.253 C 
ATOM      5  O   UNL A   1      35.484  24.416  25.337  1.00  0.00    -0.269 OA
ATOM      6  H   UNL A   1      37.610  23.896  25.509  1.00  0.00     0.163 HD
BRANCH   4   7
ATOM      7  C   UNL A   1      34.650  22.244  24.926  1.00  0.00     0.063 A 
ATOM      8  C   UNL A   1      33.287  22.377  24.569  1.00  0.00     0.061 A 
ATOM      9  C   UNL A   1      32.504  21.204  24.313  1.00  0.00     0.027 A 
ATOM     10  C   UNL A   1      32.989  19.914  24.453  1.00  0.00     0.002 A 
ATOM     11  C   UNL A   1      35.095  20.886  25.060  1.00  0.00     0.016 A 
ATOM     12  C   UNL A   1      34.296  19.754  24.841  1.00  0.00     0.001 A 
BRANCH   8  13
ATOM     13  N   UNL A   1      32.509  23.572  24.422  1.00  0.00    -0.284 N 
ATOM     14  O   UNL A   1      31.040  27.291  21.918  1.00  0.00    -0.294 OA
ATOM     15  C   UNL A   1      31.768  26.301  21.997  1.00  0.00     0.161 C 
ATOM     16  C   UNL A   1      32.663  25.878  20.850  1.00  0.00     0.081 C 
ATOM     17  C   UNL A   1      31.824  25.517  23.265  1.00  0.00     0.023 C 
ATOM     18  C   UNL A   1      32.628  24.377  20.662  1.00  0.00     0.015 C 
ATOM     19  C   UNL A   1      32.393  24.289  23.226  1.00  0.00     0.033 C 
ATOM     20  C   UNL A   1      31.146  26.071  24.525  1.00  0.00     0.064 C 
ATOM     21  C   UNL A   1      32.910  23.627  21.959  1.00  0.00     0.055 C 
ATOM     22  C   UNL A   1      30.571  24.872  25.257  1.00  0.00     0.114 C 
ATOM     23  C   UNL A   1      31.683  23.887  25.535  1.00  0.00     0.232 C 
ATOM     24  O   UNL A   1      31.772  23.369  26.650  1.00  0.00    -0.274 OA
BRANCH  20  25
ATOM     25  C   UNL A   1      32.021  26.945  25.440  1.00  0.00    -0.039 A 
ATOM     26  C   UNL A   1      33.421  27.143  25.304  1.00  0.00     0.011 A 
ATOM     27  C   UNL A   1      31.406  27.582  26.506  1.00  0.00     0.011 A 
ATOM     28  C   UNL A   1      34.138  28.077  26.073  1.00  0.00     0.086 A 
ATOM     29  C   UNL A   1      32.128  28.490  27.278  1.00  0.00     0.086 A 
ATOM     30  C   UNL A   1      33.455  28.799  27.028  1.00  0.00     0.269 A 
BRANCH  30  31
ATOM     31  N   UNL A   1      34.034  29.999  27.634  1.00  0.00     0.062 N 
ATOM     32  O   UNL A   1      35.194  29.931  28.053  1.00  0.00    -0.258 OA
ATOM     33  O   UNL A   1      33.340  31.030  27.615  1.00  0.00    -0.258 OA
ENDBRANCH  30  31
ENDBRANCH  20  25
ENDBRANCH   8  13
ENDBRANCH   4   7
ENDBRANCH   2   3
ENDBRANCH   1   2
BRANCH   1  34
ATOM     34  C   UNL A   1      39.611  23.684  27.039  1.00  0.00     0.118 C 
BRANCH  34  35
ATOM     35  N   UNL A   1      40.167  24.730  26.166  1.00  0.00    -0.352 N 
ATOM     36  C   UNL A   1      40.634  26.031  26.299  1.00  0.00     0.251 C 
ATOM     37  H   UNL A   1      40.223  24.423  25.232  1.00  0.00     0.163 HD
ATOM     38  O   UNL A   1      41.277  26.481  25.346  1.00  0.00    -0.269 OA
BRANCH  36  39
ATOM     39  C   UNL A   1      40.361  26.950  27.445  1.00  0.00     0.039 A 
ATOM     40  C   UNL A   1      39.662  26.459  28.575  1.00  0.00     0.014 A 
ATOM     41  C   UNL A   1      40.842  28.247  27.505  1.00  0.00     0.014 A 
ATOM     42  C   UNL A   1      39.549  27.211  29.775  1.00  0.00     0.010 A 
ATOM     43  C   UNL A   1      40.826  28.938  28.734  1.00  0.00     0.010 A 
ATOM     44  C   UNL A   1      40.166  28.464  29.897  1.00  0.00    -0.014 A 
BRANCH  44  45
ATOM     45  C   UNL A   1      40.068  29.359  31.124  1.00  0.00     0.031 A 
ATOM     46  C   UNL A   1      41.117  29.184  32.218  1.00  0.00     0.074 A 
ATOM     47  C   UNL A   1      39.075  30.249  31.385  1.00  0.00     0.049 A 
ATOM     48  N   UNL A   1      41.119  29.603  33.461  1.00  0.00    -0.248 NA
ATOM     49  C   UNL A   1      42.263  28.321  31.891  1.00  0.00     0.031 C 
ATOM     50  C   UNL A   1      37.916  30.547  30.541  1.00  0.00     0.029 A 
ATOM     51  N   UNL A   1      38.878  31.069  32.486  1.00  0.00    -0.354 N 
ATOM     52  C   UNL A   1      42.192  28.953  34.062  1.00  0.00     0.074 A 
ATOM     53  C   UNL A   1      42.692  28.001  33.099  1.00  0.00     0.031 C 
ATOM     54  C   UNL A   1      37.158  31.493  31.136  1.00  0.00     0.029 A 
ATOM     55  C   UNL A   1      37.751  31.864  32.422  1.00  0.00     0.049 A 
ATOM     56  H   UNL A   1      39.495  31.084  33.254  1.00  0.00     0.167 HD
ATOM     57  C   UNL A   1      42.802  29.172  35.251  1.00  0.00     0.031 A 
ATOM     58  C   UNL A   1      37.257  32.791  33.280  1.00  0.00     0.031 A 
ATOM     59  C   UNL A   1      42.439  30.217  36.164  1.00  0.00     0.049 A 
ATOM     60  C   UNL A   1      37.993  33.111  34.567  1.00  0.00     0.074 A 
ATOM     61  C   UNL A   1      43.077  30.601  37.330  1.00  0.00     0.029 A 
ATOM     62  N   UNL A   1      41.370  31.077  35.985  1.00  0.00    -0.354 N 
ATOM     63  N   UNL A   1      39.058  32.541  35.078  1.00  0.00    -0.248 NA
ATOM     64  C   UNL A   1      37.474  34.228  35.379  1.00  0.00     0.031 C 
ATOM     65  C   UNL A   1      42.378  31.685  37.872  1.00  0.00     0.029 A 
ATOM     66  C   UNL A   1      41.337  32.002  37.013  1.00  0.00     0.049 A 
ATOM     67  H   UNL A   1      40.729  31.035  35.240  1.00  0.00     0.167 HD
ATOM     68  C   UNL A   1      39.364  33.262  36.233  1.00  0.00     0.074 A 
ATOM     69  C   UNL A   1      38.377  34.311  36.348  1.00  0.00     0.031 C 
ATOM     70  C   UNL A   1      40.380  33.073  37.111  1.00  0.00     0.031 A 
BRANCH  57  71
ATOM     71  C   UNL A   1      43.992  28.303  35.578  1.00  0.00    -0.014 A 
ATOM     72  C   UNL A   1      45.281  28.645  35.119  1.00  0.00     0.010 A 
ATOM     73  C   UNL A   1      43.823  27.121  36.318  1.00  0.00     0.010 A 
ATOM     74  C   UNL A   1      46.352  27.771  35.298  1.00  0.00     0.020 A 
ATOM     75  C   UNL A   1      44.908  26.269  36.548  1.00  0.00     0.020 A 
ATOM     76  C   UNL A   1      46.157  26.584  36.007  1.00  0.00     0.054 A 
BRANCH  76  77
ATOM     77  S   UNL A   1      47.568  25.467  36.220  1.00  0.00     0.124 S 
ATOM     78  O   UNL A   1      47.549  25.233  37.661  1.00  0.00    -0.237 OA
ATOM     79  O   UNL A   1      47.197  24.321  35.394  1.00  0.00    -0.237 OA
ATOM     80  O   UNL A   1      48.702  26.245  35.728  1.00  0.00    -0.744 OA
ENDBRANCH  76  77
ENDBRANCH  57  71
BRANCH  58  81
ATOM     81  C   UNL A   1      36.022  33.570  32.939  1.00  0.00    -0.014 A 
ATOM     82  C   UNL A   1      36.126  34.843  32.343  1.00  0.00     0.010 A 
ATOM     83  C   UNL A   1      34.741  33.076  33.245  1.00  0.00     0.010 A 
ATOM     84  C   UNL A   1      34.986  35.609  32.074  1.00  0.00     0.020 A 
ATOM     85  C   UNL A   1      33.593  33.828  32.952  1.00  0.00     0.020 A 
ATOM     86  C   UNL A   1      33.722  35.093  32.374  1.00  0.00     0.054 A 
BRANCH  86  87
ATOM     87  S   UNL A   1      32.254  36.075  31.946  1.00  0.00     0.124 S 
ATOM     88  O   UNL A   1      32.272  36.040  30.487  1.00  0.00    -0.237 OA
ATOM     89  O   UNL A   1      31.176  35.323  32.584  1.00  0.00    -0.237 OA
ATOM     90  O   UNL A   1      32.530  37.380  32.544  1.00  0.00    -0.744 OA
ENDBRANCH  86  87
ENDBRANCH  58  81
BRANCH  70  91
ATOM     91  C   UNL A   1      40.558  34.063  38.235  1.00  0.00    -0.014 A 
ATOM     92  C   UNL A   1      41.339  35.222  38.091  1.00  0.00     0.010 A 
ATOM     93  C   UNL A   1      39.856  33.863  39.441  1.00  0.00     0.010 A 
ATOM     94  C   UNL A   1      41.445  36.141  39.142  1.00  0.00     0.020 A 
ATOM     95  C   UNL A   1      39.936  34.790  40.482  1.00  0.00     0.020 A 
ATOM     96  C   UNL A   1      40.744  35.918  40.332  1.00  0.00     0.054 A 
BRANCH  96  97
ATOM     97  S   UNL A   1      40.874  37.136  41.670  1.00  0.00     0.124 S 
ATOM     98  O   UNL A   1      42.006  36.625  42.439  1.00  0.00    -0.237 OA
ATOM     99  O   UNL A   1      41.117  38.383  40.947  1.00  0.00    -0.237 OA
ATOM    100  O   UNL A   1      39.579  37.055  42.341  1.00  0.00    -0.744 OA
ENDBRANCH  96  97
ENDBRANCH  70  91
ENDBRANCH  44  45
ENDBRANCH  36  39
ENDBRANCH  34  35
ENDBRANCH   1  34
TORSDOF 16
ENDMDL
MODEL 2
REMARK VINA RESULT:     -12.8      6.013     11.933
REMARK SMILES O=C1CCCC2=C1[C@H](c1ccc([N+](=O)[O-])cc1)CC(=O)N2c1ccccc1C(=O)NCCCNC(=O)c1ccc(-c2c3nc(c(-c4ccc(S(=O)(=O)[O-])cc4)c4ccc([nH]4)c(-c4ccc(S(=O)(=O)[O-])cc4)c4nc(c(-c5ccc(S(=O)(=O)[O-])cc5)c5ccc2[nH]5)C=C4)C=C3)cc1
REMARK SMILES IDX 32 1 31 2 30 3 28 4 29 5 27 7 22 8 23 9 24 10 26 11 25 12
REMARK SMILES IDX 21 13 1 14 2 15 3 16 7 17 4 18 6 19 8 20 5 21 18 22 19 23
REMARK SMILES IDX 20 24 9 25 10 26 17 27 11 28 16 29 12 30 13 31 14 32 15 33
REMARK SMILES IDX 33 34 34 35 35 36 36 38 37 39 38 40 96 41 39 42 95 43 40 44
REMARK SMILES IDX 41 45 42 46 89 47 43 48 94 49 88 50 90 51 44 52 93 53 87 54
REMARK SMILES IDX 86 55 45 57 75 58 56 59 74 60 57 61 60 62 73 63 91 64 58 65
REMARK SMILES IDX 59 66 72 68 92 69 61 70 46 71 47 72 55 73 48 74 54 75 49 76
REMARK SMILES IDX 50 77 51 78 52 79 53 80 76 81 77 82 85 83 78 84 84 85 79 86
REMARK SMILES IDX 80 87 81 88 82 89 83 90 62 91 63 92 71 93 64 94 70 95 65 96
REMARK SMILES IDX 66 97 67 98 68 99 69 100
REMARK H PARENT 30 6 34 37 90 56 60 67
REMARK Flexibility Score: inf
ROOT
ATOM      1  C   UNL A   1      35.149  30.440  27.448  1.00  0.00     0.042 C 
ENDROOT
BRANCH   1   2
ATOM      2  C   UNL A   1      33.909  29.735  26.879  1.00  0.00     0.118 C 
BRANCH   2   3
ATOM      3  N   UNL A   1      34.019  28.300  26.713  1.00  0.00    -0.352 N 
ATOM      4  C   UNL A   1      33.625  27.363  25.787  1.00  0.00     0.253 C 
ATOM      5  O   UNL A   1      34.176  26.270  26.013  1.00  0.00    -0.269 OA
ATOM      6  H   UNL A   1      34.505  27.886  27.462  1.00  0.00     0.163 HD
BRANCH   4   7
ATOM      7  C   UNL A   1      32.685  27.415  24.581  1.00  0.00     0.063 A 
ATOM      8  C   UNL A   1      32.126  26.460  23.699  1.00  0.00     0.061 A 
ATOM      9  C   UNL A   1      31.244  26.892  22.655  1.00  0.00     0.027 A 
ATOM     10  C   UNL A   1      30.942  28.221  22.408  1.00  0.00     0.002 A 
ATOM     11  C   UNL A   1      32.341  28.774  24.275  1.00  0.00     0.016 A 
ATOM     12  C   UNL A   1      31.505  29.173  23.222  1.00  0.00     0.001 A 
BRANCH   8  13
ATOM     13  N   UNL A   1      32.319  25.040  23.671  1.00  0.00    -0.284 N 
ATOM     14  O   UNL A   1      31.679  20.726  25.470  1.00  0.00    -0.294 OA
ATOM     15  C   UNL A   1      31.517  21.941  25.578  1.00  0.00     0.161 C 
ATOM     16  C   UNL A   1      30.745  22.542  26.735  1.00  0.00     0.081 C 
ATOM     17  C   UNL A   1      32.134  22.866  24.583  1.00  0.00     0.023 C 
ATOM     18  C   UNL A   1      29.833  23.652  26.259  1.00  0.00     0.015 C 
ATOM     19  C   UNL A   1      31.702  24.149  24.557  1.00  0.00     0.033 C 
ATOM     20  C   UNL A   1      33.141  22.315  23.565  1.00  0.00     0.064 C 
ATOM     21  C   UNL A   1      30.575  24.689  25.422  1.00  0.00     0.055 C 
ATOM     22  C   UNL A   1      32.896  23.076  22.275  1.00  0.00     0.114 C 
ATOM     23  C   UNL A   1      33.036  24.557  22.544  1.00  0.00     0.232 C 
ATOM     24  O   UNL A   1      33.680  25.260  21.762  1.00  0.00    -0.274 OA
BRANCH  20  25
ATOM     25  C   UNL A   1      34.621  22.347  23.985  1.00  0.00    -0.039 A 
ATOM     26  C   UNL A   1      35.551  23.370  23.662  1.00  0.00     0.011 A 
ATOM     27  C   UNL A   1      35.104  21.281  24.727  1.00  0.00     0.011 A 
ATOM     28  C   UNL A   1      36.846  23.424  24.207  1.00  0.00     0.086 A 
ATOM     29  C   UNL A   1      36.396  21.330  25.246  1.00  0.00     0.086 A 
ATOM     30  C   UNL A   1      37.239  22.415  25.060  1.00  0.00     0.269 A 
BRANCH  30  31
ATOM     31  N   UNL A   1      38.419  22.555  25.915  1.00  0.00     0.062 N 
ATOM     32  O   UNL A   1      38.602  23.644  26.470  1.00  0.00    -0.258 OA
ATOM     33  O   UNL A   1      39.116  21.540  26.085  1.00  0.00    -0.258 OA
ENDBRANCH  30  31
ENDBRANCH  20  25
ENDBRANCH   8  13
ENDBRANCH   4   7
ENDBRANCH   2   3
ENDBRANCH   1   2
BRANCH   1  34
ATOM     34  C   UNL A   1      35.049  31.501  28.575  1.00  0.00     0.118 C 
BRANCH  34  35
ATOM     35  N   UNL A   1      35.255  31.132  29.986  1.00  0.00    -0.352 N 
ATOM     36  C   UNL A   1      36.326  30.849  30.822  1.00  0.00     0.251 C 
ATOM     37  H   UNL A   1      34.398  31.072  30.467  1.00  0.00     0.163 HD
ATOM     38  O   UNL A   1      36.088  30.845  32.034  1.00  0.00    -0.269 OA
BRANCH  36  39
ATOM     39  C   UNL A   1      37.705  30.471  30.388  1.00  0.00     0.039 A 
ATOM     40  C   UNL A   1      38.519  29.706  31.258  1.00  0.00     0.014 A 
ATOM     41  C   UNL A   1      38.203  30.750  29.126  1.00  0.00     0.014 A 
ATOM     42  C   UNL A   1      39.752  29.141  30.832  1.00  0.00     0.010 A 
ATOM     43  C   UNL A   1      39.366  30.091  28.677  1.00  0.00     0.010 A 
ATOM     44  C   UNL A   1      40.190  29.290  29.509  1.00  0.00    -0.014 A 
BRANCH  44  45
ATOM     45  C   UNL A   1      41.511  28.758  28.972  1.00  0.00     0.031 A 
ATOM     46  C   UNL A   1      42.668  29.742  28.825  1.00  0.00     0.074 A 
ATOM     47  C   UNL A   1      41.738  27.497  28.520  1.00  0.00     0.049 A 
ATOM     48  N   UNL A   1      43.789  29.634  28.154  1.00  0.00    -0.248 NA
ATOM     49  C   UNL A   1      42.474  31.071  29.428  1.00  0.00     0.031 C 
ATOM     50  C   UNL A   1      40.780  26.391  28.477  1.00  0.00     0.029 A 
ATOM     51  N   UNL A   1      42.885  26.937  27.976  1.00  0.00    -0.354 N 
ATOM     52  C   UNL A   1      44.346  30.908  28.169  1.00  0.00     0.074 A 
ATOM     53  C   UNL A   1      43.363  31.784  28.760  1.00  0.00     0.031 C 
ATOM     54  C   UNL A   1      41.381  25.294  27.970  1.00  0.00     0.029 A 
ATOM     55  C   UNL A   1      42.768  25.607  27.623  1.00  0.00     0.049 A 
ATOM     56  H   UNL A   1      43.718  27.448  27.853  1.00  0.00     0.167 HD
ATOM     57  C   UNL A   1      45.590  31.331  27.837  1.00  0.00     0.031 A 
ATOM     58  C   UNL A   1      43.666  24.737  27.097  1.00  0.00     0.031 A 
ATOM     59  C   UNL A   1      46.647  30.465  27.404  1.00  0.00     0.049 A 
ATOM     60  C   UNL A   1      45.089  25.182  26.818  1.00  0.00     0.074 A 
ATOM     61  C   UNL A   1      47.975  30.779  27.170  1.00  0.00     0.029 A 
ATOM     62  N   UNL A   1      46.509  29.106  27.189  1.00  0.00    -0.354 N 
ATOM     63  N   UNL A   1      45.621  26.376  26.920  1.00  0.00    -0.248 NA
ATOM     64  C   UNL A   1      46.044  24.145  26.382  1.00  0.00     0.031 C 
ATOM     65  C   UNL A   1      48.637  29.607  26.789  1.00  0.00     0.029 A 
ATOM     66  C   UNL A   1      47.730  28.560  26.838  1.00  0.00     0.049 A 
ATOM     67  H   UNL A   1      45.667  28.603  27.272  1.00  0.00     0.167 HD
ATOM     68  C   UNL A   1      46.974  26.222  26.617  1.00  0.00     0.074 A 
ATOM     69  C   UNL A   1      47.184  24.822  26.329  1.00  0.00     0.031 C 
ATOM     70  C   UNL A   1      47.953  27.161  26.589  1.00  0.00     0.031 A 
BRANCH  57  71
ATOM     71  C   UNL A   1      45.884  32.800  28.026  1.00  0.00    -0.014 A 
ATOM     72  C   UNL A   1      46.305  33.295  29.276  1.00  0.00     0.010 A 
ATOM     73  C   UNL A   1      45.707  33.699  26.961  1.00  0.00     0.010 A 
ATOM     74  C   UNL A   1      46.439  34.667  29.487  1.00  0.00     0.020 A 
ATOM     75  C   UNL A   1      45.894  35.071  27.154  1.00  0.00     0.020 A 
ATOM     76  C   UNL A   1      46.225  35.547  28.425  1.00  0.00     0.054 A 
BRANCH  76  77
ATOM     77  S   UNL A   1      46.402  37.324  28.732  1.00  0.00     0.124 S 
ATOM     78  O   UNL A   1      47.801  37.420  29.141  1.00  0.00    -0.237 OA
ATOM     79  O   UNL A   1      46.089  37.907  27.430  1.00  0.00    -0.237 OA
ATOM     80  O   UNL A   1      45.425  37.593  29.783  1.00  0.00    -0.744 OA
ENDBRANCH  76  77
ENDBRANCH  57  71
BRANCH  58  81
ATOM     81  C   UNL A   1      43.294  23.305  26.855  1.00  0.00    -0.014 A 
ATOM     82  C   UNL A   1      42.911  22.479  27.931  1.00  0.00     0.010 A 
ATOM     83  C   UNL A   1      43.360  22.742  25.568  1.00  0.00     0.010 A 
ATOM     84  C   UNL A   1      42.619  21.124  27.732  1.00  0.00     0.020 A 
ATOM     85  C   UNL A   1      43.042  21.391  25.358  1.00  0.00     0.020 A 
ATOM     86  C   UNL A   1      42.679  20.588  26.442  1.00  0.00     0.054 A 
BRANCH  86  87
ATOM     87  S   UNL A   1      42.223  18.846  26.198  1.00  0.00     0.124 S 
ATOM     88  O   UNL A   1      40.821  18.945  25.808  1.00  0.00    -0.237 OA
ATOM     89  O   UNL A   1      43.144  18.424  25.146  1.00  0.00    -0.237 OA
ATOM     90  O   UNL A   1      42.468  18.242  27.507  1.00  0.00    -0.744 OA
ENDBRANCH  86  87
ENDBRANCH  58  81
BRANCH  70  91
ATOM     91  C   UNL A   1      49.372  26.717  26.332  1.00  0.00    -0.014 A 
ATOM     92  C   UNL A   1      50.156  26.111  27.328  1.00  0.00     0.010 A 
ATOM     93  C   UNL A   1      49.902  26.842  25.031  1.00  0.00     0.010 A 
ATOM     94  C   UNL A   1      51.454  25.673  27.038  1.00  0.00     0.020 A 
ATOM     95  C   UNL A   1      51.186  26.380  24.731  1.00  0.00     0.020 A 
ATOM     96  C   UNL A   1      51.962  25.813  25.743  1.00  0.00     0.054 A 
BRANCH  96  97
ATOM     97  S   UNL A   1      53.635  25.212  25.384  1.00  0.00     0.124 S 
ATOM     98  O   UNL A   1      53.833  25.663  24.009  1.00  0.00    -0.237 OA
ATOM     99  O   UNL A   1      54.445  25.895  26.392  1.00  0.00    -0.237 OA
ATOM    100  O   UNL A   1      53.531  23.765  25.555  1.00  0.00    -0.744 OA
ENDBRANCH  96  97
ENDBRANCH  70  91
ENDBRANCH  44  45
ENDBRANCH  36  39
ENDBRANCH  34  35
ENDBRANCH   1  34
TORSDOF 16
ENDMDL
MODEL 3
REMARK VINA RESULT:     -12.5      1.255      7.718
REMARK SMILES O=C1CCCC2=C1[C@H](c1ccc([N+](=O)[O-])cc1)CC(=O)N2c1ccccc1C(=O)NCCCNC(=O)c1ccc(-c2c3nc(c(-c4ccc(S(=O)(=O)[O-])cc4)c4ccc([nH]4)c(-c4ccc(S(=O)(=O)[O-])cc4)c4nc(c(-c5ccc(S(=O)(=O)[O-])cc5)c5ccc2[nH]5)C=C4)C=C3)cc1
REMARK SMILES IDX 32 1 31 2 30 3 28 4 29 5 27 7 22 8 23 9 24 10 26 11 25 12
REMARK SMILES IDX 21 13 1 14 2 15 3 16 7 17 4 18 6 19 8 20 5 21 18 22 19 23
REMARK SMILES IDX 20 24 9 25 10 26 17 27 11 28 16 29 12 30 13 31 14 32 15 33
REMARK SMILES IDX 33 34 34 35 35 36 36 38 37 39 38 40 96 41 39 42 95 43 40 44
REMARK SMILES IDX 41 45 42 46 89 47 43 48 94 49 88 50 90 51 44 52 93 53 87 54
REMARK SMILES IDX 86 55 45 57 75 58 56 59 74 60 57 61 60 62 73 63 91 64 58 65
REMARK SMILES IDX 59 66 72 68 92 69 61 70 46 71 47 72 55 73 48 74 54 75 49 76
REMARK SMILES IDX 50 77 51 78 52 79 53 80 76 81 77 82 85 83 78 84 84 85 79 86
REMARK SMILES IDX 80 87 81 88 82 89 83 90 62 91 63 92 71 93 64 94 70 95 65 96
REMARK SMILES IDX 66 97 67 98 68 99 69 100
REMARK H PARENT 30 6 34 37 90 56 60 67
REMARK Flexibility Score: inf
ROOT
ATOM      1  C   UNL A   1      39.199  21.744  26.173  1.00  0.00     0.042 C 
ENDROOT
BRANCH   1   2
ATOM      2  C   UNL A   1      38.065  21.558  25.155  1.00  0.00     0.118 C 
BRANCH   2   3
ATOM      3  N   UNL A   1      37.165  22.682  24.999  1.00  0.00    -0.352 N 
ATOM      4  C   UNL A   1      35.807  22.877  24.896  1.00  0.00     0.253 C 
ATOM      5  O   UNL A   1      35.531  24.085  25.003  1.00  0.00    -0.269 OA
ATOM      6  H   UNL A   1      37.655  23.535  24.956  1.00  0.00     0.163 HD
BRANCH   4   7
ATOM      7  C   UNL A   1      34.628  21.924  24.692  1.00  0.00     0.063 A 
ATOM      8  C   UNL A   1      33.245  22.075  24.429  1.00  0.00     0.061 A 
ATOM      9  C   UNL A   1      32.421  20.912  24.281  1.00  0.00     0.027 A 
ATOM     10  C   UNL A   1      32.887  19.618  24.440  1.00  0.00     0.002 A 
ATOM     11  C   UNL A   1      35.052  20.562  24.851  1.00  0.00     0.016 A 
ATOM     12  C   UNL A   1      34.215  19.442  24.739  1.00  0.00     0.001 A 
BRANCH   8  13
ATOM     13  N   UNL A   1      32.484  23.282  24.289  1.00  0.00    -0.284 N 
ATOM     14  O   UNL A   1      31.116  27.067  21.828  1.00  0.00    -0.294 OA
ATOM     15  C   UNL A   1      31.831  26.068  21.903  1.00  0.00     0.161 C 
ATOM     16  C   UNL A   1      32.748  25.657  20.769  1.00  0.00     0.081 C 
ATOM     17  C   UNL A   1      31.848  25.258  23.156  1.00  0.00     0.023 C 
ATOM     18  C   UNL A   1      32.701  24.161  20.549  1.00  0.00     0.015 C 
ATOM     19  C   UNL A   1      32.405  24.025  23.105  1.00  0.00     0.033 C 
ATOM     20  C   UNL A   1      31.147  25.794  24.411  1.00  0.00     0.064 C 
ATOM     21  C   UNL A   1      32.944  23.381  21.838  1.00  0.00     0.055 C 
ATOM     22  C   UNL A   1      30.542  24.587  25.104  1.00  0.00     0.114 C 
ATOM     23  C   UNL A   1      31.636  23.584  25.388  1.00  0.00     0.232 C 
ATOM     24  O   UNL A   1      31.693  23.042  26.494  1.00  0.00    -0.274 OA
BRANCH  20  25
ATOM     25  C   UNL A   1      32.010  26.639  25.364  1.00  0.00    -0.039 A 
ATOM     26  C   UNL A   1      33.418  26.800  25.281  1.00  0.00     0.011 A 
ATOM     27  C   UNL A   1      31.372  27.287  26.410  1.00  0.00     0.011 A 
ATOM     28  C   UNL A   1      34.130  27.710  26.082  1.00  0.00     0.086 A 
ATOM     29  C   UNL A   1      32.088  28.171  27.214  1.00  0.00     0.086 A 
ATOM     30  C   UNL A   1      33.432  28.445  27.016  1.00  0.00     0.269 A 
BRANCH  30  31
ATOM     31  N   UNL A   1      34.019  29.626  27.651  1.00  0.00     0.062 N 
ATOM     32  O   UNL A   1      35.190  29.551  28.038  1.00  0.00    -0.258 OA
ATOM     33  O   UNL A   1      33.320  30.653  27.687  1.00  0.00    -0.258 OA
ENDBRANCH  30  31
ENDBRANCH  20  25
ENDBRANCH   8  13
ENDBRANCH   4   7
ENDBRANCH   2   3
ENDBRANCH   1   2
BRANCH   1  34
ATOM     34  C   UNL A   1      39.506  23.120  26.821  1.00  0.00     0.118 C 
BRANCH  34  35
ATOM     35  N   UNL A   1      39.998  24.248  26.013  1.00  0.00    -0.352 N 
ATOM     36  C   UNL A   1      40.685  25.436  26.228  1.00  0.00     0.251 C 
ATOM     37  H   UNL A   1      39.782  24.126  25.060  1.00  0.00     0.163 HD
ATOM     38  O   UNL A   1      41.148  25.989  25.225  1.00  0.00    -0.269 OA
BRANCH  36  39
ATOM     39  C   UNL A   1      40.841  26.137  27.538  1.00  0.00     0.039 A 
ATOM     40  C   UNL A   1      41.842  27.129  27.677  1.00  0.00     0.014 A 
ATOM     41  C   UNL A   1      39.986  25.936  28.609  1.00  0.00     0.014 A 
ATOM     42  C   UNL A   1      41.911  27.973  28.818  1.00  0.00     0.010 A 
ATOM     43  C   UNL A   1      39.990  26.852  29.682  1.00  0.00     0.010 A 
ATOM     44  C   UNL A   1      40.955  27.879  29.839  1.00  0.00    -0.014 A 
BRANCH  44  45
ATOM     45  C   UNL A   1      40.969  28.709  31.115  1.00  0.00     0.031 A 
ATOM     46  C   UNL A   1      39.915  29.803  31.263  1.00  0.00     0.074 A 
ATOM     47  C   UNL A   1      41.893  28.631  32.107  1.00  0.00     0.049 A 
ATOM     48  N   UNL A   1      39.861  30.817  32.092  1.00  0.00    -0.248 NA
ATOM     49  C   UNL A   1      38.837  29.811  30.260  1.00  0.00     0.031 C 
ATOM     50  C   UNL A   1      43.043  27.727  32.171  1.00  0.00     0.029 A 
ATOM     51  N   UNL A   1      42.011  29.370  33.276  1.00  0.00    -0.354 N 
ATOM     52  C   UNL A   1      38.826  31.618  31.621  1.00  0.00     0.074 A 
ATOM     53  C   UNL A   1      38.410  31.057  30.358  1.00  0.00     0.031 C 
ATOM     54  C   UNL A   1      43.722  27.944  33.317  1.00  0.00     0.029 A 
ATOM     55  C   UNL A   1      43.082  29.019  34.075  1.00  0.00     0.049 A 
ATOM     56  H   UNL A   1      41.382  30.088  33.516  1.00  0.00     0.167 HD
ATOM     57  C   UNL A   1      38.181  32.657  32.202  1.00  0.00     0.031 A 
ATOM     58  C   UNL A   1      43.495  29.491  35.278  1.00  0.00     0.031 A 
ATOM     59  C   UNL A   1      38.453  33.138  33.525  1.00  0.00     0.049 A 
ATOM     60  C   UNL A   1      42.715  30.587  35.978  1.00  0.00     0.074 A 
ATOM     61  C   UNL A   1      37.769  34.098  34.250  1.00  0.00     0.029 A 
ATOM     62  N   UNL A   1      39.462  32.659  34.340  1.00  0.00    -0.354 N 
ATOM     63  N   UNL A   1      41.683  31.275  35.551  1.00  0.00    -0.248 NA
ATOM     64  C   UNL A   1      43.141  30.948  37.344  1.00  0.00     0.031 C 
ATOM     65  C   UNL A   1      38.382  34.217  35.502  1.00  0.00     0.029 A 
ATOM     66  C   UNL A   1      39.413  33.293  35.569  1.00  0.00     0.049 A 
ATOM     67  H   UNL A   1      40.118  31.972  34.084  1.00  0.00     0.167 HD
ATOM     68  C   UNL A   1      41.307  32.103  36.610  1.00  0.00     0.074 A 
ATOM     69  C   UNL A   1      42.217  31.832  37.699  1.00  0.00     0.031 C 
ATOM     70  C   UNL A   1      40.291  32.999  36.670  1.00  0.00     0.031 A 
BRANCH  57  71
ATOM     71  C   UNL A   1      37.048  33.279  31.422  1.00  0.00    -0.014 A 
ATOM     72  C   UNL A   1      35.711  33.113  31.837  1.00  0.00     0.010 A 
ATOM     73  C   UNL A   1      37.311  34.005  30.249  1.00  0.00     0.010 A 
ATOM     74  C   UNL A   1      34.659  33.565  31.041  1.00  0.00     0.020 A 
ATOM     75  C   UNL A   1      36.260  34.509  29.476  1.00  0.00     0.020 A 
ATOM     76  C   UNL A   1      34.942  34.255  29.861  1.00  0.00     0.054 A 
BRANCH  76  77
ATOM     77  S   UNL A   1      33.554  34.826  28.845  1.00  0.00     0.124 S 
ATOM     78  O   UNL A   1      32.496  34.978  29.842  1.00  0.00    -0.237 OA
ATOM     79  O   UNL A   1      34.063  36.071  28.278  1.00  0.00    -0.237 OA
ATOM     80  O   UNL A   1      33.357  33.742  27.887  1.00  0.00    -0.744 OA
ENDBRANCH  76  77
ENDBRANCH  57  71
BRANCH  58  81
ATOM     81  C   UNL A   1      44.679  28.887  35.972  1.00  0.00    -0.014 A 
ATOM     82  C   UNL A   1      44.510  27.788  36.839  1.00  0.00     0.010 A 
ATOM     83  C   UNL A   1      45.969  29.425  35.815  1.00  0.00     0.010 A 
ATOM     84  C   UNL A   1      45.595  27.251  37.542  1.00  0.00     0.020 A 
ATOM     85  C   UNL A   1      47.064  28.873  36.496  1.00  0.00     0.020 A 
ATOM     86  C   UNL A   1      46.870  27.793  37.361  1.00  0.00     0.054 A 
BRANCH  86  87
ATOM     87  S   UNL A   1      48.274  27.030  38.226  1.00  0.00     0.124 S 
ATOM     88  O   UNL A   1      47.653  26.541  39.453  1.00  0.00    -0.237 OA
ATOM     89  O   UNL A   1      48.706  26.002  37.282  1.00  0.00    -0.237 OA
ATOM     90  O   UNL A   1      49.212  28.138  38.398  1.00  0.00    -0.744 OA
ENDBRANCH  86  87
ENDBRANCH  58  81
BRANCH  70  91
ATOM     91  C   UNL A   1      40.025  33.702  37.979  1.00  0.00    -0.014 A 
ATOM     92  C   UNL A   1      40.564  34.966  38.269  1.00  0.00     0.010 A 
ATOM     93  C   UNL A   1      39.145  33.108  38.906  1.00  0.00     0.010 A 
ATOM     94  C   UNL A   1      40.258  35.606  39.477  1.00  0.00     0.020 A 
ATOM     95  C   UNL A   1      38.815  33.755  40.100  1.00  0.00     0.020 A 
ATOM     96  C   UNL A   1      39.388  34.995  40.385  1.00  0.00     0.054 A 
BRANCH  96  97
ATOM     97  S   UNL A   1      38.985  35.856  41.931  1.00  0.00     0.124 S 
ATOM     98  O   UNL A   1      37.614  35.416  42.176  1.00  0.00    -0.237 OA
ATOM     99  O   UNL A   1      39.988  35.337  42.859  1.00  0.00    -0.237 OA
ATOM    100  O   UNL A   1      39.133  37.269  41.592  1.00  0.00    -0.744 OA
ENDBRANCH  96  97
ENDBRANCH  70  91
ENDBRANCH  44  45
ENDBRANCH  36  39
ENDBRANCH  34  35
ENDBRANCH   1  34
TORSDOF 16
ENDMDL
