MODEL 1
REMARK VINA RESULT:     -12.5      0.000      0.000
REMARK SMILES C[C@H]1c2ccc(O)cc2OC(=O)[C@@H]1CC(=O)N[C@@H](CC1=c2ccccc2=NC1)C(=O)NCCCNC(=O)c1ccc(-c2c3nc(c(-c4ccc(S(=O)(=O)[O-])cc4)c4ccc([nH]4)c(-c4ccc(S(=O)(=O)[O-])cc4)c4nc(c(-c5ccc(S(=O)(=O)[O-])cc5)c5ccc2[nH]5)C=C4)C=C3)cc1
REMARK SMILES IDX 32 1 31 2 29 3 30 4 18 6 17 7 15 8 16 9 14 11 13 12 1 13
REMARK SMILES IDX 2 14 3 15 4 16 9 17 11 18 5 19 8 20 10 21 12 22 6 23 7 24
REMARK SMILES IDX 19 26 20 27 21 28 28 29 22 30 26 31 27 32 23 33 25 34 24 35
REMARK SMILES IDX 33 36 34 37 35 38 36 39 37 41 38 42 39 43 97 44 40 45 96 46
REMARK SMILES IDX 41 47 42 48 43 49 90 50 44 51 95 52 89 53 91 54 45 55 94 56
REMARK SMILES IDX 88 57 87 58 46 60 76 61 57 62 75 63 58 64 61 65 74 66 92 67
REMARK SMILES IDX 59 68 60 69 73 71 93 72 62 73 47 74 48 75 56 76 49 77 55 78
REMARK SMILES IDX 50 79 51 80 52 81 53 82 54 83 77 84 78 85 86 86 79 87 85 88
REMARK SMILES IDX 80 89 81 90 82 91 83 92 84 93 63 94 64 95 72 96 65 97 71 98
REMARK SMILES IDX 66 99 67 100 68 101 69 102 70 103
REMARK H PARENT 31 5 17 10 7 25 35 40 91 59 61 70
REMARK Flexibility Score: inf
ROOT
ATOM      1  C   UNL A   1      34.696  24.377  25.423  1.00  0.00     0.117 C 
ENDROOT
BRANCH   1   2
ATOM      2  N   UNL A   1      34.231  24.115  24.091  1.00  0.00    -0.354 N 
ATOM      3  C   UNL A   1      32.945  23.837  23.736  1.00  0.00     0.242 C 
ATOM      4  O   UNL A   1      32.697  23.712  22.533  1.00  0.00    -0.273 OA
ATOM      5  H   UNL A   1      34.900  24.137  23.370  1.00  0.00     0.163 HD
BRANCH   3   6
ATOM      6  C   UNL A   1      31.828  23.697  24.803  1.00  0.00     0.175 C 
BRANCH   6   7
ATOM      7  N   UNL A   1      30.572  24.379  24.449  1.00  0.00    -0.344 N 
ATOM      8  C   UNL A   1      30.228  25.696  24.476  1.00  0.00     0.221 C 
ATOM      9  O   UNL A   1      29.089  26.016  24.130  1.00  0.00    -0.275 OA
ATOM     10  H   UNL A   1      29.856  23.779  24.138  1.00  0.00     0.164 HD
BRANCH   8  11
ATOM     11  C   UNL A   1      31.212  26.757  24.924  1.00  0.00     0.116 C 
BRANCH  11  12
ATOM     12  C   UNL A   1      31.860  27.501  23.739  1.00  0.00     0.116 C 
ATOM     13  C   UNL A   1      34.006  28.375  22.668  1.00  0.00     0.014 C 
ATOM     14  C   UNL A   1      33.367  27.775  23.928  1.00  0.00     0.034 C 
ATOM     15  C   UNL A   1      33.543  28.708  25.099  1.00  0.00    -0.001 A 
ATOM     16  C   UNL A   1      34.661  28.659  25.934  1.00  0.00     0.011 A 
ATOM     17  C   UNL A   1      32.528  29.624  25.389  1.00  0.00     0.138 A 
ATOM     18  C   UNL A   1      31.199  28.840  23.532  1.00  0.00     0.315 C 
ATOM     19  C   UNL A   1      34.720  29.474  27.069  1.00  0.00     0.047 A 
ATOM     20  C   UNL A   1      32.559  30.421  26.527  1.00  0.00     0.093 A 
ATOM     21  O   UNL A   1      31.437  29.787  24.519  1.00  0.00    -0.426 OA
ATOM     22  O   UNL A   1      30.450  29.079  22.594  1.00  0.00    -0.251 OA
ATOM     23  C   UNL A   1      33.660  30.330  27.366  1.00  0.00     0.119 A 
BRANCH  23  24
ATOM     24  O   UNL A   1      33.670  31.109  28.486  1.00  0.00    -0.508 OA
ATOM     25  H   UNL A   1      32.983  31.030  29.117  1.00  0.00     0.293 HD
ENDBRANCH  23  24
ENDBRANCH  11  12
ENDBRANCH   8  11
ENDBRANCH   6   7
BRANCH   6  26
ATOM     26  C   UNL A   1      31.673  22.235  25.362  1.00  0.00     0.068 C 
BRANCH  26  27
ATOM     27  C   UNL A   1      32.595  21.166  24.826  1.00  0.00    -0.037 C 
ATOM     28  C   UNL A   1      32.635  20.439  23.708  1.00  0.00     0.001 A 
ATOM     29  C   UNL A   1      33.779  20.736  25.658  1.00  0.00     0.174 C 
ATOM     30  C   UNL A   1      32.125  20.444  22.376  1.00  0.00     0.010 A 
ATOM     31  C   UNL A   1      33.289  19.216  24.229  1.00  0.00     0.065 A 
ATOM     32  N   UNL A   1      33.988  19.318  25.316  1.00  0.00    -0.280 NA
ATOM     33  C   UNL A   1      32.020  19.285  21.704  1.00  0.00     0.001 A 
ATOM     34  C   UNL A   1      32.950  17.955  23.531  1.00  0.00     0.028 A 
ATOM     35  C   UNL A   1      32.305  18.021  22.355  1.00  0.00     0.002 A 
ENDBRANCH  26  27
ENDBRANCH   6  26
ENDBRANCH   3   6
ENDBRANCH   1   2
BRANCH   1  36
ATOM     36  C   UNL A   1      35.787  23.449  25.910  1.00  0.00     0.042 C 
BRANCH  36  37
ATOM     37  C   UNL A   1      36.933  23.355  24.920  1.00  0.00     0.118 C 
BRANCH  37  38
ATOM     38  N   UNL A   1      38.059  22.559  25.408  1.00  0.00    -0.352 N 
ATOM     39  C   UNL A   1      39.163  22.868  26.188  1.00  0.00     0.251 C 
ATOM     40  H   UNL A   1      38.027  21.615  25.126  1.00  0.00     0.163 HD
ATOM     41  O   UNL A   1      40.043  22.042  26.325  1.00  0.00    -0.269 OA
BRANCH  39  42
ATOM     42  C   UNL A   1      39.301  24.216  26.795  1.00  0.00     0.039 A 
ATOM     43  C   UNL A   1      39.862  25.259  26.078  1.00  0.00     0.014 A 
ATOM     44  C   UNL A   1      38.892  24.440  28.114  1.00  0.00     0.014 A 
ATOM     45  C   UNL A   1      40.323  26.379  26.748  1.00  0.00     0.010 A 
ATOM     46  C   UNL A   1      39.180  25.664  28.736  1.00  0.00     0.010 A 
ATOM     47  C   UNL A   1      39.978  26.616  28.086  1.00  0.00    -0.014 A 
BRANCH  47  48
ATOM     48  C   UNL A   1      40.482  27.857  28.746  1.00  0.00     0.031 A 
ATOM     49  C   UNL A   1      41.957  28.065  28.997  1.00  0.00     0.074 A 
ATOM     50  C   UNL A   1      39.613  28.859  29.012  1.00  0.00     0.049 A 
ATOM     51  N   UNL A   1      42.557  29.100  29.527  1.00  0.00    -0.248 NA
ATOM     52  C   UNL A   1      42.878  26.978  28.621  1.00  0.00     0.031 C 
ATOM     53  C   UNL A   1      38.164  28.794  28.797  1.00  0.00     0.029 A 
ATOM     54  N   UNL A   1      39.818  30.146  29.444  1.00  0.00    -0.354 N 
ATOM     55  C   UNL A   1      43.907  28.771  29.594  1.00  0.00     0.074 A 
ATOM     56  C   UNL A   1      44.042  27.434  29.063  1.00  0.00     0.031 C 
ATOM     57  C   UNL A   1      37.637  30.014  28.959  1.00  0.00     0.029 A 
ATOM     58  C   UNL A   1      38.680  30.921  29.421  1.00  0.00     0.049 A 
ATOM     59  H   UNL A   1      40.694  30.484  29.742  1.00  0.00     0.167 HD
ATOM     60  C   UNL A   1      44.939  29.519  30.050  1.00  0.00     0.031 A 
ATOM     61  C   UNL A   1      38.476  32.213  29.749  1.00  0.00     0.031 A 
ATOM     62  C   UNL A   1      44.804  30.871  30.529  1.00  0.00     0.049 A 
ATOM     63  C   UNL A   1      39.632  33.018  30.257  1.00  0.00     0.074 A 
ATOM     64  C   UNL A   1      45.794  31.711  31.009  1.00  0.00     0.029 A 
ATOM     65  N   UNL A   1      43.618  31.587  30.568  1.00  0.00    -0.354 N 
ATOM     66  N   UNL A   1      40.889  32.663  30.363  1.00  0.00    -0.248 NA
ATOM     67  C   UNL A   1      39.346  34.383  30.714  1.00  0.00     0.031 C 
ATOM     68  C   UNL A   1      45.199  32.915  31.388  1.00  0.00     0.029 A 
ATOM     69  C   UNL A   1      43.848  32.852  31.082  1.00  0.00     0.049 A 
ATOM     70  H   UNL A   1      42.742  31.247  30.275  1.00  0.00     0.167 HD
ATOM     71  C   UNL A   1      41.545  33.756  30.910  1.00  0.00     0.074 A 
ATOM     72  C   UNL A   1      40.552  34.798  31.081  1.00  0.00     0.031 C 
ATOM     73  C   UNL A   1      42.850  33.876  31.254  1.00  0.00     0.031 A 
BRANCH  60  74
ATOM     74  C   UNL A   1      46.317  28.907  30.074  1.00  0.00    -0.014 A 
ATOM     75  C   UNL A   1      47.115  28.956  28.914  1.00  0.00     0.010 A 
ATOM     76  C   UNL A   1      46.780  28.189  31.191  1.00  0.00     0.010 A 
ATOM     77  C   UNL A   1      48.333  28.273  28.858  1.00  0.00     0.020 A 
ATOM     78  C   UNL A   1      48.012  27.527  31.147  1.00  0.00     0.020 A 
ATOM     79  C   UNL A   1      48.769  27.554  29.973  1.00  0.00     0.054 A 
BRANCH  79  80
ATOM     80  S   UNL A   1      50.344  26.657  29.876  1.00  0.00     0.124 S 
ATOM     81  O   UNL A   1      49.975  25.333  30.366  1.00  0.00    -0.237 OA
ATOM     82  O   UNL A   1      50.671  26.735  28.454  1.00  0.00    -0.237 OA
ATOM     83  O   UNL A   1      51.226  27.427  30.751  1.00  0.00    -0.744 OA
ENDBRANCH  79  80
ENDBRANCH  60  74
BRANCH  61  84
ATOM     84  C   UNL A   1      37.108  32.789  29.611  1.00  0.00    -0.014 A 
ATOM     85  C   UNL A   1      36.665  33.272  28.365  1.00  0.00     0.010 A 
ATOM     86  C   UNL A   1      36.290  32.963  30.741  1.00  0.00     0.010 A 
ATOM     87  C   UNL A   1      35.473  33.992  28.265  1.00  0.00     0.020 A 
ATOM     88  C   UNL A   1      35.076  33.653  30.637  1.00  0.00     0.020 A 
ATOM     89  C   UNL A   1      34.696  34.195  29.406  1.00  0.00     0.054 A 
BRANCH  89  90
ATOM     90  S   UNL A   1      33.190  35.198  29.269  1.00  0.00     0.124 S 
ATOM     91  O   UNL A   1      32.416  34.437  28.291  1.00  0.00    -0.237 OA
ATOM     92  O   UNL A   1      32.668  35.183  30.633  1.00  0.00    -0.237 OA
ATOM     93  O   UNL A   1      33.684  36.492  28.807  1.00  0.00    -0.744 OA
ENDBRANCH  89  90
ENDBRANCH  61  84
BRANCH  73  94
ATOM     94  C   UNL A   1      43.298  35.177  31.862  1.00  0.00    -0.014 A 
ATOM     95  C   UNL A   1      43.093  35.413  33.234  1.00  0.00     0.010 A 
ATOM     96  C   UNL A   1      43.807  36.208  31.052  1.00  0.00     0.010 A 
ATOM     97  C   UNL A   1      43.360  36.670  33.781  1.00  0.00     0.020 A 
ATOM     98  C   UNL A   1      44.099  37.458  31.603  1.00  0.00     0.020 A 
ATOM     99  C   UNL A   1      43.850  37.688  32.959  1.00  0.00     0.054 A 
BRANCH  99 100
ATOM    100  S   UNL A   1      44.164  39.321  33.680  1.00  0.00     0.124 S 
ATOM    101  O   UNL A   1      42.823  39.897  33.731  1.00  0.00    -0.237 OA
ATOM    102  O   UNL A   1      44.758  38.993  34.974  1.00  0.00    -0.237 OA
ATOM    103  O   UNL A   1      45.077  39.946  32.726  1.00  0.00    -0.744 OA
ENDBRANCH  99 100
ENDBRANCH  73  94
ENDBRANCH  47  48
ENDBRANCH  39  42
ENDBRANCH  37  38
ENDBRANCH  36  37
ENDBRANCH   1  36
TORSDOF 19
ENDMDL
MODEL 2
REMARK VINA RESULT:     -12.4      3.622      4.535
REMARK SMILES C[C@H]1c2ccc(O)cc2OC(=O)[C@@H]1CC(=O)N[C@@H](CC1=c2ccccc2=NC1)C(=O)NCCCNC(=O)c1ccc(-c2c3nc(c(-c4ccc(S(=O)(=O)[O-])cc4)c4ccc([nH]4)c(-c4ccc(S(=O)(=O)[O-])cc4)c4nc(c(-c5ccc(S(=O)(=O)[O-])cc5)c5ccc2[nH]5)C=C4)C=C3)cc1
REMARK SMILES IDX 32 1 31 2 29 3 30 4 18 6 17 7 15 8 16 9 14 11 13 12 1 13
REMARK SMILES IDX 2 14 3 15 4 16 9 17 11 18 5 19 8 20 10 21 12 22 6 23 7 24
REMARK SMILES IDX 19 26 20 27 21 28 28 29 22 30 26 31 27 32 23 33 25 34 24 35
REMARK SMILES IDX 33 36 34 37 35 38 36 39 37 41 38 42 39 43 97 44 40 45 96 46
REMARK SMILES IDX 41 47 42 48 43 49 90 50 44 51 95 52 89 53 91 54 45 55 94 56
REMARK SMILES IDX 88 57 87 58 46 60 76 61 57 62 75 63 58 64 61 65 74 66 92 67
REMARK SMILES IDX 59 68 60 69 73 71 93 72 62 73 47 74 48 75 56 76 49 77 55 78
REMARK SMILES IDX 50 79 51 80 52 81 53 82 54 83 77 84 78 85 86 86 79 87 85 88
REMARK SMILES IDX 80 89 81 90 82 91 83 92 84 93 63 94 64 95 72 96 65 97 71 98
REMARK SMILES IDX 66 99 67 100 68 101 69 102 70 103
REMARK H PARENT 31 5 17 10 7 25 35 40 91 59 61 70
REMARK Flexibility Score: inf
ROOT
ATOM      1  C   UNL A   1      37.574  23.708  26.108  1.00  0.00     0.117 C 
ENDROOT
BRANCH   1   2
ATOM      2  N   UNL A   1      37.687  23.541  24.687  1.00  0.00    -0.354 N 
ATOM      3  C   UNL A   1      36.723  23.043  23.863  1.00  0.00     0.242 C 
ATOM      4  O   UNL A   1      36.952  23.037  22.650  1.00  0.00    -0.273 OA
ATOM      5  H   UNL A   1      38.538  23.810  24.270  1.00  0.00     0.163 HD
BRANCH   3   6
ATOM      6  C   UNL A   1      35.378  22.514  24.426  1.00  0.00     0.175 C 
BRANCH   6   7
ATOM      7  N   UNL A   1      34.242  22.657  23.500  1.00  0.00    -0.344 N 
ATOM      8  C   UNL A   1      33.166  23.490  23.523  1.00  0.00     0.221 C 
ATOM      9  O   UNL A   1      32.335  23.406  22.617  1.00  0.00    -0.275 OA
ATOM     10  H   UNL A   1      34.266  22.044  22.729  1.00  0.00     0.164 HD
BRANCH   8  11
ATOM     11  C   UNL A   1      32.976  24.500  24.636  1.00  0.00     0.116 C 
BRANCH  11  12
ATOM     12  C   UNL A   1      31.489  24.780  24.934  1.00  0.00     0.116 C 
ATOM     13  C   UNL A   1      29.440  26.226  24.457  1.00  0.00     0.014 C 
ATOM     14  C   UNL A   1      30.955  26.065  24.267  1.00  0.00     0.034 C 
ATOM     15  C   UNL A   1      31.684  27.248  24.851  1.00  0.00    -0.001 A 
ATOM     16  C   UNL A   1      31.956  28.400  24.110  1.00  0.00     0.011 A 
ATOM     17  C   UNL A   1      32.149  27.172  26.167  1.00  0.00     0.138 A 
ATOM     18  C   UNL A   1      31.269  24.937  26.417  1.00  0.00     0.315 C 
ATOM     19  C   UNL A   1      32.731  29.422  24.668  1.00  0.00     0.047 A 
ATOM     20  C   UNL A   1      32.942  28.165  26.727  1.00  0.00     0.093 A 
ATOM     21  O   UNL A   1      31.807  26.083  26.986  1.00  0.00    -0.426 OA
ATOM     22  O   UNL A   1      30.707  24.094  27.103  1.00  0.00    -0.251 OA
ATOM     23  C   UNL A   1      33.235  29.285  25.961  1.00  0.00     0.119 A 
BRANCH  23  24
ATOM     24  O   UNL A   1      34.025  30.246  26.520  1.00  0.00    -0.508 OA
ATOM     25  H   UNL A   1      34.936  30.286  26.304  1.00  0.00     0.293 HD
ENDBRANCH  23  24
ENDBRANCH  11  12
ENDBRANCH   8  11
ENDBRANCH   6   7
BRANCH   6  26
ATOM     26  C   UNL A   1      35.501  21.118  25.139  1.00  0.00     0.068 C 
BRANCH  26  27
ATOM     27  C   UNL A   1      34.314  20.185  25.088  1.00  0.00    -0.037 C 
ATOM     28  C   UNL A   1      34.107  18.960  24.602  1.00  0.00     0.001 A 
ATOM     29  C   UNL A   1      33.006  20.632  25.693  1.00  0.00     0.174 C 
ATOM     30  C   UNL A   1      34.835  17.801  24.198  1.00  0.00     0.010 A 
ATOM     31  C   UNL A   1      32.666  19.062  24.273  1.00  0.00     0.065 A 
ATOM     32  N   UNL A   1      31.968  19.968  24.884  1.00  0.00    -0.280 NA
ATOM     33  C   UNL A   1      34.279  16.943  23.325  1.00  0.00     0.001 A 
ATOM     34  C   UNL A   1      32.196  18.210  23.157  1.00  0.00     0.028 A 
ATOM     35  C   UNL A   1      33.006  17.243  22.698  1.00  0.00     0.002 A 
ENDBRANCH  26  27
ENDBRANCH   6  26
ENDBRANCH   3   6
ENDBRANCH   1   2
BRANCH   1  36
ATOM     36  C   UNL A   1      38.605  24.628  26.724  1.00  0.00     0.042 C 
BRANCH  36  37
ATOM     37  C   UNL A   1      39.961  23.958  26.842  1.00  0.00     0.118 C 
BRANCH  37  38
ATOM     38  N   UNL A   1      40.949  24.475  25.894  1.00  0.00    -0.352 N 
ATOM     39  C   UNL A   1      41.790  25.577  25.917  1.00  0.00     0.251 C 
ATOM     40  H   UNL A   1      41.033  23.932  25.076  1.00  0.00     0.163 HD
ATOM     41  O   UNL A   1      42.415  25.868  24.918  1.00  0.00    -0.269 OA
BRANCH  39  42
ATOM     42  C   UNL A   1      41.875  26.432  27.128  1.00  0.00     0.039 A 
ATOM     43  C   UNL A   1      41.680  25.893  28.389  1.00  0.00     0.014 A 
ATOM     44  C   UNL A   1      42.123  27.803  27.007  1.00  0.00     0.014 A 
ATOM     45  C   UNL A   1      41.393  26.730  29.453  1.00  0.00     0.010 A 
ATOM     46  C   UNL A   1      42.033  28.633  28.134  1.00  0.00     0.010 A 
ATOM     47  C   UNL A   1      41.580  28.116  29.356  1.00  0.00    -0.014 A 
BRANCH  47  48
ATOM     48  C   UNL A   1      41.280  28.964  30.549  1.00  0.00     0.031 A 
ATOM     49  C   UNL A   1      42.269  29.095  31.684  1.00  0.00     0.074 A 
ATOM     50  C   UNL A   1      40.158  29.718  30.552  1.00  0.00     0.049 A 
ATOM     51  N   UNL A   1      42.172  29.816  32.771  1.00  0.00    -0.248 NA
ATOM     52  C   UNL A   1      43.515  28.313  31.603  1.00  0.00     0.031 C 
ATOM     53  C   UNL A   1      39.130  29.701  29.506  1.00  0.00     0.029 A 
ATOM     54  N   UNL A   1      39.725  30.696  31.414  1.00  0.00    -0.354 N 
ATOM     55  C   UNL A   1      43.312  29.540  33.520  1.00  0.00     0.074 A 
ATOM     56  C   UNL A   1      44.082  28.573  32.773  1.00  0.00     0.031 C 
ATOM     57  C   UNL A   1      38.273  30.710  29.711  1.00  0.00     0.029 A 
ATOM     58  C   UNL A   1      38.604  31.362  30.971  1.00  0.00     0.049 A 
ATOM     59  H   UNL A   1      40.172  30.901  32.268  1.00  0.00     0.167 HD
ATOM     60  C   UNL A   1      43.683  30.052  34.717  1.00  0.00     0.031 A 
ATOM     61  C   UNL A   1      37.898  32.374  31.514  1.00  0.00     0.031 A 
ATOM     62  C   UNL A   1      42.934  31.054  35.431  1.00  0.00     0.049 A 
ATOM     63  C   UNL A   1      38.324  32.919  32.842  1.00  0.00     0.074 A 
ATOM     64  C   UNL A   1      43.233  31.637  36.651  1.00  0.00     0.029 A 
ATOM     65  N   UNL A   1      41.760  31.639  34.985  1.00  0.00    -0.354 N 
ATOM     66  N   UNL A   1      39.376  32.598  33.555  1.00  0.00    -0.248 NA
ATOM     67  C   UNL A   1      37.463  33.938  33.454  1.00  0.00     0.031 C 
ATOM     68  C   UNL A   1      42.212  32.534  36.967  1.00  0.00     0.029 A 
ATOM     69  C   UNL A   1      41.310  32.562  35.914  1.00  0.00     0.049 A 
ATOM     70  H   UNL A   1      41.311  31.429  34.134  1.00  0.00     0.167 HD
ATOM     71  C   UNL A   1      39.299  33.367  34.707  1.00  0.00     0.074 A 
ATOM     72  C   UNL A   1      38.116  34.195  34.580  1.00  0.00     0.031 C 
ATOM     73  C   UNL A   1      40.127  33.372  35.779  1.00  0.00     0.031 A 
BRANCH  60  74
ATOM     74  C   UNL A   1      44.948  29.540  35.358  1.00  0.00    -0.014 A 
ATOM     75  C   UNL A   1      46.178  30.148  35.041  1.00  0.00     0.010 A 
ATOM     76  C   UNL A   1      44.943  28.397  36.177  1.00  0.00     0.010 A 
ATOM     77  C   UNL A   1      47.381  29.607  35.502  1.00  0.00     0.020 A 
ATOM     78  C   UNL A   1      46.145  27.869  36.664  1.00  0.00     0.020 A 
ATOM     79  C   UNL A   1      47.356  28.463  36.303  1.00  0.00     0.054 A 
BRANCH  79  80
ATOM     80  S   UNL A   1      48.929  27.762  36.878  1.00  0.00     0.124 S 
ATOM     81  O   UNL A   1      48.597  26.350  37.038  1.00  0.00    -0.237 OA
ATOM     82  O   UNL A   1      49.841  28.077  35.781  1.00  0.00    -0.237 OA
ATOM     83  O   UNL A   1      49.190  28.489  38.119  1.00  0.00    -0.744 OA
ENDBRANCH  79  80
ENDBRANCH  60  74
BRANCH  61  84
ATOM     84  C   UNL A   1      36.711  32.903  30.783  1.00  0.00    -0.014 A 
ATOM     85  C   UNL A   1      36.881  33.789  29.703  1.00  0.00     0.010 A 
ATOM     86  C   UNL A   1      35.410  32.618  31.234  1.00  0.00     0.010 A 
ATOM     87  C   UNL A   1      35.783  34.446  29.143  1.00  0.00     0.020 A 
ATOM     88  C   UNL A   1      34.305  33.247  30.650  1.00  0.00     0.020 A 
ATOM     89  C   UNL A   1      34.504  34.185  29.634  1.00  0.00     0.054 A 
BRANCH  89  90
ATOM     90  S   UNL A   1      33.100  35.105  28.943  1.00  0.00     0.124 S 
ATOM     91  O   UNL A   1      33.765  36.266  28.359  1.00  0.00    -0.237 OA
ATOM     92  O   UNL A   1      32.534  34.157  27.987  1.00  0.00    -0.237 OA
ATOM     93  O   UNL A   1      32.267  35.381  30.111  1.00  0.00    -0.744 OA
ENDBRANCH  89  90
ENDBRANCH  61  84
BRANCH  73  94
ATOM     94  C   UNL A   1      39.793  34.294  36.920  1.00  0.00    -0.014 A 
ATOM     95  C   UNL A   1      40.309  35.602  36.934  1.00  0.00     0.010 A 
ATOM     96  C   UNL A   1      39.073  33.824  38.033  1.00  0.00     0.010 A 
ATOM     97  C   UNL A   1      40.138  36.417  38.056  1.00  0.00     0.020 A 
ATOM     98  C   UNL A   1      38.879  34.645  39.146  1.00  0.00     0.020 A 
ATOM     99  C   UNL A   1      39.434  35.928  39.159  1.00  0.00     0.054 A 
BRANCH  99 100
ATOM    100  S   UNL A   1      39.247  36.988  40.618  1.00  0.00     0.124 S 
ATOM    101  O   UNL A   1      38.461  38.100  40.090  1.00  0.00    -0.237 OA
ATOM    102  O   UNL A   1      38.553  36.118  41.563  1.00  0.00    -0.237 OA
ATOM    103  O   UNL A   1      40.625  37.314  40.981  1.00  0.00    -0.744 OA
ENDBRANCH  99 100
ENDBRANCH  73  94
ENDBRANCH  47  48
ENDBRANCH  39  42
ENDBRANCH  37  38
ENDBRANCH  36  37
ENDBRANCH   1  36
TORSDOF 19
ENDMDL
MODEL 3
REMARK VINA RESULT:     -12.2      2.812      8.681
REMARK SMILES C[C@H]1c2ccc(O)cc2OC(=O)[C@@H]1CC(=O)N[C@@H](CC1=c2ccccc2=NC1)C(=O)NCCCNC(=O)c1ccc(-c2c3nc(c(-c4ccc(S(=O)(=O)[O-])cc4)c4ccc([nH]4)c(-c4ccc(S(=O)(=O)[O-])cc4)c4nc(c(-c5ccc(S(=O)(=O)[O-])cc5)c5ccc2[nH]5)C=C4)C=C3)cc1
REMARK SMILES IDX 32 1 31 2 29 3 30 4 18 6 17 7 15 8 16 9 14 11 13 12 1 13
REMARK SMILES IDX 2 14 3 15 4 16 9 17 11 18 5 19 8 20 10 21 12 22 6 23 7 24
REMARK SMILES IDX 19 26 20 27 21 28 28 29 22 30 26 31 27 32 23 33 25 34 24 35
REMARK SMILES IDX 33 36 34 37 35 38 36 39 37 41 38 42 39 43 97 44 40 45 96 46
REMARK SMILES IDX 41 47 42 48 43 49 90 50 44 51 95 52 89 53 91 54 45 55 94 56
REMARK SMILES IDX 88 57 87 58 46 60 76 61 57 62 75 63 58 64 61 65 74 66 92 67
REMARK SMILES IDX 59 68 60 69 73 71 93 72 62 73 47 74 48 75 56 76 49 77 55 78
REMARK SMILES IDX 50 79 51 80 52 81 53 82 54 83 77 84 78 85 86 86 79 87 85 88
REMARK SMILES IDX 80 89 81 90 82 91 83 92 84 93 63 94 64 95 72 96 65 97 71 98
REMARK SMILES IDX 66 99 67 100 68 101 69 102 70 103
REMARK H PARENT 31 5 17 10 7 25 35 40 91 59 61 70
REMARK Flexibility Score: inf
ROOT
ATOM      1  C   UNL A   1      32.084  29.481  25.206  1.00  0.00     0.117 C 
ENDROOT
BRANCH   1   2
ATOM      2  N   UNL A   1      33.302  29.323  24.464  1.00  0.00    -0.354 N 
ATOM      3  C   UNL A   1      33.422  28.720  23.248  1.00  0.00     0.242 C 
ATOM      4  O   UNL A   1      34.531  28.735  22.707  1.00  0.00    -0.273 OA
ATOM      5  H   UNL A   1      34.124  29.681  24.870  1.00  0.00     0.163 HD
BRANCH   3   6
ATOM      6  C   UNL A   1      32.204  28.050  22.559  1.00  0.00     0.175 C 
BRANCH   6   7
ATOM      7  N   UNL A   1      32.562  26.954  21.643  1.00  0.00    -0.344 N 
ATOM      8  C   UNL A   1      33.175  25.759  21.870  1.00  0.00     0.221 C 
ATOM      9  O   UNL A   1      33.371  25.006  20.915  1.00  0.00    -0.275 OA
ATOM     10  H   UNL A   1      32.316  27.112  20.703  1.00  0.00     0.164 HD
BRANCH   8  11
ATOM     11  C   UNL A   1      33.616  25.353  23.260  1.00  0.00     0.116 C 
BRANCH  11  12
ATOM     12  C   UNL A   1      32.426  25.079  24.203  1.00  0.00     0.116 C 
ATOM     13  C   UNL A   1      31.640  24.600  26.583  1.00  0.00     0.014 C 
ATOM     14  C   UNL A   1      32.847  24.711  25.641  1.00  0.00     0.034 C 
ATOM     15  C   UNL A   1      33.603  23.408  25.603  1.00  0.00    -0.001 A 
ATOM     16  C   UNL A   1      34.634  23.115  26.498  1.00  0.00     0.011 A 
ATOM     17  C   UNL A   1      33.296  22.479  24.605  1.00  0.00     0.138 A 
ATOM     18  C   UNL A   1      31.599  23.930  23.686  1.00  0.00     0.315 C 
ATOM     19  C   UNL A   1      35.374  21.937  26.348  1.00  0.00     0.047 A 
ATOM     20  C   UNL A   1      34.039  21.319  24.425  1.00  0.00     0.093 A 
ATOM     21  O   UNL A   1      32.199  22.680  23.751  1.00  0.00    -0.426 OA
ATOM     22  O   UNL A   1      30.492  24.075  23.184  1.00  0.00    -0.251 OA
ATOM     23  C   UNL A   1      35.085  21.063  25.300  1.00  0.00     0.119 A 
BRANCH  23  24
ATOM     24  O   UNL A   1      35.813  19.927  25.104  1.00  0.00    -0.508 OA
ATOM     25  H   UNL A   1      35.567  19.325  24.429  1.00  0.00     0.293 HD
ENDBRANCH  23  24
ENDBRANCH  11  12
ENDBRANCH   8  11
ENDBRANCH   6   7
BRANCH   6  26
ATOM     26  C   UNL A   1      31.012  27.753  23.540  1.00  0.00     0.068 C 
BRANCH  26  27
ATOM     27  C   UNL A   1      29.632  28.230  23.149  1.00  0.00    -0.037 C 
ATOM     28  C   UNL A   1      29.152  29.334  22.575  1.00  0.00     0.001 A 
ATOM     29  C   UNL A   1      28.445  27.339  23.424  1.00  0.00     0.174 C 
ATOM     30  C   UNL A   1      29.586  30.436  21.779  1.00  0.00     0.010 A 
ATOM     31  C   UNL A   1      27.807  29.373  23.194  1.00  0.00     0.065 A 
ATOM     32  N   UNL A   1      27.325  28.265  23.666  1.00  0.00    -0.280 NA
ATOM     33  C   UNL A   1      28.886  31.583  21.802  1.00  0.00     0.001 A 
ATOM     34  C   UNL A   1      27.205  30.716  23.350  1.00  0.00     0.028 A 
ATOM     35  C   UNL A   1      27.771  31.754  22.712  1.00  0.00     0.002 A 
ENDBRANCH  26  27
ENDBRANCH   6  26
ENDBRANCH   3   6
ENDBRANCH   1   2
BRANCH   1  36
ATOM     36  C   UNL A   1      32.121  28.931  26.615  1.00  0.00     0.042 C 
BRANCH  36  37
ATOM     37  C   UNL A   1      33.491  29.093  27.249  1.00  0.00     0.118 C 
BRANCH  37  38
ATOM     38  N   UNL A   1      33.676  30.386  27.909  1.00  0.00    -0.352 N 
ATOM     39  C   UNL A   1      34.745  30.951  28.588  1.00  0.00     0.251 C 
ATOM     40  H   UNL A   1      32.885  30.970  27.861  1.00  0.00     0.163 HD
ATOM     41  O   UNL A   1      34.584  31.998  29.181  1.00  0.00    -0.269 OA
BRANCH  39  42
ATOM     42  C   UNL A   1      36.053  30.252  28.647  1.00  0.00     0.039 A 
ATOM     43  C   UNL A   1      36.472  29.634  29.814  1.00  0.00     0.014 A 
ATOM     44  C   UNL A   1      36.894  30.235  27.530  1.00  0.00     0.014 A 
ATOM     45  C   UNL A   1      37.809  29.320  29.979  1.00  0.00     0.010 A 
ATOM     46  C   UNL A   1      38.196  29.723  27.642  1.00  0.00     0.010 A 
ATOM     47  C   UNL A   1      38.698  29.339  28.894  1.00  0.00    -0.014 A 
BRANCH  47  48
ATOM     48  C   UNL A   1      40.123  28.962  29.129  1.00  0.00     0.031 A 
ATOM     49  C   UNL A   1      40.668  27.633  28.660  1.00  0.00     0.074 A 
ATOM     50  C   UNL A   1      40.964  29.875  29.663  1.00  0.00     0.049 A 
ATOM     51  N   UNL A   1      41.888  27.170  28.757  1.00  0.00    -0.248 NA
ATOM     52  C   UNL A   1      39.732  26.696  28.013  1.00  0.00     0.031 C 
ATOM     53  C   UNL A   1      40.569  31.205  30.139  1.00  0.00     0.029 A 
ATOM     54  N   UNL A   1      42.328  29.866  29.829  1.00  0.00    -0.354 N 
ATOM     55  C   UNL A   1      41.855  25.882  28.233  1.00  0.00     0.074 A 
ATOM     56  C   UNL A   1      40.492  25.625  27.831  1.00  0.00     0.031 C 
ATOM     57  C   UNL A   1      41.667  31.925  30.404  1.00  0.00     0.029 A 
ATOM     58  C   UNL A   1      42.839  31.072  30.252  1.00  0.00     0.049 A 
ATOM     59  H   UNL A   1      42.887  29.071  29.661  1.00  0.00     0.167 HD
ATOM     60  C   UNL A   1      42.872  24.998  28.095  1.00  0.00     0.031 A 
ATOM     61  C   UNL A   1      44.104  31.462  30.511  1.00  0.00     0.031 A 
ATOM     62  C   UNL A   1      44.238  25.281  28.452  1.00  0.00     0.049 A 
ATOM     63  C   UNL A   1      45.209  30.464  30.357  1.00  0.00     0.074 A 
ATOM     64  C   UNL A   1      45.339  24.448  28.345  1.00  0.00     0.029 A 
ATOM     65  N   UNL A   1      44.696  26.488  28.957  1.00  0.00    -0.354 N 
ATOM     66  N   UNL A   1      45.142  29.232  29.914  1.00  0.00    -0.248 NA
ATOM     67  C   UNL A   1      46.555  30.890  30.761  1.00  0.00     0.031 C 
ATOM     68  C   UNL A   1      46.453  25.132  28.835  1.00  0.00     0.029 A 
ATOM     69  C   UNL A   1      46.060  26.416  29.185  1.00  0.00     0.049 A 
ATOM     70  H   UNL A   1      44.136  27.278  29.128  1.00  0.00     0.167 HD
ATOM     71  C   UNL A   1      46.432  28.730  29.994  1.00  0.00     0.074 A 
ATOM     72  C   UNL A   1      47.269  29.803  30.496  1.00  0.00     0.031 C 
ATOM     73  C   UNL A   1      46.878  27.487  29.693  1.00  0.00     0.031 A 
BRANCH  60  74
ATOM     74  C   UNL A   1      42.565  23.627  27.549  1.00  0.00    -0.014 A 
ATOM     75  C   UNL A   1      42.255  22.582  28.442  1.00  0.00     0.010 A 
ATOM     76  C   UNL A   1      42.692  23.338  26.179  1.00  0.00     0.010 A 
ATOM     77  C   UNL A   1      42.110  21.271  27.981  1.00  0.00     0.020 A 
ATOM     78  C   UNL A   1      42.519  22.030  25.711  1.00  0.00     0.020 A 
ATOM     79  C   UNL A   1      42.254  21.002  26.618  1.00  0.00     0.054 A 
BRANCH  79  80
ATOM     80  S   UNL A   1      42.081  19.290  26.039  1.00  0.00     0.124 S 
ATOM     81  O   UNL A   1      40.651  19.201  25.763  1.00  0.00    -0.237 OA
ATOM     82  O   UNL A   1      42.954  19.258  24.868  1.00  0.00    -0.237 OA
ATOM     83  O   UNL A   1      42.551  18.499  27.176  1.00  0.00    -0.744 OA
ENDBRANCH  79  80
ENDBRANCH  60  74
BRANCH  61  84
ATOM     84  C   UNL A   1      44.354  32.862  30.956  1.00  0.00    -0.014 A 
ATOM     85  C   UNL A   1      44.364  33.178  32.328  1.00  0.00     0.010 A 
ATOM     86  C   UNL A   1      44.467  33.900  30.016  1.00  0.00     0.010 A 
ATOM     87  C   UNL A   1      44.395  34.508  32.751  1.00  0.00     0.020 A 
ATOM     88  C   UNL A   1      44.536  35.233  30.437  1.00  0.00     0.020 A 
ATOM     89  C   UNL A   1      44.461  35.528  31.801  1.00  0.00     0.054 A 
BRANCH  89  90
ATOM     90  S   UNL A   1      44.425  37.252  32.369  1.00  0.00     0.124 S 
ATOM     91  O   UNL A   1      44.195  37.971  31.119  1.00  0.00    -0.237 OA
ATOM     92  O   UNL A   1      43.309  37.257  33.311  1.00  0.00    -0.237 OA
ATOM     93  O   UNL A   1      45.744  37.440  32.967  1.00  0.00    -0.744 OA
ENDBRANCH  89  90
ENDBRANCH  61  84
BRANCH  73  94
ATOM     94  C   UNL A   1      48.339  27.196  29.902  1.00  0.00    -0.014 A 
ATOM     95  C   UNL A   1      48.782  26.704  31.144  1.00  0.00     0.010 A 
ATOM     96  C   UNL A   1      49.283  27.526  28.915  1.00  0.00     0.010 A 
ATOM     97  C   UNL A   1      50.147  26.576  31.406  1.00  0.00     0.020 A 
ATOM     98  C   UNL A   1      50.649  27.375  29.165  1.00  0.00     0.020 A 
ATOM     99  C   UNL A   1      51.072  26.923  30.418  1.00  0.00     0.054 A 
BRANCH  99 100
ATOM    100  S   UNL A   1      52.842  26.778  30.787  1.00  0.00     0.124 S 
ATOM    101  O   UNL A   1      52.849  25.808  31.878  1.00  0.00    -0.237 OA
ATOM    102  O   UNL A   1      53.398  26.308  29.521  1.00  0.00    -0.237 OA
ATOM    103  O   UNL A   1      53.225  28.139  31.158  1.00  0.00    -0.744 OA
ENDBRANCH  99 100
ENDBRANCH  73  94
ENDBRANCH  47  48
ENDBRANCH  39  42
ENDBRANCH  37  38
ENDBRANCH  36  37
ENDBRANCH   1  36
TORSDOF 19
ENDMDL
