MODEL 1
REMARK VINA RESULT:     -12.2      0.000      0.000
REMARK SMILES O=C(NCCCNC(=O)[C@H]1O[C@@H](Oc2c(-c3cc(O)c(O)c(O)c3)oc3cc(O)cc(O)c3c2=O)[C@H](O)[C@@H](O)[C@@H]1O)c1ccc(-c2c3nc(c(-c4ccc(S(=O)(=O)[O-])cc4)c4ccc([nH]4)c(-c4ccc(S(=O)(=O)[O-])cc4)c4nc(c(-c5ccc(S(=O)(=O)[O-])cc5)c5ccc2[nH]5)C=C4)C=C3)cc1
REMARK SMILES IDX 5 1 4 2 3 3 1 4 2 5 42 7 43 8 101 9 44 10 100 11 45 12 46 13
REMARK SMILES IDX 47 14 94 15 48 16 99 17 93 18 95 19 49 20 98 21 92 22 91 23
REMARK SMILES IDX 50 25 80 26 61 27 79 28 62 29 65 30 78 31 96 32 63 33 64 34
REMARK SMILES IDX 77 36 97 37 66 38 51 39 52 40 60 41 53 42 59 43 54 44 55 45
REMARK SMILES IDX 56 46 57 47 58 48 81 49 82 50 90 51 83 52 89 53 84 54 85 55
REMARK SMILES IDX 86 56 87 57 88 58 67 59 68 60 76 61 69 62 75 63 70 64 71 65
REMARK SMILES IDX 72 66 73 67 74 68 6 69 7 70 8 71 9 73 10 74 11 75 40 76
REMARK SMILES IDX 12 77 38 78 36 79 41 80 13 82 14 83 15 84 34 85 25 86 33 87
REMARK SMILES IDX 35 88 26 89 31 90 27 91 30 92 28 93 16 94 17 95 24 96 18 97
REMARK SMILES IDX 22 98 20 99 19 100 23 102 21 104 32 106 29 108 39 110 37 112
REMARK H PARENT 3 6 95 24 65 35 7 72 41 81 19 101 23 103 21 105 32 107 29 109
REMARK H PARENT 39 111 37 113
REMARK Flexibility Score: inf
ROOT
ATOM      1  C   UNL A   1      34.284  28.594  27.024  1.00  0.00     0.042 C 
ENDROOT
BRANCH   1   2
ATOM      2  C   UNL A   1      35.508  29.352  27.523  1.00  0.00     0.118 C 
BRANCH   2   3
ATOM      3  N   UNL A   1      35.520  29.544  28.968  1.00  0.00    -0.352 N 
ATOM      4  O   UNL A   1      36.377  29.469  31.061  1.00  0.00    -0.269 OA
ATOM      5  C   UNL A   1      36.568  29.398  29.850  1.00  0.00     0.251 C 
ATOM      6  H   UNL A   1      34.661  29.815  29.367  1.00  0.00     0.163 HD
BRANCH   5   7
ATOM      7  C   UNL A   1      37.917  29.111  29.319  1.00  0.00     0.039 A 
ATOM      8  C   UNL A   1      38.848  28.438  30.112  1.00  0.00     0.014 A 
ATOM      9  C   UNL A   1      38.279  29.583  28.056  1.00  0.00     0.014 A 
ATOM     10  C   UNL A   1      40.184  28.431  29.736  1.00  0.00     0.010 A 
ATOM     11  C   UNL A   1      39.605  29.463  27.627  1.00  0.00     0.010 A 
ATOM     12  C   UNL A   1      40.581  28.932  28.484  1.00  0.00    -0.014 A 
BRANCH  12  13
ATOM     13  C   UNL A   1      42.014  28.844  28.096  1.00  0.00     0.031 A 
ATOM     14  C   UNL A   1      42.973  29.978  28.351  1.00  0.00     0.074 A 
ATOM     15  C   UNL A   1      42.462  27.692  27.556  1.00  0.00     0.049 A 
ATOM     16  N   UNL A   1      44.257  30.040  28.101  1.00  0.00    -0.248 NA
ATOM     17  C   UNL A   1      42.425  31.204  28.954  1.00  0.00     0.031 C 
ATOM     18  C   UNL A   1      41.631  26.520  27.263  1.00  0.00     0.029 A 
ATOM     19  N   UNL A   1      43.725  27.298  27.197  1.00  0.00    -0.354 N 
ATOM     20  C   UNL A   1      44.663  31.317  28.478  1.00  0.00     0.074 A 
ATOM     21  C   UNL A   1      43.484  32.002  28.964  1.00  0.00     0.031 C 
ATOM     22  C   UNL A   1      42.415  25.515  26.853  1.00  0.00     0.029 A 
ATOM     23  C   UNL A   1      43.788  25.993  26.769  1.00  0.00     0.049 A 
ATOM     24  H   UNL A   1      44.510  27.891  27.242  1.00  0.00     0.167 HD
ATOM     25  C   UNL A   1      45.902  31.865  28.424  1.00  0.00     0.031 A 
ATOM     26  C   UNL A   1      44.831  25.259  26.338  1.00  0.00     0.031 A 
ATOM     27  C   UNL A   1      47.074  31.170  27.954  1.00  0.00     0.049 A 
ATOM     28  C   UNL A   1      46.187  25.893  26.276  1.00  0.00     0.074 A 
ATOM     29  C   UNL A   1      48.378  31.630  27.883  1.00  0.00     0.029 A 
ATOM     30  N   UNL A   1      47.086  29.867  27.478  1.00  0.00    -0.354 N 
ATOM     31  N   UNL A   1      46.545  27.101  26.639  1.00  0.00    -0.248 NA
ATOM     32  C   UNL A   1      47.276  25.070  25.738  1.00  0.00     0.031 C 
ATOM     33  C   UNL A   1      49.170  30.620  27.323  1.00  0.00     0.029 A 
ATOM     34  C   UNL A   1      48.369  29.514  27.092  1.00  0.00     0.049 A 
ATOM     35  H   UNL A   1      46.298  29.280  27.422  1.00  0.00     0.167 HD
ATOM     36  C   UNL A   1      47.908  27.181  26.380  1.00  0.00     0.074 A 
ATOM     37  C   UNL A   1      48.310  25.891  25.854  1.00  0.00     0.031 C 
ATOM     38  C   UNL A   1      48.749  28.230  26.558  1.00  0.00     0.031 A 
BRANCH  25  39
ATOM     39  C   UNL A   1      46.050  33.304  28.850  1.00  0.00    -0.014 A 
ATOM     40  C   UNL A   1      45.879  34.360  27.937  1.00  0.00     0.010 A 
ATOM     41  C   UNL A   1      46.332  33.606  30.196  1.00  0.00     0.010 A 
ATOM     42  C   UNL A   1      46.035  35.687  28.351  1.00  0.00     0.020 A 
ATOM     43  C   UNL A   1      46.465  34.932  30.619  1.00  0.00     0.020 A 
ATOM     44  C   UNL A   1      46.336  35.964  29.689  1.00  0.00     0.054 A 
BRANCH  44  45
ATOM     45  S   UNL A   1      46.539  37.695  30.197  1.00  0.00     0.124 S 
ATOM     46  O   UNL A   1      45.674  38.391  29.247  1.00  0.00    -0.237 OA
ATOM     47  O   UNL A   1      46.065  37.683  31.579  1.00  0.00    -0.237 OA
ATOM     48  O   UNL A   1      47.969  37.940  30.034  1.00  0.00    -0.744 OA
ENDBRANCH  44  45
ENDBRANCH  25  39
BRANCH  26  49
ATOM     49  C   UNL A   1      44.614  23.847  25.924  1.00  0.00    -0.014 A 
ATOM     50  C   UNL A   1      44.216  23.541  24.612  1.00  0.00     0.010 A 
ATOM     51  C   UNL A   1      44.854  22.798  26.832  1.00  0.00     0.010 A 
ATOM     52  C   UNL A   1      44.056  22.210  24.216  1.00  0.00     0.020 A 
ATOM     53  C   UNL A   1      44.724  21.467  26.429  1.00  0.00     0.020 A 
ATOM     54  C   UNL A   1      44.317  21.182  25.125  1.00  0.00     0.054 A 
BRANCH  54  55
ATOM     55  S   UNL A   1      44.174  19.460  24.571  1.00  0.00     0.124 S 
ATOM     56  O   UNL A   1      44.470  19.575  23.147  1.00  0.00    -0.237 OA
ATOM     57  O   UNL A   1      45.188  18.783  25.377  1.00  0.00    -0.237 OA
ATOM     58  O   UNL A   1      42.794  19.111  24.900  1.00  0.00    -0.744 OA
ENDBRANCH  54  55
ENDBRANCH  26  49
BRANCH  38  59
ATOM     59  C   UNL A   1      50.192  28.009  26.200  1.00  0.00    -0.014 A 
ATOM     60  C   UNL A   1      50.663  28.265  24.900  1.00  0.00     0.010 A 
ATOM     61  C   UNL A   1      51.090  27.556  27.182  1.00  0.00     0.010 A 
ATOM     62  C   UNL A   1      52.003  28.032  24.578  1.00  0.00     0.020 A 
ATOM     63  C   UNL A   1      52.435  27.347  26.871  1.00  0.00     0.020 A 
ATOM     64  C   UNL A   1      52.879  27.569  25.565  1.00  0.00     0.054 A 
BRANCH  64  65
ATOM     65  S   UNL A   1      54.619  27.296  25.133  1.00  0.00     0.124 S 
ATOM     66  O   UNL A   1      54.979  28.568  24.510  1.00  0.00    -0.237 OA
ATOM     67  O   UNL A   1      55.237  27.035  26.430  1.00  0.00    -0.237 OA
ATOM     68  O   UNL A   1      54.574  26.149  24.229  1.00  0.00    -0.744 OA
ENDBRANCH  64  65
ENDBRANCH  38  59
ENDBRANCH  12  13
ENDBRANCH   5   7
ENDBRANCH   2   3
ENDBRANCH   1   2
BRANCH   1  69
ATOM     69  C   UNL A   1      34.104  28.698  25.522  1.00  0.00     0.117 C 
BRANCH  69  70
ATOM     70  N   UNL A   1      32.704  28.787  25.165  1.00  0.00    -0.354 N 
ATOM     71  C   UNL A   1      31.945  27.872  24.519  1.00  0.00     0.252 C 
ATOM     72  H   UNL A   1      32.245  29.619  25.426  1.00  0.00     0.163 HD
ATOM     73  O   UNL A   1      30.727  28.069  24.453  1.00  0.00    -0.272 OA
BRANCH  71  74
ATOM     74  C   UNL A   1      32.544  26.577  23.966  1.00  0.00     0.242 C 
ATOM     75  O   UNL A   1      32.351  25.366  24.705  1.00  0.00    -0.324 OA
ATOM     76  C   UNL A   1      32.109  26.299  22.526  1.00  0.00     0.184 C 
ATOM     77  C   UNL A   1      33.377  24.422  24.361  1.00  0.00     0.340 C 
ATOM     78  C   UNL A   1      33.180  25.394  21.920  1.00  0.00     0.181 C 
ATOM     79  C   UNL A   1      33.495  24.201  22.824  1.00  0.00     0.214 C 
BRANCH  76  80
ATOM     80  O   UNL A   1      31.966  27.436  21.670  1.00  0.00    -0.387 OA
ATOM     81  H   UNL A   1      32.817  27.633  21.249  1.00  0.00     0.211 HD
ENDBRANCH  76  80
BRANCH  77  82
ATOM     82  O   UNL A   1      33.306  23.122  24.998  1.00  0.00    -0.454 OA
BRANCH  82  83
ATOM     83  C   UNL A   1      34.446  22.431  25.365  1.00  0.00     0.214 A 
ATOM     84  C   UNL A   1      34.719  21.160  24.993  1.00  0.00     0.181 A 
ATOM     85  C   UNL A   1      35.580  23.227  25.944  1.00  0.00     0.239 A 
ATOM     86  O   UNL A   1      35.910  20.505  25.215  1.00  0.00    -0.452 OA
ATOM     87  C   UNL A   1      36.927  22.585  25.943  1.00  0.00     0.111 A 
ATOM     88  O   UNL A   1      35.383  24.363  26.361  1.00  0.00    -0.285 OA
ATOM     89  C   UNL A   1      37.002  21.244  25.569  1.00  0.00     0.146 A 
ATOM     90  C   UNL A   1      38.119  23.245  26.279  1.00  0.00     0.134 A 
ATOM     91  C   UNL A   1      38.223  20.566  25.531  1.00  0.00     0.094 A 
ATOM     92  C   UNL A   1      39.350  22.570  26.250  1.00  0.00     0.093 A 
ATOM     93  C   UNL A   1      39.387  21.232  25.875  1.00  0.00     0.123 A 
BRANCH  84  94
ATOM     94  C   UNL A   1      33.743  20.276  24.344  1.00  0.00     0.029 A 
ATOM     95  C   UNL A   1      32.959  20.808  23.303  1.00  0.00     0.062 A 
ATOM     96  C   UNL A   1      33.661  18.907  24.659  1.00  0.00     0.062 A 
ATOM     97  C   UNL A   1      32.205  19.956  22.510  1.00  0.00     0.162 A 
ATOM     98  C   UNL A   1      32.906  18.070  23.845  1.00  0.00     0.162 A 
ATOM     99  C   UNL A   1      32.220  18.588  22.752  1.00  0.00     0.200 A 
BRANCH  97 100
ATOM    100  O   UNL A   1      31.517  20.472  21.453  1.00  0.00    -0.504 OA
ATOM    101  H   UNL A   1      30.833  21.095  21.599  1.00  0.00     0.293 HD
ENDBRANCH  97 100
BRANCH  98 102
ATOM    102  O   UNL A   1      32.946  16.721  24.049  1.00  0.00    -0.504 OA
ATOM    103  H   UNL A   1      32.982  16.137  23.317  1.00  0.00     0.293 HD
ENDBRANCH  98 102
BRANCH  99 104
ATOM    104  O   UNL A   1      31.699  17.725  21.825  1.00  0.00    -0.502 OA
ATOM    105  H   UNL A   1      31.756  16.800  21.962  1.00  0.00     0.293 HD
ENDBRANCH  99 104
ENDBRANCH  84  94
BRANCH  90 106
ATOM    106  O   UNL A   1      38.116  24.570  26.616  1.00  0.00    -0.507 OA
ATOM    107  H   UNL A   1      37.911  24.829  27.492  1.00  0.00     0.293 HD
ENDBRANCH  90 106
BRANCH  93 108
ATOM    108  O   UNL A   1      40.554  20.531  25.820  1.00  0.00    -0.508 OA
ATOM    109  H   UNL A   1      41.181  20.718  25.148  1.00  0.00     0.293 HD
ENDBRANCH  93 108
ENDBRANCH  82  83
ENDBRANCH  77  82
BRANCH  78 110
ATOM    110  O   UNL A   1      32.731  24.912  20.628  1.00  0.00    -0.387 OA
ATOM    111  H   UNL A   1      32.793  25.628  19.976  1.00  0.00     0.211 HD
ENDBRANCH  78 110
BRANCH  79 112
ATOM    112  O   UNL A   1      34.786  23.682  22.474  1.00  0.00    -0.384 OA
ATOM    113  H   UNL A   1      35.003  23.939  21.565  1.00  0.00     0.211 HD
ENDBRANCH  79 112
ENDBRANCH  71  74
ENDBRANCH  69  70
ENDBRANCH   1  69
TORSDOF 24
ENDMDL
MODEL 2
REMARK VINA RESULT:     -11.9      4.771      5.721
REMARK SMILES O=C(NCCCNC(=O)[C@H]1O[C@@H](Oc2c(-c3cc(O)c(O)c(O)c3)oc3cc(O)cc(O)c3c2=O)[C@H](O)[C@@H](O)[C@@H]1O)c1ccc(-c2c3nc(c(-c4ccc(S(=O)(=O)[O-])cc4)c4ccc([nH]4)c(-c4ccc(S(=O)(=O)[O-])cc4)c4nc(c(-c5ccc(S(=O)(=O)[O-])cc5)c5ccc2[nH]5)C=C4)C=C3)cc1
REMARK SMILES IDX 5 1 4 2 3 3 1 4 2 5 42 7 43 8 101 9 44 10 100 11 45 12 46 13
REMARK SMILES IDX 47 14 94 15 48 16 99 17 93 18 95 19 49 20 98 21 92 22 91 23
REMARK SMILES IDX 50 25 80 26 61 27 79 28 62 29 65 30 78 31 96 32 63 33 64 34
REMARK SMILES IDX 77 36 97 37 66 38 51 39 52 40 60 41 53 42 59 43 54 44 55 45
REMARK SMILES IDX 56 46 57 47 58 48 81 49 82 50 90 51 83 52 89 53 84 54 85 55
REMARK SMILES IDX 86 56 87 57 88 58 67 59 68 60 76 61 69 62 75 63 70 64 71 65
REMARK SMILES IDX 72 66 73 67 74 68 6 69 7 70 8 71 9 73 10 74 11 75 40 76
REMARK SMILES IDX 12 77 38 78 36 79 41 80 13 82 14 83 15 84 34 85 25 86 33 87
REMARK SMILES IDX 35 88 26 89 31 90 27 91 30 92 28 93 16 94 17 95 24 96 18 97
REMARK SMILES IDX 22 98 20 99 19 100 23 102 21 104 32 106 29 108 39 110 37 112
REMARK H PARENT 3 6 95 24 65 35 7 72 41 81 19 101 23 103 21 105 32 107 29 109
REMARK H PARENT 39 111 37 113
REMARK Flexibility Score: inf
ROOT
ATOM      1  C   UNL A   1      32.451  28.406  26.398  1.00  0.00     0.042 C 
ENDROOT
BRANCH   1   2
ATOM      2  C   UNL A   1      33.605  29.054  27.154  1.00  0.00     0.118 C 
BRANCH   2   3
ATOM      3  N   UNL A   1      33.435  30.488  27.350  1.00  0.00    -0.352 N 
ATOM      4  O   UNL A   1      33.928  32.541  28.167  1.00  0.00    -0.269 OA
ATOM      5  C   UNL A   1      34.282  31.382  27.967  1.00  0.00     0.251 C 
ATOM      6  H   UNL A   1      32.601  30.870  26.992  1.00  0.00     0.163 HD
BRANCH   5   7
ATOM      7  C   UNL A   1      35.608  30.914  28.425  1.00  0.00     0.039 A 
ATOM      8  C   UNL A   1      35.711  29.745  29.179  1.00  0.00     0.014 A 
ATOM      9  C   UNL A   1      36.743  31.686  28.166  1.00  0.00     0.014 A 
ATOM     10  C   UNL A   1      36.893  29.468  29.850  1.00  0.00     0.010 A 
ATOM     11  C   UNL A   1      37.966  31.333  28.746  1.00  0.00     0.010 A 
ATOM     12  C   UNL A   1      38.041  30.251  29.635  1.00  0.00    -0.014 A 
BRANCH  12  13
ATOM     13  C   UNL A   1      39.306  29.878  30.325  1.00  0.00     0.031 A 
ATOM     14  C   UNL A   1      39.714  30.520  31.625  1.00  0.00     0.074 A 
ATOM     15  C   UNL A   1      40.063  28.899  29.790  1.00  0.00     0.049 A 
ATOM     16  N   UNL A   1      40.769  30.278  32.364  1.00  0.00    -0.248 NA
ATOM     17  C   UNL A   1      38.839  31.574  32.164  1.00  0.00     0.031 C 
ATOM     18  C   UNL A   1      39.770  28.197  28.535  1.00  0.00     0.029 A 
ATOM     19  N   UNL A   1      41.205  28.293  30.246  1.00  0.00    -0.354 N 
ATOM     20  C   UNL A   1      40.705  31.171  33.431  1.00  0.00     0.074 A 
ATOM     21  C   UNL A   1      39.513  31.968  33.236  1.00  0.00     0.031 C 
ATOM     22  C   UNL A   1      40.654  27.205  28.368  1.00  0.00     0.029 A 
ATOM     23  C   UNL A   1      41.627  27.254  29.450  1.00  0.00     0.049 A 
ATOM     24  H   UNL A   1      41.676  28.574  31.063  1.00  0.00     0.167 HD
ATOM     25  C   UNL A   1      41.561  31.311  34.473  1.00  0.00     0.031 A 
ATOM     26  C   UNL A   1      42.688  26.435  29.565  1.00  0.00     0.031 A 
ATOM     27  C   UNL A   1      42.737  30.501  34.668  1.00  0.00     0.049 A 
ATOM     28  C   UNL A   1      43.625  26.619  30.720  1.00  0.00     0.074 A 
ATOM     29  C   UNL A   1      43.654  30.549  35.705  1.00  0.00     0.029 A 
ATOM     30  N   UNL A   1      43.159  29.495  33.811  1.00  0.00    -0.354 N 
ATOM     31  N   UNL A   1      43.543  27.469  31.715  1.00  0.00    -0.248 NA
ATOM     32  C   UNL A   1      44.801  25.743  30.761  1.00  0.00     0.031 C 
ATOM     33  C   UNL A   1      44.653  29.602  35.451  1.00  0.00     0.029 A 
ATOM     34  C   UNL A   1      44.332  28.929  34.283  1.00  0.00     0.049 A 
ATOM     35  H   UNL A   1      42.692  29.223  32.988  1.00  0.00     0.167 HD
ATOM     36  C   UNL A   1      44.656  27.224  32.509  1.00  0.00     0.074 A 
ATOM     37  C   UNL A   1      45.379  26.130  31.890  1.00  0.00     0.031 C 
ATOM     38  C   UNL A   1      45.045  27.851  33.647  1.00  0.00     0.031 A 
BRANCH  25  39
ATOM     39  C   UNL A   1      41.278  32.409  35.468  1.00  0.00    -0.014 A 
ATOM     40  C   UNL A   1      41.870  33.678  35.348  1.00  0.00     0.010 A 
ATOM     41  C   UNL A   1      40.376  32.174  36.524  1.00  0.00     0.010 A 
ATOM     42  C   UNL A   1      41.604  34.677  36.290  1.00  0.00     0.020 A 
ATOM     43  C   UNL A   1      40.089  33.177  37.455  1.00  0.00     0.020 A 
ATOM     44  C   UNL A   1      40.722  34.416  37.344  1.00  0.00     0.054 A 
BRANCH  44  45
ATOM     45  S   UNL A   1      40.399  35.728  38.556  1.00  0.00     0.124 S 
ATOM     46  O   UNL A   1      39.902  36.808  37.706  1.00  0.00    -0.237 OA
ATOM     47  O   UNL A   1      39.405  35.118  39.436  1.00  0.00    -0.237 OA
ATOM     48  O   UNL A   1      41.705  35.967  39.166  1.00  0.00    -0.744 OA
ENDBRANCH  44  45
ENDBRANCH  25  39
BRANCH  26  49
ATOM     49  C   UNL A   1      42.914  25.378  28.543  1.00  0.00    -0.014 A 
ATOM     50  C   UNL A   1      43.707  25.637  27.412  1.00  0.00     0.010 A 
ATOM     51  C   UNL A   1      42.375  24.090  28.724  1.00  0.00     0.010 A 
ATOM     52  C   UNL A   1      43.952  24.627  26.477  1.00  0.00     0.020 A 
ATOM     53  C   UNL A   1      42.643  23.072  27.807  1.00  0.00     0.020 A 
ATOM     54  C   UNL A   1      43.423  23.350  26.683  1.00  0.00     0.054 A 
BRANCH  54  55
ATOM     55  S   UNL A   1      43.812  22.034  25.496  1.00  0.00     0.124 S 
ATOM     56  O   UNL A   1      43.385  22.630  24.235  1.00  0.00    -0.237 OA
ATOM     57  O   UNL A   1      45.255  21.872  25.664  1.00  0.00    -0.237 OA
ATOM     58  O   UNL A   1      43.009  20.907  25.963  1.00  0.00    -0.744 OA
ENDBRANCH  54  55
ENDBRANCH  26  49
BRANCH  38  59
ATOM     59  C   UNL A   1      46.301  27.347  34.302  1.00  0.00    -0.014 A 
ATOM     60  C   UNL A   1      47.557  27.890  33.977  1.00  0.00     0.010 A 
ATOM     61  C   UNL A   1      46.220  26.327  35.267  1.00  0.00     0.010 A 
ATOM     62  C   UNL A   1      48.716  27.393  34.578  1.00  0.00     0.020 A 
ATOM     63  C   UNL A   1      47.374  25.846  35.888  1.00  0.00     0.020 A 
ATOM     64  C   UNL A   1      48.617  26.370  35.527  1.00  0.00     0.054 A 
BRANCH  64  65
ATOM     65  S   UNL A   1      50.132  25.757  36.313  1.00  0.00     0.124 S 
ATOM     66  O   UNL A   1      49.599  24.883  37.356  1.00  0.00    -0.237 OA
ATOM     67  O   UNL A   1      50.814  25.079  35.214  1.00  0.00    -0.237 OA
ATOM     68  O   UNL A   1      50.788  26.972  36.791  1.00  0.00    -0.744 OA
ENDBRANCH  64  65
ENDBRANCH  38  59
ENDBRANCH  12  13
ENDBRANCH   5   7
ENDBRANCH   2   3
ENDBRANCH   1   2
BRANCH   1  69
ATOM     69  C   UNL A   1      32.391  28.834  24.944  1.00  0.00     0.117 C 
BRANCH  69  70
ATOM     70  N   UNL A   1      31.098  28.539  24.362  1.00  0.00    -0.354 N 
ATOM     71  C   UNL A   1      30.696  27.402  23.750  1.00  0.00     0.252 C 
ATOM     72  H   UNL A   1      30.427  29.258  24.420  1.00  0.00     0.163 HD
ATOM     73  O   UNL A   1      29.500  27.288  23.464  1.00  0.00    -0.272 OA
BRANCH  71  74
ATOM     74  C   UNL A   1      31.659  26.240  23.500  1.00  0.00     0.242 C 
ATOM     75  O   UNL A   1      31.544  25.070  24.316  1.00  0.00    -0.324 OA
ATOM     76  C   UNL A   1      31.649  25.774  22.042  1.00  0.00     0.184 C 
ATOM     77  C   UNL A   1      32.792  24.358  24.320  1.00  0.00     0.340 C 
ATOM     78  C   UNL A   1      32.994  25.094  21.798  1.00  0.00     0.181 C 
ATOM     79  C   UNL A   1      33.317  24.066  22.884  1.00  0.00     0.214 C 
BRANCH  76  80
ATOM     80  O   UNL A   1      31.488  26.789  21.048  1.00  0.00    -0.387 OA
ATOM     81  H   UNL A   1      30.951  27.512  21.407  1.00  0.00     0.211 HD
ENDBRANCH  76  80
BRANCH  77  82
ATOM     82  O   UNL A   1      32.835  23.122  25.075  1.00  0.00    -0.454 OA
BRANCH  82  83
ATOM     83  C   UNL A   1      34.032  22.520  25.413  1.00  0.00     0.214 A 
ATOM     84  C   UNL A   1      34.411  21.291  24.995  1.00  0.00     0.181 A 
ATOM     85  C   UNL A   1      35.097  23.390  26.016  1.00  0.00     0.239 A 
ATOM     86  O   UNL A   1      35.656  20.734  25.189  1.00  0.00    -0.452 OA
ATOM     87  C   UNL A   1      36.494  22.867  25.987  1.00  0.00     0.111 A 
ATOM     88  O   UNL A   1      34.806  24.489  26.474  1.00  0.00    -0.285 OA
ATOM     89  C   UNL A   1      36.682  21.551  25.565  1.00  0.00     0.146 A 
ATOM     90  C   UNL A   1      37.627  23.616  26.342  1.00  0.00     0.134 A 
ATOM     91  C   UNL A   1      37.956  20.983  25.498  1.00  0.00     0.094 A 
ATOM     92  C   UNL A   1      38.912  23.051  26.285  1.00  0.00     0.093 A 
ATOM     93  C   UNL A   1      39.061  21.735  25.862  1.00  0.00     0.123 A 
BRANCH  84  94
ATOM     94  C   UNL A   1      33.511  20.349  24.318  1.00  0.00     0.029 A 
ATOM     95  C   UNL A   1      32.814  20.802  23.181  1.00  0.00     0.062 A 
ATOM     96  C   UNL A   1      33.423  19.001  24.707  1.00  0.00     0.062 A 
ATOM     97  C   UNL A   1      32.147  19.889  22.379  1.00  0.00     0.162 A 
ATOM     98  C   UNL A   1      32.756  18.101  23.883  1.00  0.00     0.162 A 
ATOM     99  C   UNL A   1      32.161  18.538  22.704  1.00  0.00     0.200 A 
BRANCH  97 100
ATOM    100  O   UNL A   1      31.547  20.326  21.236  1.00  0.00    -0.504 OA
ATOM    101  H   UNL A   1      31.463  19.750  20.502  1.00  0.00     0.293 HD
ENDBRANCH  97 100
BRANCH  98 102
ATOM    102  O   UNL A   1      32.800  16.767  24.172  1.00  0.00    -0.504 OA
ATOM    103  H   UNL A   1      32.291  16.424  24.879  1.00  0.00     0.293 HD
ENDBRANCH  98 102
BRANCH  99 104
ATOM    104  O   UNL A   1      31.739  17.611  21.790  1.00  0.00    -0.502 OA
ATOM    105  H   UNL A   1      32.269  16.862  21.602  1.00  0.00     0.293 HD
ENDBRANCH  99 104
ENDBRANCH  84  94
BRANCH  90 106
ATOM    106  O   UNL A   1      37.512  24.922  26.727  1.00  0.00    -0.507 OA
ATOM    107  H   UNL A   1      37.878  25.601  26.195  1.00  0.00     0.293 HD
ENDBRANCH  90 106
BRANCH  93 108
ATOM    108  O   UNL A   1      40.284  21.140  25.778  1.00  0.00    -0.508 OA
ATOM    109  H   UNL A   1      41.007  21.606  25.405  1.00  0.00     0.293 HD
ENDBRANCH  93 108
ENDBRANCH  82  83
ENDBRANCH  77  82
BRANCH  78 110
ATOM    110  O   UNL A   1      32.975  24.436  20.505  1.00  0.00    -0.387 OA
ATOM    111  H   UNL A   1      32.273  23.768  20.492  1.00  0.00     0.211 HD
ENDBRANCH  78 110
BRANCH  79 112
ATOM    112  O   UNL A   1      34.732  23.827  22.890  1.00  0.00    -0.384 OA
ATOM    113  H   UNL A   1      35.002  23.502  23.762  1.00  0.00     0.211 HD
ENDBRANCH  79 112
ENDBRANCH  71  74
ENDBRANCH  69  70
ENDBRANCH   1  69
TORSDOF 24
ENDMDL
MODEL 3
REMARK VINA RESULT:     -11.6      4.886      9.117
REMARK SMILES O=C(NCCCNC(=O)[C@H]1O[C@@H](Oc2c(-c3cc(O)c(O)c(O)c3)oc3cc(O)cc(O)c3c2=O)[C@H](O)[C@@H](O)[C@@H]1O)c1ccc(-c2c3nc(c(-c4ccc(S(=O)(=O)[O-])cc4)c4ccc([nH]4)c(-c4ccc(S(=O)(=O)[O-])cc4)c4nc(c(-c5ccc(S(=O)(=O)[O-])cc5)c5ccc2[nH]5)C=C4)C=C3)cc1
REMARK SMILES IDX 5 1 4 2 3 3 1 4 2 5 42 7 43 8 101 9 44 10 100 11 45 12 46 13
REMARK SMILES IDX 47 14 94 15 48 16 99 17 93 18 95 19 49 20 98 21 92 22 91 23
REMARK SMILES IDX 50 25 80 26 61 27 79 28 62 29 65 30 78 31 96 32 63 33 64 34
REMARK SMILES IDX 77 36 97 37 66 38 51 39 52 40 60 41 53 42 59 43 54 44 55 45
REMARK SMILES IDX 56 46 57 47 58 48 81 49 82 50 90 51 83 52 89 53 84 54 85 55
REMARK SMILES IDX 86 56 87 57 88 58 67 59 68 60 76 61 69 62 75 63 70 64 71 65
REMARK SMILES IDX 72 66 73 67 74 68 6 69 7 70 8 71 9 73 10 74 11 75 40 76
REMARK SMILES IDX 12 77 38 78 36 79 41 80 13 82 14 83 15 84 34 85 25 86 33 87
REMARK SMILES IDX 35 88 26 89 31 90 27 91 30 92 28 93 16 94 17 95 24 96 18 97
REMARK SMILES IDX 22 98 20 99 19 100 23 102 21 104 32 106 29 108 39 110 37 112
REMARK H PARENT 3 6 95 24 65 35 7 72 41 81 19 101 23 103 21 105 32 107 29 109
REMARK H PARENT 39 111 37 113
REMARK Flexibility Score: inf
ROOT
ATOM      1  C   UNL A   1      33.759  28.266  26.136  1.00  0.00     0.042 C 
ENDROOT
BRANCH   1   2
ATOM      2  C   UNL A   1      34.726  29.104  26.965  1.00  0.00     0.118 C 
BRANCH   2   3
ATOM      3  N   UNL A   1      34.422  30.530  26.938  1.00  0.00    -0.352 N 
ATOM      4  O   UNL A   1      34.501  32.678  27.646  1.00  0.00    -0.269 OA
ATOM      5  C   UNL A   1      34.963  31.542  27.700  1.00  0.00     0.251 C 
ATOM      6  H   UNL A   1      33.738  30.806  26.287  1.00  0.00     0.163 HD
BRANCH   5   7
ATOM      7  C   UNL A   1      36.081  31.231  28.616  1.00  0.00     0.039 A 
ATOM      8  C   UNL A   1      37.300  31.896  28.478  1.00  0.00     0.014 A 
ATOM      9  C   UNL A   1      35.936  30.217  29.566  1.00  0.00     0.014 A 
ATOM     10  C   UNL A   1      38.422  31.405  29.129  1.00  0.00     0.010 A 
ATOM     11  C   UNL A   1      37.046  29.807  30.313  1.00  0.00     0.010 A 
ATOM     12  C   UNL A   1      38.311  30.361  30.064  1.00  0.00    -0.014 A 
BRANCH  12  13
ATOM     13  C   UNL A   1      39.530  29.910  30.788  1.00  0.00     0.031 A 
ATOM     14  C   UNL A   1      40.405  28.808  30.250  1.00  0.00     0.074 A 
ATOM     15  C   UNL A   1      39.878  30.554  31.921  1.00  0.00     0.049 A 
ATOM     16  N   UNL A   1      41.517  28.326  30.747  1.00  0.00    -0.248 NA
ATOM     17  C   UNL A   1      39.978  28.153  29.003  1.00  0.00     0.031 C 
ATOM     18  C   UNL A   1      39.113  31.642  32.540  1.00  0.00     0.029 A 
ATOM     19  N   UNL A   1      40.977  30.423  32.730  1.00  0.00    -0.354 N 
ATOM     20  C   UNL A   1      41.903  27.291  29.899  1.00  0.00     0.074 A 
ATOM     21  C   UNL A   1      40.897  27.207  28.861  1.00  0.00     0.031 C 
ATOM     22  C   UNL A   1      39.806  32.133  33.576  1.00  0.00     0.029 A 
ATOM     23  C   UNL A   1      41.016  31.343  33.750  1.00  0.00     0.049 A 
ATOM     24  H   UNL A   1      41.670  29.737  32.592  1.00  0.00     0.167 HD
ATOM     25  C   UNL A   1      42.992  26.488  29.980  1.00  0.00     0.031 A 
ATOM     26  C   UNL A   1      41.918  31.527  34.732  1.00  0.00     0.031 A 
ATOM     27  C   UNL A   1      43.997  26.589  31.008  1.00  0.00     0.049 A 
ATOM     28  C   UNL A   1      43.106  30.617  34.806  1.00  0.00     0.074 A 
ATOM     29  C   UNL A   1      45.150  25.838  31.163  1.00  0.00     0.029 A 
ATOM     30  N   UNL A   1      43.972  27.499  32.055  1.00  0.00    -0.354 N 
ATOM     31  N   UNL A   1      43.448  29.647  33.993  1.00  0.00    -0.248 NA
ATOM     32  C   UNL A   1      44.022  30.820  35.934  1.00  0.00     0.031 C 
ATOM     33  C   UNL A   1      45.799  26.265  32.328  1.00  0.00     0.029 A 
ATOM     34  C   UNL A   1      45.077  27.315  32.870  1.00  0.00     0.049 A 
ATOM     35  H   UNL A   1      43.272  28.176  32.197  1.00  0.00     0.167 HD
ATOM     36  C   UNL A   1      44.628  29.126  34.508  1.00  0.00     0.074 A 
ATOM     37  C   UNL A   1      44.951  29.906  35.686  1.00  0.00     0.031 C 
ATOM     38  C   UNL A   1      45.375  28.092  34.047  1.00  0.00     0.031 A 
BRANCH  25  39
ATOM     39  C   UNL A   1      43.135  25.398  28.947  1.00  0.00    -0.014 A 
ATOM     40  C   UNL A   1      42.584  24.120  29.147  1.00  0.00     0.010 A 
ATOM     41  C   UNL A   1      43.808  25.669  27.740  1.00  0.00     0.010 A 
ATOM     42  C   UNL A   1      42.741  23.121  28.181  1.00  0.00     0.020 A 
ATOM     43  C   UNL A   1      43.947  24.679  26.762  1.00  0.00     0.020 A 
ATOM     44  C   UNL A   1      43.431  23.404  26.998  1.00  0.00     0.054 A 
BRANCH  44  45
ATOM     45  S   UNL A   1      43.627  22.087  25.765  1.00  0.00     0.124 S 
ATOM     46  O   UNL A   1      45.075  22.065  25.574  1.00  0.00    -0.237 OA
ATOM     47  O   UNL A   1      43.068  20.922  26.446  1.00  0.00    -0.237 OA
ATOM     48  O   UNL A   1      42.855  22.565  24.620  1.00  0.00    -0.744 OA
ENDBRANCH  44  45
ENDBRANCH  25  39
BRANCH  26  49
ATOM     49  C   UNL A   1      41.710  32.615  35.725  1.00  0.00    -0.014 A 
ATOM     50  C   UNL A   1      42.250  33.893  35.507  1.00  0.00     0.010 A 
ATOM     51  C   UNL A   1      40.927  32.387  36.872  1.00  0.00     0.010 A 
ATOM     52  C   UNL A   1      42.015  34.924  36.422  1.00  0.00     0.020 A 
ATOM     53  C   UNL A   1      40.665  33.422  37.772  1.00  0.00     0.020 A 
ATOM     54  C   UNL A   1      41.220  34.683  37.546  1.00  0.00     0.054 A 
BRANCH  54  55
ATOM     55  S   UNL A   1      40.867  36.051  38.684  1.00  0.00     0.124 S 
ATOM     56  O   UNL A   1      40.405  35.343  39.873  1.00  0.00    -0.237 OA
ATOM     57  O   UNL A   1      42.166  36.709  38.801  1.00  0.00    -0.237 OA
ATOM     58  O   UNL A   1      39.848  36.825  37.979  1.00  0.00    -0.744 OA
ENDBRANCH  54  55
ENDBRANCH  26  49
BRANCH  38  59
ATOM     59  C   UNL A   1      46.627  27.767  34.814  1.00  0.00    -0.014 A 
ATOM     60  C   UNL A   1      46.639  26.747  35.782  1.00  0.00     0.010 A 
ATOM     61  C   UNL A   1      47.809  28.480  34.550  1.00  0.00     0.010 A 
ATOM     62  C   UNL A   1      47.805  26.473  36.502  1.00  0.00     0.020 A 
ATOM     63  C   UNL A   1      48.982  28.193  35.249  1.00  0.00     0.020 A 
ATOM     64  C   UNL A   1      48.968  27.202  36.233  1.00  0.00     0.054 A 
BRANCH  64  65
ATOM     65  S   UNL A   1      50.477  26.815  37.162  1.00  0.00     0.124 S 
ATOM     66  O   UNL A   1      50.056  25.663  37.957  1.00  0.00    -0.237 OA
ATOM     67  O   UNL A   1      51.443  26.529  36.104  1.00  0.00    -0.237 OA
ATOM     68  O   UNL A   1      50.737  28.036  37.922  1.00  0.00    -0.744 OA
ENDBRANCH  64  65
ENDBRANCH  38  59
ENDBRANCH  12  13
ENDBRANCH   5   7
ENDBRANCH   2   3
ENDBRANCH   1   2
BRANCH   1  69
ATOM     69  C   UNL A   1      33.373  28.938  24.832  1.00  0.00     0.117 C 
BRANCH  69  70
ATOM     70  N   UNL A   1      31.961  28.776  24.555  1.00  0.00    -0.354 N 
ATOM     71  C   UNL A   1      31.322  27.683  24.079  1.00  0.00     0.252 C 
ATOM     72  H   UNL A   1      31.394  29.561  24.738  1.00  0.00     0.163 HD
ATOM     73  O   UNL A   1      30.087  27.693  24.065  1.00  0.00    -0.272 OA
BRANCH  71  74
ATOM     74  C   UNL A   1      32.084  26.426  23.658  1.00  0.00     0.242 C 
ATOM     75  O   UNL A   1      31.938  25.242  24.450  1.00  0.00    -0.324 OA
ATOM     76  C   UNL A   1      31.807  26.031  22.206  1.00  0.00     0.184 C 
ATOM     77  C   UNL A   1      33.073  24.385  24.252  1.00  0.00     0.340 C 
ATOM     78  C   UNL A   1      33.006  25.204  21.748  1.00  0.00     0.181 C 
ATOM     79  C   UNL A   1      33.347  24.096  22.746  1.00  0.00     0.214 C 
BRANCH  76  80
ATOM     80  O   UNL A   1      31.637  27.103  21.274  1.00  0.00    -0.387 OA
ATOM     81  H   UNL A   1      32.483  27.291  20.840  1.00  0.00     0.211 HD
ENDBRANCH  76  80
BRANCH  77  82
ATOM     82  O   UNL A   1      33.066  23.119  24.958  1.00  0.00    -0.454 OA
BRANCH  82  83
ATOM     83  C   UNL A   1      34.239  22.472  25.299  1.00  0.00     0.214 A 
ATOM     84  C   UNL A   1      34.570  21.227  24.888  1.00  0.00     0.181 A 
ATOM     85  C   UNL A   1      35.337  23.303  25.898  1.00  0.00     0.239 A 
ATOM     86  O   UNL A   1      35.791  20.623  25.086  1.00  0.00    -0.452 OA
ATOM     87  C   UNL A   1      36.712  22.726  25.872  1.00  0.00     0.111 A 
ATOM     88  O   UNL A   1      35.089  24.416  26.350  1.00  0.00    -0.285 OA
ATOM     89  C   UNL A   1      36.849  21.402  25.458  1.00  0.00     0.146 A 
ATOM     90  C   UNL A   1      37.874  23.432  26.224  1.00  0.00     0.134 A 
ATOM     91  C   UNL A   1      38.100  20.784  25.395  1.00  0.00     0.094 A 
ATOM     92  C   UNL A   1      39.135  22.817  26.170  1.00  0.00     0.093 A 
ATOM     93  C   UNL A   1      39.234  21.494  25.755  1.00  0.00     0.123 A 
BRANCH  84  94
ATOM     94  C   UNL A   1      33.633  20.318  24.216  1.00  0.00     0.029 A 
ATOM     95  C   UNL A   1      32.865  20.828  23.153  1.00  0.00     0.062 A 
ATOM     96  C   UNL A   1      33.576  18.949  24.533  1.00  0.00     0.062 A 
ATOM     97  C   UNL A   1      32.153  19.956  22.343  1.00  0.00     0.162 A 
ATOM     98  C   UNL A   1      32.863  18.091  23.703  1.00  0.00     0.162 A 
ATOM     99  C   UNL A   1      32.194  18.589  22.590  1.00  0.00     0.200 A 
BRANCH  97 100
ATOM    100  O   UNL A   1      31.481  20.452  21.266  1.00  0.00    -0.504 OA
ATOM    101  H   UNL A   1      31.953  20.866  20.570  1.00  0.00     0.293 HD
ENDBRANCH  97 100
BRANCH  98 102
ATOM    102  O   UNL A   1      32.932  16.744  23.912  1.00  0.00    -0.504 OA
ATOM    103  H   UNL A   1      32.425  16.161  23.381  1.00  0.00     0.293 HD
ENDBRANCH  98 102
BRANCH  99 104
ATOM    104  O   UNL A   1      31.720  17.711  21.652  1.00  0.00    -0.502 OA
ATOM    105  H   UNL A   1      32.088  16.852  21.585  1.00  0.00     0.293 HD
ENDBRANCH  99 104
ENDBRANCH  84  94
BRANCH  90 106
ATOM    106  O   UNL A   1      37.810  24.744  26.601  1.00  0.00    -0.507 OA
ATOM    107  H   UNL A   1      38.118  25.004  27.447  1.00  0.00     0.293 HD
ENDBRANCH  90 106
BRANCH  93 108
ATOM    108  O   UNL A   1      40.432  20.851  25.674  1.00  0.00    -0.508 OA
ATOM    109  H   UNL A   1      40.960  20.749  26.441  1.00  0.00     0.293 HD
ENDBRANCH  93 108
ENDBRANCH  82  83
ENDBRANCH  77  82
BRANCH  78 110
ATOM    110  O   UNL A   1      32.720  24.614  20.454  1.00  0.00    -0.387 OA
ATOM    111  H   UNL A   1      32.439  25.307  19.838  1.00  0.00     0.211 HD
ENDBRANCH  78 110
BRANCH  79 112
ATOM    112  O   UNL A   1      34.707  23.687  22.538  1.00  0.00    -0.384 OA
ATOM    113  H   UNL A   1      34.727  22.916  21.951  1.00  0.00     0.211 HD
ENDBRANCH  79 112
ENDBRANCH  71  74
ENDBRANCH  69  70
ENDBRANCH   1  69
TORSDOF 24
ENDMDL
