MODEL 1
REMARK VINA RESULT:     -10.5      0.000      0.000
REMARK SMILES O=C(NCCCNC(=O)[C@@H]1CCC[N@@H+](Cc2nccn2C(F)F)C1)c1ccc(-c2c3nc(c(-c4ccc(S(=O)(=O)[O-])cc4)c4ccc([nH]4)c(-c4ccc(S(=O)(=O)[O-])cc4)c4nc(c(-c5ccc(S(=O)(=O)[O-])cc5)c5ccc2[nH]5)C=C4)C=C3)cc1
REMARK SMILES IDX 5 1 4 2 3 3 1 4 2 5 25 7 26 8 84 9 27 10 83 11 28 12 29 13
REMARK SMILES IDX 30 14 77 15 31 16 82 17 76 18 78 19 32 20 81 21 75 22 74 23
REMARK SMILES IDX 33 25 63 26 44 27 62 28 45 29 48 30 61 31 79 32 46 33 47 34
REMARK SMILES IDX 60 36 80 37 49 38 34 39 35 40 43 41 36 42 42 43 37 44 38 45
REMARK SMILES IDX 39 46 40 47 41 48 64 49 65 50 73 51 66 52 72 53 67 54 68 55
REMARK SMILES IDX 69 56 70 57 71 58 50 59 51 60 59 61 52 62 58 63 53 64 54 65
REMARK SMILES IDX 55 66 56 67 57 68 6 69 7 70 8 71 9 73 10 74 11 75 24 76
REMARK SMILES IDX 12 77 14 78 13 79 15 81 16 82 17 83 20 84 18 85 19 86 21 87
REMARK SMILES IDX 22 88 23 89
REMARK H PARENT 3 6 78 24 48 35 7 72 14 80
REMARK Flexibility Score: inf
ROOT
ATOM      1  C   UNL A   1      33.393  36.218  32.562  1.00  0.00     0.042 C 
ENDROOT
BRANCH   1   2
ATOM      2  C   UNL A   1      33.355  37.005  31.257  1.00  0.00     0.118 C 
BRANCH   2   3
ATOM      3  N   UNL A   1      32.729  36.316  30.146  1.00  0.00    -0.352 N 
ATOM      4  O   UNL A   1      32.167  34.855  28.593  1.00  0.00    -0.269 OA
ATOM      5  C   UNL A   1      33.044  35.229  29.378  1.00  0.00     0.251 C 
ATOM      6  H   UNL A   1      31.874  36.728  29.881  1.00  0.00     0.163 HD
BRANCH   5   7
ATOM      7  C   UNL A   1      34.358  34.529  29.371  1.00  0.00     0.039 A 
ATOM      8  C   UNL A   1      35.398  34.741  28.465  1.00  0.00     0.014 A 
ATOM      9  C   UNL A   1      34.537  33.562  30.380  1.00  0.00     0.014 A 
ATOM     10  C   UNL A   1      36.550  33.956  28.513  1.00  0.00     0.010 A 
ATOM     11  C   UNL A   1      35.690  32.787  30.444  1.00  0.00     0.010 A 
ATOM     12  C   UNL A   1      36.690  32.969  29.494  1.00  0.00    -0.014 A 
BRANCH  12  13
ATOM     13  C   UNL A   1      37.994  32.324  29.661  1.00  0.00     0.031 A 
ATOM     14  C   UNL A   1      37.988  30.879  29.298  1.00  0.00     0.074 A 
ATOM     15  C   UNL A   1      39.147  32.980  29.911  1.00  0.00     0.049 A 
ATOM     16  N   UNL A   1      38.200  29.860  30.066  1.00  0.00    -0.248 NA
ATOM     17  C   UNL A   1      37.548  30.519  27.938  1.00  0.00     0.031 C 
ATOM     18  C   UNL A   1      39.337  34.430  29.991  1.00  0.00     0.029 A 
ATOM     19  N   UNL A   1      40.422  32.497  30.019  1.00  0.00    -0.354 N 
ATOM     20  C   UNL A   1      38.162  28.747  29.228  1.00  0.00     0.074 A 
ATOM     21  C   UNL A   1      37.555  29.188  27.999  1.00  0.00     0.031 C 
ATOM     22  C   UNL A   1      40.656  34.713  29.898  1.00  0.00     0.029 A 
ATOM     23  C   UNL A   1      41.410  33.469  29.869  1.00  0.00     0.049 A 
ATOM     24  H   UNL A   1      40.624  31.548  30.189  1.00  0.00     0.167 HD
ATOM     25  C   UNL A   1      38.903  27.633  29.486  1.00  0.00     0.031 A 
ATOM     26  C   UNL A   1      42.740  33.272  29.664  1.00  0.00     0.031 A 
ATOM     27  C   UNL A   1      39.352  27.592  30.854  1.00  0.00     0.049 A 
ATOM     28  C   UNL A   1      43.061  31.892  30.092  1.00  0.00     0.074 A 
ATOM     29  C   UNL A   1      38.743  27.636  32.092  1.00  0.00     0.029 A 
ATOM     30  N   UNL A   1      40.681  27.861  31.076  1.00  0.00    -0.354 N 
ATOM     31  N   UNL A   1      43.027  31.497  31.332  1.00  0.00    -0.248 NA
ATOM     32  C   UNL A   1      43.025  30.832  29.098  1.00  0.00     0.031 C 
ATOM     33  C   UNL A   1      39.637  28.377  32.919  1.00  0.00     0.029 A 
ATOM     34  C   UNL A   1      40.768  28.687  32.161  1.00  0.00     0.049 A 
ATOM     35  H   UNL A   1      41.438  27.517  30.548  1.00  0.00     0.167 HD
ATOM     36  C   UNL A   1      42.517  30.209  31.275  1.00  0.00     0.074 A 
ATOM     37  C   UNL A   1      42.643  29.815  29.874  1.00  0.00     0.031 C 
ATOM     38  C   UNL A   1      41.787  29.701  32.312  1.00  0.00     0.031 A 
BRANCH  25  39
ATOM     39  C   UNL A   1      39.620  26.858  28.394  1.00  0.00    -0.014 A 
ATOM     40  C   UNL A   1      39.565  25.448  28.421  1.00  0.00     0.010 A 
ATOM     41  C   UNL A   1      40.595  27.438  27.554  1.00  0.00     0.010 A 
ATOM     42  C   UNL A   1      40.512  24.669  27.740  1.00  0.00     0.020 A 
ATOM     43  C   UNL A   1      41.508  26.670  26.831  1.00  0.00     0.020 A 
ATOM     44  C   UNL A   1      41.490  25.292  26.965  1.00  0.00     0.054 A 
BRANCH  44  45
ATOM     45  S   UNL A   1      42.779  24.289  26.191  1.00  0.00     0.124 S 
ATOM     46  O   UNL A   1      43.789  24.243  27.237  1.00  0.00    -0.237 OA
ATOM     47  O   UNL A   1      42.076  23.037  25.923  1.00  0.00    -0.237 OA
ATOM     48  O   UNL A   1      43.138  25.061  24.998  1.00  0.00    -0.744 OA
ENDBRANCH  44  45
ENDBRANCH  25  39
BRANCH  26  49
ATOM     49  C   UNL A   1      43.694  34.090  28.865  1.00  0.00    -0.014 A 
ATOM     50  C   UNL A   1      44.804  34.716  29.468  1.00  0.00     0.010 A 
ATOM     51  C   UNL A   1      43.676  34.021  27.458  1.00  0.00     0.010 A 
ATOM     52  C   UNL A   1      45.884  35.187  28.697  1.00  0.00     0.020 A 
ATOM     53  C   UNL A   1      44.740  34.498  26.682  1.00  0.00     0.020 A 
ATOM     54  C   UNL A   1      45.853  35.055  27.307  1.00  0.00     0.054 A 
BRANCH  54  55
ATOM     55  S   UNL A   1      47.322  35.487  26.327  1.00  0.00     0.124 S 
ATOM     56  O   UNL A   1      47.095  36.898  26.027  1.00  0.00    -0.237 OA
ATOM     57  O   UNL A   1      48.418  35.206  27.249  1.00  0.00    -0.237 OA
ATOM     58  O   UNL A   1      47.243  34.590  25.174  1.00  0.00    -0.744 OA
ENDBRANCH  54  55
ENDBRANCH  26  49
BRANCH  38  59
ATOM     59  C   UNL A   1      41.876  30.375  33.658  1.00  0.00    -0.014 A 
ATOM     60  C   UNL A   1      42.483  29.810  34.794  1.00  0.00     0.010 A 
ATOM     61  C   UNL A   1      41.410  31.701  33.735  1.00  0.00     0.010 A 
ATOM     62  C   UNL A   1      42.582  30.540  35.989  1.00  0.00     0.020 A 
ATOM     63  C   UNL A   1      41.525  32.440  34.912  1.00  0.00     0.020 A 
ATOM     64  C   UNL A   1      42.097  31.850  36.039  1.00  0.00     0.054 A 
BRANCH  64  65
ATOM     65  S   UNL A   1      42.237  32.800  37.578  1.00  0.00     0.124 S 
ATOM     66  O   UNL A   1      41.818  31.830  38.589  1.00  0.00    -0.237 OA
ATOM     67  O   UNL A   1      43.654  33.163  37.605  1.00  0.00    -0.237 OA
ATOM     68  O   UNL A   1      41.324  33.921  37.382  1.00  0.00    -0.744 OA
ENDBRANCH  64  65
ENDBRANCH  38  59
ENDBRANCH  12  13
ENDBRANCH   5   7
ENDBRANCH   2   3
ENDBRANCH   1   2
BRANCH   1  69
ATOM     69  C   UNL A   1      34.796  35.868  33.037  1.00  0.00     0.117 C 
BRANCH  69  70
ATOM     70  N   UNL A   1      34.807  34.967  34.175  1.00  0.00    -0.356 N 
ATOM     71  C   UNL A   1      35.785  34.349  34.881  1.00  0.00     0.228 C 
ATOM     72  H   UNL A   1      33.904  34.758  34.507  1.00  0.00     0.163 HD
ATOM     73  O   UNL A   1      35.381  33.763  35.898  1.00  0.00    -0.275 OA
BRANCH  71  74
ATOM     74  C   UNL A   1      37.265  34.219  34.469  1.00  0.00     0.133 C 
ATOM     75  C   UNL A   1      37.382  33.251  33.266  1.00  0.00     0.025 C 
ATOM     76  C   UNL A   1      38.289  33.738  35.490  1.00  0.00     0.276 C 
ATOM     77  C   UNL A   1      37.187  31.793  33.707  1.00  0.00     0.062 C 
ATOM     78  N   UNL A   1      37.892  32.414  35.991  1.00  0.00    -0.328 N 
ATOM     79  C   UNL A   1      38.036  31.415  34.931  1.00  0.00     0.262 C 
ATOM     80  H   UNL A   1      36.903  32.441  36.238  1.00  0.00     0.348 HD
BRANCH  78  81
ATOM     81  C   UNL A   1      38.549  32.061  37.257  1.00  0.00     0.339 C 
BRANCH  81  82
ATOM     82  C   UNL A   1      37.637  31.902  38.436  1.00  0.00     0.168 A 
ATOM     83  N   UNL A   1      36.761  30.921  38.574  1.00  0.00    -0.236 NA
ATOM     84  N   UNL A   1      37.611  32.719  39.542  1.00  0.00    -0.273 N 
ATOM     85  C   UNL A   1      36.141  31.120  39.775  1.00  0.00     0.131 A 
ATOM     86  C   UNL A   1      36.638  32.242  40.387  1.00  0.00     0.113 A 
BRANCH  84  87
ATOM     87  C   UNL A   1      38.434  33.877  39.816  1.00  0.00     0.450 C 
ATOM     88  F   UNL A   1      39.701  33.503  40.139  1.00  0.00    -0.185 F 
ATOM     89  F   UNL A   1      38.531  34.677  38.721  1.00  0.00    -0.185 F 
ENDBRANCH  84  87
ENDBRANCH  81  82
ENDBRANCH  78  81
ENDBRANCH  71  74
ENDBRANCH  69  70
ENDBRANCH   1  69
TORSDOF 16
ENDMDL
MODEL 2
REMARK VINA RESULT:     -10.4      2.767      7.243
REMARK SMILES O=C(NCCCNC(=O)[C@@H]1CCC[N@@H+](Cc2nccn2C(F)F)C1)c1ccc(-c2c3nc(c(-c4ccc(S(=O)(=O)[O-])cc4)c4ccc([nH]4)c(-c4ccc(S(=O)(=O)[O-])cc4)c4nc(c(-c5ccc(S(=O)(=O)[O-])cc5)c5ccc2[nH]5)C=C4)C=C3)cc1
REMARK SMILES IDX 5 1 4 2 3 3 1 4 2 5 25 7 26 8 84 9 27 10 83 11 28 12 29 13
REMARK SMILES IDX 30 14 77 15 31 16 82 17 76 18 78 19 32 20 81 21 75 22 74 23
REMARK SMILES IDX 33 25 63 26 44 27 62 28 45 29 48 30 61 31 79 32 46 33 47 34
REMARK SMILES IDX 60 36 80 37 49 38 34 39 35 40 43 41 36 42 42 43 37 44 38 45
REMARK SMILES IDX 39 46 40 47 41 48 64 49 65 50 73 51 66 52 72 53 67 54 68 55
REMARK SMILES IDX 69 56 70 57 71 58 50 59 51 60 59 61 52 62 58 63 53 64 54 65
REMARK SMILES IDX 55 66 56 67 57 68 6 69 7 70 8 71 9 73 10 74 11 75 24 76
REMARK SMILES IDX 12 77 14 78 13 79 15 81 16 82 17 83 20 84 18 85 19 86 21 87
REMARK SMILES IDX 22 88 23 89
REMARK H PARENT 3 6 78 24 48 35 7 72 14 80
REMARK Flexibility Score: inf
ROOT
ATOM      1  C   UNL A   1      32.903  35.033  28.726  1.00  0.00     0.042 C 
ENDROOT
BRANCH   1   2
ATOM      2  C   UNL A   1      33.955  33.958  28.477  1.00  0.00     0.118 C 
BRANCH   2   3
ATOM      3  N   UNL A   1      33.470  32.777  27.789  1.00  0.00    -0.352 N 
ATOM      4  O   UNL A   1      33.133  30.717  27.081  1.00  0.00    -0.269 OA
ATOM      5  C   UNL A   1      33.913  31.491  27.643  1.00  0.00     0.251 C 
ATOM      6  H   UNL A   1      32.622  32.939  27.316  1.00  0.00     0.163 HD
BRANCH   5   7
ATOM      7  C   UNL A   1      35.259  30.991  28.040  1.00  0.00     0.039 A 
ATOM      8  C   UNL A   1      35.597  29.662  28.302  1.00  0.00     0.014 A 
ATOM      9  C   UNL A   1      36.261  31.973  28.161  1.00  0.00     0.014 A 
ATOM     10  C   UNL A   1      36.877  29.333  28.751  1.00  0.00     0.010 A 
ATOM     11  C   UNL A   1      37.543  31.650  28.592  1.00  0.00     0.010 A 
ATOM     12  C   UNL A   1      37.845  30.329  28.909  1.00  0.00    -0.014 A 
BRANCH  12  13
ATOM     13  C   UNL A   1      39.231  29.927  29.158  1.00  0.00     0.031 A 
ATOM     14  C   UNL A   1      39.591  29.912  30.604  1.00  0.00     0.074 A 
ATOM     15  C   UNL A   1      40.060  29.417  28.223  1.00  0.00     0.049 A 
ATOM     16  N   UNL A   1      40.459  30.646  31.221  1.00  0.00    -0.248 NA
ATOM     17  C   UNL A   1      38.776  29.071  31.500  1.00  0.00     0.031 C 
ATOM     18  C   UNL A   1      39.732  29.101  26.832  1.00  0.00     0.029 A 
ATOM     19  N   UNL A   1      41.339  28.949  28.351  1.00  0.00    -0.354 N 
ATOM     20  C   UNL A   1      40.471  30.184  32.536  1.00  0.00     0.074 A 
ATOM     21  C   UNL A   1      39.286  29.381  32.692  1.00  0.00     0.031 C 
ATOM     22  C   UNL A   1      40.687  28.291  26.320  1.00  0.00     0.029 A 
ATOM     23  C   UNL A   1      41.748  28.126  27.302  1.00  0.00     0.049 A 
ATOM     24  H   UNL A   1      41.920  29.174  29.114  1.00  0.00     0.167 HD
ATOM     25  C   UNL A   1      41.596  30.239  33.302  1.00  0.00     0.031 A 
ATOM     26  C   UNL A   1      42.836  27.311  27.266  1.00  0.00     0.031 A 
ATOM     27  C   UNL A   1      42.565  31.161  32.767  1.00  0.00     0.049 A 
ATOM     28  C   UNL A   1      43.781  27.776  28.307  1.00  0.00     0.074 A 
ATOM     29  C   UNL A   1      42.570  32.499  32.429  1.00  0.00     0.029 A 
ATOM     30  N   UNL A   1      43.668  30.613  32.157  1.00  0.00    -0.354 N 
ATOM     31  N   UNL A   1      44.421  28.908  28.244  1.00  0.00    -0.248 NA
ATOM     32  C   UNL A   1      43.708  27.173  29.627  1.00  0.00     0.031 C 
ATOM     33  C   UNL A   1      43.398  32.587  31.272  1.00  0.00     0.029 A 
ATOM     34  C   UNL A   1      43.904  31.312  31.008  1.00  0.00     0.049 A 
ATOM     35  H   UNL A   1      44.195  29.851  32.491  1.00  0.00     0.167 HD
ATOM     36  C   UNL A   1      44.435  29.376  29.549  1.00  0.00     0.074 A 
ATOM     37  C   UNL A   1      44.085  28.218  30.368  1.00  0.00     0.031 C 
ATOM     38  C   UNL A   1      44.452  30.717  29.809  1.00  0.00     0.031 A 
BRANCH  25  39
ATOM     39  C   UNL A   1      42.006  29.112  34.234  1.00  0.00    -0.014 A 
ATOM     40  C   UNL A   1      42.401  27.881  33.670  1.00  0.00     0.010 A 
ATOM     41  C   UNL A   1      41.710  29.111  35.614  1.00  0.00     0.010 A 
ATOM     42  C   UNL A   1      42.382  26.696  34.420  1.00  0.00     0.020 A 
ATOM     43  C   UNL A   1      41.739  27.946  36.382  1.00  0.00     0.020 A 
ATOM     44  C   UNL A   1      42.031  26.738  35.769  1.00  0.00     0.054 A 
BRANCH  44  45
ATOM     45  S   UNL A   1      41.888  25.193  36.697  1.00  0.00     0.124 S 
ATOM     46  O   UNL A   1      40.662  25.409  37.448  1.00  0.00    -0.237 OA
ATOM     47  O   UNL A   1      41.820  24.199  35.630  1.00  0.00    -0.237 OA
ATOM     48  O   UNL A   1      43.120  25.161  37.491  1.00  0.00    -0.744 OA
ENDBRANCH  44  45
ENDBRANCH  25  39
BRANCH  26  49
ATOM     49  C   UNL A   1      42.996  25.994  26.591  1.00  0.00    -0.014 A 
ATOM     50  C   UNL A   1      43.861  25.837  25.488  1.00  0.00     0.010 A 
ATOM     51  C   UNL A   1      42.517  24.822  27.209  1.00  0.00     0.010 A 
ATOM     52  C   UNL A   1      44.285  24.561  25.069  1.00  0.00     0.020 A 
ATOM     53  C   UNL A   1      42.924  23.548  26.791  1.00  0.00     0.020 A 
ATOM     54  C   UNL A   1      43.828  23.424  25.740  1.00  0.00     0.054 A 
BRANCH  54  55
ATOM     55  S   UNL A   1      44.519  21.794  25.325  1.00  0.00     0.124 S 
ATOM     56  O   UNL A   1      45.860  21.868  25.897  1.00  0.00    -0.237 OA
ATOM     57  O   UNL A   1      43.599  20.876  25.989  1.00  0.00    -0.237 OA
ATOM     58  O   UNL A   1      44.471  21.762  23.863  1.00  0.00    -0.744 OA
ENDBRANCH  54  55
ENDBRANCH  26  49
BRANCH  38  59
ATOM     59  C   UNL A   1      44.855  31.663  28.707  1.00  0.00    -0.014 A 
ATOM     60  C   UNL A   1      43.985  32.144  27.712  1.00  0.00     0.010 A 
ATOM     61  C   UNL A   1      46.165  32.174  28.758  1.00  0.00     0.010 A 
ATOM     62  C   UNL A   1      44.431  33.079  26.765  1.00  0.00     0.020 A 
ATOM     63  C   UNL A   1      46.608  33.120  27.835  1.00  0.00     0.020 A 
ATOM     64  C   UNL A   1      45.742  33.557  26.831  1.00  0.00     0.054 A 
BRANCH  64  65
ATOM     65  S   UNL A   1      46.315  34.777  25.618  1.00  0.00     0.124 S 
ATOM     66  O   UNL A   1      45.419  34.544  24.487  1.00  0.00    -0.237 OA
ATOM     67  O   UNL A   1      46.124  36.046  26.320  1.00  0.00    -0.237 OA
ATOM     68  O   UNL A   1      47.710  34.413  25.386  1.00  0.00    -0.744 OA
ENDBRANCH  64  65
ENDBRANCH  38  59
ENDBRANCH  12  13
ENDBRANCH   5   7
ENDBRANCH   2   3
ENDBRANCH   1   2
BRANCH   1  69
ATOM     69  C   UNL A   1      33.105  35.813  30.017  1.00  0.00     0.117 C 
BRANCH  69  70
ATOM     70  N   UNL A   1      33.021  34.985  31.206  1.00  0.00    -0.356 N 
ATOM     71  C   UNL A   1      33.904  34.625  32.171  1.00  0.00     0.228 C 
ATOM     72  H   UNL A   1      32.126  34.599  31.342  1.00  0.00     0.163 HD
ATOM     73  O   UNL A   1      33.392  34.008  33.118  1.00  0.00    -0.275 OA
BRANCH  71  74
ATOM     74  C   UNL A   1      35.434  34.803  32.120  1.00  0.00     0.133 C 
ATOM     75  C   UNL A   1      36.054  33.690  31.238  1.00  0.00     0.025 C 
ATOM     76  C   UNL A   1      36.234  34.799  33.417  1.00  0.00     0.276 C 
ATOM     77  C   UNL A   1      36.051  32.339  31.968  1.00  0.00     0.062 C 
ATOM     78  N   UNL A   1      35.999  33.534  34.130  1.00  0.00    -0.328 N 
ATOM     79  C   UNL A   1      36.613  32.425  33.397  1.00  0.00     0.262 C 
ATOM     80  H   UNL A   1      34.995  33.354  34.151  1.00  0.00     0.348 HD
BRANCH  78  81
ATOM     81  C   UNL A   1      36.363  33.603  35.551  1.00  0.00     0.339 C 
BRANCH  81  82
ATOM     82  C   UNL A   1      37.666  32.958  35.916  1.00  0.00     0.168 A 
ATOM     83  N   UNL A   1      37.779  31.752  36.446  1.00  0.00    -0.236 NA
ATOM     84  N   UNL A   1      38.912  33.506  35.718  1.00  0.00    -0.273 N 
ATOM     85  C   UNL A   1      39.115  31.526  36.617  1.00  0.00     0.131 A 
ATOM     86  C   UNL A   1      39.839  32.610  36.190  1.00  0.00     0.113 A 
BRANCH  84  87
ATOM     87  C   UNL A   1      39.240  34.786  35.126  1.00  0.00     0.450 C 
ATOM     88  F   UNL A   1      39.616  35.677  36.083  1.00  0.00    -0.185 F 
ATOM     89  F   UNL A   1      40.287  34.672  34.267  1.00  0.00    -0.185 F 
ENDBRANCH  84  87
ENDBRANCH  81  82
ENDBRANCH  78  81
ENDBRANCH  71  74
ENDBRANCH  69  70
ENDBRANCH   1  69
TORSDOF 16
ENDMDL
MODEL 3
REMARK VINA RESULT:     -10.3      5.220     10.836
REMARK SMILES O=C(NCCCNC(=O)[C@@H]1CCC[N@@H+](Cc2nccn2C(F)F)C1)c1ccc(-c2c3nc(c(-c4ccc(S(=O)(=O)[O-])cc4)c4ccc([nH]4)c(-c4ccc(S(=O)(=O)[O-])cc4)c4nc(c(-c5ccc(S(=O)(=O)[O-])cc5)c5ccc2[nH]5)C=C4)C=C3)cc1
REMARK SMILES IDX 5 1 4 2 3 3 1 4 2 5 25 7 26 8 84 9 27 10 83 11 28 12 29 13
REMARK SMILES IDX 30 14 77 15 31 16 82 17 76 18 78 19 32 20 81 21 75 22 74 23
REMARK SMILES IDX 33 25 63 26 44 27 62 28 45 29 48 30 61 31 79 32 46 33 47 34
REMARK SMILES IDX 60 36 80 37 49 38 34 39 35 40 43 41 36 42 42 43 37 44 38 45
REMARK SMILES IDX 39 46 40 47 41 48 64 49 65 50 73 51 66 52 72 53 67 54 68 55
REMARK SMILES IDX 69 56 70 57 71 58 50 59 51 60 59 61 52 62 58 63 53 64 54 65
REMARK SMILES IDX 55 66 56 67 57 68 6 69 7 70 8 71 9 73 10 74 11 75 24 76
REMARK SMILES IDX 12 77 14 78 13 79 15 81 16 82 17 83 20 84 18 85 19 86 21 87
REMARK SMILES IDX 22 88 23 89
REMARK H PARENT 3 6 78 24 48 35 7 72 14 80
REMARK Flexibility Score: inf
ROOT
ATOM      1  C   UNL A   1      36.170  21.737  24.272  1.00  0.00     0.042 C 
ENDROOT
BRANCH   1   2
ATOM      2  C   UNL A   1      36.864  21.784  25.629  1.00  0.00     0.118 C 
BRANCH   2   3
ATOM      3  N   UNL A   1      38.179  21.175  25.664  1.00  0.00    -0.352 N 
ATOM      4  O   UNL A   1      40.273  20.661  26.125  1.00  0.00    -0.269 OA
ATOM      5  C   UNL A   1      39.397  21.530  26.175  1.00  0.00     0.251 C 
ATOM      6  H   UNL A   1      38.201  20.300  25.214  1.00  0.00     0.163 HD
BRANCH   5   7
ATOM      7  C   UNL A   1      39.751  22.874  26.709  1.00  0.00     0.039 A 
ATOM      8  C   UNL A   1      39.042  24.057  26.494  1.00  0.00     0.014 A 
ATOM      9  C   UNL A   1      40.919  22.928  27.495  1.00  0.00     0.014 A 
ATOM     10  C   UNL A   1      39.528  25.271  26.980  1.00  0.00     0.010 A 
ATOM     11  C   UNL A   1      41.400  24.133  27.996  1.00  0.00     0.010 A 
ATOM     12  C   UNL A   1      40.714  25.311  27.718  1.00  0.00    -0.014 A 
BRANCH  12  13
ATOM     13  C   UNL A   1      41.073  26.554  28.404  1.00  0.00     0.031 A 
ATOM     14  C   UNL A   1      42.291  27.206  27.845  1.00  0.00     0.074 A 
ATOM     15  C   UNL A   1      40.293  27.184  29.308  1.00  0.00     0.049 A 
ATOM     16  N   UNL A   1      43.428  27.410  28.428  1.00  0.00    -0.248 NA
ATOM     17  C   UNL A   1      42.288  27.541  26.410  1.00  0.00     0.031 C 
ATOM     18  C   UNL A   1      38.940  26.805  29.720  1.00  0.00     0.029 A 
ATOM     19  N   UNL A   1      40.491  28.371  29.957  1.00  0.00    -0.354 N 
ATOM     20  C   UNL A   1      44.196  28.121  27.507  1.00  0.00     0.074 A 
ATOM     21  C   UNL A   1      43.532  27.983  26.237  1.00  0.00     0.031 C 
ATOM     22  C   UNL A   1      38.358  27.849  30.353  1.00  0.00     0.029 A 
ATOM     23  C   UNL A   1      39.328  28.923  30.494  1.00  0.00     0.049 A 
ATOM     24  H   UNL A   1      41.375  28.797  30.040  1.00  0.00     0.167 HD
ATOM     25  C   UNL A   1      45.141  29.018  27.906  1.00  0.00     0.031 A 
ATOM     26  C   UNL A   1      39.150  30.190  30.954  1.00  0.00     0.031 A 
ATOM     27  C   UNL A   1      45.514  28.826  29.285  1.00  0.00     0.049 A 
ATOM     28  C   UNL A   1      40.487  30.756  31.241  1.00  0.00     0.074 A 
ATOM     29  C   UNL A   1      46.003  27.776  30.035  1.00  0.00     0.029 A 
ATOM     30  N   UNL A   1      45.044  29.749  30.187  1.00  0.00    -0.354 N 
ATOM     31  N   UNL A   1      41.254  30.338  32.207  1.00  0.00    -0.248 NA
ATOM     32  C   UNL A   1      41.156  31.517  30.198  1.00  0.00     0.031 C 
ATOM     33  C   UNL A   1      45.385  27.913  31.313  1.00  0.00     0.029 A 
ATOM     34  C   UNL A   1      44.608  29.073  31.292  1.00  0.00     0.049 A 
ATOM     35  H   UNL A   1      45.024  30.726  30.060  1.00  0.00     0.167 HD
ATOM     36  C   UNL A   1      42.536  30.383  31.681  1.00  0.00     0.074 A 
ATOM     37  C   UNL A   1      42.425  31.220  30.489  1.00  0.00     0.031 C 
ATOM     38  C   UNL A   1      43.496  29.509  32.106  1.00  0.00     0.031 A 
BRANCH  25  39
ATOM     39  C   UNL A   1      45.350  30.351  27.209  1.00  0.00    -0.014 A 
ATOM     40  C   UNL A   1      46.660  30.722  26.841  1.00  0.00     0.010 A 
ATOM     41  C   UNL A   1      44.375  31.372  27.197  1.00  0.00     0.010 A 
ATOM     42  C   UNL A   1      46.997  32.061  26.596  1.00  0.00     0.020 A 
ATOM     43  C   UNL A   1      44.690  32.699  26.903  1.00  0.00     0.020 A 
ATOM     44  C   UNL A   1      46.008  33.042  26.649  1.00  0.00     0.054 A 
BRANCH  44  45
ATOM     45  S   UNL A   1      46.470  34.779  26.454  1.00  0.00     0.124 S 
ATOM     46  O   UNL A   1      47.058  35.078  27.750  1.00  0.00    -0.237 OA
ATOM     47  O   UNL A   1      47.397  34.725  25.327  1.00  0.00    -0.237 OA
ATOM     48  O   UNL A   1      45.193  35.440  26.170  1.00  0.00    -0.744 OA
ENDBRANCH  44  45
ENDBRANCH  25  39
BRANCH  26  49
ATOM     49  C   UNL A   1      37.931  31.043  30.897  1.00  0.00    -0.014 A 
ATOM     50  C   UNL A   1      36.695  30.589  31.402  1.00  0.00     0.010 A 
ATOM     51  C   UNL A   1      38.044  32.417  30.605  1.00  0.00     0.010 A 
ATOM     52  C   UNL A   1      35.643  31.484  31.671  1.00  0.00     0.020 A 
ATOM     53  C   UNL A   1      36.998  33.314  30.859  1.00  0.00     0.020 A 
ATOM     54  C   UNL A   1      35.811  32.848  31.417  1.00  0.00     0.054 A 
BRANCH  54  55
ATOM     55  S   UNL A   1      34.530  34.027  31.940  1.00  0.00     0.124 S 
ATOM     56  O   UNL A   1      33.839  34.315  30.686  1.00  0.00    -0.237 OA
ATOM     57  O   UNL A   1      33.767  33.260  32.920  1.00  0.00    -0.237 OA
ATOM     58  O   UNL A   1      35.295  35.144  32.493  1.00  0.00    -0.744 OA
ENDBRANCH  54  55
ENDBRANCH  26  49
BRANCH  38  59
ATOM     59  C   UNL A   1      43.283  28.776  33.407  1.00  0.00    -0.014 A 
ATOM     60  C   UNL A   1      43.400  29.363  34.680  1.00  0.00     0.010 A 
ATOM     61  C   UNL A   1      42.832  27.447  33.319  1.00  0.00     0.010 A 
ATOM     62  C   UNL A   1      43.114  28.621  35.837  1.00  0.00     0.020 A 
ATOM     63  C   UNL A   1      42.525  26.710  34.463  1.00  0.00     0.020 A 
ATOM     64  C   UNL A   1      42.682  27.298  35.719  1.00  0.00     0.054 A 
BRANCH  64  65
ATOM     65  S   UNL A   1      42.298  26.342  37.212  1.00  0.00     0.124 S 
ATOM     66  O   UNL A   1      43.292  26.832  38.166  1.00  0.00    -0.237 OA
ATOM     67  O   UNL A   1      40.915  26.726  37.494  1.00  0.00    -0.237 OA
ATOM     68  O   UNL A   1      42.474  24.955  36.796  1.00  0.00    -0.744 OA
ENDBRANCH  64  65
ENDBRANCH  38  59
ENDBRANCH  12  13
ENDBRANCH   5   7
ENDBRANCH   2   3
ENDBRANCH   1   2
BRANCH   1  69
ATOM     69  C   UNL A   1      36.152  23.070  23.536  1.00  0.00     0.117 C 
BRANCH  69  70
ATOM     70  N   UNL A   1      34.812  23.560  23.274  1.00  0.00    -0.356 N 
ATOM     71  C   UNL A   1      33.948  24.356  23.951  1.00  0.00     0.228 C 
ATOM     72  H   UNL A   1      34.449  23.246  22.414  1.00  0.00     0.163 HD
ATOM     73  O   UNL A   1      32.933  24.663  23.306  1.00  0.00    -0.275 OA
BRANCH  71  74
ATOM     74  C   UNL A   1      34.065  24.779  25.429  1.00  0.00     0.133 C 
ATOM     75  C   UNL A   1      33.848  23.544  26.338  1.00  0.00     0.025 C 
ATOM     76  C   UNL A   1      33.143  25.863  25.975  1.00  0.00     0.276 C 
ATOM     77  C   UNL A   1      32.367  23.141  26.380  1.00  0.00     0.062 C 
ATOM     78  N   UNL A   1      31.743  25.455  25.781  1.00  0.00    -0.328 N 
ATOM     79  C   UNL A   1      31.427  24.325  26.658  1.00  0.00     0.262 C 
ATOM     80  H   UNL A   1      31.629  25.125  24.823  1.00  0.00     0.348 HD
BRANCH  78  81
ATOM     81  C   UNL A   1      30.802  26.579  25.870  1.00  0.00     0.339 C 
BRANCH  81  82
ATOM     82  C   UNL A   1      30.653  27.397  24.622  1.00  0.00     0.168 A 
ATOM     83  N   UNL A   1      29.964  27.017  23.559  1.00  0.00    -0.236 NA
ATOM     84  N   UNL A   1      31.172  28.655  24.424  1.00  0.00    -0.273 N 
ATOM     85  C   UNL A   1      30.060  28.033  22.651  1.00  0.00     0.131 A 
ATOM     86  C   UNL A   1      30.821  29.055  23.158  1.00  0.00     0.113 A 
BRANCH  84  87
ATOM     87  C   UNL A   1      31.949  29.455  25.347  1.00  0.00     0.450 C 
ATOM     88  F   UNL A   1      33.090  29.900  24.756  1.00  0.00    -0.185 F 
ATOM     89  F   UNL A   1      31.258  30.557  25.740  1.00  0.00    -0.185 F 
ENDBRANCH  84  87
ENDBRANCH  81  82
ENDBRANCH  78  81
ENDBRANCH  71  74
ENDBRANCH  69  70
ENDBRANCH   1  69
TORSDOF 16
ENDMDL
