MODEL 1
REMARK VINA RESULT:     -11.1      0.000      0.000
REMARK SMILES O=C(Cn1cccc1C(=O)NCCC(=O)NC1CC1)NCCCNC(=O)c1ccc(-c2c3nc(c(-c4ccc(S(=O)(=O)[O-])cc4)c4ccc([nH]4)c(-c4ccc(S(=O)(=O)[O-])cc4)c4nc(c(-c5ccc(S(=O)(=O)[O-])cc5)c5ccc2[nH]5)C=C4)C=C3)cc1
REMARK SMILES IDX 1 1 2 2 20 3 3 5 4 6 5 7 8 8 6 9 7 10 9 11 10 12 11 13 12 15
REMARK SMILES IDX 13 16 14 17 15 18 16 19 17 21 18 22 19 23 21 24 22 25 23 26
REMARK SMILES IDX 24 27 25 28 26 30 27 31 28 32 86 33 29 34 85 35 30 36 31 37
REMARK SMILES IDX 32 38 79 39 33 40 84 41 78 42 80 43 34 44 83 45 77 46 76 47
REMARK SMILES IDX 35 49 65 50 46 51 64 52 47 53 50 54 63 55 81 56 48 57 49 58
REMARK SMILES IDX 62 60 82 61 51 62 36 63 37 64 45 65 38 66 44 67 39 68 40 69
REMARK SMILES IDX 41 70 42 71 43 72 66 73 67 74 75 75 68 76 74 77 69 78 70 79
REMARK SMILES IDX 71 80 72 81 73 82 52 83 53 84 61 85 54 86 60 87 55 88 56 89
REMARK SMILES IDX 57 90 58 91 59 92
REMARK H PARENT 20 4 11 14 16 20 24 29 80 48 50 59
REMARK Flexibility Score: inf
ROOT
ATOM      1  O   UNL A   1      33.702  26.986  23.015  1.00  0.00    -0.273 OA
ATOM      2  C   UNL A   1      33.796  26.415  24.100  1.00  0.00     0.239 C 
ATOM      3  N   UNL A   1      33.634  27.099  25.289  1.00  0.00    -0.354 N 
ATOM      4  H   UNL A   1      33.677  26.596  26.133  1.00  0.00     0.163 HD
ENDROOT
BRANCH   2   5
ATOM      5  C   UNL A   1      33.998  24.907  24.219  1.00  0.00     0.222 C 
BRANCH   5   6
ATOM      6  N   UNL A   1      32.822  24.150  23.816  1.00  0.00    -0.334 N 
ATOM      7  C   UNL A   1      33.012  22.908  23.225  1.00  0.00     0.087 A 
ATOM      8  C   UNL A   1      31.463  24.398  23.968  1.00  0.00     0.107 A 
ATOM      9  C   UNL A   1      31.800  22.374  22.898  1.00  0.00     0.020 A 
ATOM     10  C   UNL A   1      30.844  23.298  23.346  1.00  0.00     0.033 A 
BRANCH   8  11
ATOM     11  C   UNL A   1      30.621  25.393  24.636  1.00  0.00     0.267 C 
ATOM     12  O   UNL A   1      30.153  25.135  25.757  1.00  0.00    -0.268 OA
ATOM     13  N   UNL A   1      30.208  26.621  24.216  1.00  0.00    -0.350 N 
ATOM     14  H   UNL A   1      29.742  27.087  24.947  1.00  0.00     0.163 HD
BRANCH  13  15
ATOM     15  C   UNL A   1      30.236  27.457  23.034  1.00  0.00     0.126 C 
BRANCH  15  16
ATOM     16  C   UNL A   1      29.653  28.850  23.234  1.00  0.00     0.121 C 
BRANCH  16  17
ATOM     17  C   UNL A   1      28.189  28.935  22.857  1.00  0.00     0.221 C 
ATOM     18  O   UNL A   1      27.368  28.111  23.267  1.00  0.00    -0.275 OA
ATOM     19  N   UNL A   1      27.756  29.948  22.046  1.00  0.00    -0.353 N 
ATOM     20  H   UNL A   1      26.781  30.023  21.940  1.00  0.00     0.163 HD
BRANCH  19  21
ATOM     21  C   UNL A   1      28.531  30.908  21.335  1.00  0.00     0.082 C 
ATOM     22  C   UNL A   1      27.811  32.065  20.695  1.00  0.00     0.027 C 
ATOM     23  C   UNL A   1      28.746  32.304  21.843  1.00  0.00     0.027 C 
ENDBRANCH  19  21
ENDBRANCH  16  17
ENDBRANCH  15  16
ENDBRANCH  13  15
ENDBRANCH   8  11
ENDBRANCH   5   6
ENDBRANCH   2   5
BRANCH   3  24
ATOM     24  C   UNL A   1      33.404  28.528  25.340  1.00  0.00     0.117 C 
BRANCH  24  25
ATOM     25  C   UNL A   1      33.608  29.130  26.733  1.00  0.00     0.042 C 
BRANCH  25  26
ATOM     26  C   UNL A   1      35.066  29.134  27.190  1.00  0.00     0.118 C 
BRANCH  26  27
ATOM     27  N   UNL A   1      35.523  30.478  27.511  1.00  0.00    -0.352 N 
ATOM     28  C   UNL A   1      36.577  30.898  28.283  1.00  0.00     0.251 C 
ATOM     29  H   UNL A   1      34.991  31.201  27.108  1.00  0.00     0.163 HD
ATOM     30  O   UNL A   1      36.570  32.052  28.699  1.00  0.00    -0.269 OA
BRANCH  28  31
ATOM     31  C   UNL A   1      37.703  30.004  28.641  1.00  0.00     0.039 A 
ATOM     32  C   UNL A   1      38.877  30.105  27.882  1.00  0.00     0.014 A 
ATOM     33  C   UNL A   1      37.594  29.016  29.627  1.00  0.00     0.014 A 
ATOM     34  C   UNL A   1      39.959  29.269  28.150  1.00  0.00     0.010 A 
ATOM     35  C   UNL A   1      38.679  28.188  29.911  1.00  0.00     0.010 A 
ATOM     36  C   UNL A   1      39.870  28.331  29.188  1.00  0.00    -0.014 A 
BRANCH  36  37
ATOM     37  C   UNL A   1      41.113  27.682  29.669  1.00  0.00     0.031 A 
ATOM     38  C   UNL A   1      41.431  26.415  28.834  1.00  0.00     0.074 A 
ATOM     39  C   UNL A   1      41.754  28.253  30.739  1.00  0.00     0.049 A 
ATOM     40  N   UNL A   1      42.174  25.393  29.125  1.00  0.00    -0.248 NA
ATOM     41  C   UNL A   1      40.789  26.224  27.499  1.00  0.00     0.031 C 
ATOM     42  C   UNL A   1      41.333  29.511  31.404  1.00  0.00     0.029 A 
ATOM     43  N   UNL A   1      42.871  27.923  31.486  1.00  0.00    -0.354 N 
ATOM     44  C   UNL A   1      42.239  24.555  27.984  1.00  0.00     0.074 A 
ATOM     45  C   UNL A   1      41.293  25.072  27.048  1.00  0.00     0.031 C 
ATOM     46  C   UNL A   1      42.112  29.783  32.477  1.00  0.00     0.029 A 
ATOM     47  C   UNL A   1      43.131  28.759  32.611  1.00  0.00     0.049 A 
ATOM     48  H   UNL A   1      43.448  27.161  31.255  1.00  0.00     0.167 HD
ATOM     49  C   UNL A   1      43.163  23.557  27.840  1.00  0.00     0.031 A 
ATOM     50  C   UNL A   1      44.077  28.620  33.596  1.00  0.00     0.031 A 
ATOM     51  C   UNL A   1      43.937  23.449  29.026  1.00  0.00     0.049 A 
ATOM     52  C   UNL A   1      44.954  27.535  33.142  1.00  0.00     0.074 A 
ATOM     53  C   UNL A   1      43.625  23.003  30.284  1.00  0.00     0.029 A 
ATOM     54  N   UNL A   1      45.078  24.213  29.076  1.00  0.00    -0.354 N 
ATOM     55  N   UNL A   1      45.829  27.643  32.191  1.00  0.00    -0.248 NA
ATOM     56  C   UNL A   1      44.832  26.210  33.764  1.00  0.00     0.031 C 
ATOM     57  C   UNL A   1      44.267  23.946  31.109  1.00  0.00     0.029 A 
ATOM     58  C   UNL A   1      45.136  24.733  30.342  1.00  0.00     0.049 A 
ATOM     59  H   UNL A   1      45.724  24.358  28.348  1.00  0.00     0.167 HD
ATOM     60  C   UNL A   1      46.030  26.335  31.841  1.00  0.00     0.074 A 
ATOM     61  C   UNL A   1      45.703  25.542  33.009  1.00  0.00     0.031 C 
ATOM     62  C   UNL A   1      45.854  25.967  30.545  1.00  0.00     0.031 A 
BRANCH  49  63
ATOM     63  C   UNL A   1      43.647  22.776  26.647  1.00  0.00    -0.014 A 
ATOM     64  C   UNL A   1      42.856  21.665  26.247  1.00  0.00     0.010 A 
ATOM     65  C   UNL A   1      44.958  22.844  26.158  1.00  0.00     0.010 A 
ATOM     66  C   UNL A   1      43.392  20.597  25.527  1.00  0.00     0.020 A 
ATOM     67  C   UNL A   1      45.493  21.789  25.396  1.00  0.00     0.020 A 
ATOM     68  C   UNL A   1      44.723  20.650  25.136  1.00  0.00     0.054 A 
BRANCH  68  69
ATOM     69  S   UNL A   1      45.444  19.176  24.361  1.00  0.00     0.124 S 
ATOM     70  O   UNL A   1      44.619  19.021  23.167  1.00  0.00    -0.237 OA
ATOM     71  O   UNL A   1      46.824  19.592  24.118  1.00  0.00    -0.237 OA
ATOM     72  O   UNL A   1      45.282  18.140  25.378  1.00  0.00    -0.744 OA
ENDBRANCH  68  69
ENDBRANCH  49  63
BRANCH  50  73
ATOM     73  C   UNL A   1      44.425  29.170  34.970  1.00  0.00    -0.014 A 
ATOM     74  C   UNL A   1      43.874  28.784  36.197  1.00  0.00     0.010 A 
ATOM     75  C   UNL A   1      45.534  30.068  35.058  1.00  0.00     0.010 A 
ATOM     76  C   UNL A   1      44.502  29.138  37.421  1.00  0.00     0.020 A 
ATOM     77  C   UNL A   1      46.196  30.374  36.247  1.00  0.00     0.020 A 
ATOM     78  C   UNL A   1      45.694  29.874  37.432  1.00  0.00     0.054 A 
BRANCH  78  79
ATOM     79  S   UNL A   1      46.685  30.053  38.947  1.00  0.00     0.124 S 
ATOM     80  O   UNL A   1      47.537  28.869  38.911  1.00  0.00    -0.237 OA
ATOM     81  O   UNL A   1      47.365  31.329  38.737  1.00  0.00    -0.237 OA
ATOM     82  O   UNL A   1      45.682  30.068  40.012  1.00  0.00    -0.744 OA
ENDBRANCH  78  79
ENDBRANCH  50  73
BRANCH  62  83
ATOM     83  C   UNL A   1      46.049  27.077  29.511  1.00  0.00    -0.014 A 
ATOM     84  C   UNL A   1      44.919  27.679  28.923  1.00  0.00     0.010 A 
ATOM     85  C   UNL A   1      47.310  27.479  29.026  1.00  0.00     0.010 A 
ATOM     86  C   UNL A   1      45.034  28.622  27.889  1.00  0.00     0.020 A 
ATOM     87  C   UNL A   1      47.439  28.427  27.991  1.00  0.00     0.020 A 
ATOM     88  C   UNL A   1      46.296  28.994  27.426  1.00  0.00     0.054 A 
BRANCH  88  89
ATOM     89  S   UNL A   1      46.410  30.212  26.080  1.00  0.00     0.124 S 
ATOM     90  O   UNL A   1      47.608  30.972  26.429  1.00  0.00    -0.237 OA
ATOM     91  O   UNL A   1      46.532  29.365  24.897  1.00  0.00    -0.237 OA
ATOM     92  O   UNL A   1      45.158  30.962  26.176  1.00  0.00    -0.744 OA
ENDBRANCH  88  89
ENDBRANCH  62  83
ENDBRANCH  36  37
ENDBRANCH  28  31
ENDBRANCH  26  27
ENDBRANCH  25  26
ENDBRANCH  24  25
ENDBRANCH   3  24
TORSDOF 19
ENDMDL
MODEL 2
REMARK VINA RESULT:     -11.1      4.411      9.714
REMARK SMILES O=C(Cn1cccc1C(=O)NCCC(=O)NC1CC1)NCCCNC(=O)c1ccc(-c2c3nc(c(-c4ccc(S(=O)(=O)[O-])cc4)c4ccc([nH]4)c(-c4ccc(S(=O)(=O)[O-])cc4)c4nc(c(-c5ccc(S(=O)(=O)[O-])cc5)c5ccc2[nH]5)C=C4)C=C3)cc1
REMARK SMILES IDX 1 1 2 2 20 3 3 5 4 6 5 7 8 8 6 9 7 10 9 11 10 12 11 13 12 15
REMARK SMILES IDX 13 16 14 17 15 18 16 19 17 21 18 22 19 23 21 24 22 25 23 26
REMARK SMILES IDX 24 27 25 28 26 30 27 31 28 32 86 33 29 34 85 35 30 36 31 37
REMARK SMILES IDX 32 38 79 39 33 40 84 41 78 42 80 43 34 44 83 45 77 46 76 47
REMARK SMILES IDX 35 49 65 50 46 51 64 52 47 53 50 54 63 55 81 56 48 57 49 58
REMARK SMILES IDX 62 60 82 61 51 62 36 63 37 64 45 65 38 66 44 67 39 68 40 69
REMARK SMILES IDX 41 70 42 71 43 72 66 73 67 74 75 75 68 76 74 77 69 78 70 79
REMARK SMILES IDX 71 80 72 81 73 82 52 83 53 84 61 85 54 86 60 87 55 88 56 89
REMARK SMILES IDX 57 90 58 91 59 92
REMARK H PARENT 20 4 11 14 16 20 24 29 80 48 50 59
REMARK Flexibility Score: inf
ROOT
ATOM      1  O   UNL A   1      35.255  23.628  22.750  1.00  0.00    -0.273 OA
ATOM      2  C   UNL A   1      34.516  22.781  23.252  1.00  0.00     0.239 C 
ATOM      3  N   UNL A   1      34.921  22.026  24.335  1.00  0.00    -0.354 N 
ATOM      4  H   UNL A   1      34.284  21.389  24.731  1.00  0.00     0.163 HD
ENDROOT
BRANCH   2   5
ATOM      5  C   UNL A   1      33.077  22.571  22.791  1.00  0.00     0.222 C 
BRANCH   5   6
ATOM      6  N   UNL A   1      32.203  23.674  23.159  1.00  0.00    -0.334 N 
ATOM      7  C   UNL A   1      31.365  23.510  24.255  1.00  0.00     0.087 A 
ATOM      8  C   UNL A   1      32.070  24.960  22.651  1.00  0.00     0.107 A 
ATOM      9  C   UNL A   1      30.613  24.637  24.419  1.00  0.00     0.020 A 
ATOM     10  C   UNL A   1      31.039  25.527  23.423  1.00  0.00     0.033 A 
BRANCH   8  11
ATOM     11  C   UNL A   1      32.749  25.799  21.661  1.00  0.00     0.267 C 
ATOM     12  O   UNL A   1      33.138  25.288  20.599  1.00  0.00    -0.268 OA
ATOM     13  N   UNL A   1      33.078  27.120  21.705  1.00  0.00    -0.350 N 
ATOM     14  H   UNL A   1      33.429  27.408  20.832  1.00  0.00     0.163 HD
BRANCH  13  15
ATOM     15  C   UNL A   1      33.076  28.235  22.629  1.00  0.00     0.126 C 
BRANCH  15  16
ATOM     16  C   UNL A   1      31.820  29.096  22.575  1.00  0.00     0.121 C 
BRANCH  16  17
ATOM     17  C   UNL A   1      31.163  29.264  23.928  1.00  0.00     0.221 C 
ATOM     18  O   UNL A   1      31.733  28.927  24.969  1.00  0.00    -0.275 OA
ATOM     19  N   UNL A   1      29.910  29.806  24.010  1.00  0.00    -0.353 N 
ATOM     20  H   UNL A   1      29.590  30.006  24.919  1.00  0.00     0.163 HD
BRANCH  19  21
ATOM     21  C   UNL A   1      29.008  30.120  22.954  1.00  0.00     0.082 C 
ATOM     22  C   UNL A   1      27.806  30.967  23.278  1.00  0.00     0.027 C 
ATOM     23  C   UNL A   1      28.885  31.503  22.385  1.00  0.00     0.027 C 
ENDBRANCH  19  21
ENDBRANCH  16  17
ENDBRANCH  15  16
ENDBRANCH  13  15
ENDBRANCH   8  11
ENDBRANCH   5   6
ENDBRANCH   2   5
BRANCH   3  24
ATOM     24  C   UNL A   1      36.247  22.134  24.909  1.00  0.00     0.117 C 
BRANCH  24  25
ATOM     25  C   UNL A   1      36.328  23.118  26.079  1.00  0.00     0.042 C 
BRANCH  25  26
ATOM     26  C   UNL A   1      37.593  23.975  26.069  1.00  0.00     0.118 C 
BRANCH  26  27
ATOM     27  N   UNL A   1      38.666  23.355  26.831  1.00  0.00    -0.352 N 
ATOM     28  C   UNL A   1      39.762  23.913  27.440  1.00  0.00     0.251 C 
ATOM     29  H   UNL A   1      38.594  22.378  26.925  1.00  0.00     0.163 HD
ATOM     30  O   UNL A   1      40.707  23.183  27.721  1.00  0.00    -0.269 OA
BRANCH  28  31
ATOM     31  C   UNL A   1      39.845  25.360  27.750  1.00  0.00     0.039 A 
ATOM     32  C   UNL A   1      39.452  25.772  29.031  1.00  0.00     0.014 A 
ATOM     33  C   UNL A   1      40.201  26.315  26.791  1.00  0.00     0.014 A 
ATOM     34  C   UNL A   1      39.477  27.123  29.372  1.00  0.00     0.010 A 
ATOM     35  C   UNL A   1      40.245  27.666  27.131  1.00  0.00     0.010 A 
ATOM     36  C   UNL A   1      39.906  28.067  28.429  1.00  0.00    -0.014 A 
BRANCH  36  37
ATOM     37  C   UNL A   1      40.233  29.437  28.891  1.00  0.00     0.031 A 
ATOM     38  C   UNL A   1      38.941  30.259  29.136  1.00  0.00     0.074 A 
ATOM     39  C   UNL A   1      41.559  29.767  29.009  1.00  0.00     0.049 A 
ATOM     40  N   UNL A   1      38.770  31.543  29.187  1.00  0.00    -0.248 NA
ATOM     41  C   UNL A   1      37.632  29.556  29.295  1.00  0.00     0.031 C 
ATOM     42  C   UNL A   1      42.687  28.833  28.774  1.00  0.00     0.029 A 
ATOM     43  N   UNL A   1      42.242  30.923  29.345  1.00  0.00    -0.354 N 
ATOM     44  C   UNL A   1      37.425  31.795  29.554  1.00  0.00     0.074 A 
ATOM     45  C   UNL A   1      36.752  30.536  29.516  1.00  0.00     0.031 C 
ATOM     46  C   UNL A   1      43.880  29.464  28.889  1.00  0.00     0.029 A 
ATOM     47  C   UNL A   1      43.662  30.856  29.235  1.00  0.00     0.049 A 
ATOM     48  H   UNL A   1      41.777  31.737  29.642  1.00  0.00     0.167 HD
ATOM     49  C   UNL A   1      36.983  33.015  29.986  1.00  0.00     0.031 A 
ATOM     50  C   UNL A   1      44.592  31.855  29.380  1.00  0.00     0.031 A 
ATOM     51  C   UNL A   1      38.040  33.962  29.902  1.00  0.00     0.049 A 
ATOM     52  C   UNL A   1      43.849  33.003  29.912  1.00  0.00     0.074 A 
ATOM     53  C   UNL A   1      38.661  34.547  28.829  1.00  0.00     0.029 A 
ATOM     54  N   UNL A   1      38.831  34.086  31.019  1.00  0.00    -0.354 N 
ATOM     55  N   UNL A   1      43.419  33.102  31.131  1.00  0.00    -0.248 NA
ATOM     56  C   UNL A   1      43.523  34.120  29.016  1.00  0.00     0.031 C 
ATOM     57  C   UNL A   1      40.016  34.519  29.210  1.00  0.00     0.029 A 
ATOM     58  C   UNL A   1      40.120  34.182  30.567  1.00  0.00     0.049 A 
ATOM     59  H   UNL A   1      38.531  34.103  31.956  1.00  0.00     0.167 HD
ATOM     60  C   UNL A   1      42.443  34.055  31.011  1.00  0.00     0.074 A 
ATOM     61  C   UNL A   1      42.790  34.854  29.852  1.00  0.00     0.031 C 
ATOM     62  C   UNL A   1      41.188  33.769  31.443  1.00  0.00     0.031 A 
BRANCH  49  63
ATOM     63  C   UNL A   1      35.745  33.453  30.722  1.00  0.00    -0.014 A 
ATOM     64  C   UNL A   1      34.693  33.997  29.935  1.00  0.00     0.010 A 
ATOM     65  C   UNL A   1      35.708  33.692  32.102  1.00  0.00     0.010 A 
ATOM     66  C   UNL A   1      33.743  34.866  30.471  1.00  0.00     0.020 A 
ATOM     67  C   UNL A   1      34.727  34.534  32.656  1.00  0.00     0.020 A 
ATOM     68  C   UNL A   1      33.788  35.159  31.828  1.00  0.00     0.054 A 
BRANCH  68  69
ATOM     69  S   UNL A   1      32.658  36.427  32.465  1.00  0.00     0.124 S 
ATOM     70  O   UNL A   1      33.407  36.967  33.595  1.00  0.00    -0.237 OA
ATOM     71  O   UNL A   1      32.518  37.327  31.321  1.00  0.00    -0.237 OA
ATOM     72  O   UNL A   1      31.455  35.674  32.808  1.00  0.00    -0.744 OA
ENDBRANCH  68  69
ENDBRANCH  49  63
BRANCH  50  73
ATOM     73  C   UNL A   1      46.060  32.136  29.102  1.00  0.00    -0.014 A 
ATOM     74  C   UNL A   1      46.693  32.152  27.855  1.00  0.00     0.010 A 
ATOM     75  C   UNL A   1      46.864  32.581  30.198  1.00  0.00     0.010 A 
ATOM     76  C   UNL A   1      47.980  32.736  27.699  1.00  0.00     0.020 A 
ATOM     77  C   UNL A   1      48.101  33.210  30.052  1.00  0.00     0.020 A 
ATOM     78  C   UNL A   1      48.643  33.318  28.787  1.00  0.00     0.054 A 
BRANCH  78  79
ATOM     79  S   UNL A   1      50.120  34.354  28.555  1.00  0.00     0.124 S 
ATOM     80  O   UNL A   1      50.427  34.158  27.142  1.00  0.00    -0.237 OA
ATOM     81  O   UNL A   1      49.640  35.685  28.919  1.00  0.00    -0.237 OA
ATOM     82  O   UNL A   1      51.089  33.782  29.490  1.00  0.00    -0.744 OA
ENDBRANCH  78  79
ENDBRANCH  50  73
BRANCH  62  83
ATOM     83  C   UNL A   1      41.093  32.708  32.540  1.00  0.00    -0.014 A 
ATOM     84  C   UNL A   1      41.612  32.989  33.820  1.00  0.00     0.010 A 
ATOM     85  C   UNL A   1      40.598  31.406  32.325  1.00  0.00     0.010 A 
ATOM     86  C   UNL A   1      41.655  32.018  34.833  1.00  0.00     0.020 A 
ATOM     87  C   UNL A   1      40.632  30.423  33.336  1.00  0.00     0.020 A 
ATOM     88  C   UNL A   1      41.164  30.736  34.587  1.00  0.00     0.054 A 
BRANCH  88  89
ATOM     89  S   UNL A   1      41.242  29.499  35.919  1.00  0.00     0.124 S 
ATOM     90  O   UNL A   1      39.844  29.363  36.319  1.00  0.00    -0.237 OA
ATOM     91  O   UNL A   1      41.811  28.339  35.239  1.00  0.00    -0.237 OA
ATOM     92  O   UNL A   1      42.110  30.116  36.922  1.00  0.00    -0.744 OA
ENDBRANCH  88  89
ENDBRANCH  62  83
ENDBRANCH  36  37
ENDBRANCH  28  31
ENDBRANCH  26  27
ENDBRANCH  25  26
ENDBRANCH  24  25
ENDBRANCH   3  24
TORSDOF 19
ENDMDL
MODEL 3
REMARK VINA RESULT:     -11.0      3.915      8.937
REMARK SMILES O=C(Cn1cccc1C(=O)NCCC(=O)NC1CC1)NCCCNC(=O)c1ccc(-c2c3nc(c(-c4ccc(S(=O)(=O)[O-])cc4)c4ccc([nH]4)c(-c4ccc(S(=O)(=O)[O-])cc4)c4nc(c(-c5ccc(S(=O)(=O)[O-])cc5)c5ccc2[nH]5)C=C4)C=C3)cc1
REMARK SMILES IDX 1 1 2 2 20 3 3 5 4 6 5 7 8 8 6 9 7 10 9 11 10 12 11 13 12 15
REMARK SMILES IDX 13 16 14 17 15 18 16 19 17 21 18 22 19 23 21 24 22 25 23 26
REMARK SMILES IDX 24 27 25 28 26 30 27 31 28 32 86 33 29 34 85 35 30 36 31 37
REMARK SMILES IDX 32 38 79 39 33 40 84 41 78 42 80 43 34 44 83 45 77 46 76 47
REMARK SMILES IDX 35 49 65 50 46 51 64 52 47 53 50 54 63 55 81 56 48 57 49 58
REMARK SMILES IDX 62 60 82 61 51 62 36 63 37 64 45 65 38 66 44 67 39 68 40 69
REMARK SMILES IDX 41 70 42 71 43 72 66 73 67 74 75 75 68 76 74 77 69 78 70 79
REMARK SMILES IDX 71 80 72 81 73 82 52 83 53 84 61 85 54 86 60 87 55 88 56 89
REMARK SMILES IDX 57 90 58 91 59 92
REMARK H PARENT 20 4 11 14 16 20 24 29 80 48 50 59
REMARK Flexibility Score: inf
ROOT
ATOM      1  O   UNL A   1      35.747  23.721  26.406  1.00  0.00    -0.273 OA
ATOM      2  C   UNL A   1      35.441  23.434  25.249  1.00  0.00     0.239 C 
ATOM      3  N   UNL A   1      35.801  22.223  24.690  1.00  0.00    -0.354 N 
ATOM      4  H   UNL A   1      35.501  22.017  23.776  1.00  0.00     0.163 HD
ENDROOT
BRANCH   2   5
ATOM      5  C   UNL A   1      34.566  24.335  24.384  1.00  0.00     0.222 C 
BRANCH   5   6
ATOM      6  N   UNL A   1      33.687  25.186  25.171  1.00  0.00    -0.334 N 
ATOM      7  C   UNL A   1      33.907  26.558  25.147  1.00  0.00     0.087 A 
ATOM      8  C   UNL A   1      32.563  24.902  25.937  1.00  0.00     0.107 A 
ATOM      9  C   UNL A   1      33.003  27.173  25.962  1.00  0.00     0.020 A 
ATOM     10  C   UNL A   1      32.181  26.151  26.459  1.00  0.00     0.033 A 
BRANCH   8  11
ATOM     11  C   UNL A   1      31.724  23.736  26.221  1.00  0.00     0.267 C 
ATOM     12  O   UNL A   1      31.032  23.724  27.252  1.00  0.00    -0.268 OA
ATOM     13  N   UNL A   1      31.572  22.572  25.530  1.00  0.00    -0.350 N 
ATOM     14  H   UNL A   1      30.849  22.037  25.927  1.00  0.00     0.163 HD
BRANCH  13  15
ATOM     15  C   UNL A   1      32.140  21.872  24.396  1.00  0.00     0.126 C 
BRANCH  15  16
ATOM     16  C   UNL A   1      32.188  20.357  24.550  1.00  0.00     0.121 C 
BRANCH  16  17
ATOM     17  C   UNL A   1      33.062  19.911  25.703  1.00  0.00     0.221 C 
ATOM     18  O   UNL A   1      33.532  20.719  26.508  1.00  0.00    -0.275 OA
ATOM     19  N   UNL A   1      33.339  18.581  25.867  1.00  0.00    -0.353 N 
ATOM     20  H   UNL A   1      33.804  18.341  26.701  1.00  0.00     0.163 HD
BRANCH  19  21
ATOM     21  C   UNL A   1      33.044  17.498  24.991  1.00  0.00     0.082 C 
ATOM     22  C   UNL A   1      34.119  16.472  24.746  1.00  0.00     0.027 C 
ATOM     23  C   UNL A   1      32.868  16.091  25.481  1.00  0.00     0.027 C 
ENDBRANCH  19  21
ENDBRANCH  16  17
ENDBRANCH  15  16
ENDBRANCH  13  15
ENDBRANCH   8  11
ENDBRANCH   5   6
ENDBRANCH   2   5
BRANCH   3  24
ATOM     24  C   UNL A   1      36.605  21.247  25.397  1.00  0.00     0.117 C 
BRANCH  24  25
ATOM     25  C   UNL A   1      38.095  21.317  25.052  1.00  0.00     0.042 C 
BRANCH  25  26
ATOM     26  C   UNL A   1      38.934  22.031  26.111  1.00  0.00     0.118 C 
BRANCH  26  27
ATOM     27  N   UNL A   1      40.358  21.817  25.900  1.00  0.00    -0.352 N 
ATOM     28  C   UNL A   1      41.408  22.698  25.960  1.00  0.00     0.251 C 
ATOM     29  H   UNL A   1      40.607  20.890  25.680  1.00  0.00     0.163 HD
ATOM     30  O   UNL A   1      42.461  22.387  25.412  1.00  0.00    -0.269 OA
BRANCH  28  31
ATOM     31  C   UNL A   1      41.305  24.009  26.644  1.00  0.00     0.039 A 
ATOM     32  C   UNL A   1      40.457  24.094  27.757  1.00  0.00     0.014 A 
ATOM     33  C   UNL A   1      41.938  25.159  26.161  1.00  0.00     0.014 A 
ATOM     34  C   UNL A   1      40.294  25.307  28.422  1.00  0.00     0.010 A 
ATOM     35  C   UNL A   1      41.793  26.373  26.833  1.00  0.00     0.010 A 
ATOM     36  C   UNL A   1      40.989  26.440  27.977  1.00  0.00    -0.014 A 
BRANCH  36  37
ATOM     37  C   UNL A   1      41.062  27.625  28.866  1.00  0.00     0.031 A 
ATOM     38  C   UNL A   1      42.259  27.505  29.846  1.00  0.00     0.074 A 
ATOM     39  C   UNL A   1      40.101  28.591  28.717  1.00  0.00     0.049 A 
ATOM     40  N   UNL A   1      42.469  28.100  30.978  1.00  0.00    -0.248 NA
ATOM     41  C   UNL A   1      43.365  26.542  29.554  1.00  0.00     0.031 C 
ATOM     42  C   UNL A   1      39.036  28.572  27.685  1.00  0.00     0.029 A 
ATOM     43  N   UNL A   1      39.810  29.775  29.372  1.00  0.00    -0.354 N 
ATOM     44  C   UNL A   1      43.764  27.743  31.431  1.00  0.00     0.074 A 
ATOM     45  C   UNL A   1      44.228  26.711  30.559  1.00  0.00     0.031 C 
ATOM     46  C   UNL A   1      38.188  29.617  27.833  1.00  0.00     0.029 A 
ATOM     47  C   UNL A   1      38.620  30.438  28.949  1.00  0.00     0.049 A 
ATOM     48  H   UNL A   1      40.386  30.135  30.083  1.00  0.00     0.167 HD
ATOM     49  C   UNL A   1      44.419  28.412  32.427  1.00  0.00     0.031 A 
ATOM     50  C   UNL A   1      38.011  31.548  29.477  1.00  0.00     0.031 A 
ATOM     51  C   UNL A   1      43.567  29.412  32.970  1.00  0.00     0.049 A 
ATOM     52  C   UNL A   1      38.962  32.085  30.457  1.00  0.00     0.074 A 
ATOM     53  C   UNL A   1      42.438  29.330  33.743  1.00  0.00     0.029 A 
ATOM     54  N   UNL A   1      43.635  30.650  32.379  1.00  0.00    -0.354 N 
ATOM     55  N   UNL A   1      40.054  32.716  30.155  1.00  0.00    -0.248 NA
ATOM     56  C   UNL A   1      38.707  31.878  31.889  1.00  0.00     0.031 C 
ATOM     57  C   UNL A   1      41.604  30.306  33.167  1.00  0.00     0.029 A 
ATOM     58  C   UNL A   1      42.344  31.097  32.278  1.00  0.00     0.049 A 
ATOM     59  H   UNL A   1      44.447  31.122  32.087  1.00  0.00     0.167 HD
ATOM     60  C   UNL A   1      40.781  32.591  31.308  1.00  0.00     0.074 A 
ATOM     61  C   UNL A   1      39.823  32.412  32.381  1.00  0.00     0.031 C 
ATOM     62  C   UNL A   1      42.027  32.052  31.244  1.00  0.00     0.031 A 
BRANCH  49  63
ATOM     63  C   UNL A   1      45.863  28.454  32.854  1.00  0.00    -0.014 A 
ATOM     64  C   UNL A   1      46.791  28.979  31.914  1.00  0.00     0.010 A 
ATOM     65  C   UNL A   1      46.377  27.704  33.920  1.00  0.00     0.010 A 
ATOM     66  C   UNL A   1      48.144  28.641  31.946  1.00  0.00     0.020 A 
ATOM     67  C   UNL A   1      47.748  27.394  33.980  1.00  0.00     0.020 A 
ATOM     68  C   UNL A   1      48.609  27.818  32.963  1.00  0.00     0.054 A 
BRANCH  68  69
ATOM     69  S   UNL A   1      50.330  27.248  32.880  1.00  0.00     0.124 S 
ATOM     70  O   UNL A   1      50.194  25.819  33.141  1.00  0.00    -0.237 OA
ATOM     71  O   UNL A   1      50.712  27.599  31.512  1.00  0.00    -0.237 OA
ATOM     72  O   UNL A   1      50.997  28.020  33.924  1.00  0.00    -0.744 OA
ENDBRANCH  68  69
ENDBRANCH  49  63
BRANCH  50  73
ATOM     73  C   UNL A   1      36.693  32.303  29.411  1.00  0.00    -0.014 A 
ATOM     74  C   UNL A   1      35.781  32.501  30.453  1.00  0.00     0.010 A 
ATOM     75  C   UNL A   1      36.405  33.020  28.208  1.00  0.00     0.010 A 
ATOM     76  C   UNL A   1      34.758  33.482  30.349  1.00  0.00     0.020 A 
ATOM     77  C   UNL A   1      35.444  34.027  28.112  1.00  0.00     0.020 A 
ATOM     78  C   UNL A   1      34.640  34.281  29.205  1.00  0.00     0.054 A 
BRANCH  78  79
ATOM     79  S   UNL A   1      33.567  35.749  29.179  1.00  0.00     0.124 S 
ATOM     80  O   UNL A   1      34.311  36.673  28.328  1.00  0.00    -0.237 OA
ATOM     81  O   UNL A   1      32.324  35.230  28.613  1.00  0.00    -0.237 OA
ATOM     82  O   UNL A   1      33.478  36.132  30.589  1.00  0.00    -0.744 OA
ENDBRANCH  78  79
ENDBRANCH  50  73
BRANCH  62  83
ATOM     83  C   UNL A   1      42.739  32.194  29.899  1.00  0.00    -0.014 A 
ATOM     84  C   UNL A   1      42.932  31.053  29.096  1.00  0.00     0.010 A 
ATOM     85  C   UNL A   1      43.315  33.398  29.444  1.00  0.00     0.010 A 
ATOM     86  C   UNL A   1      43.675  31.099  27.905  1.00  0.00     0.020 A 
ATOM     87  C   UNL A   1      44.060  33.458  28.249  1.00  0.00     0.020 A 
ATOM     88  C   UNL A   1      44.238  32.304  27.486  1.00  0.00     0.054 A 
BRANCH  88  89
ATOM     89  S   UNL A   1      45.202  32.329  25.943  1.00  0.00     0.124 S 
ATOM     90  O   UNL A   1      46.150  33.417  26.169  1.00  0.00    -0.237 OA
ATOM     91  O   UNL A   1      45.786  30.990  25.914  1.00  0.00    -0.237 OA
ATOM     92  O   UNL A   1      44.203  32.590  24.907  1.00  0.00    -0.744 OA
ENDBRANCH  88  89
ENDBRANCH  62  83
ENDBRANCH  36  37
ENDBRANCH  28  31
ENDBRANCH  26  27
ENDBRANCH  25  26
ENDBRANCH  24  25
ENDBRANCH   3  24
TORSDOF 19
ENDMDL
