MODEL 1
REMARK VINA RESULT:     -10.0      0.000      0.000
REMARK SMILES C[NH2+][C@@]1(C(=O)NCCCNC(=O)c2ccc(-c3c4nc(c(-c5ccc(S(=O)(=O)[O-])cc5)c5ccc([nH]5)c(-c5ccc(S(=O)(=O)[O-])cc5)c5nc(c(-c6ccc(S(=O)(=O)[O-])cc6)c6ccc3[nH]6)C=C5)C=C4)cc2)CC[C@H](SC(C)C)C1
REMARK SMILES IDX 8 1 7 2 6 3 4 4 5 5 3 7 73 8 80 9 74 10 75 11 2 12 1 13
REMARK SMILES IDX 76 16 77 17 78 18 79 19 9 20 10 21 11 22 12 24 13 25 14 26
REMARK SMILES IDX 72 27 15 28 71 29 16 30 17 31 18 32 65 33 19 34 70 35 64 36
REMARK SMILES IDX 66 37 20 38 69 39 63 40 62 41 21 43 51 44 32 45 50 46 33 47
REMARK SMILES IDX 36 48 49 49 67 50 34 51 35 52 48 54 68 55 37 56 22 57 23 58
REMARK SMILES IDX 31 59 24 60 30 61 25 62 26 63 27 64 28 65 29 66 52 67 53 68
REMARK SMILES IDX 61 69 54 70 60 71 55 72 56 73 57 74 58 75 59 76 38 77 39 78
REMARK SMILES IDX 47 79 40 80 46 81 41 82 42 83 43 84 44 85 45 86
REMARK H PARENT 6 6 2 14 2 15 10 23 66 42 36 53
REMARK Flexibility Score: inf
ROOT
ATOM      1  C   UNL A   1      32.251  27.655  26.357  1.00  0.00     0.042 C 
ENDROOT
BRANCH   1   2
ATOM      2  C   UNL A   1      32.284  26.140  26.251  1.00  0.00     0.118 C 
BRANCH   2   3
ATOM      3  N   UNL A   1      33.069  25.647  25.145  1.00  0.00    -0.351 N 
ATOM      4  C   UNL A   1      33.240  24.401  24.636  1.00  0.00     0.281 C 
ATOM      5  O   UNL A   1      33.710  24.397  23.487  1.00  0.00    -0.268 OA
ATOM      6  H   UNL A   1      33.576  26.345  24.673  1.00  0.00     0.163 HD
BRANCH   4   7
ATOM      7  C   UNL A   1      32.847  23.037  25.352  1.00  0.00     0.176 C 
ATOM      8  C   UNL A   1      33.071  23.096  26.870  1.00  0.00     0.080 C 
ATOM      9  C   UNL A   1      33.591  21.768  24.901  1.00  0.00     0.093 C 
ATOM     10  C   UNL A   1      34.320  22.274  27.190  1.00  0.00     0.022 C 
ATOM     11  C   UNL A   1      34.524  21.285  26.045  1.00  0.00     0.054 C 
BRANCH   7  12
ATOM     12  N   UNL A   1      31.366  22.841  25.165  1.00  0.00    -0.336 N 
ATOM     13  C   UNL A   1      30.579  22.908  26.400  1.00  0.00     0.331 C 
ATOM     14  H   UNL A   1      31.026  23.564  24.533  1.00  0.00     0.346 HD
ATOM     15  H   UNL A   1      31.245  21.897  24.798  1.00  0.00     0.346 HD
ENDBRANCH   7  12
BRANCH  11  16
ATOM     16  S   UNL A   1      36.155  20.968  25.238  1.00  0.00    -0.155 SA
BRANCH  16  17
ATOM     17  C   UNL A   1      36.891  22.527  24.609  1.00  0.00     0.040 C 
ATOM     18  C   UNL A   1      36.602  22.956  23.182  1.00  0.00     0.019 C 
ATOM     19  C   UNL A   1      36.672  23.665  25.595  1.00  0.00     0.019 C 
ENDBRANCH  16  17
ENDBRANCH  11  16
ENDBRANCH   4   7
ENDBRANCH   2   3
ENDBRANCH   1   2
BRANCH   1  20
ATOM     20  C   UNL A   1      33.633  28.271  26.485  1.00  0.00     0.118 C 
BRANCH  20  21
ATOM     21  N   UNL A   1      33.574  29.664  26.912  1.00  0.00    -0.352 N 
ATOM     22  C   UNL A   1      34.405  30.421  27.705  1.00  0.00     0.251 C 
ATOM     23  H   UNL A   1      32.793  30.154  26.569  1.00  0.00     0.163 HD
ATOM     24  O   UNL A   1      33.978  31.494  28.131  1.00  0.00    -0.269 OA
BRANCH  22  25
ATOM     25  C   UNL A   1      35.776  29.984  28.069  1.00  0.00     0.039 A 
ATOM     26  C   UNL A   1      36.019  29.522  29.369  1.00  0.00     0.014 A 
ATOM     27  C   UNL A   1      36.848  30.104  27.188  1.00  0.00     0.014 A 
ATOM     28  C   UNL A   1      37.311  29.146  29.758  1.00  0.00     0.010 A 
ATOM     29  C   UNL A   1      38.105  29.613  27.531  1.00  0.00     0.010 A 
ATOM     30  C   UNL A   1      38.364  29.160  28.831  1.00  0.00    -0.014 A 
BRANCH  30  31
ATOM     31  C   UNL A   1      39.755  28.774  29.195  1.00  0.00     0.031 A 
ATOM     32  C   UNL A   1      40.657  29.773  29.883  1.00  0.00     0.074 A 
ATOM     33  C   UNL A   1      40.241  27.568  28.837  1.00  0.00     0.049 A 
ATOM     34  N   UNL A   1      41.936  29.688  30.151  1.00  0.00    -0.248 NA
ATOM     35  C   UNL A   1      40.049  31.053  30.285  1.00  0.00     0.031 C 
ATOM     36  C   UNL A   1      39.492  26.525  28.132  1.00  0.00     0.029 A 
ATOM     37  N   UNL A   1      41.488  27.022  29.007  1.00  0.00    -0.354 N 
ATOM     38  C   UNL A   1      42.290  30.916  30.701  1.00  0.00     0.074 A 
ATOM     39  C   UNL A   1      41.106  31.744  30.686  1.00  0.00     0.031 C 
ATOM     40  C   UNL A   1      40.285  25.455  27.959  1.00  0.00     0.029 A 
ATOM     41  C   UNL A   1      41.610  25.751  28.493  1.00  0.00     0.049 A 
ATOM     42  H   UNL A   1      42.226  27.495  29.455  1.00  0.00     0.167 HD
ATOM     43  C   UNL A   1      43.486  31.315  31.197  1.00  0.00     0.031 A 
ATOM     44  C   UNL A   1      42.670  24.922  28.448  1.00  0.00     0.031 A 
ATOM     45  C   UNL A   1      44.650  30.472  31.262  1.00  0.00     0.049 A 
ATOM     46  C   UNL A   1      43.980  25.371  29.038  1.00  0.00     0.074 A 
ATOM     47  C   UNL A   1      45.887  30.752  31.814  1.00  0.00     0.029 A 
ATOM     48  N   UNL A   1      44.714  29.177  30.768  1.00  0.00    -0.354 N 
ATOM     49  N   UNL A   1      44.280  26.518  29.598  1.00  0.00    -0.248 NA
ATOM     50  C   UNL A   1      45.089  24.408  28.999  1.00  0.00     0.031 C 
ATOM     51  C   UNL A   1      46.712  29.639  31.621  1.00  0.00     0.029 A 
ATOM     52  C   UNL A   1      45.973  28.649  30.994  1.00  0.00     0.049 A 
ATOM     53  H   UNL A   1      43.974  28.703  30.324  1.00  0.00     0.167 HD
ATOM     54  C   UNL A   1      45.605  26.404  30.004  1.00  0.00     0.074 A 
ATOM     55  C   UNL A   1      46.043  25.073  29.636  1.00  0.00     0.031 C 
ATOM     56  C   UNL A   1      46.388  27.319  30.627  1.00  0.00     0.031 A 
BRANCH  43  57
ATOM     57  C   UNL A   1      43.593  32.727  31.713  1.00  0.00    -0.014 A 
ATOM     58  C   UNL A   1      43.280  33.042  33.048  1.00  0.00     0.010 A 
ATOM     59  C   UNL A   1      44.038  33.752  30.857  1.00  0.00     0.010 A 
ATOM     60  C   UNL A   1      43.359  34.361  33.503  1.00  0.00     0.020 A 
ATOM     61  C   UNL A   1      44.148  35.068  31.317  1.00  0.00     0.020 A 
ATOM     62  C   UNL A   1      43.786  35.367  32.632  1.00  0.00     0.054 A 
BRANCH  62  63
ATOM     63  S   UNL A   1      43.890  37.068  33.252  1.00  0.00     0.124 S 
ATOM     64  O   UNL A   1      43.834  37.843  32.014  1.00  0.00    -0.237 OA
ATOM     65  O   UNL A   1      42.712  37.171  34.110  1.00  0.00    -0.237 OA
ATOM     66  O   UNL A   1      45.172  37.106  33.952  1.00  0.00    -0.744 OA
ENDBRANCH  62  63
ENDBRANCH  43  57
BRANCH  44  67
ATOM     67  C   UNL A   1      42.527  23.568  27.846  1.00  0.00    -0.014 A 
ATOM     68  C   UNL A   1      42.941  23.334  26.523  1.00  0.00     0.010 A 
ATOM     69  C   UNL A   1      41.996  22.503  28.594  1.00  0.00     0.010 A 
ATOM     70  C   UNL A   1      42.813  22.065  25.953  1.00  0.00     0.020 A 
ATOM     71  C   UNL A   1      41.890  21.225  28.037  1.00  0.00     0.020 A 
ATOM     72  C   UNL A   1      42.290  21.016  26.714  1.00  0.00     0.054 A 
BRANCH  72  73
ATOM     73  S   UNL A   1      42.185  19.363  25.973  1.00  0.00     0.124 S 
ATOM     74  O   UNL A   1      42.719  18.520  27.037  1.00  0.00    -0.237 OA
ATOM     75  O   UNL A   1      40.754  19.224  25.712  1.00  0.00    -0.237 OA
ATOM     76  O   UNL A   1      43.020  19.471  24.778  1.00  0.00    -0.744 OA
ENDBRANCH  72  73
ENDBRANCH  44  67
BRANCH  56  77
ATOM     77  C   UNL A   1      47.786  26.900  30.992  1.00  0.00    -0.014 A 
ATOM     78  C   UNL A   1      48.056  26.232  32.199  1.00  0.00     0.010 A 
ATOM     79  C   UNL A   1      48.834  27.126  30.081  1.00  0.00     0.010 A 
ATOM     80  C   UNL A   1      49.358  25.826  32.504  1.00  0.00     0.020 A 
ATOM     81  C   UNL A   1      50.132  26.698  30.371  1.00  0.00     0.020 A 
ATOM     82  C   UNL A   1      50.387  26.062  31.587  1.00  0.00     0.054 A 
BRANCH  82  83
ATOM     83  S   UNL A   1      52.060  25.485  31.984  1.00  0.00     0.124 S 
ATOM     84  O   UNL A   1      51.844  24.059  32.213  1.00  0.00    -0.237 OA
ATOM     85  O   UNL A   1      52.811  25.820  30.776  1.00  0.00    -0.237 OA
ATOM     86  O   UNL A   1      52.423  26.259  33.169  1.00  0.00    -0.744 OA
ENDBRANCH  82  83
ENDBRANCH  56  77
ENDBRANCH  30  31
ENDBRANCH  22  25
ENDBRANCH  20  21
ENDBRANCH   1  20
TORSDOF 16
ENDMDL
MODEL 2
REMARK VINA RESULT:      -9.9      1.201      2.123
REMARK SMILES C[NH2+][C@@]1(C(=O)NCCCNC(=O)c2ccc(-c3c4nc(c(-c5ccc(S(=O)(=O)[O-])cc5)c5ccc([nH]5)c(-c5ccc(S(=O)(=O)[O-])cc5)c5nc(c(-c6ccc(S(=O)(=O)[O-])cc6)c6ccc3[nH]6)C=C5)C=C4)cc2)CC[C@H](SC(C)C)C1
REMARK SMILES IDX 8 1 7 2 6 3 4 4 5 5 3 7 73 8 80 9 74 10 75 11 2 12 1 13
REMARK SMILES IDX 76 16 77 17 78 18 79 19 9 20 10 21 11 22 12 24 13 25 14 26
REMARK SMILES IDX 72 27 15 28 71 29 16 30 17 31 18 32 65 33 19 34 70 35 64 36
REMARK SMILES IDX 66 37 20 38 69 39 63 40 62 41 21 43 51 44 32 45 50 46 33 47
REMARK SMILES IDX 36 48 49 49 67 50 34 51 35 52 48 54 68 55 37 56 22 57 23 58
REMARK SMILES IDX 31 59 24 60 30 61 25 62 26 63 27 64 28 65 29 66 52 67 53 68
REMARK SMILES IDX 61 69 54 70 60 71 55 72 56 73 57 74 58 75 59 76 38 77 39 78
REMARK SMILES IDX 47 79 40 80 46 81 41 82 42 83 43 84 44 85 45 86
REMARK H PARENT 6 6 2 14 2 15 10 23 66 42 36 53
REMARK Flexibility Score: inf
ROOT
ATOM      1  C   UNL A   1      33.131  27.708  26.384  1.00  0.00     0.042 C 
ENDROOT
BRANCH   1   2
ATOM      2  C   UNL A   1      33.291  26.408  25.612  1.00  0.00     0.118 C 
BRANCH   2   3
ATOM      3  N   UNL A   1      32.654  25.274  26.235  1.00  0.00    -0.351 N 
ATOM      4  C   UNL A   1      33.020  23.972  26.343  1.00  0.00     0.281 C 
ATOM      5  O   UNL A   1      32.406  23.357  27.230  1.00  0.00    -0.268 OA
ATOM      6  H   UNL A   1      31.793  25.484  26.662  1.00  0.00     0.163 HD
BRANCH   4   7
ATOM      7  C   UNL A   1      34.155  23.248  25.497  1.00  0.00     0.176 C 
ATOM      8  C   UNL A   1      33.883  23.317  23.987  1.00  0.00     0.080 C 
ATOM      9  C   UNL A   1      34.393  21.754  25.778  1.00  0.00     0.093 C 
ATOM     10  C   UNL A   1      33.418  21.934  23.532  1.00  0.00     0.022 C 
ATOM     11  C   UNL A   1      33.927  20.919  24.554  1.00  0.00     0.054 C 
BRANCH   7  12
ATOM     12  N   UNL A   1      35.435  24.008  25.717  1.00  0.00    -0.336 N 
ATOM     13  C   UNL A   1      36.654  23.206  25.578  1.00  0.00     0.331 C 
ATOM     14  H   UNL A   1      35.476  24.767  25.037  1.00  0.00     0.346 HD
ATOM     15  H   UNL A   1      35.414  24.335  26.683  1.00  0.00     0.346 HD
ENDBRANCH   7  12
BRANCH  11  16
ATOM     16  S   UNL A   1      32.893  19.561  25.260  1.00  0.00    -0.155 SA
BRANCH  16  17
ATOM     17  C   UNL A   1      33.150  17.994  24.341  1.00  0.00     0.040 C 
ATOM     18  C   UNL A   1      32.809  16.678  25.016  1.00  0.00     0.019 C 
ATOM     19  C   UNL A   1      32.555  18.081  22.944  1.00  0.00     0.019 C 
ENDBRANCH  16  17
ENDBRANCH  11  16
ENDBRANCH   4   7
ENDBRANCH   2   3
ENDBRANCH   1   2
BRANCH   1  20
ATOM     20  C   UNL A   1      34.064  28.803  25.901  1.00  0.00     0.118 C 
BRANCH  20  21
ATOM     21  N   UNL A   1      33.897  30.038  26.659  1.00  0.00    -0.352 N 
ATOM     22  C   UNL A   1      34.615  30.589  27.694  1.00  0.00     0.251 C 
ATOM     23  H   UNL A   1      33.124  30.579  26.376  1.00  0.00     0.163 HD
ATOM     24  O   UNL A   1      34.099  31.505  28.333  1.00  0.00    -0.269 OA
BRANCH  22  25
ATOM     25  C   UNL A   1      35.970  30.111  28.067  1.00  0.00     0.039 A 
ATOM     26  C   UNL A   1      36.172  29.572  29.345  1.00  0.00     0.014 A 
ATOM     27  C   UNL A   1      37.067  30.263  27.222  1.00  0.00     0.014 A 
ATOM     28  C   UNL A   1      37.448  29.155  29.744  1.00  0.00     0.010 A 
ATOM     29  C   UNL A   1      38.307  29.734  27.569  1.00  0.00     0.010 A 
ATOM     30  C   UNL A   1      38.525  29.204  28.847  1.00  0.00    -0.014 A 
BRANCH  30  31
ATOM     31  C   UNL A   1      39.900  28.776  29.224  1.00  0.00     0.031 A 
ATOM     32  C   UNL A   1      40.821  29.744  29.931  1.00  0.00     0.074 A 
ATOM     33  C   UNL A   1      40.356  27.560  28.862  1.00  0.00     0.049 A 
ATOM     34  N   UNL A   1      42.094  29.621  30.213  1.00  0.00    -0.248 NA
ATOM     35  C   UNL A   1      40.245  31.037  30.337  1.00  0.00     0.031 C 
ATOM     36  C   UNL A   1      39.587  26.544  28.139  1.00  0.00     0.029 A 
ATOM     37  N   UNL A   1      41.586  26.978  29.041  1.00  0.00    -0.354 N 
ATOM     38  C   UNL A   1      42.476  30.834  30.779  1.00  0.00     0.074 A 
ATOM     39  C   UNL A   1      41.315  31.695  30.756  1.00  0.00     0.031 C 
ATOM     40  C   UNL A   1      40.353  25.454  27.966  1.00  0.00     0.029 A 
ATOM     41  C   UNL A   1      41.679  25.709  28.518  1.00  0.00     0.049 A 
ATOM     42  H   UNL A   1      42.332  27.426  29.502  1.00  0.00     0.167 HD
ATOM     43  C   UNL A   1      43.676  31.195  31.292  1.00  0.00     0.031 A 
ATOM     44  C   UNL A   1      42.716  24.850  28.478  1.00  0.00     0.031 A 
ATOM     45  C   UNL A   1      44.815  30.319  31.363  1.00  0.00     0.049 A 
ATOM     46  C   UNL A   1      44.030  25.257  29.087  1.00  0.00     0.074 A 
ATOM     47  C   UNL A   1      46.053  30.559  31.932  1.00  0.00     0.029 A 
ATOM     48  N   UNL A   1      44.849  29.028  30.859  1.00  0.00    -0.354 N 
ATOM     49  N   UNL A   1      44.355  26.391  29.661  1.00  0.00    -0.248 NA
ATOM     50  C   UNL A   1      45.112  24.265  29.053  1.00  0.00     0.031 C 
ATOM     51  C   UNL A   1      46.849  29.426  31.739  1.00  0.00     0.029 A 
ATOM     52  C   UNL A   1      46.090  28.462  31.095  1.00  0.00     0.049 A 
ATOM     53  H   UNL A   1      44.102  28.578  30.402  1.00  0.00     0.167 HD
ATOM     54  C   UNL A   1      45.672  26.237  30.081  1.00  0.00     0.074 A 
ATOM     55  C   UNL A   1      46.077  24.897  29.707  1.00  0.00     0.031 C 
ATOM     56  C   UNL A   1      46.473  27.124  30.721  1.00  0.00     0.031 A 
BRANCH  43  57
ATOM     57  C   UNL A   1      43.817  32.599  31.821  1.00  0.00    -0.014 A 
ATOM     58  C   UNL A   1      44.268  33.648  30.997  1.00  0.00     0.010 A 
ATOM     59  C   UNL A   1      43.471  32.881  33.156  1.00  0.00     0.010 A 
ATOM     60  C   UNL A   1      44.419  34.939  31.512  1.00  0.00     0.020 A 
ATOM     61  C   UNL A   1      43.592  34.178  33.666  1.00  0.00     0.020 A 
ATOM     62  C   UNL A   1      44.086  35.193  32.845  1.00  0.00     0.054 A 
BRANCH  62  63
ATOM     63  S   UNL A   1      44.281  36.880  33.483  1.00  0.00     0.124 S 
ATOM     64  O   UNL A   1      44.905  37.560  32.350  1.00  0.00    -0.237 OA
ATOM     65  O   UNL A   1      42.905  37.276  33.773  1.00  0.00    -0.237 OA
ATOM     66  O   UNL A   1      45.137  36.711  34.656  1.00  0.00    -0.744 OA
ENDBRANCH  62  63
ENDBRANCH  43  57
BRANCH  44  67
ATOM     67  C   UNL A   1      42.542  23.506  27.862  1.00  0.00    -0.014 A 
ATOM     68  C   UNL A   1      42.987  23.265  26.551  1.00  0.00     0.010 A 
ATOM     69  C   UNL A   1      41.950  22.457  28.587  1.00  0.00     0.010 A 
ATOM     70  C   UNL A   1      42.830  22.005  25.968  1.00  0.00     0.020 A 
ATOM     71  C   UNL A   1      41.815  21.186  28.018  1.00  0.00     0.020 A 
ATOM     72  C   UNL A   1      42.247  20.971  26.707  1.00  0.00     0.054 A 
BRANCH  72  73
ATOM     73  S   UNL A   1      42.105  19.328  25.952  1.00  0.00     0.124 S 
ATOM     74  O   UNL A   1      40.667  19.219  25.730  1.00  0.00    -0.237 OA
ATOM     75  O   UNL A   1      42.923  19.461  24.748  1.00  0.00    -0.237 OA
ATOM     76  O   UNL A   1      42.654  18.435  26.971  1.00  0.00    -0.744 OA
ENDBRANCH  72  73
ENDBRANCH  44  67
BRANCH  56  77
ATOM     77  C   UNL A   1      47.854  26.663  31.099  1.00  0.00    -0.014 A 
ATOM     78  C   UNL A   1      48.935  26.795  30.210  1.00  0.00     0.010 A 
ATOM     79  C   UNL A   1      48.081  26.144  32.386  1.00  0.00     0.010 A 
ATOM     80  C   UNL A   1      50.215  26.386  30.593  1.00  0.00     0.020 A 
ATOM     81  C   UNL A   1      49.364  25.759  32.781  1.00  0.00     0.020 A 
ATOM     82  C   UNL A   1      50.421  25.871  31.876  1.00  0.00     0.054 A 
BRANCH  82  83
ATOM     83  S   UNL A   1      52.100  25.390  32.366  1.00  0.00     0.124 S 
ATOM     84  O   UNL A   1      52.911  26.017  31.327  1.00  0.00    -0.237 OA
ATOM     85  O   UNL A   1      52.226  25.977  33.699  1.00  0.00    -0.237 OA
ATOM     86  O   UNL A   1      52.066  23.930  32.336  1.00  0.00    -0.744 OA
ENDBRANCH  82  83
ENDBRANCH  56  77
ENDBRANCH  30  31
ENDBRANCH  22  25
ENDBRANCH  20  21
ENDBRANCH   1  20
TORSDOF 16
ENDMDL
MODEL 3
REMARK VINA RESULT:      -9.8      3.343      4.456
REMARK SMILES C[NH2+][C@@]1(C(=O)NCCCNC(=O)c2ccc(-c3c4nc(c(-c5ccc(S(=O)(=O)[O-])cc5)c5ccc([nH]5)c(-c5ccc(S(=O)(=O)[O-])cc5)c5nc(c(-c6ccc(S(=O)(=O)[O-])cc6)c6ccc3[nH]6)C=C5)C=C4)cc2)CC[C@H](SC(C)C)C1
REMARK SMILES IDX 8 1 7 2 6 3 4 4 5 5 3 7 73 8 80 9 74 10 75 11 2 12 1 13
REMARK SMILES IDX 76 16 77 17 78 18 79 19 9 20 10 21 11 22 12 24 13 25 14 26
REMARK SMILES IDX 72 27 15 28 71 29 16 30 17 31 18 32 65 33 19 34 70 35 64 36
REMARK SMILES IDX 66 37 20 38 69 39 63 40 62 41 21 43 51 44 32 45 50 46 33 47
REMARK SMILES IDX 36 48 49 49 67 50 34 51 35 52 48 54 68 55 37 56 22 57 23 58
REMARK SMILES IDX 31 59 24 60 30 61 25 62 26 63 27 64 28 65 29 66 52 67 53 68
REMARK SMILES IDX 61 69 54 70 60 71 55 72 56 73 57 74 58 75 59 76 38 77 39 78
REMARK SMILES IDX 47 79 40 80 46 81 41 82 42 83 43 84 44 85 45 86
REMARK H PARENT 6 6 2 14 2 15 10 23 66 42 36 53
REMARK Flexibility Score: inf
ROOT
ATOM      1  C   UNL A   1      33.997  28.607  27.217  1.00  0.00     0.042 C 
ENDROOT
BRANCH   1   2
ATOM      2  C   UNL A   1      33.376  28.837  25.850  1.00  0.00     0.118 C 
BRANCH   2   3
ATOM      3  N   UNL A   1      33.836  27.920  24.835  1.00  0.00    -0.351 N 
ATOM      4  C   UNL A   1      33.301  26.780  24.330  1.00  0.00     0.281 C 
ATOM      5  O   UNL A   1      33.796  26.441  23.243  1.00  0.00    -0.268 OA
ATOM      6  H   UNL A   1      34.700  28.168  24.435  1.00  0.00     0.163 HD
BRANCH   4   7
ATOM      7  C   UNL A   1      32.117  25.939  24.975  1.00  0.00     0.176 C 
ATOM      8  C   UNL A   1      31.736  24.724  24.116  1.00  0.00     0.080 C 
ATOM      9  C   UNL A   1      30.786  26.673  25.216  1.00  0.00     0.093 C 
ATOM     10  C   UNL A   1      30.410  25.038  23.423  1.00  0.00     0.022 C 
ATOM     11  C   UNL A   1      29.709  26.120  24.243  1.00  0.00     0.054 C 
BRANCH   7  12
ATOM     12  N   UNL A   1      32.620  25.377  26.277  1.00  0.00    -0.336 N 
ATOM     13  C   UNL A   1      33.610  24.305  26.139  1.00  0.00     0.331 C 
ATOM     14  H   UNL A   1      33.046  26.136  26.808  1.00  0.00     0.346 HD
ATOM     15  H   UNL A   1      31.813  24.964  26.744  1.00  0.00     0.346 HD
ENDBRANCH   7  12
BRANCH  11  16
ATOM     16  S   UNL A   1      28.911  27.613  23.505  1.00  0.00    -0.155 SA
BRANCH  16  17
ATOM     17  C   UNL A   1      30.076  29.030  23.467  1.00  0.00     0.040 C 
ATOM     18  C   UNL A   1      31.186  29.046  22.431  1.00  0.00     0.019 C 
ATOM     19  C   UNL A   1      29.323  30.352  23.505  1.00  0.00     0.019 C 
ENDBRANCH  16  17
ENDBRANCH  11  16
ENDBRANCH   4   7
ENDBRANCH   2   3
ENDBRANCH   1   2
BRANCH   1  20
ATOM     20  C   UNL A   1      35.174  29.524  27.495  1.00  0.00     0.118 C 
BRANCH  20  21
ATOM     21  N   UNL A   1      35.215  29.956  28.887  1.00  0.00    -0.352 N 
ATOM     22  C   UNL A   1      36.190  29.867  29.853  1.00  0.00     0.251 C 
ATOM     23  H   UNL A   1      34.388  30.394  29.194  1.00  0.00     0.163 HD
ATOM     24  O   UNL A   1      35.865  30.063  31.024  1.00  0.00    -0.269 OA
BRANCH  22  25
ATOM     25  C   UNL A   1      37.600  29.531  29.532  1.00  0.00     0.039 A 
ATOM     26  C   UNL A   1      38.046  29.662  28.210  1.00  0.00     0.014 A 
ATOM     27  C   UNL A   1      38.470  29.005  30.485  1.00  0.00     0.014 A 
ATOM     28  C   UNL A   1      39.358  29.309  27.867  1.00  0.00     0.010 A 
ATOM     29  C   UNL A   1      39.807  28.775  30.173  1.00  0.00     0.010 A 
ATOM     30  C   UNL A   1      40.262  28.890  28.853  1.00  0.00    -0.014 A 
BRANCH  30  31
ATOM     31  C   UNL A   1      41.665  28.501  28.539  1.00  0.00     0.031 A 
ATOM     32  C   UNL A   1      42.752  29.552  28.535  1.00  0.00     0.074 A 
ATOM     33  C   UNL A   1      41.955  27.236  28.176  1.00  0.00     0.049 A 
ATOM     34  N   UNL A   1      43.999  29.452  28.147  1.00  0.00    -0.248 NA
ATOM     35  C   UNL A   1      42.376  30.903  28.985  1.00  0.00     0.031 C 
ATOM     36  C   UNL A   1      40.994  26.133  28.097  1.00  0.00     0.029 A 
ATOM     37  N   UNL A   1      43.142  26.667  27.790  1.00  0.00    -0.354 N 
ATOM     38  C   UNL A   1      44.534  30.732  28.260  1.00  0.00     0.074 A 
ATOM     39  C   UNL A   1      43.467  31.599  28.704  1.00  0.00     0.031 C 
ATOM     40  C   UNL A   1      41.637  25.016  27.720  1.00  0.00     0.029 A 
ATOM     41  C   UNL A   1      43.041  25.330  27.482  1.00  0.00     0.049 A 
ATOM     42  H   UNL A   1      43.988  27.169  27.739  1.00  0.00     0.167 HD
ATOM     43  C   UNL A   1      45.804  31.148  28.036  1.00  0.00     0.031 A 
ATOM     44  C   UNL A   1      43.971  24.458  27.047  1.00  0.00     0.031 A 
ATOM     45  C   UNL A   1      46.878  30.274  27.646  1.00  0.00     0.049 A 
ATOM     46  C   UNL A   1      45.384  24.932  26.840  1.00  0.00     0.074 A 
ATOM     47  C   UNL A   1      48.216  30.579  27.469  1.00  0.00     0.029 A 
ATOM     48  N   UNL A   1      46.737  28.919  27.387  1.00  0.00    -0.354 N 
ATOM     49  N   UNL A   1      45.879  26.136  26.999  1.00  0.00    -0.248 NA
ATOM     50  C   UNL A   1      46.363  23.927  26.406  1.00  0.00     0.031 C 
ATOM     51  C   UNL A   1      48.878  29.415  27.065  1.00  0.00     0.029 A 
ATOM     52  C   UNL A   1      47.962  28.375  27.041  1.00  0.00     0.049 A 
ATOM     53  H   UNL A   1      45.892  28.417  27.442  1.00  0.00     0.167 HD
ATOM     54  C   UNL A   1      47.235  26.027  26.712  1.00  0.00     0.074 A 
ATOM     55  C   UNL A   1      47.483  24.637  26.383  1.00  0.00     0.031 C 
ATOM     56  C   UNL A   1      48.190  26.989  26.723  1.00  0.00     0.031 A 
BRANCH  43  57
ATOM     57  C   UNL A   1      46.101  32.615  28.212  1.00  0.00    -0.014 A 
ATOM     58  C   UNL A   1      46.511  33.132  29.455  1.00  0.00     0.010 A 
ATOM     59  C   UNL A   1      45.991  33.487  27.113  1.00  0.00     0.010 A 
ATOM     60  C   UNL A   1      46.756  34.500  29.607  1.00  0.00     0.020 A 
ATOM     61  C   UNL A   1      46.265  34.851  27.254  1.00  0.00     0.020 A 
ATOM     62  C   UNL A   1      46.625  35.352  28.507  1.00  0.00     0.054 A 
BRANCH  62  63
ATOM     63  S   UNL A   1      46.959  37.120  28.731  1.00  0.00     0.124 S 
ATOM     64  O   UNL A   1      45.970  37.488  29.740  1.00  0.00    -0.237 OA
ATOM     65  O   UNL A   1      48.349  37.131  29.181  1.00  0.00    -0.237 OA
ATOM     66  O   UNL A   1      46.735  37.687  27.403  1.00  0.00    -0.744 OA
ENDBRANCH  62  63
ENDBRANCH  43  57
BRANCH  44  67
ATOM     67  C   UNL A   1      43.598  23.037  26.805  1.00  0.00    -0.014 A 
ATOM     68  C   UNL A   1      43.870  22.434  25.564  1.00  0.00     0.010 A 
ATOM     69  C   UNL A   1      42.988  22.274  27.816  1.00  0.00     0.010 A 
ATOM     70  C   UNL A   1      43.527  21.100  25.333  1.00  0.00     0.020 A 
ATOM     71  C   UNL A   1      42.667  20.931  27.598  1.00  0.00     0.020 A 
ATOM     72  C   UNL A   1      42.929  20.354  26.353  1.00  0.00     0.054 A 
BRANCH  72  73
ATOM     73  S   UNL A   1      42.543  18.608  26.050  1.00  0.00     0.124 S 
ATOM     74  O   UNL A   1      43.416  18.295  24.923  1.00  0.00    -0.237 OA
ATOM     75  O   UNL A   1      42.899  17.980  27.320  1.00  0.00    -0.237 OA
ATOM     76  O   UNL A   1      41.112  18.621  25.751  1.00  0.00    -0.744 OA
ENDBRANCH  72  73
ENDBRANCH  44  67
BRANCH  56  77
ATOM     77  C   UNL A   1      49.600  26.568  26.411  1.00  0.00    -0.014 A 
ATOM     78  C   UNL A   1      50.356  25.813  27.325  1.00  0.00     0.010 A 
ATOM     79  C   UNL A   1      50.154  26.884  25.157  1.00  0.00     0.010 A 
ATOM     80  C   UNL A   1      51.654  25.409  27.002  1.00  0.00     0.020 A 
ATOM     81  C   UNL A   1      51.441  26.459  24.820  1.00  0.00     0.020 A 
ATOM     82  C   UNL A   1      52.187  25.734  25.752  1.00  0.00     0.054 A 
BRANCH  82  83
ATOM     83  S   UNL A   1      53.857  25.159  25.337  1.00  0.00     0.124 S 
ATOM     84  O   UNL A   1      53.988  25.583  23.946  1.00  0.00    -0.237 OA
ATOM     85  O   UNL A   1      54.693  25.880  26.294  1.00  0.00    -0.237 OA
ATOM     86  O   UNL A   1      53.788  23.714  25.545  1.00  0.00    -0.744 OA
ENDBRANCH  82  83
ENDBRANCH  56  77
ENDBRANCH  30  31
ENDBRANCH  22  25
ENDBRANCH  20  21
ENDBRANCH   1  20
TORSDOF 16
ENDMDL
