MODEL 1
REMARK VINA RESULT:     -12.7      0.000      0.000
REMARK SMILES Nn1c(S[C@@H](C(=O)NCCCNC(=O)c2ccc(-c3c4nc(c(-c5ccc(S(=O)(=O)[O-])cc5)c5ccc([nH]5)c(-c5ccc(S(=O)(=O)[O-])cc5)c5nc(c(-c6ccc(S(=O)(=O)[O-])cc6)c6ccc3[nH]6)C=C5)C=C4)cc2)c2ccccc2)nc2ccc(Br)cc2c1=O
REMARK SMILES IDX 10 1 9 2 8 3 6 4 7 5 5 7 4 8 3 9 2 10 89 11 81 12 88 13
REMARK SMILES IDX 90 14 82 15 87 16 83 17 85 18 84 19 86 20 1 21 75 24 76 25
REMARK SMILES IDX 80 26 77 27 79 28 78 29 11 30 12 31 13 32 14 34 15 35 16 36
REMARK SMILES IDX 74 37 17 38 73 39 18 40 19 41 20 42 67 43 21 44 72 45 66 46
REMARK SMILES IDX 68 47 22 48 71 49 65 50 64 51 23 53 53 54 34 55 52 56 35 57
REMARK SMILES IDX 38 58 51 59 69 60 36 61 37 62 50 64 70 65 39 66 24 67 25 68
REMARK SMILES IDX 33 69 26 70 32 71 27 72 28 73 29 74 30 75 31 76 54 77 55 78
REMARK SMILES IDX 63 79 56 80 62 81 57 82 58 83 59 84 60 85 61 86 40 87 41 88
REMARK SMILES IDX 49 89 42 90 48 91 43 92 44 93 45 94 46 95 47 96
REMARK H PARENT 8 6 1 22 1 23 12 33 68 52 38 63
REMARK Flexibility Score: inf
ROOT
ATOM      1  C   UNL A   1      36.928  23.649  25.179  1.00  0.00     0.042 C 
ENDROOT
BRANCH   1   2
ATOM      2  C   UNL A   1      36.537  22.173  25.208  1.00  0.00     0.117 C 
BRANCH   2   3
ATOM      3  N   UNL A   1      35.527  21.883  26.210  1.00  0.00    -0.355 N 
ATOM      4  C   UNL A   1      34.376  21.142  26.161  1.00  0.00     0.238 C 
ATOM      5  O   UNL A   1      33.744  21.135  27.224  1.00  0.00    -0.273 OA
ATOM      6  H   UNL A   1      35.702  22.294  27.087  1.00  0.00     0.163 HD
BRANCH   4   7
ATOM      7  C   UNL A   1      33.972  20.360  24.877  1.00  0.00     0.174 C 
BRANCH   7   8
ATOM      8  S   UNL A   1      32.630  21.229  24.014  1.00  0.00    -0.068 SA
BRANCH   8   9
ATOM      9  C   UNL A   1      32.301  22.821  24.655  1.00  0.00     0.191 A 
ATOM     10  N   UNL A   1      31.333  23.149  25.602  1.00  0.00    -0.202 N 
ATOM     11  C   UNL A   1      31.151  24.459  26.055  1.00  0.00     0.280 A 
ATOM     12  N   UNL A   1      33.096  23.716  24.151  1.00  0.00    -0.222 NA
ATOM     13  C   UNL A   1      32.036  25.475  25.478  1.00  0.00     0.069 A 
ATOM     14  O   UNL A   1      30.288  24.782  26.872  1.00  0.00    -0.267 OA
ATOM     15  C   UNL A   1      32.974  25.052  24.540  1.00  0.00     0.079 A 
ATOM     16  C   UNL A   1      31.915  26.820  25.840  1.00  0.00     0.031 A 
ATOM     17  C   UNL A   1      33.812  26.005  23.958  1.00  0.00     0.030 A 
ATOM     18  C   UNL A   1      32.751  27.756  25.241  1.00  0.00     0.018 A 
ATOM     19  C   UNL A   1      33.702  27.356  24.303  1.00  0.00     0.018 A 
ATOM     20  Br  UNL A   1      32.581  29.583  25.692  1.00  0.00    -0.051 Br
BRANCH  10  21
ATOM     21  N   UNL A   1      30.426  22.222  26.122  1.00  0.00    -0.334 N 
ATOM     22  H   UNL A   1      30.670  21.269  26.175  1.00  0.00     0.178 HD
ATOM     23  H   UNL A   1      29.542  22.521  26.437  1.00  0.00     0.178 HD
ENDBRANCH  10  21
ENDBRANCH   8   9
ENDBRANCH   7   8
BRANCH   7  24
ATOM     24  C   UNL A   1      33.825  18.828  24.930  1.00  0.00    -0.025 A 
ATOM     25  C   UNL A   1      34.797  17.956  24.409  1.00  0.00     0.005 A 
ATOM     26  C   UNL A   1      32.674  18.234  25.494  1.00  0.00     0.005 A 
ATOM     27  C   UNL A   1      34.689  16.569  24.563  1.00  0.00     0.000 A 
ATOM     28  C   UNL A   1      32.562  16.849  25.642  1.00  0.00     0.000 A 
ATOM     29  C   UNL A   1      33.582  16.017  25.197  1.00  0.00     0.000 A 
ENDBRANCH   7  24
ENDBRANCH   4   7
ENDBRANCH   2   3
ENDBRANCH   1   2
BRANCH   1  30
ATOM     30  C   UNL A   1      37.817  24.102  26.331  1.00  0.00     0.118 C 
BRANCH  30  31
ATOM     31  N   UNL A   1      39.228  23.804  26.127  1.00  0.00    -0.352 N 
ATOM     32  C   UNL A   1      40.357  24.452  26.574  1.00  0.00     0.251 C 
ATOM     33  H   UNL A   1      39.402  23.006  25.577  1.00  0.00     0.163 HD
ATOM     34  O   UNL A   1      41.452  24.104  26.148  1.00  0.00    -0.269 OA
BRANCH  32  35
ATOM     35  C   UNL A   1      40.258  25.579  27.533  1.00  0.00     0.039 A 
ATOM     36  C   UNL A   1      41.007  26.740  27.365  1.00  0.00     0.014 A 
ATOM     37  C   UNL A   1      39.382  25.474  28.620  1.00  0.00     0.014 A 
ATOM     38  C   UNL A   1      41.034  27.699  28.372  1.00  0.00     0.010 A 
ATOM     39  C   UNL A   1      39.324  26.496  29.577  1.00  0.00     0.010 A 
ATOM     40  C   UNL A   1      40.191  27.595  29.492  1.00  0.00    -0.014 A 
BRANCH  40  41
ATOM     41  C   UNL A   1      40.233  28.664  30.529  1.00  0.00     0.031 A 
ATOM     42  C   UNL A   1      39.235  29.794  30.531  1.00  0.00     0.074 A 
ATOM     43  C   UNL A   1      41.133  28.565  31.529  1.00  0.00     0.049 A 
ATOM     44  N   UNL A   1      39.057  30.728  31.433  1.00  0.00    -0.248 NA
ATOM     45  C   UNL A   1      38.322  29.899  29.381  1.00  0.00     0.031 C 
ATOM     46  C   UNL A   1      42.159  27.524  31.631  1.00  0.00     0.029 A 
ATOM     47  N   UNL A   1      41.305  29.310  32.670  1.00  0.00    -0.354 N 
ATOM     48  C   UNL A   1      38.021  31.526  30.961  1.00  0.00     0.074 A 
ATOM     49  C   UNL A   1      37.641  31.000  29.670  1.00  0.00     0.031 C 
ATOM     50  C   UNL A   1      42.790  27.643  32.806  1.00  0.00     0.029 A 
ATOM     51  C   UNL A   1      42.272  28.810  33.512  1.00  0.00     0.049 A 
ATOM     52  H   UNL A   1      40.787  30.124  32.866  1.00  0.00     0.167 HD
ATOM     53  C   UNL A   1      37.426  32.585  31.561  1.00  0.00     0.031 A 
ATOM     54  C   UNL A   1      42.699  29.231  34.720  1.00  0.00     0.031 A 
ATOM     55  C   UNL A   1      37.805  33.099  32.855  1.00  0.00     0.049 A 
ATOM     56  C   UNL A   1      42.040  30.424  35.350  1.00  0.00     0.074 A 
ATOM     57  C   UNL A   1      37.238  34.150  33.555  1.00  0.00     0.029 A 
ATOM     58  N   UNL A   1      38.835  32.606  33.643  1.00  0.00    -0.354 N 
ATOM     59  N   UNL A   1      41.033  31.137  34.906  1.00  0.00    -0.248 NA
ATOM     60  C   UNL A   1      42.568  30.867  36.648  1.00  0.00     0.031 C 
ATOM     61  C   UNL A   1      37.973  34.343  34.727  1.00  0.00     0.029 A 
ATOM     62  C   UNL A   1      38.944  33.357  34.803  1.00  0.00     0.049 A 
ATOM     63  H   UNL A   1      39.405  31.837  33.411  1.00  0.00     0.167 HD
ATOM     64  C   UNL A   1      40.806  32.113  35.868  1.00  0.00     0.074 A 
ATOM     65  C   UNL A   1      41.751  31.870  36.940  1.00  0.00     0.031 C 
ATOM     66  C   UNL A   1      39.903  33.126  35.857  1.00  0.00     0.031 A 
BRANCH  53  67
ATOM     67  C   UNL A   1      36.283  33.268  30.848  1.00  0.00    -0.014 A 
ATOM     68  C   UNL A   1      36.520  33.964  29.646  1.00  0.00     0.010 A 
ATOM     69  C   UNL A   1      35.005  33.336  31.431  1.00  0.00     0.010 A 
ATOM     70  C   UNL A   1      35.518  34.747  29.067  1.00  0.00     0.020 A 
ATOM     71  C   UNL A   1      33.989  34.093  30.836  1.00  0.00     0.020 A 
ATOM     72  C   UNL A   1      34.261  34.816  29.673  1.00  0.00     0.054 A 
BRANCH  72  73
ATOM     73  S   UNL A   1      32.989  35.877  28.933  1.00  0.00     0.124 S 
ATOM     74  O   UNL A   1      32.248  36.333  30.104  1.00  0.00    -0.237 OA
ATOM     75  O   UNL A   1      33.782  36.896  28.250  1.00  0.00    -0.237 OA
ATOM     76  O   UNL A   1      32.261  34.971  28.047  1.00  0.00    -0.744 OA
ENDBRANCH  72  73
ENDBRANCH  53  67
BRANCH  54  77
ATOM     77  C   UNL A   1      43.787  28.479  35.406  1.00  0.00    -0.014 A 
ATOM     78  C   UNL A   1      45.135  28.726  35.080  1.00  0.00     0.010 A 
ATOM     79  C   UNL A   1      43.485  27.446  36.312  1.00  0.00     0.010 A 
ATOM     80  C   UNL A   1      46.150  27.911  35.585  1.00  0.00     0.020 A 
ATOM     81  C   UNL A   1      44.504  26.653  36.852  1.00  0.00     0.020 A 
ATOM     82  C   UNL A   1      45.825  26.868  36.456  1.00  0.00     0.054 A 
BRANCH  82  83
ATOM     83  S   UNL A   1      47.154  25.779  37.037  1.00  0.00     0.124 S 
ATOM     84  O   UNL A   1      47.866  25.490  35.795  1.00  0.00    -0.237 OA
ATOM     85  O   UNL A   1      47.868  26.626  37.989  1.00  0.00    -0.237 OA
ATOM     86  O   UNL A   1      46.439  24.650  37.625  1.00  0.00    -0.744 OA
ENDBRANCH  82  83
ENDBRANCH  54  77
BRANCH  66  87
ATOM     87  C   UNL A   1      39.904  34.081  37.026  1.00  0.00    -0.014 A 
ATOM     88  C   UNL A   1      39.104  33.819  38.153  1.00  0.00     0.010 A 
ATOM     89  C   UNL A   1      40.627  35.287  36.970  1.00  0.00     0.010 A 
ATOM     90  C   UNL A   1      39.007  34.752  39.189  1.00  0.00     0.020 A 
ATOM     91  C   UNL A   1      40.564  36.206  38.022  1.00  0.00     0.020 A 
ATOM     92  C   UNL A   1      39.735  35.941  39.116  1.00  0.00     0.054 A 
BRANCH  92  93
ATOM     93  S   UNL A   1      39.600  37.136  40.472  1.00  0.00     0.124 S 
ATOM     94  O   UNL A   1      38.752  36.426  41.425  1.00  0.00    -0.237 OA
ATOM     95  O   UNL A   1      40.991  37.320  40.880  1.00  0.00    -0.237 OA
ATOM     96  O   UNL A   1      38.987  38.303  39.841  1.00  0.00    -0.744 OA
ENDBRANCH  92  93
ENDBRANCH  66  87
ENDBRANCH  40  41
ENDBRANCH  32  35
ENDBRANCH  30  31
ENDBRANCH   1  30
TORSDOF 17
ENDMDL
MODEL 2
REMARK VINA RESULT:     -12.4      2.955      8.912
REMARK SMILES Nn1c(S[C@@H](C(=O)NCCCNC(=O)c2ccc(-c3c4nc(c(-c5ccc(S(=O)(=O)[O-])cc5)c5ccc([nH]5)c(-c5ccc(S(=O)(=O)[O-])cc5)c5nc(c(-c6ccc(S(=O)(=O)[O-])cc6)c6ccc3[nH]6)C=C5)C=C4)cc2)c2ccccc2)nc2ccc(Br)cc2c1=O
REMARK SMILES IDX 10 1 9 2 8 3 6 4 7 5 5 7 4 8 3 9 2 10 89 11 81 12 88 13
REMARK SMILES IDX 90 14 82 15 87 16 83 17 85 18 84 19 86 20 1 21 75 24 76 25
REMARK SMILES IDX 80 26 77 27 79 28 78 29 11 30 12 31 13 32 14 34 15 35 16 36
REMARK SMILES IDX 74 37 17 38 73 39 18 40 19 41 20 42 67 43 21 44 72 45 66 46
REMARK SMILES IDX 68 47 22 48 71 49 65 50 64 51 23 53 53 54 34 55 52 56 35 57
REMARK SMILES IDX 38 58 51 59 69 60 36 61 37 62 50 64 70 65 39 66 24 67 25 68
REMARK SMILES IDX 33 69 26 70 32 71 27 72 28 73 29 74 30 75 31 76 54 77 55 78
REMARK SMILES IDX 63 79 56 80 62 81 57 82 58 83 59 84 60 85 61 86 40 87 41 88
REMARK SMILES IDX 49 89 42 90 48 91 43 92 44 93 45 94 46 95 47 96
REMARK H PARENT 8 6 1 22 1 23 12 33 68 52 38 63
REMARK Flexibility Score: inf
ROOT
ATOM      1  C   UNL A   1      31.807  31.042  26.514  1.00  0.00     0.042 C 
ENDROOT
BRANCH   1   2
ATOM      2  C   UNL A   1      32.088  29.575  26.200  1.00  0.00     0.117 C 
BRANCH   2   3
ATOM      3  N   UNL A   1      32.542  29.372  24.836  1.00  0.00    -0.355 N 
ATOM      4  C   UNL A   1      31.866  29.080  23.681  1.00  0.00     0.238 C 
ATOM      5  O   UNL A   1      32.600  28.958  22.693  1.00  0.00    -0.273 OA
ATOM      6  H   UNL A   1      33.516  29.461  24.719  1.00  0.00     0.163 HD
BRANCH   4   7
ATOM      7  C   UNL A   1      30.313  28.971  23.659  1.00  0.00     0.174 C 
BRANCH   7   8
ATOM      8  S   UNL A   1      29.813  27.286  23.196  1.00  0.00    -0.068 SA
BRANCH   8   9
ATOM      9  C   UNL A   1      31.111  26.121  23.290  1.00  0.00     0.191 A 
ATOM     10  N   UNL A   1      31.918  25.695  22.237  1.00  0.00    -0.202 N 
ATOM     11  C   UNL A   1      32.939  24.756  22.417  1.00  0.00     0.280 A 
ATOM     12  N   UNL A   1      31.271  25.675  24.498  1.00  0.00    -0.222 NA
ATOM     13  C   UNL A   1      33.113  24.239  23.777  1.00  0.00     0.069 A 
ATOM     14  O   UNL A   1      33.651  24.342  21.502  1.00  0.00    -0.267 OA
ATOM     15  C   UNL A   1      32.260  24.725  24.764  1.00  0.00     0.079 A 
ATOM     16  C   UNL A   1      34.085  23.272  24.058  1.00  0.00     0.031 A 
ATOM     17  C   UNL A   1      32.391  24.230  26.063  1.00  0.00     0.030 A 
ATOM     18  C   UNL A   1      34.193  22.783  25.354  1.00  0.00     0.018 A 
ATOM     19  C   UNL A   1      33.353  23.258  26.361  1.00  0.00     0.018 A 
ATOM     20  Br  UNL A   1      35.475  21.453  25.747  1.00  0.00    -0.051 Br
BRANCH  10  21
ATOM     21  N   UNL A   1      31.737  26.111  20.915  1.00  0.00    -0.334 N 
ATOM     22  H   UNL A   1      31.419  27.024  20.725  1.00  0.00     0.178 HD
ATOM     23  H   UNL A   1      31.927  25.492  20.174  1.00  0.00     0.178 HD
ENDBRANCH  10  21
ENDBRANCH   8   9
ENDBRANCH   7   8
BRANCH   7  24
ATOM     24  C   UNL A   1      29.478  30.095  23.018  1.00  0.00    -0.025 A 
ATOM     25  C   UNL A   1      29.091  31.248  23.725  1.00  0.00     0.005 A 
ATOM     26  C   UNL A   1      29.043  29.996  21.678  1.00  0.00     0.005 A 
ATOM     27  C   UNL A   1      28.423  32.302  23.091  1.00  0.00     0.000 A 
ATOM     28  C   UNL A   1      28.369  31.044  21.046  1.00  0.00     0.000 A 
ATOM     29  C   UNL A   1      28.080  32.208  21.748  1.00  0.00     0.000 A 
ENDBRANCH   7  24
ENDBRANCH   4   7
ENDBRANCH   2   3
ENDBRANCH   1   2
BRANCH   1  30
ATOM     30  C   UNL A   1      32.925  31.768  27.252  1.00  0.00     0.118 C 
BRANCH  30  31
ATOM     31  N   UNL A   1      32.673  33.191  27.433  1.00  0.00    -0.352 N 
ATOM     32  C   UNL A   1      33.258  34.108  28.277  1.00  0.00     0.251 C 
ATOM     33  H   UNL A   1      31.966  33.558  26.854  1.00  0.00     0.163 HD
ATOM     34  O   UNL A   1      32.776  35.231  28.363  1.00  0.00    -0.269 OA
BRANCH  32  35
ATOM     35  C   UNL A   1      34.436  33.741  29.099  1.00  0.00     0.039 A 
ATOM     36  C   UNL A   1      35.713  34.194  28.778  1.00  0.00     0.014 A 
ATOM     37  C   UNL A   1      34.254  32.935  30.229  1.00  0.00     0.014 A 
ATOM     38  C   UNL A   1      36.818  33.687  29.453  1.00  0.00     0.010 A 
ATOM     39  C   UNL A   1      35.361  32.518  30.980  1.00  0.00     0.010 A 
ATOM     40  C   UNL A   1      36.661  32.845  30.567  1.00  0.00    -0.014 A 
BRANCH  40  41
ATOM     41  C   UNL A   1      37.875  32.353  31.277  1.00  0.00     0.031 A 
ATOM     42  C   UNL A   1      38.252  32.877  32.640  1.00  0.00     0.074 A 
ATOM     43  C   UNL A   1      38.598  31.360  30.720  1.00  0.00     0.049 A 
ATOM     44  N   UNL A   1      39.200  32.463  33.443  1.00  0.00    -0.248 NA
ATOM     45  C   UNL A   1      37.477  34.009  33.174  1.00  0.00     0.031 C 
ATOM     46  C   UNL A   1      38.340  30.778  29.400  1.00  0.00     0.029 A 
ATOM     47  N   UNL A   1      39.658  30.632  31.200  1.00  0.00    -0.354 N 
ATOM     48  C   UNL A   1      39.137  33.278  34.567  1.00  0.00     0.074 A 
ATOM     49  C   UNL A   1      38.091  34.245  34.325  1.00  0.00     0.031 C 
ATOM     50  C   UNL A   1      39.155  29.732  29.215  1.00  0.00     0.029 A 
ATOM     51  C   UNL A   1      40.046  29.609  30.364  1.00  0.00     0.049 A 
ATOM     52  H   UNL A   1      40.099  30.823  32.060  1.00  0.00     0.167 HD
ATOM     53  C   UNL A   1      39.867  33.211  35.706  1.00  0.00     0.031 A 
ATOM     54  C   UNL A   1      41.005  28.671  30.498  1.00  0.00     0.031 A 
ATOM     55  C   UNL A   1      40.904  32.236  35.945  1.00  0.00     0.049 A 
ATOM     56  C   UNL A   1      41.819  28.636  31.759  1.00  0.00     0.074 A 
ATOM     57  C   UNL A   1      41.677  32.072  37.082  1.00  0.00     0.029 A 
ATOM     58  N   UNL A   1      41.311  31.262  35.044  1.00  0.00    -0.354 N 
ATOM     59  N   UNL A   1      41.712  29.389  32.828  1.00  0.00    -0.248 NA
ATOM     60  C   UNL A   1      42.877  27.620  31.840  1.00  0.00     0.031 C 
ATOM     61  C   UNL A   1      42.602  31.054  36.841  1.00  0.00     0.029 A 
ATOM     62  C   UNL A   1      42.351  30.522  35.586  1.00  0.00     0.049 A 
ATOM     63  H   UNL A   1      40.921  31.120  34.152  1.00  0.00     0.167 HD
ATOM     64  C   UNL A   1      42.689  28.939  33.707  1.00  0.00     0.074 A 
ATOM     65  C   UNL A   1      43.345  27.819  33.064  1.00  0.00     0.031 C 
ATOM     66  C   UNL A   1      43.018  29.422  34.932  1.00  0.00     0.031 A 
BRANCH  53  67
ATOM     67  C   UNL A   1      39.576  34.201  36.808  1.00  0.00    -0.014 A 
ATOM     68  C   UNL A   1      40.175  35.476  36.783  1.00  0.00     0.010 A 
ATOM     69  C   UNL A   1      38.821  33.829  37.935  1.00  0.00     0.010 A 
ATOM     70  C   UNL A   1      40.060  36.340  37.876  1.00  0.00     0.020 A 
ATOM     71  C   UNL A   1      38.677  34.703  39.018  1.00  0.00     0.020 A 
ATOM     72  C   UNL A   1      39.321  35.942  38.993  1.00  0.00     0.054 A 
BRANCH  72  73
ATOM     73  S   UNL A   1      39.226  37.055  40.422  1.00  0.00     0.124 S 
ATOM     74  O   UNL A   1      38.471  38.183  39.886  1.00  0.00    -0.237 OA
ATOM     75  O   UNL A   1      38.528  36.241  41.414  1.00  0.00    -0.237 OA
ATOM     76  O   UNL A   1      40.627  37.333  40.733  1.00  0.00    -0.744 OA
ENDBRANCH  72  73
ENDBRANCH  53  67
BRANCH  54  77
ATOM     77  C   UNL A   1      41.205  27.678  29.404  1.00  0.00    -0.014 A 
ATOM     78  C   UNL A   1      40.339  26.574  29.282  1.00  0.00     0.010 A 
ATOM     79  C   UNL A   1      42.313  27.771  28.544  1.00  0.00     0.010 A 
ATOM     80  C   UNL A   1      40.617  25.548  28.376  1.00  0.00     0.020 A 
ATOM     81  C   UNL A   1      42.572  26.765  27.607  1.00  0.00     0.020 A 
ATOM     82  C   UNL A   1      41.743  25.643  27.555  1.00  0.00     0.054 A 
BRANCH  82  83
ATOM     83  S   UNL A   1      42.122  24.263  26.441  1.00  0.00     0.124 S 
ATOM     84  O   UNL A   1      42.560  24.964  25.237  1.00  0.00    -0.237 OA
ATOM     85  O   UNL A   1      43.168  23.546  27.167  1.00  0.00    -0.237 OA
ATOM     86  O   UNL A   1      40.850  23.555  26.326  1.00  0.00    -0.744 OA
ENDBRANCH  82  83
ENDBRANCH  54  77
BRANCH  66  87
ATOM     87  C   UNL A   1      44.166  28.765  35.661  1.00  0.00    -0.014 A 
ATOM     88  C   UNL A   1      43.916  27.752  36.605  1.00  0.00     0.010 A 
ATOM     89  C   UNL A   1      45.487  29.215  35.478  1.00  0.00     0.010 A 
ATOM     90  C   UNL A   1      44.958  27.219  37.369  1.00  0.00     0.020 A 
ATOM     91  C   UNL A   1      46.538  28.656  36.212  1.00  0.00     0.020 A 
ATOM     92  C   UNL A   1      46.262  27.677  37.169  1.00  0.00     0.054 A 
BRANCH  92  93
ATOM     93  S   UNL A   1      47.601  26.970  38.166  1.00  0.00     0.124 S 
ATOM     94  O   UNL A   1      47.104  25.623  38.438  1.00  0.00    -0.237 OA
ATOM     95  O   UNL A   1      48.749  27.048  37.267  1.00  0.00    -0.237 OA
ATOM     96  O   UNL A   1      47.669  27.855  39.327  1.00  0.00    -0.744 OA
ENDBRANCH  92  93
ENDBRANCH  66  87
ENDBRANCH  40  41
ENDBRANCH  32  35
ENDBRANCH  30  31
ENDBRANCH   1  30
TORSDOF 17
ENDMDL
MODEL 3
REMARK VINA RESULT:     -12.4      4.611     10.400
REMARK SMILES Nn1c(S[C@@H](C(=O)NCCCNC(=O)c2ccc(-c3c4nc(c(-c5ccc(S(=O)(=O)[O-])cc5)c5ccc([nH]5)c(-c5ccc(S(=O)(=O)[O-])cc5)c5nc(c(-c6ccc(S(=O)(=O)[O-])cc6)c6ccc3[nH]6)C=C5)C=C4)cc2)c2ccccc2)nc2ccc(Br)cc2c1=O
REMARK SMILES IDX 10 1 9 2 8 3 6 4 7 5 5 7 4 8 3 9 2 10 89 11 81 12 88 13
REMARK SMILES IDX 90 14 82 15 87 16 83 17 85 18 84 19 86 20 1 21 75 24 76 25
REMARK SMILES IDX 80 26 77 27 79 28 78 29 11 30 12 31 13 32 14 34 15 35 16 36
REMARK SMILES IDX 74 37 17 38 73 39 18 40 19 41 20 42 67 43 21 44 72 45 66 46
REMARK SMILES IDX 68 47 22 48 71 49 65 50 64 51 23 53 53 54 34 55 52 56 35 57
REMARK SMILES IDX 38 58 51 59 69 60 36 61 37 62 50 64 70 65 39 66 24 67 25 68
REMARK SMILES IDX 33 69 26 70 32 71 27 72 28 73 29 74 30 75 31 76 54 77 55 78
REMARK SMILES IDX 63 79 56 80 62 81 57 82 58 83 59 84 60 85 61 86 40 87 41 88
REMARK SMILES IDX 49 89 42 90 48 91 43 92 44 93 45 94 46 95 47 96
REMARK H PARENT 8 6 1 22 1 23 12 33 68 52 38 63
REMARK Flexibility Score: inf
ROOT
ATOM      1  C   UNL A   1      33.425  27.750  24.762  1.00  0.00     0.042 C 
ENDROOT
BRANCH   1   2
ATOM      2  C   UNL A   1      33.287  28.533  23.458  1.00  0.00     0.117 C 
BRANCH   2   3
ATOM      3  N   UNL A   1      32.873  27.696  22.345  1.00  0.00    -0.355 N 
ATOM      4  C   UNL A   1      31.854  26.790  22.212  1.00  0.00     0.238 C 
ATOM      5  O   UNL A   1      31.819  26.242  21.104  1.00  0.00    -0.273 OA
ATOM      6  H   UNL A   1      33.427  27.800  21.538  1.00  0.00     0.163 HD
BRANCH   4   7
ATOM      7  C   UNL A   1      30.833  26.547  23.361  1.00  0.00     0.174 C 
BRANCH   7   8
ATOM      8  S   UNL A   1      30.704  24.769  23.714  1.00  0.00    -0.068 SA
BRANCH   8   9
ATOM      9  C   UNL A   1      32.097  24.116  24.542  1.00  0.00     0.191 A 
ATOM     10  N   UNL A   1      32.170  23.764  25.888  1.00  0.00    -0.202 N 
ATOM     11  C   UNL A   1      33.336  23.243  26.457  1.00  0.00     0.280 A 
ATOM     12  N   UNL A   1      33.108  23.970  23.741  1.00  0.00    -0.222 NA
ATOM     13  C   UNL A   1      34.485  23.090  25.559  1.00  0.00     0.069 A 
ATOM     14  O   UNL A   1      33.439  22.946  27.647  1.00  0.00    -0.267 OA
ATOM     15  C   UNL A   1      34.316  23.468  24.229  1.00  0.00     0.079 A 
ATOM     16  C   UNL A   1      35.709  22.609  26.036  1.00  0.00     0.031 A 
ATOM     17  C   UNL A   1      35.403  23.354  23.360  1.00  0.00     0.030 A 
ATOM     18  C   UNL A   1      36.782  22.513  25.158  1.00  0.00     0.018 A 
ATOM     19  C   UNL A   1      36.636  22.881  23.821  1.00  0.00     0.018 A 
ATOM     20  Br  UNL A   1      38.452  21.897  25.789  1.00  0.00    -0.051 Br
BRANCH  10  21
ATOM     21  N   UNL A   1      31.121  23.960  26.790  1.00  0.00    -0.334 N 
ATOM     22  H   UNL A   1      30.293  24.406  26.494  1.00  0.00     0.178 HD
ATOM     23  H   UNL A   1      31.208  23.654  27.721  1.00  0.00     0.178 HD
ENDBRANCH  10  21
ENDBRANCH   8   9
ENDBRANCH   7   8
BRANCH   7  24
ATOM     24  C   UNL A   1      29.495  27.309  23.368  1.00  0.00    -0.025 A 
ATOM     25  C   UNL A   1      29.371  28.625  22.888  1.00  0.00     0.005 A 
ATOM     26  C   UNL A   1      28.326  26.710  23.887  1.00  0.00     0.005 A 
ATOM     27  C   UNL A   1      28.125  29.258  22.808  1.00  0.00     0.000 A 
ATOM     28  C   UNL A   1      27.083  27.343  23.814  1.00  0.00     0.000 A 
ATOM     29  C   UNL A   1      26.979  28.610  23.252  1.00  0.00     0.000 A 
ENDBRANCH   7  24
ENDBRANCH   4   7
ENDBRANCH   2   3
ENDBRANCH   1   2
BRANCH   1  30
ATOM     30  C   UNL A   1      34.407  28.343  25.766  1.00  0.00     0.118 C 
BRANCH  30  31
ATOM     31  N   UNL A   1      33.891  29.515  26.459  1.00  0.00    -0.352 N 
ATOM     32  C   UNL A   1      34.425  30.260  27.486  1.00  0.00     0.251 C 
ATOM     33  H   UNL A   1      33.013  29.827  26.139  1.00  0.00     0.163 HD
ATOM     34  O   UNL A   1      33.736  31.124  28.017  1.00  0.00    -0.269 OA
BRANCH  32  35
ATOM     35  C   UNL A   1      35.803  30.007  27.972  1.00  0.00     0.039 A 
ATOM     36  C   UNL A   1      36.908  30.194  27.146  1.00  0.00     0.014 A 
ATOM     37  C   UNL A   1      35.993  29.586  29.294  1.00  0.00     0.014 A 
ATOM     38  C   UNL A   1      38.166  29.774  27.566  1.00  0.00     0.010 A 
ATOM     39  C   UNL A   1      37.279  29.274  29.754  1.00  0.00     0.010 A 
ATOM     40  C   UNL A   1      38.373  29.311  28.877  1.00  0.00    -0.014 A 
BRANCH  40  41
ATOM     41  C   UNL A   1      39.745  28.903  29.290  1.00  0.00     0.031 A 
ATOM     42  C   UNL A   1      40.313  27.561  28.904  1.00  0.00     0.074 A 
ATOM     43  C   UNL A   1      40.517  29.791  29.950  1.00  0.00     0.049 A 
ATOM     44  N   UNL A   1      41.530  27.108  29.073  1.00  0.00    -0.248 NA
ATOM     45  C   UNL A   1      39.409  26.602  28.249  1.00  0.00     0.031 C 
ATOM     46  C   UNL A   1      40.077  31.117  30.391  1.00  0.00     0.029 A 
ATOM     47  N   UNL A   1      41.837  29.741  30.324  1.00  0.00    -0.354 N 
ATOM     48  C   UNL A   1      41.537  25.819  28.552  1.00  0.00     0.074 A 
ATOM     49  C   UNL A   1      40.191  25.540  28.104  1.00  0.00     0.031 C 
ATOM     50  C   UNL A   1      41.125  31.784  30.892  1.00  0.00     0.029 A 
ATOM     51  C   UNL A   1      42.296  30.913  30.881  1.00  0.00     0.049 A 
ATOM     52  H   UNL A   1      42.402  28.943  30.205  1.00  0.00     0.167 HD
ATOM     53  C   UNL A   1      42.575  24.957  28.435  1.00  0.00     0.031 A 
ATOM     54  C   UNL A   1      43.518  31.262  31.331  1.00  0.00     0.031 A 
ATOM     55  C   UNL A   1      43.919  25.245  28.874  1.00  0.00     0.049 A 
ATOM     56  C   UNL A   1      44.646  30.277  31.214  1.00  0.00     0.074 A 
ATOM     57  C   UNL A   1      45.043  24.443  28.770  1.00  0.00     0.029 A 
ATOM     58  N   UNL A   1      44.324  26.418  29.496  1.00  0.00    -0.354 N 
ATOM     59  N   UNL A   1      44.639  29.080  30.677  1.00  0.00    -0.248 NA
ATOM     60  C   UNL A   1      45.948  30.690  31.755  1.00  0.00     0.031 C 
ATOM     61  C   UNL A   1      46.107  25.096  29.396  1.00  0.00     0.029 A 
ATOM     62  C   UNL A   1      45.671  26.343  29.815  1.00  0.00     0.049 A 
ATOM     63  H   UNL A   1      43.741  27.188  29.684  1.00  0.00     0.167 HD
ATOM     64  C   UNL A   1      45.935  28.596  30.816  1.00  0.00     0.074 A 
ATOM     65  C   UNL A   1      46.708  29.648  31.445  1.00  0.00     0.031 C 
ATOM     66  C   UNL A   1      46.432  27.384  30.464  1.00  0.00     0.031 A 
BRANCH  53  67
ATOM     67  C   UNL A   1      42.327  23.614  27.790  1.00  0.00    -0.014 A 
ATOM     68  C   UNL A   1      41.983  22.505  28.587  1.00  0.00     0.010 A 
ATOM     69  C   UNL A   1      42.564  23.416  26.417  1.00  0.00     0.010 A 
ATOM     70  C   UNL A   1      41.923  21.222  28.035  1.00  0.00     0.020 A 
ATOM     71  C   UNL A   1      42.474  22.138  25.855  1.00  0.00     0.020 A 
ATOM     72  C   UNL A   1      42.181  21.045  26.674  1.00  0.00     0.054 A 
BRANCH  72  73
ATOM     73  S   UNL A   1      42.147  19.366  25.987  1.00  0.00     0.124 S 
ATOM     74  O   UNL A   1      42.993  19.499  24.805  1.00  0.00    -0.237 OA
ATOM     75  O   UNL A   1      42.702  18.565  27.075  1.00  0.00    -0.237 OA
ATOM     76  O   UNL A   1      40.729  19.135  25.717  1.00  0.00    -0.744 OA
ENDBRANCH  72  73
ENDBRANCH  53  67
BRANCH  54  77
ATOM     77  C   UNL A   1      43.719  32.625  31.899  1.00  0.00    -0.014 A 
ATOM     78  C   UNL A   1      43.476  32.867  33.265  1.00  0.00     0.010 A 
ATOM     79  C   UNL A   1      44.057  33.707  31.066  1.00  0.00     0.010 A 
ATOM     80  C   UNL A   1      43.491  34.169  33.770  1.00  0.00     0.020 A 
ATOM     81  C   UNL A   1      44.113  35.008  31.579  1.00  0.00     0.020 A 
ATOM     82  C   UNL A   1      43.794  35.233  32.919  1.00  0.00     0.054 A 
BRANCH  82  83
ATOM     83  S   UNL A   1      43.733  36.920  33.584  1.00  0.00     0.124 S 
ATOM     84  O   UNL A   1      43.751  37.722  32.363  1.00  0.00    -0.237 OA
ATOM     85  O   UNL A   1      42.473  36.926  34.323  1.00  0.00    -0.237 OA
ATOM     86  O   UNL A   1      44.936  37.007  34.407  1.00  0.00    -0.744 OA
ENDBRANCH  82  83
ENDBRANCH  54  77
BRANCH  66  87
ATOM     87  C   UNL A   1      47.882  27.102  30.776  1.00  0.00    -0.014 A 
ATOM     88  C   UNL A   1      48.887  27.479  29.865  1.00  0.00     0.010 A 
ATOM     89  C   UNL A   1      48.243  26.380  31.929  1.00  0.00     0.010 A 
ATOM     90  C   UNL A   1      50.219  27.120  30.088  1.00  0.00     0.020 A 
ATOM     91  C   UNL A   1      49.580  26.054  32.175  1.00  0.00     0.020 A 
ATOM     92  C   UNL A   1      50.557  26.407  31.241  1.00  0.00     0.054 A 
BRANCH  92  93
ATOM     93  S   UNL A   1      52.291  25.955  31.514  1.00  0.00     0.124 S 
ATOM     94  O   UNL A   1      52.851  26.054  30.169  1.00  0.00    -0.237 OA
ATOM     95  O   UNL A   1      52.743  26.971  32.461  1.00  0.00    -0.237 OA
ATOM     96  O   UNL A   1      52.212  24.601  32.058  1.00  0.00    -0.744 OA
ENDBRANCH  92  93
ENDBRANCH  66  87
ENDBRANCH  40  41
ENDBRANCH  32  35
ENDBRANCH  30  31
ENDBRANCH   1  30
TORSDOF 17
ENDMDL
