MODEL 1
REMARK VINA RESULT:     -12.6      0.000      0.000
REMARK SMILES COc1ccc2c(c1)c(CC(=O)NCCCNC(=O)c1ccc(-c3c4nc(c(-c5ccc(S(=O)(=O)[O-])cc5)c5ccc([nH]5)c(-c5ccc(S(=O)(=O)[O-])cc5)c5nc(c(-c6ccc(S(=O)(=O)[O-])cc6)c6ccc3[nH]6)C=C5)C=C4)cc1)c(C)n2Cc1ccn(C(F)F)c(=O)c1
REMARK SMILES IDX 14 1 13 2 11 3 12 4 10 6 9 7 3 8 4 9 8 10 5 11 7 12 6 13
REMARK SMILES IDX 82 14 80 15 81 16 2 17 1 18 83 19 84 20 85 21 93 22 86 23
REMARK SMILES IDX 91 24 87 25 92 26 88 27 89 28 90 29 15 30 16 31 17 32 18 33
REMARK SMILES IDX 19 35 20 36 21 37 79 38 22 39 78 40 23 41 24 42 25 43 72 44
REMARK SMILES IDX 26 45 77 46 71 47 73 48 27 49 76 50 70 51 69 52 28 54 58 55
REMARK SMILES IDX 39 56 57 57 40 58 43 59 56 60 74 61 41 62 42 63 55 65 75 66
REMARK SMILES IDX 44 67 29 68 30 69 38 70 31 71 37 72 32 73 33 74 34 75 35 76
REMARK SMILES IDX 36 77 59 78 60 79 68 80 61 81 67 82 62 83 63 84 64 85 65 86
REMARK SMILES IDX 66 87 45 88 46 89 54 90 47 91 53 92 48 93 49 94 50 95 51 96
REMARK SMILES IDX 52 97
REMARK H PARENT 13 5 17 34 73 53 43 64
REMARK Flexibility Score: inf
ROOT
ATOM      1  C   UNL A   1      40.468  20.467  26.165  1.00  0.00     0.117 C 
ENDROOT
BRANCH   1   2
ATOM      2  N   UNL A   1      39.536  19.352  26.071  1.00  0.00    -0.356 N 
ATOM      3  C   UNL A   1      38.371  19.234  25.362  1.00  0.00     0.224 C 
ATOM      4  O   UNL A   1      37.803  18.136  25.365  1.00  0.00    -0.275 OA
ATOM      5  H   UNL A   1      39.782  18.558  26.600  1.00  0.00     0.163 HD
BRANCH   3   6
ATOM      6  C   UNL A   1      37.826  20.390  24.536  1.00  0.00     0.138 C 
BRANCH   6   7
ATOM      7  C   UNL A   1      36.514  20.911  25.037  1.00  0.00    -0.010 A 
ATOM      8  C   UNL A   1      33.485  18.648  24.530  1.00  0.00     0.119 A 
ATOM      9  C   UNL A   1      32.601  19.406  25.289  1.00  0.00     0.048 A 
ATOM     10  C   UNL A   1      34.823  19.028  24.419  1.00  0.00     0.057 A 
ATOM     11  C   UNL A   1      33.012  20.600  25.894  1.00  0.00     0.031 A 
ATOM     12  C   UNL A   1      35.255  20.242  24.996  1.00  0.00     0.007 A 
ATOM     13  C   UNL A   1      34.340  21.025  25.703  1.00  0.00     0.049 A 
ATOM     14  N   UNL A   1      35.016  22.165  26.121  1.00  0.00    -0.340 N 
ATOM     15  C   UNL A   1      36.278  22.177  25.550  1.00  0.00     0.020 A 
ATOM     16  C   UNL A   1      37.205  23.342  25.554  1.00  0.00     0.065 C 
BRANCH   8  17
ATOM     17  O   UNL A   1      33.128  17.481  23.907  1.00  0.00    -0.497 OA
ATOM     18  C   UNL A   1      32.806  16.442  24.830  1.00  0.00     0.278 C 
ENDBRANCH   8  17
BRANCH  14  19
ATOM     19  C   UNL A   1      34.458  23.195  27.010  1.00  0.00     0.158 C 
BRANCH  19  20
ATOM     20  C   UNL A   1      33.544  24.145  26.278  1.00  0.00    -0.021 A 
ATOM     21  C   UNL A   1      32.132  24.125  26.597  1.00  0.00     0.024 A 
ATOM     22  C   UNL A   1      33.983  25.016  25.354  1.00  0.00     0.077 A 
ATOM     23  C   UNL A   1      31.260  24.841  25.885  1.00  0.00     0.095 A 
ATOM     24  C   UNL A   1      33.022  25.825  24.549  1.00  0.00     0.255 A 
ATOM     25  N   UNL A   1      31.684  25.679  24.878  1.00  0.00    -0.258 N 
ATOM     26  O   UNL A   1      33.486  26.495  23.630  1.00  0.00    -0.269 OA
BRANCH  25  27
ATOM     27  C   UNL A   1      30.689  26.354  24.089  1.00  0.00     0.451 C 
ATOM     28  F   UNL A   1      29.599  25.592  23.877  1.00  0.00    -0.185 F 
ATOM     29  F   UNL A   1      30.317  27.493  24.722  1.00  0.00    -0.185 F 
ENDBRANCH  25  27
ENDBRANCH  19  20
ENDBRANCH  14  19
ENDBRANCH   6   7
ENDBRANCH   3   6
ENDBRANCH   1   2
BRANCH   1  30
ATOM     30  C   UNL A   1      41.672  20.197  27.075  1.00  0.00     0.042 C 
BRANCH  30  31
ATOM     31  C   UNL A   1      42.701  19.198  26.535  1.00  0.00     0.118 C 
BRANCH  31  32
ATOM     32  N   UNL A   1      43.468  19.662  25.388  1.00  0.00    -0.352 N 
ATOM     33  C   UNL A   1      44.093  20.816  24.992  1.00  0.00     0.251 C 
ATOM     34  H   UNL A   1      43.566  18.953  24.712  1.00  0.00     0.163 HD
ATOM     35  O   UNL A   1      44.799  20.701  23.983  1.00  0.00    -0.269 OA
BRANCH  33  36
ATOM     36  C   UNL A   1      43.953  22.173  25.596  1.00  0.00     0.039 A 
ATOM     37  C   UNL A   1      44.572  22.622  26.753  1.00  0.00     0.014 A 
ATOM     38  C   UNL A   1      43.055  23.053  24.945  1.00  0.00     0.014 A 
ATOM     39  C   UNL A   1      44.201  23.857  27.302  1.00  0.00     0.010 A 
ATOM     40  C   UNL A   1      42.680  24.284  25.499  1.00  0.00     0.010 A 
ATOM     41  C   UNL A   1      43.202  24.664  26.725  1.00  0.00    -0.014 A 
BRANCH  41  42
ATOM     42  C   UNL A   1      42.822  25.902  27.437  1.00  0.00     0.031 A 
ATOM     43  C   UNL A   1      43.831  26.991  27.340  1.00  0.00     0.074 A 
ATOM     44  C   UNL A   1      41.681  26.160  28.119  1.00  0.00     0.049 A 
ATOM     45  N   UNL A   1      44.527  27.512  28.296  1.00  0.00    -0.248 NA
ATOM     46  C   UNL A   1      44.189  27.466  25.996  1.00  0.00     0.031 C 
ATOM     47  C   UNL A   1      40.459  25.358  28.186  1.00  0.00     0.029 A 
ATOM     48  N   UNL A   1      41.352  27.272  28.857  1.00  0.00    -0.354 N 
ATOM     49  C   UNL A   1      45.305  28.497  27.706  1.00  0.00     0.074 A 
ATOM     50  C   UNL A   1      45.160  28.332  26.280  1.00  0.00     0.031 C 
ATOM     51  C   UNL A   1      39.460  26.105  28.716  1.00  0.00     0.029 A 
ATOM     52  C   UNL A   1      39.999  27.383  29.155  1.00  0.00     0.049 A 
ATOM     53  H   UNL A   1      42.019  27.935  29.151  1.00  0.00     0.167 HD
ATOM     54  C   UNL A   1      45.857  29.510  28.428  1.00  0.00     0.031 A 
ATOM     55  C   UNL A   1      39.351  28.461  29.671  1.00  0.00     0.031 A 
ATOM     56  C   UNL A   1      45.939  29.205  29.831  1.00  0.00     0.049 A 
ATOM     57  C   UNL A   1      40.342  29.296  30.384  1.00  0.00     0.074 A 
ATOM     58  C   UNL A   1      46.519  28.191  30.569  1.00  0.00     0.029 A 
ATOM     59  N   UNL A   1      45.057  29.831  30.680  1.00  0.00    -0.354 N 
ATOM     60  N   UNL A   1      40.897  28.962  31.512  1.00  0.00    -0.248 NA
ATOM     61  C   UNL A   1      40.988  30.379  29.662  1.00  0.00     0.031 C 
ATOM     62  C   UNL A   1      45.629  27.965  31.657  1.00  0.00     0.029 A 
ATOM     63  C   UNL A   1      44.585  28.885  31.553  1.00  0.00     0.049 A 
ATOM     64  H   UNL A   1      44.810  30.784  30.664  1.00  0.00     0.167 HD
ATOM     65  C   UNL A   1      42.186  29.462  31.425  1.00  0.00     0.074 A 
ATOM     66  C   UNL A   1      42.144  30.423  30.325  1.00  0.00     0.031 C 
ATOM     67  C   UNL A   1      43.228  28.850  32.062  1.00  0.00     0.031 A 
BRANCH  54  68
ATOM     68  C   UNL A   1      45.991  30.907  27.879  1.00  0.00    -0.014 A 
ATOM     69  C   UNL A   1      47.202  31.394  27.340  1.00  0.00     0.010 A 
ATOM     70  C   UNL A   1      44.837  31.682  27.652  1.00  0.00     0.010 A 
ATOM     71  C   UNL A   1      47.276  32.594  26.637  1.00  0.00     0.020 A 
ATOM     72  C   UNL A   1      44.890  32.867  26.902  1.00  0.00     0.020 A 
ATOM     73  C   UNL A   1      46.113  33.317  26.408  1.00  0.00     0.054 A 
BRANCH  73  74
ATOM     74  S   UNL A   1      46.235  34.805  25.389  1.00  0.00     0.124 S 
ATOM     75  O   UNL A   1      47.653  34.811  25.039  1.00  0.00    -0.237 OA
ATOM     76  O   UNL A   1      45.316  34.511  24.295  1.00  0.00    -0.237 OA
ATOM     77  O   UNL A   1      45.809  35.873  26.291  1.00  0.00    -0.744 OA
ENDBRANCH  73  74
ENDBRANCH  54  68
BRANCH  55  78
ATOM     78  C   UNL A   1      38.016  29.005  29.294  1.00  0.00    -0.014 A 
ATOM     79  C   UNL A   1      37.782  29.442  27.977  1.00  0.00     0.010 A 
ATOM     80  C   UNL A   1      37.101  29.410  30.290  1.00  0.00     0.010 A 
ATOM     81  C   UNL A   1      36.746  30.334  27.680  1.00  0.00     0.020 A 
ATOM     82  C   UNL A   1      36.062  30.312  30.000  1.00  0.00     0.020 A 
ATOM     83  C   UNL A   1      35.922  30.802  28.702  1.00  0.00     0.054 A 
BRANCH  83  84
ATOM     84  S   UNL A   1      34.754  32.137  28.314  1.00  0.00     0.124 S 
ATOM     85  O   UNL A   1      34.364  32.595  29.645  1.00  0.00    -0.237 OA
ATOM     86  O   UNL A   1      35.581  33.068  27.551  1.00  0.00    -0.237 OA
ATOM     87  O   UNL A   1      33.704  31.470  27.549  1.00  0.00    -0.744 OA
ENDBRANCH  83  84
ENDBRANCH  55  78
BRANCH  67  88
ATOM     88  C   UNL A   1      42.944  27.850  33.166  1.00  0.00    -0.014 A 
ATOM     89  C   UNL A   1      42.114  28.270  34.224  1.00  0.00     0.010 A 
ATOM     90  C   UNL A   1      43.570  26.593  33.275  1.00  0.00     0.010 A 
ATOM     91  C   UNL A   1      41.934  27.479  35.362  1.00  0.00     0.020 A 
ATOM     92  C   UNL A   1      43.367  25.778  34.400  1.00  0.00     0.020 A 
ATOM     93  C   UNL A   1      42.568  26.239  35.448  1.00  0.00     0.054 A 
BRANCH  93  94
ATOM     94  S   UNL A   1      42.349  25.261  36.958  1.00  0.00     0.124 S 
ATOM     95  O   UNL A   1      41.370  24.257  36.539  1.00  0.00    -0.237 OA
ATOM     96  O   UNL A   1      43.693  24.751  37.214  1.00  0.00    -0.237 OA
ATOM     97  O   UNL A   1      41.856  26.225  37.938  1.00  0.00    -0.744 OA
ENDBRANCH  93  94
ENDBRANCH  67  88
ENDBRANCH  41  42
ENDBRANCH  33  36
ENDBRANCH  31  32
ENDBRANCH  30  31
ENDBRANCH   1  30
TORSDOF 18
ENDMDL
MODEL 2
REMARK VINA RESULT:     -12.5      2.730      4.499
REMARK SMILES COc1ccc2c(c1)c(CC(=O)NCCCNC(=O)c1ccc(-c3c4nc(c(-c5ccc(S(=O)(=O)[O-])cc5)c5ccc([nH]5)c(-c5ccc(S(=O)(=O)[O-])cc5)c5nc(c(-c6ccc(S(=O)(=O)[O-])cc6)c6ccc3[nH]6)C=C5)C=C4)cc1)c(C)n2Cc1ccn(C(F)F)c(=O)c1
REMARK SMILES IDX 14 1 13 2 11 3 12 4 10 6 9 7 3 8 4 9 8 10 5 11 7 12 6 13
REMARK SMILES IDX 82 14 80 15 81 16 2 17 1 18 83 19 84 20 85 21 93 22 86 23
REMARK SMILES IDX 91 24 87 25 92 26 88 27 89 28 90 29 15 30 16 31 17 32 18 33
REMARK SMILES IDX 19 35 20 36 21 37 79 38 22 39 78 40 23 41 24 42 25 43 72 44
REMARK SMILES IDX 26 45 77 46 71 47 73 48 27 49 76 50 70 51 69 52 28 54 58 55
REMARK SMILES IDX 39 56 57 57 40 58 43 59 56 60 74 61 41 62 42 63 55 65 75 66
REMARK SMILES IDX 44 67 29 68 30 69 38 70 31 71 37 72 32 73 33 74 34 75 35 76
REMARK SMILES IDX 36 77 59 78 60 79 68 80 61 81 67 82 62 83 63 84 64 85 65 86
REMARK SMILES IDX 66 87 45 88 46 89 54 90 47 91 53 92 48 93 49 94 50 95 51 96
REMARK SMILES IDX 52 97
REMARK H PARENT 13 5 17 34 73 53 43 64
REMARK Flexibility Score: inf
ROOT
ATOM      1  C   UNL A   1      39.085  23.696  26.919  1.00  0.00     0.117 C 
ENDROOT
BRANCH   1   2
ATOM      2  N   UNL A   1      38.504  23.612  25.586  1.00  0.00    -0.356 N 
ATOM      3  C   UNL A   1      37.203  23.433  25.202  1.00  0.00     0.224 C 
ATOM      4  O   UNL A   1      36.943  23.498  23.995  1.00  0.00    -0.275 OA
ATOM      5  H   UNL A   1      39.148  23.698  24.846  1.00  0.00     0.163 HD
BRANCH   3   6
ATOM      6  C   UNL A   1      36.094  23.231  26.226  1.00  0.00     0.138 C 
BRANCH   6   7
ATOM      7  C   UNL A   1      34.789  22.823  25.616  1.00  0.00    -0.010 A 
ATOM      8  C   UNL A   1      31.839  25.170  26.194  1.00  0.00     0.119 A 
ATOM      9  C   UNL A   1      30.963  24.531  25.324  1.00  0.00     0.048 A 
ATOM     10  C   UNL A   1      33.151  24.718  26.331  1.00  0.00     0.057 A 
ATOM     11  C   UNL A   1      31.353  23.380  24.627  1.00  0.00     0.031 A 
ATOM     12  C   UNL A   1      33.560  23.545  25.661  1.00  0.00     0.007 A 
ATOM     13  C   UNL A   1      32.650  22.876  24.839  1.00  0.00     0.049 A 
ATOM     14  N   UNL A   1      33.297  21.750  24.346  1.00  0.00    -0.340 N 
ATOM     15  C   UNL A   1      34.526  21.623  24.971  1.00  0.00     0.020 A 
ATOM     16  C   UNL A   1      35.401  20.421  24.899  1.00  0.00     0.065 C 
BRANCH   8  17
ATOM     17  O   UNL A   1      31.500  26.289  26.910  1.00  0.00    -0.497 OA
ATOM     18  C   UNL A   1      31.212  27.409  26.073  1.00  0.00     0.278 C 
ENDBRANCH   8  17
BRANCH  14  19
ATOM     19  C   UNL A   1      32.742  20.836  23.335  1.00  0.00     0.158 C 
BRANCH  19  20
ATOM     20  C   UNL A   1      32.816  19.394  23.771  1.00  0.00    -0.021 A 
ATOM     21  C   UNL A   1      32.391  19.057  25.112  1.00  0.00     0.024 A 
ATOM     22  C   UNL A   1      33.246  18.408  22.964  1.00  0.00     0.077 A 
ATOM     23  C   UNL A   1      32.566  17.825  25.596  1.00  0.00     0.095 A 
ATOM     24  C   UNL A   1      33.447  17.026  23.488  1.00  0.00     0.255 A 
ATOM     25  N   UNL A   1      33.082  16.820  24.809  1.00  0.00    -0.258 N 
ATOM     26  O   UNL A   1      33.972  16.212  22.733  1.00  0.00    -0.269 OA
BRANCH  25  27
ATOM     27  C   UNL A   1      33.330  15.540  25.415  1.00  0.00     0.451 C 
ATOM     28  F   UNL A   1      34.574  15.444  25.922  1.00  0.00    -0.185 F 
ATOM     29  F   UNL A   1      32.429  15.336  26.407  1.00  0.00    -0.185 F 
ENDBRANCH  25  27
ENDBRANCH  19  20
ENDBRANCH  14  19
ENDBRANCH   6   7
ENDBRANCH   3   6
ENDBRANCH   1   2
BRANCH   1  30
ATOM     30  C   UNL A   1      40.221  22.696  27.166  1.00  0.00     0.042 C 
BRANCH  30  31
ATOM     31  C   UNL A   1      40.541  21.755  26.001  1.00  0.00     0.118 C 
BRANCH  31  32
ATOM     32  N   UNL A   1      41.713  22.119  25.217  1.00  0.00    -0.352 N 
ATOM     33  C   UNL A   1      42.633  23.135  25.191  1.00  0.00     0.251 C 
ATOM     34  H   UNL A   1      41.894  21.455  24.514  1.00  0.00     0.163 HD
ATOM     35  O   UNL A   1      43.597  22.939  24.439  1.00  0.00    -0.269 OA
BRANCH  33  36
ATOM     36  C   UNL A   1      42.555  24.445  25.900  1.00  0.00     0.039 A 
ATOM     37  C   UNL A   1      43.157  24.757  27.110  1.00  0.00     0.014 A 
ATOM     38  C   UNL A   1      41.739  25.431  25.296  1.00  0.00     0.014 A 
ATOM     39  C   UNL A   1      42.844  25.966  27.748  1.00  0.00     0.010 A 
ATOM     40  C   UNL A   1      41.421  26.635  25.939  1.00  0.00     0.010 A 
ATOM     41  C   UNL A   1      41.919  26.880  27.208  1.00  0.00    -0.014 A 
BRANCH  41  42
ATOM     42  C   UNL A   1      41.590  28.078  28.007  1.00  0.00     0.031 A 
ATOM     43  C   UNL A   1      42.615  29.155  27.935  1.00  0.00     0.074 A 
ATOM     44  C   UNL A   1      40.483  28.313  28.750  1.00  0.00     0.049 A 
ATOM     45  N   UNL A   1      43.358  29.606  28.892  1.00  0.00    -0.248 NA
ATOM     46  C   UNL A   1      42.928  29.705  26.608  1.00  0.00     0.031 C 
ATOM     47  C   UNL A   1      39.249  27.528  28.819  1.00  0.00     0.029 A 
ATOM     48  N   UNL A   1      40.204  29.383  29.566  1.00  0.00    -0.354 N 
ATOM     49  C   UNL A   1      44.130  30.612  28.330  1.00  0.00     0.074 A 
ATOM     50  C   UNL A   1      43.925  30.537  26.904  1.00  0.00     0.031 C 
ATOM     51  C   UNL A   1      38.286  28.257  29.432  1.00  0.00     0.029 A 
ATOM     52  C   UNL A   1      38.865  29.498  29.925  1.00  0.00     0.049 A 
ATOM     53  H   UNL A   1      40.894  30.016  29.871  1.00  0.00     0.167 HD
ATOM     54  C   UNL A   1      44.729  31.571  29.089  1.00  0.00     0.031 A 
ATOM     55  C   UNL A   1      38.259  30.553  30.530  1.00  0.00     0.031 A 
ATOM     56  C   UNL A   1      44.860  31.180  30.467  1.00  0.00     0.049 A 
ATOM     57  C   UNL A   1      39.292  31.327  31.252  1.00  0.00     0.074 A 
ATOM     58  C   UNL A   1      45.450  30.114  31.118  1.00  0.00     0.029 A 
ATOM     59  N   UNL A   1      44.025  31.767  31.387  1.00  0.00    -0.354 N 
ATOM     60  N   UNL A   1      39.886  30.916  32.334  1.00  0.00    -0.248 NA
ATOM     61  C   UNL A   1      39.929  32.441  30.570  1.00  0.00     0.031 C 
ATOM     62  C   UNL A   1      44.601  29.836  32.226  1.00  0.00     0.029 A 
ATOM     63  C   UNL A   1      43.570  30.777  32.220  1.00  0.00     0.049 A 
ATOM     64  H   UNL A   1      43.795  32.724  31.438  1.00  0.00     0.167 HD
ATOM     65  C   UNL A   1      41.179  31.400  32.224  1.00  0.00     0.074 A 
ATOM     66  C   UNL A   1      41.111  32.426  31.186  1.00  0.00     0.031 C 
ATOM     67  C   UNL A   1      42.234  30.734  32.781  1.00  0.00     0.031 A 
BRANCH  54  68
ATOM     68  C   UNL A   1      44.867  32.997  28.620  1.00  0.00    -0.014 A 
ATOM     69  C   UNL A   1      43.748  33.815  28.354  1.00  0.00     0.010 A 
ATOM     70  C   UNL A   1      46.121  33.634  28.682  1.00  0.00     0.010 A 
ATOM     71  C   UNL A   1      43.863  35.186  28.136  1.00  0.00     0.020 A 
ATOM     72  C   UNL A   1      46.244  35.022  28.516  1.00  0.00     0.020 A 
ATOM     73  C   UNL A   1      45.112  35.785  28.233  1.00  0.00     0.054 A 
BRANCH  73  74
ATOM     74  S   UNL A   1      45.198  37.582  28.063  1.00  0.00     0.124 S 
ATOM     75  O   UNL A   1      43.820  37.976  28.345  1.00  0.00    -0.237 OA
ATOM     76  O   UNL A   1      46.179  37.947  29.080  1.00  0.00    -0.237 OA
ATOM     77  O   UNL A   1      45.633  37.773  26.681  1.00  0.00    -0.744 OA
ENDBRANCH  73  74
ENDBRANCH  54  68
BRANCH  55  78
ATOM     78  C   UNL A   1      36.920  31.139  30.241  1.00  0.00    -0.014 A 
ATOM     79  C   UNL A   1      36.483  31.270  28.910  1.00  0.00     0.010 A 
ATOM     80  C   UNL A   1      36.232  31.875  31.231  1.00  0.00     0.010 A 
ATOM     81  C   UNL A   1      35.477  32.177  28.560  1.00  0.00     0.020 A 
ATOM     82  C   UNL A   1      35.226  32.795  30.886  1.00  0.00     0.020 A 
ATOM     83  C   UNL A   1      34.888  32.970  29.544  1.00  0.00     0.054 A 
BRANCH  83  84
ATOM     84  S   UNL A   1      33.768  34.298  29.015  1.00  0.00     0.124 S 
ATOM     85  O   UNL A   1      32.952  33.624  28.009  1.00  0.00    -0.237 OA
ATOM     86  O   UNL A   1      33.075  34.639  30.255  1.00  0.00    -0.237 OA
ATOM     87  O   UNL A   1      34.667  35.329  28.503  1.00  0.00    -0.744 OA
ENDBRANCH  83  84
ENDBRANCH  55  78
BRANCH  67  88
ATOM     88  C   UNL A   1      41.976  29.673  33.833  1.00  0.00    -0.014 A 
ATOM     89  C   UNL A   1      42.503  29.895  35.121  1.00  0.00     0.010 A 
ATOM     90  C   UNL A   1      41.377  28.426  33.569  1.00  0.00     0.010 A 
ATOM     91  C   UNL A   1      42.460  28.902  36.103  1.00  0.00     0.020 A 
ATOM     92  C   UNL A   1      41.299  27.435  34.561  1.00  0.00     0.020 A 
ATOM     93  C   UNL A   1      41.864  27.673  35.815  1.00  0.00     0.054 A 
BRANCH  93  94
ATOM     94  S   UNL A   1      41.867  26.392  37.098  1.00  0.00     0.124 S 
ATOM     95  O   UNL A   1      42.953  26.831  37.974  1.00  0.00    -0.237 OA
ATOM     96  O   UNL A   1      40.526  26.498  37.666  1.00  0.00    -0.237 OA
ATOM     97  O   UNL A   1      42.133  25.156  36.365  1.00  0.00    -0.744 OA
ENDBRANCH  93  94
ENDBRANCH  67  88
ENDBRANCH  41  42
ENDBRANCH  33  36
ENDBRANCH  31  32
ENDBRANCH  30  31
ENDBRANCH   1  30
TORSDOF 18
ENDMDL
MODEL 3
REMARK VINA RESULT:     -12.3      2.619      4.691
REMARK SMILES COc1ccc2c(c1)c(CC(=O)NCCCNC(=O)c1ccc(-c3c4nc(c(-c5ccc(S(=O)(=O)[O-])cc5)c5ccc([nH]5)c(-c5ccc(S(=O)(=O)[O-])cc5)c5nc(c(-c6ccc(S(=O)(=O)[O-])cc6)c6ccc3[nH]6)C=C5)C=C4)cc1)c(C)n2Cc1ccn(C(F)F)c(=O)c1
REMARK SMILES IDX 14 1 13 2 11 3 12 4 10 6 9 7 3 8 4 9 8 10 5 11 7 12 6 13
REMARK SMILES IDX 82 14 80 15 81 16 2 17 1 18 83 19 84 20 85 21 93 22 86 23
REMARK SMILES IDX 91 24 87 25 92 26 88 27 89 28 90 29 15 30 16 31 17 32 18 33
REMARK SMILES IDX 19 35 20 36 21 37 79 38 22 39 78 40 23 41 24 42 25 43 72 44
REMARK SMILES IDX 26 45 77 46 71 47 73 48 27 49 76 50 70 51 69 52 28 54 58 55
REMARK SMILES IDX 39 56 57 57 40 58 43 59 56 60 74 61 41 62 42 63 55 65 75 66
REMARK SMILES IDX 44 67 29 68 30 69 38 70 31 71 37 72 32 73 33 74 34 75 35 76
REMARK SMILES IDX 36 77 59 78 60 79 68 80 61 81 67 82 62 83 63 84 64 85 65 86
REMARK SMILES IDX 66 87 45 88 46 89 54 90 47 91 53 92 48 93 49 94 50 95 51 96
REMARK SMILES IDX 52 97
REMARK H PARENT 13 5 17 34 73 53 43 64
REMARK Flexibility Score: inf
ROOT
ATOM      1  C   UNL A   1      36.720  22.405  24.720  1.00  0.00     0.117 C 
ENDROOT
BRANCH   1   2
ATOM      2  N   UNL A   1      35.791  22.643  25.816  1.00  0.00    -0.356 N 
ATOM      3  C   UNL A   1      34.790  23.568  25.939  1.00  0.00     0.224 C 
ATOM      4  O   UNL A   1      34.064  23.504  26.937  1.00  0.00    -0.275 OA
ATOM      5  H   UNL A   1      35.900  22.044  26.591  1.00  0.00     0.163 HD
BRANCH   3   6
ATOM      6  C   UNL A   1      34.528  24.601  24.852  1.00  0.00     0.138 C 
BRANCH   6   7
ATOM      7  C   UNL A   1      33.243  25.346  25.039  1.00  0.00    -0.010 A 
ATOM      8  C   UNL A   1      33.490  28.757  26.727  1.00  0.00     0.119 A 
ATOM      9  C   UNL A   1      32.169  29.133  26.505  1.00  0.00     0.048 A 
ATOM     10  C   UNL A   1      33.968  27.542  26.239  1.00  0.00     0.057 A 
ATOM     11  C   UNL A   1      31.276  28.271  25.857  1.00  0.00     0.031 A 
ATOM     12  C   UNL A   1      33.081  26.644  25.607  1.00  0.00     0.007 A 
ATOM     13  C   UNL A   1      31.741  27.008  25.447  1.00  0.00     0.049 A 
ATOM     14  N   UNL A   1      31.097  25.937  24.841  1.00  0.00    -0.340 N 
ATOM     15  C   UNL A   1      31.970  24.864  24.771  1.00  0.00     0.020 A 
ATOM     16  C   UNL A   1      31.584  23.470  24.419  1.00  0.00     0.065 C 
BRANCH   8  17
ATOM     17  O   UNL A   1      34.398  29.558  27.369  1.00  0.00    -0.497 OA
ATOM     18  C   UNL A   1      33.846  30.817  27.753  1.00  0.00     0.278 C 
ENDBRANCH   8  17
BRANCH  14  19
ATOM     19  C   UNL A   1      29.703  25.949  24.372  1.00  0.00     0.158 C 
BRANCH  19  20
ATOM     20  C   UNL A   1      29.384  27.183  23.566  1.00  0.00    -0.021 A 
ATOM     21  C   UNL A   1      30.395  27.701  22.669  1.00  0.00     0.024 A 
ATOM     22  C   UNL A   1      28.199  27.814  23.633  1.00  0.00     0.077 A 
ATOM     23  C   UNL A   1      30.220  28.864  22.040  1.00  0.00     0.095 A 
ATOM     24  C   UNL A   1      27.985  29.115  22.936  1.00  0.00     0.255 A 
ATOM     25  N   UNL A   1      29.042  29.567  22.162  1.00  0.00    -0.258 N 
ATOM     26  O   UNL A   1      26.928  29.700  23.154  1.00  0.00    -0.269 OA
BRANCH  25  27
ATOM     27  C   UNL A   1      28.949  30.856  21.532  1.00  0.00     0.451 C 
ATOM     28  F   UNL A   1      27.937  30.923  20.645  1.00  0.00    -0.185 F 
ATOM     29  F   UNL A   1      28.768  31.804  22.484  1.00  0.00    -0.185 F 
ENDBRANCH  25  27
ENDBRANCH  19  20
ENDBRANCH  14  19
ENDBRANCH   6   7
ENDBRANCH   3   6
ENDBRANCH   1   2
BRANCH   1  30
ATOM     30  C   UNL A   1      37.849  21.426  25.062  1.00  0.00     0.042 C 
BRANCH  30  31
ATOM     31  C   UNL A   1      38.869  21.923  26.091  1.00  0.00     0.118 C 
BRANCH  31  32
ATOM     32  N   UNL A   1      40.257  21.876  25.657  1.00  0.00    -0.352 N 
ATOM     33  C   UNL A   1      41.407  22.591  25.874  1.00  0.00     0.251 C 
ATOM     34  H   UNL A   1      40.414  21.127  25.039  1.00  0.00     0.163 HD
ATOM     35  O   UNL A   1      42.433  22.069  25.419  1.00  0.00    -0.269 OA
BRANCH  33  36
ATOM     36  C   UNL A   1      41.532  23.930  26.519  1.00  0.00     0.039 A 
ATOM     37  C   UNL A   1      42.496  24.307  27.442  1.00  0.00     0.014 A 
ATOM     38  C   UNL A   1      40.530  24.874  26.190  1.00  0.00     0.014 A 
ATOM     39  C   UNL A   1      42.378  25.537  28.103  1.00  0.00     0.010 A 
ATOM     40  C   UNL A   1      40.409  26.100  26.858  1.00  0.00     0.010 A 
ATOM     41  C   UNL A   1      41.298  26.411  27.874  1.00  0.00    -0.014 A 
BRANCH  41  42
ATOM     42  C   UNL A   1      41.220  27.638  28.693  1.00  0.00     0.031 A 
ATOM     43  C   UNL A   1      42.218  28.677  28.323  1.00  0.00     0.074 A 
ATOM     44  C   UNL A   1      40.351  27.927  29.690  1.00  0.00     0.049 A 
ATOM     45  N   UNL A   1      43.197  29.126  29.039  1.00  0.00    -0.248 NA
ATOM     46  C   UNL A   1      42.190  29.184  26.944  1.00  0.00     0.031 C 
ATOM     47  C   UNL A   1      39.158  27.186  30.102  1.00  0.00     0.029 A 
ATOM     48  N   UNL A   1      40.323  29.026  30.516  1.00  0.00    -0.354 N 
ATOM     49  C   UNL A   1      43.822  30.092  28.265  1.00  0.00     0.074 A 
ATOM     50  C   UNL A   1      43.251  29.989  26.944  1.00  0.00     0.031 C 
ATOM     51  C   UNL A   1      38.408  27.962  30.921  1.00  0.00     0.029 A 
ATOM     52  C   UNL A   1      39.128  29.194  31.206  1.00  0.00     0.049 A 
ATOM     53  H   UNL A   1      41.085  29.642  30.611  1.00  0.00     0.167 HD
ATOM     54  C   UNL A   1      44.623  31.047  28.811  1.00  0.00     0.031 A 
ATOM     55  C   UNL A   1      38.728  30.282  31.915  1.00  0.00     0.031 A 
ATOM     56  C   UNL A   1      45.099  30.685  30.119  1.00  0.00     0.049 A 
ATOM     57  C   UNL A   1      39.933  31.038  32.318  1.00  0.00     0.074 A 
ATOM     58  C   UNL A   1      45.810  29.616  30.628  1.00  0.00     0.029 A 
ATOM     59  N   UNL A   1      44.547  31.322  31.205  1.00  0.00    -0.354 N 
ATOM     60  N   UNL A   1      40.777  30.633  33.222  1.00  0.00    -0.248 NA
ATOM     61  C   UNL A   1      40.400  32.114  31.460  1.00  0.00     0.031 C 
ATOM     62  C   UNL A   1      45.271  29.393  31.927  1.00  0.00     0.029 A 
ATOM     63  C   UNL A   1      44.300  30.368  32.159  1.00  0.00     0.049 A 
ATOM     64  H   UNL A   1      44.364  32.287  31.284  1.00  0.00     0.167 HD
ATOM     65  C   UNL A   1      42.010  31.071  32.764  1.00  0.00     0.074 A 
ATOM     66  C   UNL A   1      41.700  32.074  31.748  1.00  0.00     0.031 C 
ATOM     67  C   UNL A   1      43.155  30.383  33.049  1.00  0.00     0.031 A 
BRANCH  54  68
ATOM     68  C   UNL A   1      44.671  32.456  28.277  1.00  0.00    -0.014 A 
ATOM     69  C   UNL A   1      43.742  33.444  28.668  1.00  0.00     0.010 A 
ATOM     70  C   UNL A   1      45.807  32.896  27.568  1.00  0.00     0.010 A 
ATOM     71  C   UNL A   1      43.910  34.790  28.354  1.00  0.00     0.020 A 
ATOM     72  C   UNL A   1      46.012  34.255  27.291  1.00  0.00     0.020 A 
ATOM     73  C   UNL A   1      45.055  35.191  27.679  1.00  0.00     0.054 A 
BRANCH  73  74
ATOM     74  S   UNL A   1      45.290  36.961  27.399  1.00  0.00     0.124 S 
ATOM     75  O   UNL A   1      46.529  36.979  26.626  1.00  0.00    -0.237 OA
ATOM     76  O   UNL A   1      44.083  37.325  26.664  1.00  0.00    -0.237 OA
ATOM     77  O   UNL A   1      45.387  37.511  28.750  1.00  0.00    -0.744 OA
ENDBRANCH  73  74
ENDBRANCH  54  68
BRANCH  55  78
ATOM     78  C   UNL A   1      37.376  30.907  31.965  1.00  0.00    -0.014 A 
ATOM     79  C   UNL A   1      36.746  31.315  30.774  1.00  0.00     0.010 A 
ATOM     80  C   UNL A   1      36.864  31.409  33.181  1.00  0.00     0.010 A 
ATOM     81  C   UNL A   1      35.722  32.268  30.783  1.00  0.00     0.020 A 
ATOM     82  C   UNL A   1      35.840  32.373  33.197  1.00  0.00     0.020 A 
ATOM     83  C   UNL A   1      35.308  32.828  31.991  1.00  0.00     0.054 A 
BRANCH  83  84
ATOM     84  S   UNL A   1      34.155  34.229  31.932  1.00  0.00     0.124 S 
ATOM     85  O   UNL A   1      35.019  35.349  32.293  1.00  0.00    -0.237 OA
ATOM     86  O   UNL A   1      33.705  34.210  30.543  1.00  0.00    -0.237 OA
ATOM     87  O   UNL A   1      33.135  33.883  32.919  1.00  0.00    -0.744 OA
ENDBRANCH  83  84
ENDBRANCH  55  78
BRANCH  67  88
ATOM     88  C   UNL A   1      43.152  29.357  34.165  1.00  0.00    -0.014 A 
ATOM     89  C   UNL A   1      42.771  28.041  33.836  1.00  0.00     0.010 A 
ATOM     90  C   UNL A   1      43.358  29.666  35.524  1.00  0.00     0.010 A 
ATOM     91  C   UNL A   1      42.577  27.073  34.825  1.00  0.00     0.020 A 
ATOM     92  C   UNL A   1      43.199  28.690  36.521  1.00  0.00     0.020 A 
ATOM     93  C   UNL A   1      42.785  27.405  36.165  1.00  0.00     0.054 A 
BRANCH  93  94
ATOM     94  S   UNL A   1      42.480  26.138  37.425  1.00  0.00     0.124 S 
ATOM     95  O   UNL A   1      41.060  26.329  37.721  1.00  0.00    -0.237 OA
ATOM     96  O   UNL A   1      42.810  24.898  36.726  1.00  0.00    -0.237 OA
ATOM     97  O   UNL A   1      43.386  26.495  38.514  1.00  0.00    -0.744 OA
ENDBRANCH  93  94
ENDBRANCH  67  88
ENDBRANCH  41  42
ENDBRANCH  33  36
ENDBRANCH  31  32
ENDBRANCH  30  31
ENDBRANCH   1  30
TORSDOF 18
ENDMDL
