MODEL 1
REMARK VINA RESULT:     -11.3      0.000      0.000
REMARK SMILES CC(C)(C)N(CC(=O)NCCCNC(=O)c1ccc(-c2c3nc(c(-c4ccc(S(=O)(=O)[O-])cc4)c4ccc([nH]4)c(-c4ccc(S(=O)(=O)[O-])cc4)c4nc(c(-c5ccc(S(=O)(=O)[O-])cc5)c5ccc2[nH]5)C=C4)C=C3)cc1)C(=O)c1cc2ccccc2o1
REMARK SMILES IDX 11 1 10 2 9 3 7 4 8 5 6 7 5 8 2 9 1 10 3 11 4 12 76 13 77 14
REMARK SMILES IDX 78 15 79 16 86 17 80 18 85 19 81 20 84 21 82 22 83 23 12 24
REMARK SMILES IDX 13 25 14 26 15 28 16 29 17 30 75 31 18 32 74 33 19 34 20 35
REMARK SMILES IDX 21 36 68 37 22 38 73 39 67 40 69 41 23 42 72 43 66 44 65 45
REMARK SMILES IDX 24 47 54 48 35 49 53 50 36 51 39 52 52 53 70 54 37 55 38 56
REMARK SMILES IDX 51 58 71 59 40 60 25 61 26 62 34 63 27 64 33 65 28 66 29 67
REMARK SMILES IDX 30 68 31 69 32 70 55 71 56 72 64 73 57 74 63 75 58 76 59 77
REMARK SMILES IDX 60 78 61 79 62 80 41 81 42 82 50 83 43 84 49 85 44 86 45 87
REMARK SMILES IDX 46 88 47 89 48 90
REMARK H PARENT 9 6 13 27 69 46 39 57
REMARK Flexibility Score: inf
ROOT
ATOM      1  C   UNL A   1      36.791  23.410  25.498  1.00  0.00     0.042 C 
ENDROOT
BRANCH   1   2
ATOM      2  C   UNL A   1      35.560  24.215  25.088  1.00  0.00     0.117 C 
BRANCH   2   3
ATOM      3  N   UNL A   1      34.317  23.629  25.565  1.00  0.00    -0.354 N 
ATOM      4  C   UNL A   1      33.054  23.648  25.053  1.00  0.00     0.239 C 
ATOM      5  O   UNL A   1      32.221  22.931  25.620  1.00  0.00    -0.273 OA
ATOM      6  H   UNL A   1      34.404  23.128  26.408  1.00  0.00     0.163 HD
BRANCH   4   7
ATOM      7  C   UNL A   1      32.700  24.334  23.719  1.00  0.00     0.220 C 
BRANCH   7   8
ATOM      8  N   UNL A   1      32.495  25.791  23.747  1.00  0.00    -0.322 N 
BRANCH   8   9
ATOM      9  C   UNL A   1      32.529  26.587  22.467  1.00  0.00     0.035 C 
ATOM     10  C   UNL A   1      32.670  25.712  21.197  1.00  0.00     0.034 C 
ATOM     11  C   UNL A   1      33.706  27.590  22.420  1.00  0.00     0.034 C 
ATOM     12  C   UNL A   1      31.202  27.369  22.342  1.00  0.00     0.034 C 
ENDBRANCH   8   9
BRANCH   8  13
ATOM     13  C   UNL A   1      31.782  26.346  24.837  1.00  0.00     0.290 C 
ATOM     14  O   UNL A   1      30.616  26.036  25.069  1.00  0.00    -0.265 OA
BRANCH  13  15
ATOM     15  C   UNL A   1      32.476  27.258  25.718  1.00  0.00     0.192 A 
ATOM     16  C   UNL A   1      33.777  27.299  26.178  1.00  0.00     0.065 A 
ATOM     17  O   UNL A   1      31.825  28.416  26.049  1.00  0.00    -0.451 OA
ATOM     18  C   UNL A   1      33.961  28.589  26.752  1.00  0.00     0.021 A 
ATOM     19  C   UNL A   1      32.741  29.242  26.621  1.00  0.00     0.135 A 
ATOM     20  C   UNL A   1      35.037  29.298  27.316  1.00  0.00     0.012 A 
ATOM     21  C   UNL A   1      32.518  30.569  26.985  1.00  0.00     0.048 A 
ATOM     22  C   UNL A   1      34.846  30.639  27.684  1.00  0.00     0.001 A 
ATOM     23  C   UNL A   1      33.609  31.266  27.514  1.00  0.00     0.004 A 
ENDBRANCH  13  15
ENDBRANCH   8  13
ENDBRANCH   7   8
ENDBRANCH   4   7
ENDBRANCH   2   3
ENDBRANCH   1   2
BRANCH   1  24
ATOM     24  C   UNL A   1      37.771  24.169  26.388  1.00  0.00     0.118 C 
BRANCH  24  25
ATOM     25  N   UNL A   1      39.153  23.794  26.138  1.00  0.00    -0.352 N 
ATOM     26  C   UNL A   1      40.318  24.402  26.545  1.00  0.00     0.251 C 
ATOM     27  H   UNL A   1      39.274  22.982  25.596  1.00  0.00     0.163 HD
ATOM     28  O   UNL A   1      41.384  24.041  26.051  1.00  0.00    -0.269 OA
BRANCH  26  29
ATOM     29  C   UNL A   1      40.311  25.493  27.553  1.00  0.00     0.039 A 
ATOM     30  C   UNL A   1      39.429  25.402  28.636  1.00  0.00     0.014 A 
ATOM     31  C   UNL A   1      41.109  26.631  27.409  1.00  0.00     0.014 A 
ATOM     32  C   UNL A   1      39.391  26.415  29.600  1.00  0.00     0.010 A 
ATOM     33  C   UNL A   1      41.108  27.618  28.398  1.00  0.00     0.010 A 
ATOM     34  C   UNL A   1      40.249  27.521  29.503  1.00  0.00    -0.014 A 
BRANCH  34  35
ATOM     35  C   UNL A   1      40.251  28.597  30.529  1.00  0.00     0.031 A 
ATOM     36  C   UNL A   1      41.217  28.542  31.681  1.00  0.00     0.074 A 
ATOM     37  C   UNL A   1      39.349  29.595  30.471  1.00  0.00     0.049 A 
ATOM     38  N   UNL A   1      41.263  29.289  32.755  1.00  0.00    -0.248 NA
ATOM     39  C   UNL A   1      42.254  27.500  31.624  1.00  0.00     0.031 C 
ATOM     40  C   UNL A   1      38.343  29.772  29.421  1.00  0.00     0.029 A 
ATOM     41  N   UNL A   1      39.126  30.644  31.328  1.00  0.00    -0.354 N 
ATOM     42  C   UNL A   1      42.296  28.774  33.528  1.00  0.00     0.074 A 
ATOM     43  C   UNL A   1      42.859  27.660  32.793  1.00  0.00     0.031 C 
ATOM     44  C   UNL A   1      37.622  30.875  29.688  1.00  0.00     0.029 A 
ATOM     45  C   UNL A   1      38.088  31.459  30.943  1.00  0.00     0.049 A 
ATOM     46  H   UNL A   1      39.659  30.799  32.141  1.00  0.00     0.167 HD
ATOM     47  C   UNL A   1      42.733  29.182  34.744  1.00  0.00     0.031 A 
ATOM     48  C   UNL A   1      37.555  32.541  31.540  1.00  0.00     0.031 A 
ATOM     49  C   UNL A   1      42.218  30.314  35.465  1.00  0.00     0.049 A 
ATOM     50  C   UNL A   1      38.089  33.009  32.862  1.00  0.00     0.074 A 
ATOM     51  C   UNL A   1      42.623  30.814  36.691  1.00  0.00     0.029 A 
ATOM     52  N   UNL A   1      41.195  31.133  35.018  1.00  0.00    -0.354 N 
ATOM     53  N   UNL A   1      39.051  32.494  33.587  1.00  0.00    -0.248 NA
ATOM     54  C   UNL A   1      37.455  34.198  33.451  1.00  0.00     0.031 C 
ATOM     55  C   UNL A   1      41.840  31.937  36.987  1.00  0.00     0.029 A 
ATOM     56  C   UNL A   1      40.954  32.136  35.941  1.00  0.00     0.049 A 
ATOM     57  H   UNL A   1      40.710  31.018  34.168  1.00  0.00     0.167 HD
ATOM     58  C   UNL A   1      39.134  33.291  34.723  1.00  0.00     0.074 A 
ATOM     59  C   UNL A   1      38.136  34.331  34.582  1.00  0.00     0.031 C 
ATOM     60  C   UNL A   1      39.960  33.165  35.789  1.00  0.00     0.031 A 
BRANCH  47  61
ATOM     61  C   UNL A   1      43.819  28.363  35.377  1.00  0.00    -0.014 A 
ATOM     62  C   UNL A   1      45.173  28.648  35.134  1.00  0.00     0.010 A 
ATOM     63  C   UNL A   1      43.476  27.286  36.212  1.00  0.00     0.010 A 
ATOM     64  C   UNL A   1      46.170  27.837  35.684  1.00  0.00     0.020 A 
ATOM     65  C   UNL A   1      44.470  26.479  36.769  1.00  0.00     0.020 A 
ATOM     66  C   UNL A   1      45.811  26.747  36.483  1.00  0.00     0.054 A 
BRANCH  66  67
ATOM     67  S   UNL A   1      47.104  25.681  37.179  1.00  0.00     0.124 S 
ATOM     68  O   UNL A   1      46.495  25.257  38.437  1.00  0.00    -0.237 OA
ATOM     69  O   UNL A   1      47.253  24.634  36.171  1.00  0.00    -0.237 OA
ATOM     70  O   UNL A   1      48.248  26.581  37.309  1.00  0.00    -0.744 OA
ENDBRANCH  66  67
ENDBRANCH  47  61
BRANCH  48  71
ATOM     71  C   UNL A   1      36.432  33.256  30.884  1.00  0.00    -0.014 A 
ATOM     72  C   UNL A   1      35.194  33.370  31.537  1.00  0.00     0.010 A 
ATOM     73  C   UNL A   1      36.611  33.857  29.627  1.00  0.00     0.010 A 
ATOM     74  C   UNL A   1      34.147  34.078  30.944  1.00  0.00     0.020 A 
ATOM     75  C   UNL A   1      35.567  34.574  29.035  1.00  0.00     0.020 A 
ATOM     76  C   UNL A   1      34.339  34.676  29.696  1.00  0.00     0.054 A 
BRANCH  76  77
ATOM     77  S   UNL A   1      33.006  35.665  28.962  1.00  0.00     0.124 S 
ATOM     78  O   UNL A   1      32.350  34.691  28.095  1.00  0.00    -0.237 OA
ATOM     79  O   UNL A   1      32.234  36.093  30.126  1.00  0.00    -0.237 OA
ATOM     80  O   UNL A   1      33.725  36.736  28.276  1.00  0.00    -0.744 OA
ENDBRANCH  76  77
ENDBRANCH  48  71
BRANCH  60  81
ATOM     81  C   UNL A   1      39.821  34.178  36.886  1.00  0.00    -0.014 A 
ATOM     82  C   UNL A   1      40.334  35.477  36.721  1.00  0.00     0.010 A 
ATOM     83  C   UNL A   1      39.142  33.847  38.070  1.00  0.00     0.010 A 
ATOM     84  C   UNL A   1      40.182  36.428  37.733  1.00  0.00     0.020 A 
ATOM     85  C   UNL A   1      38.984  34.798  39.083  1.00  0.00     0.020 A 
ATOM     86  C   UNL A   1      39.514  36.080  38.911  1.00  0.00     0.054 A 
BRANCH  86  87
ATOM     87  S   UNL A   1      39.280  37.330  40.207  1.00  0.00     0.124 S 
ATOM     88  O   UNL A   1      40.656  37.659  40.564  1.00  0.00    -0.237 OA
ATOM     89  O   UNL A   1      38.542  38.387  39.519  1.00  0.00    -0.237 OA
ATOM     90  O   UNL A   1      38.519  36.617  41.230  1.00  0.00    -0.744 OA
ENDBRANCH  86  87
ENDBRANCH  60  81
ENDBRANCH  34  35
ENDBRANCH  26  29
ENDBRANCH  24  25
ENDBRANCH   1  24
TORSDOF 17
ENDMDL
MODEL 2
REMARK VINA RESULT:     -11.3      6.381     11.910
REMARK SMILES CC(C)(C)N(CC(=O)NCCCNC(=O)c1ccc(-c2c3nc(c(-c4ccc(S(=O)(=O)[O-])cc4)c4ccc([nH]4)c(-c4ccc(S(=O)(=O)[O-])cc4)c4nc(c(-c5ccc(S(=O)(=O)[O-])cc5)c5ccc2[nH]5)C=C4)C=C3)cc1)C(=O)c1cc2ccccc2o1
REMARK SMILES IDX 11 1 10 2 9 3 7 4 8 5 6 7 5 8 2 9 1 10 3 11 4 12 76 13 77 14
REMARK SMILES IDX 78 15 79 16 86 17 80 18 85 19 81 20 84 21 82 22 83 23 12 24
REMARK SMILES IDX 13 25 14 26 15 28 16 29 17 30 75 31 18 32 74 33 19 34 20 35
REMARK SMILES IDX 21 36 68 37 22 38 73 39 67 40 69 41 23 42 72 43 66 44 65 45
REMARK SMILES IDX 24 47 54 48 35 49 53 50 36 51 39 52 52 53 70 54 37 55 38 56
REMARK SMILES IDX 51 58 71 59 40 60 25 61 26 62 34 63 27 64 33 65 28 66 29 67
REMARK SMILES IDX 30 68 31 69 32 70 55 71 56 72 64 73 57 74 63 75 58 76 59 77
REMARK SMILES IDX 60 78 61 79 62 80 41 81 42 82 50 83 43 84 49 85 44 86 45 87
REMARK SMILES IDX 46 88 47 89 48 90
REMARK H PARENT 9 6 13 27 69 46 39 57
REMARK Flexibility Score: inf
ROOT
ATOM      1  C   UNL A   1      33.604  28.433  27.074  1.00  0.00     0.042 C 
ENDROOT
BRANCH   1   2
ATOM      2  C   UNL A   1      32.949  29.001  25.818  1.00  0.00     0.117 C 
BRANCH   2   3
ATOM      3  N   UNL A   1      33.830  28.972  24.660  1.00  0.00    -0.354 N 
ATOM      4  C   UNL A   1      33.709  28.362  23.448  1.00  0.00     0.239 C 
ATOM      5  O   UNL A   1      34.571  28.639  22.605  1.00  0.00    -0.273 OA
ATOM      6  H   UNL A   1      34.662  29.485  24.773  1.00  0.00     0.163 HD
BRANCH   4   7
ATOM      7  C   UNL A   1      32.467  27.545  23.040  1.00  0.00     0.220 C 
BRANCH   7   8
ATOM      8  N   UNL A   1      32.424  26.135  23.457  1.00  0.00    -0.322 N 
BRANCH   8   9
ATOM      9  C   UNL A   1      31.218  25.593  24.181  1.00  0.00     0.035 C 
ATOM     10  C   UNL A   1      30.008  26.560  24.178  1.00  0.00     0.034 C 
ATOM     11  C   UNL A   1      31.505  25.281  25.668  1.00  0.00     0.034 C 
ATOM     12  C   UNL A   1      30.767  24.293  23.476  1.00  0.00     0.034 C 
ENDBRANCH   8   9
BRANCH   8  13
ATOM     13  C   UNL A   1      33.233  25.205  22.759  1.00  0.00     0.290 C 
ATOM     14  O   UNL A   1      33.298  25.202  21.531  1.00  0.00    -0.265 OA
BRANCH  13  15
ATOM     15  C   UNL A   1      34.035  24.280  23.526  1.00  0.00     0.192 A 
ATOM     16  C   UNL A   1      34.193  22.910  23.463  1.00  0.00     0.065 A 
ATOM     17  O   UNL A   1      34.968  24.821  24.369  1.00  0.00    -0.451 OA
ATOM     18  C   UNL A   1      35.340  22.600  24.246  1.00  0.00     0.021 A 
ATOM     19  C   UNL A   1      35.792  23.811  24.756  1.00  0.00     0.135 A 
ATOM     20  C   UNL A   1      36.079  21.438  24.536  1.00  0.00     0.012 A 
ATOM     21  C   UNL A   1      36.952  23.959  25.514  1.00  0.00     0.048 A 
ATOM     22  C   UNL A   1      37.258  21.557  25.290  1.00  0.00     0.001 A 
ATOM     23  C   UNL A   1      37.691  22.798  25.764  1.00  0.00     0.004 A 
ENDBRANCH  13  15
ENDBRANCH   8  13
ENDBRANCH   7   8
ENDBRANCH   4   7
ENDBRANCH   2   3
ENDBRANCH   1   2
BRANCH   1  24
ATOM     24  C   UNL A   1      34.995  28.989  27.365  1.00  0.00     0.118 C 
BRANCH  24  25
ATOM     25  N   UNL A   1      34.984  29.987  28.422  1.00  0.00    -0.352 N 
ATOM     26  C   UNL A   1      35.988  30.372  29.280  1.00  0.00     0.251 C 
ATOM     27  H   UNL A   1      34.130  30.461  28.541  1.00  0.00     0.163 HD
ATOM     28  O   UNL A   1      35.711  31.088  30.239  1.00  0.00    -0.269 OA
BRANCH  26  29
ATOM     29  C   UNL A   1      37.390  29.926  29.081  1.00  0.00     0.039 A 
ATOM     30  C   UNL A   1      37.923  29.942  27.786  1.00  0.00     0.014 A 
ATOM     31  C   UNL A   1      38.160  29.430  30.136  1.00  0.00     0.014 A 
ATOM     32  C   UNL A   1      39.239  29.521  27.562  1.00  0.00     0.010 A 
ATOM     33  C   UNL A   1      39.490  29.059  29.921  1.00  0.00     0.010 A 
ATOM     34  C   UNL A   1      40.043  29.100  28.632  1.00  0.00    -0.014 A 
BRANCH  34  35
ATOM     35  C   UNL A   1      41.453  28.677  28.426  1.00  0.00     0.031 A 
ATOM     36  C   UNL A   1      42.565  29.688  28.504  1.00  0.00     0.074 A 
ATOM     37  C   UNL A   1      41.742  27.401  28.107  1.00  0.00     0.049 A 
ATOM     38  N   UNL A   1      43.830  29.548  28.194  1.00  0.00    -0.248 NA
ATOM     39  C   UNL A   1      42.203  31.034  28.973  1.00  0.00     0.031 C 
ATOM     40  C   UNL A   1      40.768  26.314  27.983  1.00  0.00     0.029 A 
ATOM     41  N   UNL A   1      42.945  26.807  27.815  1.00  0.00    -0.354 N 
ATOM     42  C   UNL A   1      44.403  30.800  28.378  1.00  0.00     0.074 A 
ATOM     43  C   UNL A   1      43.351  31.682  28.840  1.00  0.00     0.031 C 
ATOM     44  C   UNL A   1      41.415  25.182  27.657  1.00  0.00     0.029 A 
ATOM     45  C   UNL A   1      42.840  25.470  27.512  1.00  0.00     0.049 A 
ATOM     46  H   UNL A   1      43.801  27.292  27.822  1.00  0.00     0.167 HD
ATOM     47  C   UNL A   1      45.686  31.186  28.173  1.00  0.00     0.031 A 
ATOM     48  C   UNL A   1      43.777  24.580  27.140  1.00  0.00     0.031 A 
ATOM     49  C   UNL A   1      46.751  30.314  27.762  1.00  0.00     0.049 A 
ATOM     50  C   UNL A   1      45.203  25.016  26.970  1.00  0.00     0.074 A 
ATOM     51  C   UNL A   1      48.086  30.618  27.559  1.00  0.00     0.029 A 
ATOM     52  N   UNL A   1      46.606  28.961  27.507  1.00  0.00    -0.354 N 
ATOM     53  N   UNL A   1      45.720  26.210  27.126  1.00  0.00    -0.248 NA
ATOM     54  C   UNL A   1      46.169  23.985  26.560  1.00  0.00     0.031 C 
ATOM     55  C   UNL A   1      48.749  29.445  27.175  1.00  0.00     0.029 A 
ATOM     56  C   UNL A   1      47.826  28.413  27.149  1.00  0.00     0.049 A 
ATOM     57  H   UNL A   1      45.759  28.461  27.570  1.00  0.00     0.167 HD
ATOM     58  C   UNL A   1      47.071  26.077  26.828  1.00  0.00     0.074 A 
ATOM     59  C   UNL A   1      47.295  24.684  26.496  1.00  0.00     0.031 C 
ATOM     60  C   UNL A   1      48.035  27.027  26.822  1.00  0.00     0.031 A 
BRANCH  47  61
ATOM     61  C   UNL A   1      45.988  32.642  28.373  1.00  0.00    -0.014 A 
ATOM     62  C   UNL A   1      46.392  33.130  29.627  1.00  0.00     0.010 A 
ATOM     63  C   UNL A   1      45.851  33.532  27.294  1.00  0.00     0.010 A 
ATOM     64  C   UNL A   1      46.611  34.498  29.810  1.00  0.00     0.020 A 
ATOM     65  C   UNL A   1      46.078  34.898  27.472  1.00  0.00     0.020 A 
ATOM     66  C   UNL A   1      46.435  35.375  28.735  1.00  0.00     0.054 A 
BRANCH  66  67
ATOM     67  S   UNL A   1      46.699  37.155  28.977  1.00  0.00     0.124 S 
ATOM     68  O   UNL A   1      45.432  37.565  29.576  1.00  0.00    -0.237 OA
ATOM     69  O   UNL A   1      47.857  37.204  29.867  1.00  0.00    -0.237 OA
ATOM     70  O   UNL A   1      46.940  37.646  27.623  1.00  0.00    -0.744 OA
ENDBRANCH  66  67
ENDBRANCH  47  61
BRANCH  48  71
ATOM     71  C   UNL A   1      43.385  23.170  26.890  1.00  0.00    -0.014 A 
ATOM     72  C   UNL A   1      43.471  22.636  25.593  1.00  0.00     0.010 A 
ATOM     73  C   UNL A   1      42.964  22.351  27.951  1.00  0.00     0.010 A 
ATOM     74  C   UNL A   1      43.145  21.299  25.359  1.00  0.00     0.020 A 
ATOM     75  C   UNL A   1      42.645  21.010  27.720  1.00  0.00     0.020 A 
ATOM     76  C   UNL A   1      42.732  20.494  26.424  1.00  0.00     0.054 A 
BRANCH  76  77
ATOM     77  S   UNL A   1      42.386  18.736  26.135  1.00  0.00     0.124 S 
ATOM     78  O   UNL A   1      42.623  18.159  27.455  1.00  0.00    -0.237 OA
ATOM     79  O   UNL A   1      40.994  18.742  25.690  1.00  0.00    -0.237 OA
ATOM     80  O   UNL A   1      43.356  18.371  25.104  1.00  0.00    -0.744 OA
ENDBRANCH  76  77
ENDBRANCH  48  71
BRANCH  60  81
ATOM     81  C   UNL A   1      49.422  26.593  26.449  1.00  0.00    -0.014 A 
ATOM     82  C   UNL A   1      50.267  26.015  27.412  1.00  0.00     0.010 A 
ATOM     83  C   UNL A   1      49.870  26.726  25.124  1.00  0.00     0.010 A 
ATOM     84  C   UNL A   1      51.550  25.588  27.058  1.00  0.00     0.020 A 
ATOM     85  C   UNL A   1      51.151  26.295  24.766  1.00  0.00     0.020 A 
ATOM     86  C   UNL A   1      51.986  25.738  25.738  1.00  0.00     0.054 A 
BRANCH  86  87
ATOM     87  S   UNL A   1      53.636  25.141  25.270  1.00  0.00     0.124 S 
ATOM     88  O   UNL A   1      53.473  23.694  25.364  1.00  0.00    -0.237 OA
ATOM     89  O   UNL A   1      53.808  25.666  23.917  1.00  0.00    -0.237 OA
ATOM     90  O   UNL A   1      54.509  25.741  26.276  1.00  0.00    -0.744 OA
ENDBRANCH  86  87
ENDBRANCH  60  81
ENDBRANCH  34  35
ENDBRANCH  26  29
ENDBRANCH  24  25
ENDBRANCH   1  24
TORSDOF 17
ENDMDL
MODEL 3
REMARK VINA RESULT:     -11.2      2.516      3.267
REMARK SMILES CC(C)(C)N(CC(=O)NCCCNC(=O)c1ccc(-c2c3nc(c(-c4ccc(S(=O)(=O)[O-])cc4)c4ccc([nH]4)c(-c4ccc(S(=O)(=O)[O-])cc4)c4nc(c(-c5ccc(S(=O)(=O)[O-])cc5)c5ccc2[nH]5)C=C4)C=C3)cc1)C(=O)c1cc2ccccc2o1
REMARK SMILES IDX 11 1 10 2 9 3 7 4 8 5 6 7 5 8 2 9 1 10 3 11 4 12 76 13 77 14
REMARK SMILES IDX 78 15 79 16 86 17 80 18 85 19 81 20 84 21 82 22 83 23 12 24
REMARK SMILES IDX 13 25 14 26 15 28 16 29 17 30 75 31 18 32 74 33 19 34 20 35
REMARK SMILES IDX 21 36 68 37 22 38 73 39 67 40 69 41 23 42 72 43 66 44 65 45
REMARK SMILES IDX 24 47 54 48 35 49 53 50 36 51 39 52 52 53 70 54 37 55 38 56
REMARK SMILES IDX 51 58 71 59 40 60 25 61 26 62 34 63 27 64 33 65 28 66 29 67
REMARK SMILES IDX 30 68 31 69 32 70 55 71 56 72 64 73 57 74 63 75 58 76 59 77
REMARK SMILES IDX 60 78 61 79 62 80 41 81 42 82 50 83 43 84 49 85 44 86 45 87
REMARK SMILES IDX 46 88 47 89 48 90
REMARK H PARENT 9 6 13 27 69 46 39 57
REMARK Flexibility Score: inf
ROOT
ATOM      1  C   UNL A   1      35.823  23.760  25.700  1.00  0.00     0.042 C 
ENDROOT
BRANCH   1   2
ATOM      2  C   UNL A   1      35.471  22.423  26.346  1.00  0.00     0.117 C 
BRANCH   2   3
ATOM      3  N   UNL A   1      34.479  22.550  27.403  1.00  0.00    -0.354 N 
ATOM      4  C   UNL A   1      33.119  22.621  27.362  1.00  0.00     0.239 C 
ATOM      5  O   UNL A   1      32.534  22.586  28.451  1.00  0.00    -0.273 OA
ATOM      6  H   UNL A   1      34.859  22.593  28.310  1.00  0.00     0.163 HD
BRANCH   4   7
ATOM      7  C   UNL A   1      32.313  22.528  26.051  1.00  0.00     0.220 C 
BRANCH   7   8
ATOM      8  N   UNL A   1      31.950  23.794  25.395  1.00  0.00    -0.322 N 
BRANCH   8   9
ATOM      9  C   UNL A   1      31.889  23.880  23.891  1.00  0.00     0.035 C 
ATOM     10  C   UNL A   1      31.908  22.499  23.191  1.00  0.00     0.034 C 
ATOM     11  C   UNL A   1      33.074  24.673  23.290  1.00  0.00     0.034 C 
ATOM     12  C   UNL A   1      30.569  24.579  23.493  1.00  0.00     0.034 C 
ENDBRANCH   8   9
BRANCH   8  13
ATOM     13  C   UNL A   1      31.186  24.734  26.129  1.00  0.00     0.290 C 
ATOM     14  O   UNL A   1      30.178  24.401  26.749  1.00  0.00    -0.265 OA
BRANCH  13  15
ATOM     15  C   UNL A   1      31.648  26.102  26.182  1.00  0.00     0.192 A 
ATOM     16  C   UNL A   1      30.994  27.297  26.410  1.00  0.00     0.065 A 
ATOM     17  O   UNL A   1      33.002  26.299  26.195  1.00  0.00    -0.451 OA
ATOM     18  C   UNL A   1      32.005  28.268  26.658  1.00  0.00     0.021 A 
ATOM     19  C   UNL A   1      33.216  27.596  26.542  1.00  0.00     0.135 A 
ATOM     20  C   UNL A   1      32.031  29.626  27.025  1.00  0.00     0.012 A 
ATOM     21  C   UNL A   1      34.460  28.172  26.793  1.00  0.00     0.048 A 
ATOM     22  C   UNL A   1      33.269  30.232  27.293  1.00  0.00     0.001 A 
ATOM     23  C   UNL A   1      34.463  29.514  27.187  1.00  0.00     0.004 A 
ENDBRANCH  13  15
ENDBRANCH   8  13
ENDBRANCH   7   8
ENDBRANCH   4   7
ENDBRANCH   2   3
ENDBRANCH   1   2
BRANCH   1  24
ATOM     24  C   UNL A   1      37.033  23.711  24.771  1.00  0.00     0.118 C 
BRANCH  24  25
ATOM     25  N   UNL A   1      37.956  22.641  25.116  1.00  0.00    -0.352 N 
ATOM     26  C   UNL A   1      39.124  22.685  25.841  1.00  0.00     0.251 C 
ATOM     27  H   UNL A   1      37.706  21.750  24.782  1.00  0.00     0.163 HD
ATOM     28  O   UNL A   1      39.863  21.703  25.841  1.00  0.00    -0.269 OA
BRANCH  26  29
ATOM     29  C   UNL A   1      39.516  23.897  26.605  1.00  0.00     0.039 A 
ATOM     30  C   UNL A   1      38.941  24.113  27.863  1.00  0.00     0.014 A 
ATOM     31  C   UNL A   1      40.385  24.852  26.072  1.00  0.00     0.014 A 
ATOM     32  C   UNL A   1      39.283  25.249  28.607  1.00  0.00     0.010 A 
ATOM     33  C   UNL A   1      40.766  25.958  26.835  1.00  0.00     0.010 A 
ATOM     34  C   UNL A   1      40.218  26.169  28.110  1.00  0.00    -0.014 A 
BRANCH  34  35
ATOM     35  C   UNL A   1      40.622  27.367  28.891  1.00  0.00     0.031 A 
ATOM     36  C   UNL A   1      41.938  27.386  29.621  1.00  0.00     0.074 A 
ATOM     37  C   UNL A   1      39.789  28.418  29.006  1.00  0.00     0.049 A 
ATOM     38  N   UNL A   1      42.391  28.262  30.482  1.00  0.00    -0.248 NA
ATOM     39  C   UNL A   1      42.854  26.265  29.361  1.00  0.00     0.031 C 
ATOM     40  C   UNL A   1      38.476  28.537  28.367  1.00  0.00     0.029 A 
ATOM     41  N   UNL A   1      39.922  29.586  29.716  1.00  0.00    -0.354 N 
ATOM     42  C   UNL A   1      43.619  27.771  30.908  1.00  0.00     0.074 A 
ATOM     43  C   UNL A   1      43.846  26.528  30.200  1.00  0.00     0.031 C 
ATOM     44  C   UNL A   1      37.933  29.720  28.700  1.00  0.00     0.029 A 
ATOM     45  C   UNL A   1      38.838  30.425  29.604  1.00  0.00     0.049 A 
ATOM     46  H   UNL A   1      40.717  29.803  30.253  1.00  0.00     0.167 HD
ATOM     47  C   UNL A   1      44.479  28.300  31.813  1.00  0.00     0.031 A 
ATOM     48  C   UNL A   1      38.589  31.616  30.178  1.00  0.00     0.031 A 
ATOM     49  C   UNL A   1      44.292  29.554  32.488  1.00  0.00     0.049 A 
ATOM     50  C   UNL A   1      39.578  32.209  31.138  1.00  0.00     0.074 A 
ATOM     51  C   UNL A   1      45.128  30.177  33.399  1.00  0.00     0.029 A 
ATOM     52  N   UNL A   1      43.200  30.388  32.313  1.00  0.00    -0.354 N 
ATOM     53  N   UNL A   1      40.722  31.718  31.545  1.00  0.00    -0.248 NA
ATOM     54  C   UNL A   1      39.234  33.513  31.724  1.00  0.00     0.031 C 
ATOM     55  C   UNL A   1      44.536  31.390  33.779  1.00  0.00     0.029 A 
ATOM     56  C   UNL A   1      43.338  31.520  33.097  1.00  0.00     0.049 A 
ATOM     57  H   UNL A   1      42.437  30.202  31.718  1.00  0.00     0.167 HD
ATOM     58  C   UNL A   1      41.234  32.649  32.441  1.00  0.00     0.074 A 
ATOM     59  C   UNL A   1      40.282  33.739  32.506  1.00  0.00     0.031 C 
ATOM     60  C   UNL A   1      42.385  32.597  33.152  1.00  0.00     0.031 A 
BRANCH  47  61
ATOM     61  C   UNL A   1      45.696  27.485  32.137  1.00  0.00    -0.014 A 
ATOM     62  C   UNL A   1      45.683  26.555  33.191  1.00  0.00     0.010 A 
ATOM     63  C   UNL A   1      46.870  27.665  31.385  1.00  0.00     0.010 A 
ATOM     64  C   UNL A   1      46.844  25.849  33.516  1.00  0.00     0.020 A 
ATOM     65  C   UNL A   1      48.028  26.953  31.703  1.00  0.00     0.020 A 
ATOM     66  C   UNL A   1      48.013  26.066  32.781  1.00  0.00     0.054 A 
BRANCH  66  67
ATOM     67  S   UNL A   1      49.527  25.164  33.218  1.00  0.00     0.124 S 
ATOM     68  O   UNL A   1      48.988  23.985  33.891  1.00  0.00    -0.237 OA
ATOM     69  O   UNL A   1      50.153  24.913  31.922  1.00  0.00    -0.237 OA
ATOM     70  O   UNL A   1      50.242  26.104  34.078  1.00  0.00    -0.744 OA
ENDBRANCH  66  67
ENDBRANCH  47  61
BRANCH  48  71
ATOM     71  C   UNL A   1      37.325  32.327  29.861  1.00  0.00    -0.014 A 
ATOM     72  C   UNL A   1      36.190  32.135  30.666  1.00  0.00     0.010 A 
ATOM     73  C   UNL A   1      37.266  33.225  28.782  1.00  0.00     0.010 A 
ATOM     74  C   UNL A   1      35.010  32.834  30.399  1.00  0.00     0.020 A 
ATOM     75  C   UNL A   1      36.090  33.932  28.519  1.00  0.00     0.020 A 
ATOM     76  C   UNL A   1      34.967  33.728  29.326  1.00  0.00     0.054 A 
BRANCH  76  77
ATOM     77  S   UNL A   1      33.461  34.696  29.029  1.00  0.00     0.124 S 
ATOM     78  O   UNL A   1      34.003  35.944  28.501  1.00  0.00    -0.237 OA
ATOM     79  O   UNL A   1      32.724  33.874  28.072  1.00  0.00    -0.237 OA
ATOM     80  O   UNL A   1      32.855  34.783  30.356  1.00  0.00    -0.744 OA
ENDBRANCH  76  77
ENDBRANCH  48  71
BRANCH  60  81
ATOM     81  C   UNL A   1      42.683  33.755  34.059  1.00  0.00    -0.014 A 
ATOM     82  C   UNL A   1      42.404  33.669  35.434  1.00  0.00     0.010 A 
ATOM     83  C   UNL A   1      43.279  34.918  33.544  1.00  0.00     0.010 A 
ATOM     84  C   UNL A   1      42.704  34.738  36.281  1.00  0.00     0.020 A 
ATOM     85  C   UNL A   1      43.586  35.988  34.391  1.00  0.00     0.020 A 
ATOM     86  C   UNL A   1      43.287  35.894  35.753  1.00  0.00     0.054 A 
BRANCH  86  87
ATOM     87  S   UNL A   1      43.718  37.264  36.864  1.00  0.00     0.124 S 
ATOM     88  O   UNL A   1      44.910  36.751  37.531  1.00  0.00    -0.237 OA
ATOM     89  O   UNL A   1      43.944  38.378  35.946  1.00  0.00    -0.237 OA
ATOM     90  O   UNL A   1      42.534  37.397  37.710  1.00  0.00    -0.744 OA
ENDBRANCH  86  87
ENDBRANCH  60  81
ENDBRANCH  34  35
ENDBRANCH  26  29
ENDBRANCH  24  25
ENDBRANCH   1  24
TORSDOF 17
ENDMDL
