MODEL 1
REMARK VINA RESULT:     -10.0      0.000      0.000
REMARK SMILES O=C(CCCNC(=O)COc1ccc2c3c(c(=O)oc2c1)CCC3)NCCCNC(=O)c1ccc(-c2c3nc(c(-c4ccc(S(=O)(=O)[O-])cc4)c4ccc([nH]4)c(-c4ccc(S(=O)(=O)[O-])cc4)c4nc(c(-c5ccc(S(=O)(=O)[O-])cc5)c5ccc2[nH]5)C=C4)C=C3)cc1
REMARK SMILES IDX 1 1 2 2 25 3 3 5 4 6 5 7 6 8 7 9 8 11 9 12 10 13 11 14 12 15
REMARK SMILES IDX 21 16 13 17 20 18 14 19 19 20 15 21 17 22 16 23 24 24 18 25
REMARK SMILES IDX 22 26 23 27 26 28 27 29 28 30 29 31 30 32 31 34 32 35 33 36
REMARK SMILES IDX 91 37 34 38 90 39 35 40 36 41 37 42 84 43 38 44 89 45 83 46
REMARK SMILES IDX 85 47 39 48 88 49 82 50 81 51 40 53 70 54 51 55 69 56 52 57
REMARK SMILES IDX 55 58 68 59 86 60 53 61 54 62 67 64 87 65 56 66 41 67 42 68
REMARK SMILES IDX 50 69 43 70 49 71 44 72 45 73 46 74 47 75 48 76 71 77 72 78
REMARK SMILES IDX 80 79 73 80 79 81 74 82 75 83 76 84 77 85 78 86 57 87 58 88
REMARK SMILES IDX 66 89 59 90 65 91 60 92 61 93 62 94 63 95 64 96
REMARK H PARENT 25 4 6 10 29 33 85 52 55 63
REMARK Flexibility Score: inf
ROOT
ATOM      1  O   UNL A   1      32.794  37.068  29.155  1.00  0.00    -0.275 OA
ATOM      2  C   UNL A   1      33.202  36.232  29.953  1.00  0.00     0.220 C 
ATOM      3  N   UNL A   1      34.101  35.240  29.638  1.00  0.00    -0.356 N 
ATOM      4  H   UNL A   1      34.418  34.651  30.361  1.00  0.00     0.163 HD
ENDROOT
BRANCH   2   5
ATOM      5  C   UNL A   1      32.715  36.171  31.386  1.00  0.00     0.102 C 
BRANCH   5   6
ATOM      6  C   UNL A   1      33.756  36.704  32.375  1.00  0.00     0.031 C 
BRANCH   6   7
ATOM      7  C   UNL A   1      34.524  35.639  33.162  1.00  0.00     0.116 C 
BRANCH   7   8
ATOM      8  N   UNL A   1      35.822  35.340  32.585  1.00  0.00    -0.353 N 
ATOM      9  C   UNL A   1      36.497  34.158  32.551  1.00  0.00     0.257 C 
ATOM     10  H   UNL A   1      36.279  36.100  32.158  1.00  0.00     0.163 HD
ATOM     11  O   UNL A   1      37.541  34.118  31.896  1.00  0.00    -0.271 OA
BRANCH   9  12
ATOM     12  C   UNL A   1      35.979  32.934  33.307  1.00  0.00     0.329 C 
BRANCH  12  13
ATOM     13  O   UNL A   1      36.543  32.602  34.567  1.00  0.00    -0.484 OA
BRANCH  13  14
ATOM     14  C   UNL A   1      37.691  31.861  34.573  1.00  0.00     0.123 A 
ATOM     15  C   UNL A   1      37.769  30.886  33.573  1.00  0.00     0.047 A 
ATOM     16  C   UNL A   1      38.708  31.951  35.518  1.00  0.00     0.094 A 
ATOM     17  C   UNL A   1      38.862  30.011  33.502  1.00  0.00     0.016 A 
ATOM     18  C   UNL A   1      39.778  31.062  35.452  1.00  0.00     0.142 A 
ATOM     19  C   UNL A   1      39.876  30.089  34.454  1.00  0.00     0.021 A 
ATOM     20  O   UNL A   1      40.760  31.181  36.465  1.00  0.00    -0.422 OA
ATOM     21  C   UNL A   1      41.034  29.222  34.485  1.00  0.00    -0.027 A 
ATOM     22  C   UNL A   1      41.875  30.349  36.514  1.00  0.00     0.339 A 
ATOM     23  C   UNL A   1      41.957  29.358  35.440  1.00  0.00     0.042 A 
ATOM     24  C   UNL A   1      41.372  28.124  33.540  1.00  0.00     0.037 C 
ATOM     25  O   UNL A   1      42.722  30.427  37.391  1.00  0.00    -0.246 OA
ATOM     26  C   UNL A   1      43.071  28.386  35.298  1.00  0.00     0.044 C 
ATOM     27  C   UNL A   1      42.487  27.386  34.294  1.00  0.00     0.010 C 
ENDBRANCH  13  14
ENDBRANCH  12  13
ENDBRANCH   9  12
ENDBRANCH   7   8
ENDBRANCH   6   7
ENDBRANCH   5   6
ENDBRANCH   2   5
BRANCH   3  28
ATOM     28  C   UNL A   1      34.605  35.019  28.299  1.00  0.00     0.117 C 
BRANCH  28  29
ATOM     29  C   UNL A   1      35.091  33.589  28.101  1.00  0.00     0.042 C 
BRANCH  29  30
ATOM     30  C   UNL A   1      34.307  32.526  28.865  1.00  0.00     0.118 C 
BRANCH  30  31
ATOM     31  N   UNL A   1      33.754  31.487  28.012  1.00  0.00    -0.352 N 
ATOM     32  C   UNL A   1      34.339  30.333  27.545  1.00  0.00     0.251 C 
ATOM     33  H   UNL A   1      32.823  31.631  27.726  1.00  0.00     0.163 HD
ATOM     34  O   UNL A   1      33.738  29.651  26.718  1.00  0.00    -0.269 OA
BRANCH  32  35
ATOM     35  C   UNL A   1      35.688  29.924  28.005  1.00  0.00     0.039 A 
ATOM     36  C   UNL A   1      36.763  30.052  27.121  1.00  0.00     0.014 A 
ATOM     37  C   UNL A   1      35.900  29.391  29.279  1.00  0.00     0.014 A 
ATOM     38  C   UNL A   1      38.050  29.689  27.529  1.00  0.00     0.010 A 
ATOM     39  C   UNL A   1      37.195  29.112  29.715  1.00  0.00     0.010 A 
ATOM     40  C   UNL A   1      38.284  29.238  28.839  1.00  0.00    -0.014 A 
BRANCH  40  41
ATOM     41  C   UNL A   1      39.652  28.860  29.286  1.00  0.00     0.031 A 
ATOM     42  C   UNL A   1      40.474  29.821  30.109  1.00  0.00     0.074 A 
ATOM     43  C   UNL A   1      40.174  27.667  28.934  1.00  0.00     0.049 A 
ATOM     44  N   UNL A   1      41.684  29.673  30.588  1.00  0.00    -0.248 NA
ATOM     45  C   UNL A   1      39.866  31.126  30.417  1.00  0.00     0.031 C 
ATOM     46  C   UNL A   1      39.502  26.658  28.110  1.00  0.00     0.029 A 
ATOM     47  N   UNL A   1      41.389  27.097  29.228  1.00  0.00    -0.354 N 
ATOM     48  C   UNL A   1      41.985  30.866  31.237  1.00  0.00     0.074 A 
ATOM     49  C   UNL A   1      40.856  31.748  31.041  1.00  0.00     0.031 C 
ATOM     50  C   UNL A   1      40.298  25.583  27.995  1.00  0.00     0.029 A 
ATOM     51  C   UNL A   1      41.551  25.836  28.700  1.00  0.00     0.049 A 
ATOM     52  H   UNL A   1      42.079  27.548  29.764  1.00  0.00     0.167 HD
ATOM     53  C   UNL A   1      43.088  31.193  31.953  1.00  0.00     0.031 A 
ATOM     54  C   UNL A   1      42.589  24.980  28.774  1.00  0.00     0.031 A 
ATOM     55  C   UNL A   1      44.208  30.314  32.155  1.00  0.00     0.049 A 
ATOM     56  C   UNL A   1      43.810  25.370  29.565  1.00  0.00     0.074 A 
ATOM     57  C   UNL A   1      45.351  30.534  32.904  1.00  0.00     0.029 A 
ATOM     58  N   UNL A   1      44.330  29.047  31.605  1.00  0.00    -0.354 N 
ATOM     59  N   UNL A   1      44.046  26.478  30.226  1.00  0.00    -0.248 NA
ATOM     60  C   UNL A   1      44.896  24.383  29.635  1.00  0.00     0.031 C 
ATOM     61  C   UNL A   1      46.190  29.425  32.760  1.00  0.00     0.029 A 
ATOM     62  C   UNL A   1      45.539  28.483  31.980  1.00  0.00     0.049 A 
ATOM     63  H   UNL A   1      43.658  28.612  31.031  1.00  0.00     0.167 HD
ATOM     64  C   UNL A   1      45.291  26.306  30.822  1.00  0.00     0.074 A 
ATOM     65  C   UNL A   1      45.751  24.982  30.454  1.00  0.00     0.031 C 
ATOM     66  C   UNL A   1      45.986  27.163  31.610  1.00  0.00     0.031 A 
BRANCH  53  67
ATOM     67  C   UNL A   1      43.137  32.569  32.569  1.00  0.00    -0.014 A 
ATOM     68  C   UNL A   1      43.694  33.660  31.875  1.00  0.00     0.010 A 
ATOM     69  C   UNL A   1      42.585  32.784  33.846  1.00  0.00     0.010 A 
ATOM     70  C   UNL A   1      43.739  34.927  32.463  1.00  0.00     0.020 A 
ATOM     71  C   UNL A   1      42.597  34.057  34.423  1.00  0.00     0.020 A 
ATOM     72  C   UNL A   1      43.190  35.118  33.735  1.00  0.00     0.054 A 
BRANCH  72  73
ATOM     73  S   UNL A   1      43.242  36.779  34.462  1.00  0.00     0.124 S 
ATOM     74  O   UNL A   1      41.930  36.870  35.097  1.00  0.00    -0.237 OA
ATOM     75  O   UNL A   1      44.377  36.692  35.376  1.00  0.00    -0.237 OA
ATOM     76  O   UNL A   1      43.438  37.656  33.310  1.00  0.00    -0.744 OA
ENDBRANCH  72  73
ENDBRANCH  53  67
BRANCH  54  77
ATOM     77  C   UNL A   1      42.511  23.654  28.097  1.00  0.00    -0.014 A 
ATOM     78  C   UNL A   1      41.707  22.626  28.621  1.00  0.00     0.010 A 
ATOM     79  C   UNL A   1      43.243  23.413  26.919  1.00  0.00     0.010 A 
ATOM     80  C   UNL A   1      41.654  21.377  27.996  1.00  0.00     0.020 A 
ATOM     81  C   UNL A   1      43.167  22.175  26.273  1.00  0.00     0.020 A 
ATOM     82  C   UNL A   1      42.382  21.160  26.823  1.00  0.00     0.054 A 
BRANCH  82  83
ATOM     83  S   UNL A   1      42.263  19.545  26.004  1.00  0.00     0.124 S 
ATOM     84  O   UNL A   1      40.830  19.439  25.749  1.00  0.00    -0.237 OA
ATOM     85  O   UNL A   1      43.105  19.729  24.825  1.00  0.00    -0.237 OA
ATOM     86  O   UNL A   1      42.793  18.617  27.001  1.00  0.00    -0.744 OA
ENDBRANCH  82  83
ENDBRANCH  54  77
BRANCH  66  87
ATOM     87  C   UNL A   1      47.298  26.681  32.176  1.00  0.00    -0.014 A 
ATOM     88  C   UNL A   1      47.380  26.085  33.447  1.00  0.00     0.010 A 
ATOM     89  C   UNL A   1      48.464  26.788  31.395  1.00  0.00     0.010 A 
ATOM     90  C   UNL A   1      48.611  25.646  33.944  1.00  0.00     0.020 A 
ATOM     91  C   UNL A   1      49.690  26.321  31.874  1.00  0.00     0.020 A 
ATOM     92  C   UNL A   1      49.759  25.769  33.154  1.00  0.00     0.054 A 
BRANCH  92  93
ATOM     93  S   UNL A   1      51.339  25.168  33.810  1.00  0.00     0.124 S 
ATOM     94  O   UNL A   1      51.639  26.160  34.839  1.00  0.00    -0.237 OA
ATOM     95  O   UNL A   1      50.997  23.836  34.301  1.00  0.00    -0.237 OA
ATOM     96  O   UNL A   1      52.228  25.188  32.650  1.00  0.00    -0.744 OA
ENDBRANCH  92  93
ENDBRANCH  66  87
ENDBRANCH  40  41
ENDBRANCH  32  35
ENDBRANCH  30  31
ENDBRANCH  29  30
ENDBRANCH  28  29
ENDBRANCH   3  28
TORSDOF 19
ENDMDL
MODEL 2
REMARK VINA RESULT:      -9.3      4.317     12.795
REMARK SMILES O=C(CCCNC(=O)COc1ccc2c3c(c(=O)oc2c1)CCC3)NCCCNC(=O)c1ccc(-c2c3nc(c(-c4ccc(S(=O)(=O)[O-])cc4)c4ccc([nH]4)c(-c4ccc(S(=O)(=O)[O-])cc4)c4nc(c(-c5ccc(S(=O)(=O)[O-])cc5)c5ccc2[nH]5)C=C4)C=C3)cc1
REMARK SMILES IDX 1 1 2 2 25 3 3 5 4 6 5 7 6 8 7 9 8 11 9 12 10 13 11 14 12 15
REMARK SMILES IDX 21 16 13 17 20 18 14 19 19 20 15 21 17 22 16 23 24 24 18 25
REMARK SMILES IDX 22 26 23 27 26 28 27 29 28 30 29 31 30 32 31 34 32 35 33 36
REMARK SMILES IDX 91 37 34 38 90 39 35 40 36 41 37 42 84 43 38 44 89 45 83 46
REMARK SMILES IDX 85 47 39 48 88 49 82 50 81 51 40 53 70 54 51 55 69 56 52 57
REMARK SMILES IDX 55 58 68 59 86 60 53 61 54 62 67 64 87 65 56 66 41 67 42 68
REMARK SMILES IDX 50 69 43 70 49 71 44 72 45 73 46 74 47 75 48 76 71 77 72 78
REMARK SMILES IDX 80 79 73 80 79 81 74 82 75 83 76 84 77 85 78 86 57 87 58 88
REMARK SMILES IDX 66 89 59 90 65 91 60 92 61 93 62 94 63 95 64 96
REMARK H PARENT 25 4 6 10 29 33 85 52 55 63
REMARK Flexibility Score: inf
ROOT
ATOM      1  O   UNL A   1      44.346  21.609  23.996  1.00  0.00    -0.275 OA
ATOM      2  C   UNL A   1      44.650  20.907  24.953  1.00  0.00     0.220 C 
ATOM      3  N   UNL A   1      45.236  21.382  26.103  1.00  0.00    -0.356 N 
ATOM      4  H   UNL A   1      45.389  20.751  26.844  1.00  0.00     0.163 HD
ENDROOT
BRANCH   2   5
ATOM      5  C   UNL A   1      44.453  19.405  24.953  1.00  0.00     0.102 C 
BRANCH   5   6
ATOM      6  C   UNL A   1      43.531  18.941  26.084  1.00  0.00     0.031 C 
BRANCH   6   7
ATOM      7  C   UNL A   1      42.280  19.795  26.309  1.00  0.00     0.116 C 
BRANCH   7   8
ATOM      8  N   UNL A   1      41.054  19.092  25.979  1.00  0.00    -0.353 N 
ATOM      9  C   UNL A   1      39.790  19.581  25.852  1.00  0.00     0.257 C 
ATOM     10  H   UNL A   1      41.150  18.124  25.826  1.00  0.00     0.163 HD
ATOM     11  O   UNL A   1      38.919  18.809  25.445  1.00  0.00    -0.271 OA
BRANCH   9  12
ATOM     12  C   UNL A   1      39.468  21.033  26.210  1.00  0.00     0.329 C 
BRANCH  12  13
ATOM     13  O   UNL A   1      38.857  21.871  25.240  1.00  0.00    -0.484 OA
BRANCH  13  14
ATOM     14  C   UNL A   1      37.507  22.063  25.327  1.00  0.00     0.123 A 
ATOM     15  C   UNL A   1      37.119  23.332  25.768  1.00  0.00     0.047 A 
ATOM     16  C   UNL A   1      36.535  21.095  25.096  1.00  0.00     0.094 A 
ATOM     17  C   UNL A   1      35.767  23.646  25.965  1.00  0.00     0.016 A 
ATOM     18  C   UNL A   1      35.196  21.410  25.317  1.00  0.00     0.142 A 
ATOM     19  C   UNL A   1      34.791  22.675  25.748  1.00  0.00     0.021 A 
ATOM     20  O   UNL A   1      34.261  20.369  25.101  1.00  0.00    -0.422 OA
ATOM     21  C   UNL A   1      33.373  22.887  25.943  1.00  0.00    -0.027 A 
ATOM     22  C   UNL A   1      32.894  20.554  25.293  1.00  0.00     0.339 A 
ATOM     23  C   UNL A   1      32.504  21.898  25.721  1.00  0.00     0.042 A 
ATOM     24  C   UNL A   1      32.693  24.134  26.384  1.00  0.00     0.037 C 
ATOM     25  O   UNL A   1      32.076  19.663  25.128  1.00  0.00    -0.246 OA
ATOM     26  C   UNL A   1      31.098  22.310  25.965  1.00  0.00     0.044 C 
ATOM     27  C   UNL A   1      31.286  23.625  26.730  1.00  0.00     0.010 C 
ENDBRANCH  13  14
ENDBRANCH  12  13
ENDBRANCH   9  12
ENDBRANCH   7   8
ENDBRANCH   6   7
ENDBRANCH   5   6
ENDBRANCH   2   5
BRANCH   3  28
ATOM     28  C   UNL A   1      45.638  22.761  26.279  1.00  0.00     0.117 C 
BRANCH  28  29
ATOM     29  C   UNL A   1      44.961  23.405  27.482  1.00  0.00     0.042 C 
BRANCH  29  30
ATOM     30  C   UNL A   1      43.436  23.446  27.423  1.00  0.00     0.118 C 
BRANCH  30  31
ATOM     31  N   UNL A   1      42.919  24.085  26.225  1.00  0.00    -0.352 N 
ATOM     32  C   UNL A   1      42.184  25.242  26.097  1.00  0.00     0.251 C 
ATOM     33  H   UNL A   1      43.123  23.622  25.382  1.00  0.00     0.163 HD
ATOM     34  O   UNL A   1      41.726  25.538  24.995  1.00  0.00    -0.269 OA
BRANCH  32  35
ATOM     35  C   UNL A   1      41.920  26.110  27.269  1.00  0.00     0.039 A 
ATOM     36  C   UNL A   1      42.727  27.234  27.464  1.00  0.00     0.014 A 
ATOM     37  C   UNL A   1      40.910  25.815  28.189  1.00  0.00     0.014 A 
ATOM     38  C   UNL A   1      42.494  28.082  28.551  1.00  0.00     0.010 A 
ATOM     39  C   UNL A   1      40.623  26.708  29.222  1.00  0.00     0.010 A 
ATOM     40  C   UNL A   1      41.424  27.841  29.429  1.00  0.00    -0.014 A 
BRANCH  40  41
ATOM     41  C   UNL A   1      41.161  28.743  30.582  1.00  0.00     0.031 A 
ATOM     42  C   UNL A   1      42.013  28.656  31.824  1.00  0.00     0.074 A 
ATOM     43  C   UNL A   1      40.140  29.624  30.533  1.00  0.00     0.049 A 
ATOM     44  N   UNL A   1      41.936  29.354  32.930  1.00  0.00    -0.248 NA
ATOM     45  C   UNL A   1      43.079  27.640  31.834  1.00  0.00     0.031 C 
ATOM     46  C   UNL A   1      39.215  29.787  29.408  1.00  0.00     0.029 A 
ATOM     47  N   UNL A   1      39.712  30.553  31.450  1.00  0.00    -0.354 N 
ATOM     48  C   UNL A   1      42.928  28.852  33.766  1.00  0.00     0.074 A 
ATOM     49  C   UNL A   1      43.554  27.754  33.065  1.00  0.00     0.031 C 
ATOM     50  C   UNL A   1      38.353  30.778  29.688  1.00  0.00     0.029 A 
ATOM     51  C   UNL A   1      38.635  31.297  31.023  1.00  0.00     0.049 A 
ATOM     52  H   UNL A   1      40.135  30.675  32.329  1.00  0.00     0.167 HD
ATOM     53  C   UNL A   1      43.303  29.279  34.996  1.00  0.00     0.031 A 
ATOM     54  C   UNL A   1      37.952  32.284  31.635  1.00  0.00     0.031 A 
ATOM     55  C   UNL A   1      42.686  30.377  35.691  1.00  0.00     0.049 A 
ATOM     56  C   UNL A   1      38.379  32.734  33.007  1.00  0.00     0.074 A 
ATOM     57  C   UNL A   1      43.025  30.917  36.920  1.00  0.00     0.029 A 
ATOM     58  N   UNL A   1      41.601  31.103  35.223  1.00  0.00    -0.354 N 
ATOM     59  N   UNL A   1      39.361  32.289  33.753  1.00  0.00    -0.248 NA
ATOM     60  C   UNL A   1      37.615  33.834  33.611  1.00  0.00     0.031 C 
ATOM     61  C   UNL A   1      42.109  31.930  37.221  1.00  0.00     0.029 A 
ATOM     62  C   UNL A   1      41.245  32.071  36.147  1.00  0.00     0.049 A 
ATOM     63  H   UNL A   1      41.149  30.952  34.361  1.00  0.00     0.167 HD
ATOM     64  C   UNL A   1      39.358  33.080  34.897  1.00  0.00     0.074 A 
ATOM     65  C   UNL A   1      38.283  34.039  34.738  1.00  0.00     0.031 C 
ATOM     66  C   UNL A   1      40.175  33.022  35.978  1.00  0.00     0.031 A 
BRANCH  53  67
ATOM     67  C   UNL A   1      44.437  28.549  35.673  1.00  0.00    -0.014 A 
ATOM     68  C   UNL A   1      44.200  27.412  36.469  1.00  0.00     0.010 A 
ATOM     69  C   UNL A   1      45.761  28.983  35.480  1.00  0.00     0.010 A 
ATOM     70  C   UNL A   1      45.260  26.751  37.095  1.00  0.00     0.020 A 
ATOM     71  C   UNL A   1      46.828  28.304  36.077  1.00  0.00     0.020 A 
ATOM     72  C   UNL A   1      46.569  27.202  36.896  1.00  0.00     0.054 A 
BRANCH  72  73
ATOM     73  S   UNL A   1      47.926  26.309  37.702  1.00  0.00     0.124 S 
ATOM     74  O   UNL A   1      49.093  27.057  37.244  1.00  0.00    -0.237 OA
ATOM     75  O   UNL A   1      47.605  26.454  39.120  1.00  0.00    -0.237 OA
ATOM     76  O   UNL A   1      47.810  24.951  37.175  1.00  0.00    -0.744 OA
ENDBRANCH  72  73
ENDBRANCH  53  67
BRANCH  54  77
ATOM     77  C   UNL A   1      36.801  32.933  30.944  1.00  0.00    -0.014 A 
ATOM     78  C   UNL A   1      36.997  33.670  29.763  1.00  0.00     0.010 A 
ATOM     79  C   UNL A   1      35.499  32.815  31.465  1.00  0.00     0.010 A 
ATOM     80  C   UNL A   1      35.919  34.297  29.130  1.00  0.00     0.020 A 
ATOM     81  C   UNL A   1      34.414  33.413  30.817  1.00  0.00     0.020 A 
ATOM     82  C   UNL A   1      34.633  34.161  29.659  1.00  0.00     0.054 A 
BRANCH  82  83
ATOM     83  S   UNL A   1      33.243  34.945  28.796  1.00  0.00     0.124 S 
ATOM     84  O   UNL A   1      32.313  35.206  29.890  1.00  0.00    -0.237 OA
ATOM     85  O   UNL A   1      33.869  36.123  28.200  1.00  0.00    -0.237 OA
ATOM     86  O   UNL A   1      32.816  33.925  27.841  1.00  0.00    -0.744 OA
ENDBRANCH  82  83
ENDBRANCH  54  77
BRANCH  66  87
ATOM     87  C   UNL A   1      39.979  34.059  37.055  1.00  0.00    -0.014 A 
ATOM     88  C   UNL A   1      40.532  35.348  36.950  1.00  0.00     0.010 A 
ATOM     89  C   UNL A   1      39.184  33.745  38.175  1.00  0.00     0.010 A 
ATOM     90  C   UNL A   1      40.331  36.287  37.966  1.00  0.00     0.020 A 
ATOM     91  C   UNL A   1      38.953  34.692  39.175  1.00  0.00     0.020 A 
ATOM     92  C   UNL A   1      39.544  35.953  39.073  1.00  0.00     0.054 A 
BRANCH  92  93
ATOM     93  S   UNL A   1      39.276  37.198  40.363  1.00  0.00     0.124 S 
ATOM     94  O   UNL A   1      38.575  38.249  39.632  1.00  0.00    -0.237 OA
ATOM     95  O   UNL A   1      38.475  36.474  41.346  1.00  0.00    -0.237 OA
ATOM     96  O   UNL A   1      40.628  37.541  40.801  1.00  0.00    -0.744 OA
ENDBRANCH  92  93
ENDBRANCH  66  87
ENDBRANCH  40  41
ENDBRANCH  32  35
ENDBRANCH  30  31
ENDBRANCH  29  30
ENDBRANCH  28  29
ENDBRANCH   3  28
TORSDOF 19
ENDMDL
MODEL 3
REMARK VINA RESULT:      -9.2      4.458     12.209
REMARK SMILES O=C(CCCNC(=O)COc1ccc2c3c(c(=O)oc2c1)CCC3)NCCCNC(=O)c1ccc(-c2c3nc(c(-c4ccc(S(=O)(=O)[O-])cc4)c4ccc([nH]4)c(-c4ccc(S(=O)(=O)[O-])cc4)c4nc(c(-c5ccc(S(=O)(=O)[O-])cc5)c5ccc2[nH]5)C=C4)C=C3)cc1
REMARK SMILES IDX 1 1 2 2 25 3 3 5 4 6 5 7 6 8 7 9 8 11 9 12 10 13 11 14 12 15
REMARK SMILES IDX 21 16 13 17 20 18 14 19 19 20 15 21 17 22 16 23 24 24 18 25
REMARK SMILES IDX 22 26 23 27 26 28 27 29 28 30 29 31 30 32 31 34 32 35 33 36
REMARK SMILES IDX 91 37 34 38 90 39 35 40 36 41 37 42 84 43 38 44 89 45 83 46
REMARK SMILES IDX 85 47 39 48 88 49 82 50 81 51 40 53 70 54 51 55 69 56 52 57
REMARK SMILES IDX 55 58 68 59 86 60 53 61 54 62 67 64 87 65 56 66 41 67 42 68
REMARK SMILES IDX 50 69 43 70 49 71 44 72 45 73 46 74 47 75 48 76 71 77 72 78
REMARK SMILES IDX 80 79 73 80 79 81 74 82 75 83 76 84 77 85 78 86 57 87 58 88
REMARK SMILES IDX 66 89 59 90 65 91 60 92 61 93 62 94 63 95 64 96
REMARK H PARENT 25 4 6 10 29 33 85 52 55 63
REMARK Flexibility Score: inf
ROOT
ATOM      1  O   UNL A   1      37.047  23.733  26.046  1.00  0.00    -0.275 OA
ATOM      2  C   UNL A   1      37.598  22.812  25.455  1.00  0.00     0.220 C 
ATOM      3  N   UNL A   1      38.812  22.279  25.817  1.00  0.00    -0.356 N 
ATOM      4  H   UNL A   1      39.147  21.499  25.318  1.00  0.00     0.163 HD
ENDROOT
BRANCH   2   5
ATOM      5  C   UNL A   1      37.009  22.181  24.209  1.00  0.00     0.102 C 
BRANCH   5   6
ATOM      6  C   UNL A   1      35.526  21.837  24.380  1.00  0.00     0.031 C 
BRANCH   6   7
ATOM      7  C   UNL A   1      35.171  21.054  25.646  1.00  0.00     0.116 C 
BRANCH   7   8
ATOM      8  N   UNL A   1      34.153  20.045  25.416  1.00  0.00    -0.353 N 
ATOM      9  C   UNL A   1      32.810  20.198  25.257  1.00  0.00     0.257 C 
ATOM     10  H   UNL A   1      34.481  19.117  25.369  1.00  0.00     0.163 HD
ATOM     11  O   UNL A   1      32.155  19.198  24.952  1.00  0.00    -0.271 OA
BRANCH   9  12
ATOM     12  C   UNL A   1      32.144  21.560  25.458  1.00  0.00     0.329 C 
BRANCH  12  13
ATOM     13  O   UNL A   1      32.082  22.473  24.372  1.00  0.00    -0.484 OA
BRANCH  13  14
ATOM     14  C   UNL A   1      32.151  23.807  24.659  1.00  0.00     0.123 A 
ATOM     15  C   UNL A   1      32.943  24.132  25.766  1.00  0.00     0.047 A 
ATOM     16  C   UNL A   1      31.450  24.814  24.004  1.00  0.00     0.094 A 
ATOM     17  C   UNL A   1      33.050  25.456  26.213  1.00  0.00     0.016 A 
ATOM     18  C   UNL A   1      31.546  26.123  24.470  1.00  0.00     0.142 A 
ATOM     19  C   UNL A   1      32.339  26.466  25.568  1.00  0.00     0.021 A 
ATOM     20  O   UNL A   1      30.777  27.094  23.784  1.00  0.00    -0.422 OA
ATOM     21  C   UNL A   1      32.362  27.858  25.961  1.00  0.00    -0.027 A 
ATOM     22  C   UNL A   1      30.782  28.436  24.155  1.00  0.00     0.339 A 
ATOM     23  C   UNL A   1      31.642  28.762  25.293  1.00  0.00     0.042 A 
ATOM     24  C   UNL A   1      33.126  28.474  27.079  1.00  0.00     0.037 C 
ATOM     25  O   UNL A   1      30.112  29.283  23.584  1.00  0.00    -0.246 OA
ATOM     26  C   UNL A   1      31.803  30.134  25.838  1.00  0.00     0.044 C 
ATOM     27  C   UNL A   1      32.468  29.856  27.191  1.00  0.00     0.010 C 
ENDBRANCH  13  14
ENDBRANCH  12  13
ENDBRANCH   9  12
ENDBRANCH   7   8
ENDBRANCH   6   7
ENDBRANCH   5   6
ENDBRANCH   2   5
BRANCH   3  28
ATOM     28  C   UNL A   1      39.622  22.807  26.894  1.00  0.00     0.117 C 
BRANCH  28  29
ATOM     29  C   UNL A   1      41.042  22.255  26.864  1.00  0.00     0.042 C 
BRANCH  29  30
ATOM     30  C   UNL A   1      42.146  23.293  27.040  1.00  0.00     0.118 C 
BRANCH  30  31
ATOM     31  N   UNL A   1      42.353  24.126  25.868  1.00  0.00    -0.352 N 
ATOM     32  C   UNL A   1      42.224  25.488  25.726  1.00  0.00     0.251 C 
ATOM     33  H   UNL A   1      42.624  23.644  25.054  1.00  0.00     0.163 HD
ATOM     34  O   UNL A   1      42.314  25.984  24.605  1.00  0.00    -0.269 OA
BRANCH  32  35
ATOM     35  C   UNL A   1      41.953  26.353  26.900  1.00  0.00     0.039 A 
ATOM     36  C   UNL A   1      40.898  26.012  27.752  1.00  0.00     0.014 A 
ATOM     37  C   UNL A   1      42.702  27.505  27.153  1.00  0.00     0.014 A 
ATOM     38  C   UNL A   1      40.626  26.798  28.876  1.00  0.00     0.010 A 
ATOM     39  C   UNL A   1      42.485  28.237  28.320  1.00  0.00     0.010 A 
ATOM     40  C   UNL A   1      41.432  27.906  29.186  1.00  0.00    -0.014 A 
BRANCH  40  41
ATOM     41  C   UNL A   1      41.157  28.742  30.386  1.00  0.00     0.031 A 
ATOM     42  C   UNL A   1      41.994  28.581  31.630  1.00  0.00     0.074 A 
ATOM     43  C   UNL A   1      40.139  29.627  30.375  1.00  0.00     0.049 A 
ATOM     44  N   UNL A   1      41.905  29.214  32.773  1.00  0.00    -0.248 NA
ATOM     45  C   UNL A   1      43.057  27.563  31.595  1.00  0.00     0.031 C 
ATOM     46  C   UNL A   1      39.228  29.857  29.250  1.00  0.00     0.029 A 
ATOM     47  N   UNL A   1      39.702  30.503  31.338  1.00  0.00    -0.354 N 
ATOM     48  C   UNL A   1      42.885  28.662  33.592  1.00  0.00     0.074 A 
ATOM     49  C   UNL A   1      43.517  27.604  32.836  1.00  0.00     0.031 C 
ATOM     50  C   UNL A   1      38.365  30.833  29.576  1.00  0.00     0.029 A 
ATOM     51  C   UNL A   1      38.632  31.273  30.942  1.00  0.00     0.049 A 
ATOM     52  H   UNL A   1      40.115  30.573  32.228  1.00  0.00     0.167 HD
ATOM     53  C   UNL A   1      43.247  29.017  34.848  1.00  0.00     0.031 A 
ATOM     54  C   UNL A   1      37.944  32.226  31.601  1.00  0.00     0.031 A 
ATOM     55  C   UNL A   1      42.624  30.075  35.598  1.00  0.00     0.049 A 
ATOM     56  C   UNL A   1      38.355  32.595  33.002  1.00  0.00     0.074 A 
ATOM     57  C   UNL A   1      42.949  30.543  36.860  1.00  0.00     0.029 A 
ATOM     58  N   UNL A   1      41.546  30.830  35.159  1.00  0.00    -0.354 N 
ATOM     59  N   UNL A   1      39.327  32.105  33.733  1.00  0.00    -0.248 NA
ATOM     60  C   UNL A   1      37.586  33.661  33.658  1.00  0.00     0.031 C 
ATOM     61  C   UNL A   1      42.032  31.540  37.207  1.00  0.00     0.029 A 
ATOM     62  C   UNL A   1      41.181  31.744  36.133  1.00  0.00     0.049 A 
ATOM     63  H   UNL A   1      41.105  30.730  34.284  1.00  0.00     0.167 HD
ATOM     64  C   UNL A   1      39.311  32.829  34.920  1.00  0.00     0.074 A 
ATOM     65  C   UNL A   1      38.241  33.799  34.803  1.00  0.00     0.031 C 
ATOM     66  C   UNL A   1      40.115  32.707  36.006  1.00  0.00     0.031 A 
BRANCH  53  67
ATOM     67  C   UNL A   1      44.370  28.246  35.496  1.00  0.00    -0.014 A 
ATOM     68  C   UNL A   1      44.119  27.082  36.245  1.00  0.00     0.010 A 
ATOM     69  C   UNL A   1      45.700  28.670  35.321  1.00  0.00     0.010 A 
ATOM     70  C   UNL A   1      45.169  26.382  36.845  1.00  0.00     0.020 A 
ATOM     71  C   UNL A   1      46.758  27.954  35.891  1.00  0.00     0.020 A 
ATOM     72  C   UNL A   1      46.484  26.824  36.664  1.00  0.00     0.054 A 
BRANCH  72  73
ATOM     73  S   UNL A   1      47.829  25.883  37.435  1.00  0.00     0.124 S 
ATOM     74  O   UNL A   1      48.156  26.714  38.590  1.00  0.00    -0.237 OA
ATOM     75  O   UNL A   1      47.190  24.605  37.741  1.00  0.00    -0.237 OA
ATOM     76  O   UNL A   1      48.855  25.829  36.396  1.00  0.00    -0.744 OA
ENDBRANCH  72  73
ENDBRANCH  53  67
BRANCH  54  77
ATOM     77  C   UNL A   1      36.803  32.917  30.935  1.00  0.00    -0.014 A 
ATOM     78  C   UNL A   1      37.030  33.837  29.895  1.00  0.00     0.010 A 
ATOM     79  C   UNL A   1      35.480  32.656  31.337  1.00  0.00     0.010 A 
ATOM     80  C   UNL A   1      35.959  34.500  29.288  1.00  0.00     0.020 A 
ATOM     81  C   UNL A   1      34.405  33.293  30.710  1.00  0.00     0.020 A 
ATOM     82  C   UNL A   1      34.652  34.221  29.697  1.00  0.00     0.054 A 
BRANCH  82  83
ATOM     83  S   UNL A   1      33.276  35.060  28.864  1.00  0.00     0.124 S 
ATOM     84  O   UNL A   1      32.490  35.549  29.992  1.00  0.00    -0.237 OA
ATOM     85  O   UNL A   1      33.963  36.082  28.077  1.00  0.00    -0.237 OA
ATOM     86  O   UNL A   1      32.652  33.996  28.080  1.00  0.00    -0.744 OA
ENDBRANCH  82  83
ENDBRANCH  54  77
BRANCH  66  87
ATOM     87  C   UNL A   1      39.908  33.681  37.138  1.00  0.00    -0.014 A 
ATOM     88  C   UNL A   1      40.415  34.992  37.088  1.00  0.00     0.010 A 
ATOM     89  C   UNL A   1      39.150  33.284  38.256  1.00  0.00     0.010 A 
ATOM     90  C   UNL A   1      40.205  35.872  38.154  1.00  0.00     0.020 A 
ATOM     91  C   UNL A   1      38.910  34.171  39.308  1.00  0.00     0.020 A 
ATOM     92  C   UNL A   1      39.455  35.455  39.258  1.00  0.00     0.054 A 
BRANCH  92  93
ATOM     93  S   UNL A   1      39.174  36.623  40.616  1.00  0.00     0.124 S 
ATOM     94  O   UNL A   1      38.027  36.030  41.296  1.00  0.00    -0.237 OA
ATOM     95  O   UNL A   1      40.436  36.571  41.349  1.00  0.00    -0.237 OA
ATOM     96  O   UNL A   1      38.908  37.889  39.936  1.00  0.00    -0.744 OA
ENDBRANCH  92  93
ENDBRANCH  66  87
ENDBRANCH  40  41
ENDBRANCH  32  35
ENDBRANCH  30  31
ENDBRANCH  29  30
ENDBRANCH  28  29
ENDBRANCH   3  28
TORSDOF 19
ENDMDL
