MODEL 1
REMARK VINA RESULT:     -13.7      0.000      0.000
REMARK SMILES C[C@@H]1CCCN(C(=O)CSc2nnc3c4ccccc4n(CC(=O)NCCCNC(=O)c4ccc(-c5c6nc(c(-c7ccc(S(=O)(=O)[O-])cc7)c7ccc([nH]7)c(-c7ccc(S(=O)(=O)[O-])cc7)c7nc(c(-c8ccc(S(=O)(=O)[O-])cc8)c8ccc5[nH]8)C=C7)C=C6)cc4)c3n2)C1
REMARK SMILES IDX 26 1 25 2 23 3 24 4 22 6 21 7 11 8 12 9 93 10 13 11 92 12
REMARK SMILES IDX 14 13 15 14 20 15 16 16 19 17 17 18 18 19 10 20 9 21 7 22
REMARK SMILES IDX 8 23 6 24 1 25 2 26 3 27 94 28 4 29 5 30 27 31 28 32 29 33
REMARK SMILES IDX 30 34 31 36 32 37 33 38 91 39 34 40 90 41 35 42 36 43 37 44
REMARK SMILES IDX 84 45 38 46 89 47 83 48 85 49 39 50 88 51 82 52 81 53 40 55
REMARK SMILES IDX 70 56 51 57 69 58 52 59 55 60 68 61 86 62 53 63 54 64 67 66
REMARK SMILES IDX 87 67 56 68 41 69 42 70 50 71 43 72 49 73 44 74 45 75 46 76
REMARK SMILES IDX 47 77 48 78 71 79 72 80 80 81 73 82 79 83 74 84 75 85 76 86
REMARK SMILES IDX 77 87 78 88 57 89 58 90 66 91 59 92 65 93 60 94 61 95 62 96
REMARK SMILES IDX 63 97 64 98
REMARK H PARENT 25 5 29 35 85 54 55 65
REMARK Flexibility Score: inf
ROOT
ATOM      1  C   UNL A   1      36.220  23.269  24.136  1.00  0.00     0.117 C 
ENDROOT
BRANCH   1   2
ATOM      2  N   UNL A   1      35.184  23.087  23.130  1.00  0.00    -0.354 N 
ATOM      3  C   UNL A   1      34.176  23.920  22.746  1.00  0.00     0.240 C 
ATOM      4  O   UNL A   1      33.428  23.535  21.841  1.00  0.00    -0.273 OA
ATOM      5  H   UNL A   1      35.217  22.227  22.651  1.00  0.00     0.163 HD
BRANCH   3   6
ATOM      6  C   UNL A   1      34.008  25.293  23.361  1.00  0.00     0.224 C 
BRANCH   6   7
ATOM      7  N   UNL A   1      32.747  25.466  24.060  1.00  0.00    -0.314 N 
ATOM      8  C   UNL A   1      32.485  23.300  26.852  1.00  0.00     0.211 A 
ATOM      9  N   UNL A   1      31.219  23.605  27.232  1.00  0.00    -0.122 NA
ATOM     10  N   UNL A   1      33.168  23.868  25.832  1.00  0.00    -0.201 NA
ATOM     11  N   UNL A   1      30.515  24.545  26.597  1.00  0.00    -0.144 NA
ATOM     12  C   UNL A   1      32.413  24.782  25.199  1.00  0.00     0.165 A 
ATOM     13  C   UNL A   1      31.120  25.131  25.538  1.00  0.00     0.138 A 
ATOM     14  C   UNL A   1      30.658  26.075  24.587  1.00  0.00     0.030 A 
ATOM     15  C   UNL A   1      31.702  26.290  23.676  1.00  0.00     0.053 A 
ATOM     16  C   UNL A   1      29.434  26.750  24.398  1.00  0.00     0.013 A 
ATOM     17  C   UNL A   1      31.570  27.180  22.598  1.00  0.00     0.027 A 
ATOM     18  C   UNL A   1      29.290  27.621  23.314  1.00  0.00     0.001 A 
ATOM     19  C   UNL A   1      30.345  27.835  22.432  1.00  0.00     0.002 A 
BRANCH   8  20
ATOM     20  S   UNL A   1      33.252  21.855  27.540  1.00  0.00    -0.074 SA
BRANCH  20  21
ATOM     21  C   UNL A   1      33.895  21.101  26.015  1.00  0.00     0.178 C 
BRANCH  21  22
ATOM     22  C   UNL A   1      32.922  20.070  25.450  1.00  0.00     0.233 C 
ATOM     23  O   UNL A   1      31.744  20.384  25.240  1.00  0.00    -0.274 OA
BRANCH  22  24
ATOM     24  N   UNL A   1      33.371  18.778  25.165  1.00  0.00    -0.342 N 
ATOM     25  C   UNL A   1      32.022  15.294  25.973  1.00  0.00     0.009 C 
ATOM     26  C   UNL A   1      32.556  16.439  25.116  1.00  0.00     0.005 C 
ATOM     27  C   UNL A   1      33.823  16.023  24.363  1.00  0.00     0.007 C 
ATOM     28  C   UNL A   1      32.840  17.679  25.971  1.00  0.00     0.122 C 
ATOM     29  C   UNL A   1      34.337  17.182  23.515  1.00  0.00     0.022 C 
ATOM     30  C   UNL A   1      34.531  18.456  24.333  1.00  0.00     0.119 C 
ENDBRANCH  22  24
ENDBRANCH  21  22
ENDBRANCH  20  21
ENDBRANCH   8  20
ENDBRANCH   6   7
ENDBRANCH   3   6
ENDBRANCH   1   2
BRANCH   1  31
ATOM     31  C   UNL A   1      37.119  22.039  24.280  1.00  0.00     0.042 C 
BRANCH  31  32
ATOM     32  C   UNL A   1      37.747  21.891  25.668  1.00  0.00     0.118 C 
BRANCH  32  33
ATOM     33  N   UNL A   1      39.172  21.626  25.654  1.00  0.00    -0.352 N 
ATOM     34  C   UNL A   1      40.272  22.187  26.240  1.00  0.00     0.251 C 
ATOM     35  H   UNL A   1      39.404  20.857  25.085  1.00  0.00     0.163 HD
ATOM     36  O   UNL A   1      41.333  21.577  26.068  1.00  0.00    -0.269 OA
BRANCH  34  37
ATOM     37  C   UNL A   1      40.297  23.471  26.994  1.00  0.00     0.039 A 
ATOM     38  C   UNL A   1      39.412  24.535  26.824  1.00  0.00     0.014 A 
ATOM     39  C   UNL A   1      41.359  23.622  27.910  1.00  0.00     0.014 A 
ATOM     40  C   UNL A   1      39.643  25.750  27.466  1.00  0.00     0.010 A 
ATOM     41  C   UNL A   1      41.583  24.828  28.565  1.00  0.00     0.010 A 
ATOM     42  C   UNL A   1      40.755  25.912  28.297  1.00  0.00    -0.014 A 
BRANCH  42  43
ATOM     43  C   UNL A   1      40.978  27.225  28.896  1.00  0.00     0.031 A 
ATOM     44  C   UNL A   1      42.152  27.986  28.381  1.00  0.00     0.074 A 
ATOM     45  C   UNL A   1      40.148  27.784  29.801  1.00  0.00     0.049 A 
ATOM     46  N   UNL A   1      43.196  28.388  29.030  1.00  0.00    -0.248 NA
ATOM     47  C   UNL A   1      42.202  28.263  26.937  1.00  0.00     0.031 C 
ATOM     48  C   UNL A   1      38.815  27.339  30.215  1.00  0.00     0.029 A 
ATOM     49  N   UNL A   1      40.304  28.955  30.479  1.00  0.00    -0.354 N 
ATOM     50  C   UNL A   1      43.978  29.096  28.118  1.00  0.00     0.074 A 
ATOM     51  C   UNL A   1      43.370  28.897  26.826  1.00  0.00     0.031 C 
ATOM     52  C   UNL A   1      38.196  28.343  30.879  1.00  0.00     0.029 A 
ATOM     53  C   UNL A   1      39.143  29.428  31.076  1.00  0.00     0.049 A 
ATOM     54  H   UNL A   1      41.166  29.427  30.541  1.00  0.00     0.167 HD
ATOM     55  C   UNL A   1      44.998  29.915  28.500  1.00  0.00     0.031 A 
ATOM     56  C   UNL A   1      38.960  30.652  31.630  1.00  0.00     0.031 A 
ATOM     57  C   UNL A   1      45.415  29.665  29.853  1.00  0.00     0.049 A 
ATOM     58  C   UNL A   1      40.301  31.189  31.967  1.00  0.00     0.074 A 
ATOM     59  C   UNL A   1      45.983  28.588  30.504  1.00  0.00     0.029 A 
ATOM     60  N   UNL A   1      44.936  30.490  30.840  1.00  0.00    -0.354 N 
ATOM     61  N   UNL A   1      41.081  30.674  32.875  1.00  0.00    -0.248 NA
ATOM     62  C   UNL A   1      40.953  32.055  30.998  1.00  0.00     0.031 C 
ATOM     63  C   UNL A   1      45.381  28.581  31.793  1.00  0.00     0.029 A 
ATOM     64  C   UNL A   1      44.528  29.685  31.874  1.00  0.00     0.049 A 
ATOM     65  H   UNL A   1      44.894  31.474  30.813  1.00  0.00     0.167 HD
ATOM     66  C   UNL A   1      42.362  30.802  32.357  1.00  0.00     0.074 A 
ATOM     67  C   UNL A   1      42.227  31.742  31.247  1.00  0.00     0.031 C 
ATOM     68  C   UNL A   1      43.363  29.938  32.702  1.00  0.00     0.031 A 
BRANCH  55  69
ATOM     69  C   UNL A   1      45.454  31.127  27.727  1.00  0.00    -0.014 A 
ATOM     70  C   UNL A   1      44.713  32.325  27.682  1.00  0.00     0.010 A 
ATOM     71  C   UNL A   1      46.767  31.173  27.213  1.00  0.00     0.010 A 
ATOM     72  C   UNL A   1      45.235  33.501  27.140  1.00  0.00     0.020 A 
ATOM     73  C   UNL A   1      47.318  32.360  26.705  1.00  0.00     0.020 A 
ATOM     74  C   UNL A   1      46.542  33.517  26.668  1.00  0.00     0.054 A 
BRANCH  74  75
ATOM     75  S   UNL A   1      47.223  35.090  26.087  1.00  0.00     0.124 S 
ATOM     76  O   UNL A   1      46.020  35.913  25.972  1.00  0.00    -0.237 OA
ATOM     77  O   UNL A   1      48.131  35.456  27.174  1.00  0.00    -0.237 OA
ATOM     78  O   UNL A   1      47.867  34.745  24.828  1.00  0.00    -0.744 OA
ENDBRANCH  74  75
ENDBRANCH  55  69
BRANCH  56  79
ATOM     79  C   UNL A   1      37.785  31.541  31.428  1.00  0.00    -0.014 A 
ATOM     80  C   UNL A   1      37.983  32.892  31.077  1.00  0.00     0.010 A 
ATOM     81  C   UNL A   1      36.510  31.160  31.891  1.00  0.00     0.010 A 
ATOM     82  C   UNL A   1      36.977  33.846  31.262  1.00  0.00     0.020 A 
ATOM     83  C   UNL A   1      35.496  32.115  32.081  1.00  0.00     0.020 A 
ATOM     84  C   UNL A   1      35.752  33.458  31.801  1.00  0.00     0.054 A 
BRANCH  84  85
ATOM     85  S   UNL A   1      34.551  34.756  32.215  1.00  0.00     0.124 S 
ATOM     86  O   UNL A   1      34.178  35.256  30.895  1.00  0.00    -0.237 OA
ATOM     87  O   UNL A   1      33.512  34.009  32.920  1.00  0.00    -0.237 OA
ATOM     88  O   UNL A   1      35.316  35.685  33.043  1.00  0.00    -0.744 OA
ENDBRANCH  84  85
ENDBRANCH  56  79
BRANCH  68  89
ATOM     89  C   UNL A   1      43.147  28.973  33.851  1.00  0.00    -0.014 A 
ATOM     90  C   UNL A   1      42.694  27.677  33.541  1.00  0.00     0.010 A 
ATOM     91  C   UNL A   1      43.171  29.361  35.206  1.00  0.00     0.010 A 
ATOM     92  C   UNL A   1      42.245  26.809  34.540  1.00  0.00     0.020 A 
ATOM     93  C   UNL A   1      42.746  28.484  36.219  1.00  0.00     0.020 A 
ATOM     94  C   UNL A   1      42.263  27.220  35.875  1.00  0.00     0.054 A 
BRANCH  94  95
ATOM     95  S   UNL A   1      41.614  26.083  37.131  1.00  0.00     0.124 S 
ATOM     96  O   UNL A   1      42.705  26.032  38.099  1.00  0.00    -0.237 OA
ATOM     97  O   UNL A   1      40.406  26.766  37.588  1.00  0.00    -0.237 OA
ATOM     98  O   UNL A   1      41.376  24.834  36.404  1.00  0.00    -0.744 OA
ENDBRANCH  94  95
ENDBRANCH  68  89
ENDBRANCH  42  43
ENDBRANCH  34  37
ENDBRANCH  32  33
ENDBRANCH  31  32
ENDBRANCH   1  31
TORSDOF 18
ENDMDL
MODEL 2
REMARK VINA RESULT:     -13.6      2.293      5.155
REMARK SMILES C[C@@H]1CCCN(C(=O)CSc2nnc3c4ccccc4n(CC(=O)NCCCNC(=O)c4ccc(-c5c6nc(c(-c7ccc(S(=O)(=O)[O-])cc7)c7ccc([nH]7)c(-c7ccc(S(=O)(=O)[O-])cc7)c7nc(c(-c8ccc(S(=O)(=O)[O-])cc8)c8ccc5[nH]8)C=C7)C=C6)cc4)c3n2)C1
REMARK SMILES IDX 26 1 25 2 23 3 24 4 22 6 21 7 11 8 12 9 93 10 13 11 92 12
REMARK SMILES IDX 14 13 15 14 20 15 16 16 19 17 17 18 18 19 10 20 9 21 7 22
REMARK SMILES IDX 8 23 6 24 1 25 2 26 3 27 94 28 4 29 5 30 27 31 28 32 29 33
REMARK SMILES IDX 30 34 31 36 32 37 33 38 91 39 34 40 90 41 35 42 36 43 37 44
REMARK SMILES IDX 84 45 38 46 89 47 83 48 85 49 39 50 88 51 82 52 81 53 40 55
REMARK SMILES IDX 70 56 51 57 69 58 52 59 55 60 68 61 86 62 53 63 54 64 67 66
REMARK SMILES IDX 87 67 56 68 41 69 42 70 50 71 43 72 49 73 44 74 45 75 46 76
REMARK SMILES IDX 47 77 48 78 71 79 72 80 80 81 73 82 79 83 74 84 75 85 76 86
REMARK SMILES IDX 77 87 78 88 57 89 58 90 66 91 59 92 65 93 60 94 61 95 62 96
REMARK SMILES IDX 63 97 64 98
REMARK H PARENT 25 5 29 35 85 54 55 65
REMARK Flexibility Score: inf
ROOT
ATOM      1  C   UNL A   1      38.857  22.572  26.292  1.00  0.00     0.117 C 
ENDROOT
BRANCH   1   2
ATOM      2  N   UNL A   1      38.178  22.550  25.004  1.00  0.00    -0.354 N 
ATOM      3  C   UNL A   1      37.011  21.950  24.637  1.00  0.00     0.240 C 
ATOM      4  O   UNL A   1      36.632  22.098  23.470  1.00  0.00    -0.273 OA
ATOM      5  H   UNL A   1      38.632  23.047  24.287  1.00  0.00     0.163 HD
BRANCH   3   6
ATOM      6  C   UNL A   1      36.173  21.175  25.632  1.00  0.00     0.224 C 
BRANCH   6   7
ATOM      7  N   UNL A   1      34.880  20.768  25.110  1.00  0.00    -0.314 N 
ATOM      8  C   UNL A   1      32.506  23.393  25.291  1.00  0.00     0.211 A 
ATOM      9  N   UNL A   1      31.418  22.719  24.845  1.00  0.00    -0.122 NA
ATOM     10  N   UNL A   1      33.760  22.898  25.399  1.00  0.00    -0.201 NA
ATOM     11  N   UNL A   1      31.508  21.447  24.449  1.00  0.00    -0.144 NA
ATOM     12  C   UNL A   1      33.800  21.608  25.025  1.00  0.00     0.165 A 
ATOM     13  C   UNL A   1      32.726  20.870  24.565  1.00  0.00     0.138 A 
ATOM     14  C   UNL A   1      33.170  19.542  24.343  1.00  0.00     0.030 A 
ATOM     15  C   UNL A   1      34.533  19.501  24.672  1.00  0.00     0.053 A 
ATOM     16  C   UNL A   1      32.533  18.359  23.918  1.00  0.00     0.013 A 
ATOM     17  C   UNL A   1      35.284  18.320  24.562  1.00  0.00     0.027 A 
ATOM     18  C   UNL A   1      33.270  17.175  23.827  1.00  0.00     0.001 A 
ATOM     19  C   UNL A   1      34.626  17.160  24.140  1.00  0.00     0.002 A 
BRANCH   8  20
ATOM     20  S   UNL A   1      32.266  24.970  26.069  1.00  0.00    -0.074 SA
BRANCH  20  21
ATOM     21  C   UNL A   1      32.420  26.051  24.615  1.00  0.00     0.178 C 
BRANCH  21  22
ATOM     22  C   UNL A   1      31.683  27.370  24.820  1.00  0.00     0.233 C 
ATOM     23  O   UNL A   1      30.515  27.492  24.430  1.00  0.00    -0.274 OA
BRANCH  22  24
ATOM     24  N   UNL A   1      32.330  28.434  25.456  1.00  0.00    -0.342 N 
ATOM     25  C   UNL A   1      31.236  31.961  26.439  1.00  0.00     0.009 C 
ATOM     26  C   UNL A   1      31.821  30.562  26.615  1.00  0.00     0.005 C 
ATOM     27  C   UNL A   1      33.268  30.627  27.114  1.00  0.00     0.007 C 
ATOM     28  C   UNL A   1      31.754  29.770  25.305  1.00  0.00     0.122 C 
ATOM     29  C   UNL A   1      33.830  29.219  27.282  1.00  0.00     0.022 C 
ATOM     30  C   UNL A   1      33.681  28.381  26.015  1.00  0.00     0.119 C 
ENDBRANCH  22  24
ENDBRANCH  21  22
ENDBRANCH  20  21
ENDBRANCH   8  20
ENDBRANCH   6   7
ENDBRANCH   3   6
ENDBRANCH   1   2
BRANCH   1  31
ATOM     31  C   UNL A   1      39.928  21.485  26.408  1.00  0.00     0.042 C 
BRANCH  31  32
ATOM     32  C   UNL A   1      41.304  22.016  26.818  1.00  0.00     0.118 C 
BRANCH  32  33
ATOM     33  N   UNL A   1      42.118  22.481  25.712  1.00  0.00    -0.352 N 
ATOM     34  C   UNL A   1      42.777  23.639  25.409  1.00  0.00     0.251 C 
ATOM     35  H   UNL A   1      42.221  21.798  25.010  1.00  0.00     0.163 HD
ATOM     36  O   UNL A   1      43.480  23.599  24.394  1.00  0.00    -0.269 OA
BRANCH  34  37
ATOM     37  C   UNL A   1      42.665  24.925  26.153  1.00  0.00     0.039 A 
ATOM     38  C   UNL A   1      43.297  25.228  27.357  1.00  0.00     0.014 A 
ATOM     39  C   UNL A   1      41.785  25.878  25.599  1.00  0.00     0.014 A 
ATOM     40  C   UNL A   1      42.978  26.399  28.043  1.00  0.00     0.010 A 
ATOM     41  C   UNL A   1      41.476  27.055  26.272  1.00  0.00     0.010 A 
ATOM     42  C   UNL A   1      42.032  27.288  27.524  1.00  0.00    -0.014 A 
BRANCH  42  43
ATOM     43  C   UNL A   1      41.695  28.468  28.316  1.00  0.00     0.031 A 
ATOM     44  C   UNL A   1      42.710  29.560  28.325  1.00  0.00     0.074 A 
ATOM     45  C   UNL A   1      40.513  28.632  28.945  1.00  0.00     0.049 A 
ATOM     46  N   UNL A   1      43.360  30.043  29.333  1.00  0.00    -0.248 NA
ATOM     47  C   UNL A   1      43.108  30.128  27.028  1.00  0.00     0.031 C 
ATOM     48  C   UNL A   1      39.294  27.828  28.824  1.00  0.00     0.029 A 
ATOM     49  N   UNL A   1      40.129  29.646  29.770  1.00  0.00    -0.354 N 
ATOM     50  C   UNL A   1      44.150  31.078  28.833  1.00  0.00     0.074 A 
ATOM     51  C   UNL A   1      44.033  31.015  27.397  1.00  0.00     0.031 C 
ATOM     52  C   UNL A   1      38.253  28.512  29.354  1.00  0.00     0.029 A 
ATOM     53  C   UNL A   1      38.760  29.717  29.989  1.00  0.00     0.049 A 
ATOM     54  H   UNL A   1      40.768  30.275  30.177  1.00  0.00     0.167 HD
ATOM     55  C   UNL A   1      44.742  32.008  29.634  1.00  0.00     0.031 A 
ATOM     56  C   UNL A   1      38.090  30.731  30.591  1.00  0.00     0.031 A 
ATOM     57  C   UNL A   1      44.790  31.587  31.008  1.00  0.00     0.049 A 
ATOM     58  C   UNL A   1      39.066  31.473  31.424  1.00  0.00     0.074 A 
ATOM     59  C   UNL A   1      45.413  30.554  31.679  1.00  0.00     0.029 A 
ATOM     60  N   UNL A   1      43.830  32.067  31.865  1.00  0.00    -0.354 N 
ATOM     61  N   UNL A   1      39.652  30.971  32.475  1.00  0.00    -0.248 NA
ATOM     62  C   UNL A   1      39.710  32.641  30.846  1.00  0.00     0.031 C 
ATOM     63  C   UNL A   1      44.481  30.152  32.676  1.00  0.00     0.029 A 
ATOM     64  C   UNL A   1      43.373  30.998  32.594  1.00  0.00     0.049 A 
ATOM     65  H   UNL A   1      43.528  33.001  31.942  1.00  0.00     0.167 HD
ATOM     66  C   UNL A   1      40.940  31.483  32.442  1.00  0.00     0.074 A 
ATOM     67  C   UNL A   1      40.887  32.575  31.473  1.00  0.00     0.031 C 
ATOM     68  C   UNL A   1      41.992  30.812  33.001  1.00  0.00     0.031 A 
BRANCH  55  69
ATOM     69  C   UNL A   1      45.053  33.422  29.212  1.00  0.00    -0.014 A 
ATOM     70  C   UNL A   1      46.309  33.803  28.696  1.00  0.00     0.010 A 
ATOM     71  C   UNL A   1      44.009  34.363  29.103  1.00  0.00     0.010 A 
ATOM     72  C   UNL A   1      46.525  35.057  28.119  1.00  0.00     0.020 A 
ATOM     73  C   UNL A   1      44.203  35.609  28.486  1.00  0.00     0.020 A 
ATOM     74  C   UNL A   1      45.465  35.949  28.003  1.00  0.00     0.054 A 
BRANCH  74  75
ATOM     75  S   UNL A   1      45.755  37.513  27.138  1.00  0.00     0.124 S 
ATOM     76  O   UNL A   1      44.391  37.932  26.814  1.00  0.00    -0.237 OA
ATOM     77  O   UNL A   1      46.430  38.312  28.160  1.00  0.00    -0.237 OA
ATOM     78  O   UNL A   1      46.578  37.132  26.000  1.00  0.00    -0.744 OA
ENDBRANCH  74  75
ENDBRANCH  55  69
BRANCH  56  79
ATOM     79  C   UNL A   1      36.830  31.358  30.109  1.00  0.00    -0.014 A 
ATOM     80  C   UNL A   1      36.791  31.956  28.833  1.00  0.00     0.010 A 
ATOM     81  C   UNL A   1      35.789  31.658  31.009  1.00  0.00     0.010 A 
ATOM     82  C   UNL A   1      35.800  32.883  28.494  1.00  0.00     0.020 A 
ATOM     83  C   UNL A   1      34.791  32.590  30.676  1.00  0.00     0.020 A 
ATOM     84  C   UNL A   1      34.829  33.225  29.433  1.00  0.00     0.054 A 
BRANCH  84  85
ATOM     85  S   UNL A   1      33.688  34.579  29.029  1.00  0.00     0.124 S 
ATOM     86  O   UNL A   1      32.813  33.954  28.041  1.00  0.00    -0.237 OA
ATOM     87  O   UNL A   1      33.070  34.866  30.321  1.00  0.00    -0.237 OA
ATOM     88  O   UNL A   1      34.564  35.629  28.513  1.00  0.00    -0.744 OA
ENDBRANCH  84  85
ENDBRANCH  56  79
BRANCH  68  89
ATOM     89  C   UNL A   1      41.719  29.610  33.884  1.00  0.00    -0.014 A 
ATOM     90  C   UNL A   1      41.623  29.826  35.271  1.00  0.00     0.010 A 
ATOM     91  C   UNL A   1      41.766  28.279  33.420  1.00  0.00     0.010 A 
ATOM     92  C   UNL A   1      41.613  28.757  36.171  1.00  0.00     0.020 A 
ATOM     93  C   UNL A   1      41.729  27.198  34.318  1.00  0.00     0.020 A 
ATOM     94  C   UNL A   1      41.676  27.446  35.691  1.00  0.00     0.054 A 
BRANCH  94  95
ATOM     95  S   UNL A   1      41.721  26.092  36.898  1.00  0.00     0.124 S 
ATOM     96  O   UNL A   1      41.921  24.923  36.048  1.00  0.00    -0.237 OA
ATOM     97  O   UNL A   1      42.858  26.452  37.742  1.00  0.00    -0.237 OA
ATOM     98  O   UNL A   1      40.418  26.154  37.563  1.00  0.00    -0.744 OA
ENDBRANCH  94  95
ENDBRANCH  68  89
ENDBRANCH  42  43
ENDBRANCH  34  37
ENDBRANCH  32  33
ENDBRANCH  31  32
ENDBRANCH   1  31
TORSDOF 18
ENDMDL
MODEL 3
REMARK VINA RESULT:     -13.3      3.079      9.972
REMARK SMILES C[C@@H]1CCCN(C(=O)CSc2nnc3c4ccccc4n(CC(=O)NCCCNC(=O)c4ccc(-c5c6nc(c(-c7ccc(S(=O)(=O)[O-])cc7)c7ccc([nH]7)c(-c7ccc(S(=O)(=O)[O-])cc7)c7nc(c(-c8ccc(S(=O)(=O)[O-])cc8)c8ccc5[nH]8)C=C7)C=C6)cc4)c3n2)C1
REMARK SMILES IDX 26 1 25 2 23 3 24 4 22 6 21 7 11 8 12 9 93 10 13 11 92 12
REMARK SMILES IDX 14 13 15 14 20 15 16 16 19 17 17 18 18 19 10 20 9 21 7 22
REMARK SMILES IDX 8 23 6 24 1 25 2 26 3 27 94 28 4 29 5 30 27 31 28 32 29 33
REMARK SMILES IDX 30 34 31 36 32 37 33 38 91 39 34 40 90 41 35 42 36 43 37 44
REMARK SMILES IDX 84 45 38 46 89 47 83 48 85 49 39 50 88 51 82 52 81 53 40 55
REMARK SMILES IDX 70 56 51 57 69 58 52 59 55 60 68 61 86 62 53 63 54 64 67 66
REMARK SMILES IDX 87 67 56 68 41 69 42 70 50 71 43 72 49 73 44 74 45 75 46 76
REMARK SMILES IDX 47 77 48 78 71 79 72 80 80 81 73 82 79 83 74 84 75 85 76 86
REMARK SMILES IDX 77 87 78 88 57 89 58 90 66 91 59 92 65 93 60 94 61 95 62 96
REMARK SMILES IDX 63 97 64 98
REMARK H PARENT 25 5 29 35 85 54 55 65
REMARK Flexibility Score: inf
ROOT
ATOM      1  C   UNL A   1      31.944  27.792  26.264  1.00  0.00     0.117 C 
ENDROOT
BRANCH   1   2
ATOM      2  N   UNL A   1      31.304  26.572  26.735  1.00  0.00    -0.354 N 
ATOM      3  C   UNL A   1      31.749  25.284  26.719  1.00  0.00     0.240 C 
ATOM      4  O   UNL A   1      31.013  24.418  27.204  1.00  0.00    -0.273 OA
ATOM      5  H   UNL A   1      30.409  26.698  27.126  1.00  0.00     0.163 HD
BRANCH   3   6
ATOM      6  C   UNL A   1      33.118  24.928  26.183  1.00  0.00     0.224 C 
BRANCH   6   7
ATOM      7  N   UNL A   1      33.085  24.313  24.867  1.00  0.00    -0.314 N 
ATOM      8  C   UNL A   1      33.482  26.712  22.288  1.00  0.00     0.211 A 
ATOM      9  N   UNL A   1      33.318  25.895  21.218  1.00  0.00    -0.122 NA
ATOM     10  N   UNL A   1      33.478  26.333  23.587  1.00  0.00    -0.201 NA
ATOM     11  N   UNL A   1      33.137  24.580  21.375  1.00  0.00    -0.144 NA
ATOM     12  C   UNL A   1      33.259  25.012  23.701  1.00  0.00     0.165 A 
ATOM     13  C   UNL A   1      33.082  24.132  22.650  1.00  0.00     0.138 A 
ATOM     14  C   UNL A   1      32.812  22.851  23.193  1.00  0.00     0.030 A 
ATOM     15  C   UNL A   1      32.838  22.979  24.589  1.00  0.00     0.053 A 
ATOM     16  C   UNL A   1      32.520  21.594  22.626  1.00  0.00     0.013 A 
ATOM     17  C   UNL A   1      32.608  21.883  25.436  1.00  0.00     0.027 A 
ATOM     18  C   UNL A   1      32.268  20.503  23.464  1.00  0.00     0.001 A 
ATOM     19  C   UNL A   1      32.317  20.648  24.847  1.00  0.00     0.002 A 
BRANCH   8  20
ATOM     20  S   UNL A   1      33.424  28.467  22.031  1.00  0.00    -0.074 SA
BRANCH  20  21
ATOM     21  C   UNL A   1      32.097  28.899  23.198  1.00  0.00     0.178 C 
BRANCH  21  22
ATOM     22  C   UNL A   1      30.730  28.872  22.522  1.00  0.00     0.233 C 
ATOM     23  O   UNL A   1      30.357  27.856  21.924  1.00  0.00    -0.274 OA
BRANCH  22  24
ATOM     24  N   UNL A   1      29.902  29.997  22.590  1.00  0.00    -0.342 N 
ATOM     25  C   UNL A   1      27.834  31.892  19.994  1.00  0.00     0.009 C 
ATOM     26  C   UNL A   1      28.134  31.149  21.293  1.00  0.00     0.005 C 
ATOM     27  C   UNL A   1      27.818  32.018  22.513  1.00  0.00     0.007 C 
ATOM     28  C   UNL A   1      29.597  30.694  21.340  1.00  0.00     0.122 C 
ATOM     29  C   UNL A   1      28.126  31.255  23.798  1.00  0.00     0.022 C 
ATOM     30  C   UNL A   1      29.550  30.708  23.819  1.00  0.00     0.119 C 
ENDBRANCH  22  24
ENDBRANCH  21  22
ENDBRANCH  20  21
ENDBRANCH   8  20
ENDBRANCH   6   7
ENDBRANCH   3   6
ENDBRANCH   1   2
BRANCH   1  31
ATOM     31  C   UNL A   1      32.592  28.588  27.400  1.00  0.00     0.042 C 
BRANCH  31  32
ATOM     32  C   UNL A   1      33.402  29.796  26.923  1.00  0.00     0.118 C 
BRANCH  32  33
ATOM     33  N   UNL A   1      33.657  30.786  27.951  1.00  0.00    -0.352 N 
ATOM     34  C   UNL A   1      34.768  31.260  28.591  1.00  0.00     0.251 C 
ATOM     35  H   UNL A   1      32.832  31.222  28.264  1.00  0.00     0.163 HD
ATOM     36  O   UNL A   1      34.577  32.221  29.344  1.00  0.00    -0.269 OA
BRANCH  34  37
ATOM     37  C   UNL A   1      36.138  30.684  28.499  1.00  0.00     0.039 A 
ATOM     38  C   UNL A   1      36.462  29.425  27.997  1.00  0.00     0.014 A 
ATOM     39  C   UNL A   1      37.174  31.480  29.032  1.00  0.00     0.014 A 
ATOM     40  C   UNL A   1      37.759  28.930  28.123  1.00  0.00     0.010 A 
ATOM     41  C   UNL A   1      38.473  30.996  29.145  1.00  0.00     0.010 A 
ATOM     42  C   UNL A   1      38.752  29.696  28.740  1.00  0.00    -0.014 A 
BRANCH  42  43
ATOM     43  C   UNL A   1      40.077  29.102  28.897  1.00  0.00     0.031 A 
ATOM     44  C   UNL A   1      40.528  28.873  30.299  1.00  0.00     0.074 A 
ATOM     45  C   UNL A   1      40.841  28.696  27.861  1.00  0.00     0.049 A 
ATOM     46  N   UNL A   1      41.550  29.380  30.907  1.00  0.00    -0.248 NA
ATOM     47  C   UNL A   1      39.680  28.030  31.156  1.00  0.00     0.031 C 
ATOM     48  C   UNL A   1      40.471  28.566  26.449  1.00  0.00     0.029 A 
ATOM     49  N   UNL A   1      42.113  28.212  27.890  1.00  0.00    -0.354 N 
ATOM     50  C   UNL A   1      41.570  28.818  32.182  1.00  0.00     0.074 A 
ATOM     51  C   UNL A   1      40.339  28.078  32.314  1.00  0.00     0.031 C 
ATOM     52  C   UNL A   1      41.404  27.822  25.811  1.00  0.00     0.029 A 
ATOM     53  C   UNL A   1      42.505  27.568  26.724  1.00  0.00     0.049 A 
ATOM     54  H   UNL A   1      42.706  28.309  28.670  1.00  0.00     0.167 HD
ATOM     55  C   UNL A   1      42.657  28.881  33.001  1.00  0.00     0.031 A 
ATOM     56  C   UNL A   1      43.625  26.822  26.550  1.00  0.00     0.031 A 
ATOM     57  C   UNL A   1      43.592  29.890  32.582  1.00  0.00     0.049 A 
ATOM     58  C   UNL A   1      44.594  27.231  27.595  1.00  0.00     0.074 A 
ATOM     59  C   UNL A   1      43.543  31.265  32.474  1.00  0.00     0.029 A 
ATOM     60  N   UNL A   1      44.685  29.495  31.850  1.00  0.00    -0.354 N 
ATOM     61  N   UNL A   1      45.147  28.410  27.650  1.00  0.00    -0.248 NA
ATOM     62  C   UNL A   1      44.635  26.461  28.828  1.00  0.00     0.031 C 
ATOM     63  C   UNL A   1      44.291  31.567  31.302  1.00  0.00     0.029 A 
ATOM     64  C   UNL A   1      44.800  30.367  30.798  1.00  0.00     0.049 A 
ATOM     65  H   UNL A   1      45.274  28.730  32.045  1.00  0.00     0.167 HD
ATOM     66  C   UNL A   1      45.227  28.702  29.004  1.00  0.00     0.074 A 
ATOM     67  C   UNL A   1      44.984  27.429  29.679  1.00  0.00     0.031 C 
ATOM     68  C   UNL A   1      45.218  29.990  29.460  1.00  0.00     0.031 A 
BRANCH  55  69
ATOM     69  C   UNL A   1      43.000  27.849  34.045  1.00  0.00    -0.014 A 
ATOM     70  C   UNL A   1      43.284  26.506  33.725  1.00  0.00     0.010 A 
ATOM     71  C   UNL A   1      43.279  28.259  35.366  1.00  0.00     0.010 A 
ATOM     72  C   UNL A   1      43.797  25.610  34.665  1.00  0.00     0.020 A 
ATOM     73  C   UNL A   1      43.836  27.379  36.308  1.00  0.00     0.020 A 
ATOM     74  C   UNL A   1      44.086  26.056  35.949  1.00  0.00     0.054 A 
BRANCH  74  75
ATOM     75  S   UNL A   1      44.866  24.898  37.102  1.00  0.00     0.124 S 
ATOM     76  O   UNL A   1      44.690  23.622  36.409  1.00  0.00    -0.237 OA
ATOM     77  O   UNL A   1      46.240  25.395  37.160  1.00  0.00    -0.237 OA
ATOM     78  O   UNL A   1      44.094  25.056  38.326  1.00  0.00    -0.744 OA
ENDBRANCH  74  75
ENDBRANCH  55  69
BRANCH  56  79
ATOM     79  C   UNL A   1      43.701  25.496  25.882  1.00  0.00    -0.014 A 
ATOM     80  C   UNL A   1      42.864  24.447  26.313  1.00  0.00     0.010 A 
ATOM     81  C   UNL A   1      44.800  25.168  25.063  1.00  0.00     0.010 A 
ATOM     82  C   UNL A   1      43.158  23.112  26.013  1.00  0.00     0.020 A 
ATOM     83  C   UNL A   1      45.101  23.829  24.759  1.00  0.00     0.020 A 
ATOM     84  C   UNL A   1      44.297  22.809  25.271  1.00  0.00     0.054 A 
BRANCH  84  85
ATOM     85  S   UNL A   1      44.752  21.061  25.080  1.00  0.00     0.124 S 
ATOM     86  O   UNL A   1      43.721  20.391  25.866  1.00  0.00    -0.237 OA
ATOM     87  O   UNL A   1      44.662  20.869  23.634  1.00  0.00    -0.237 OA
ATOM     88  O   UNL A   1      46.104  20.992  25.631  1.00  0.00    -0.744 OA
ENDBRANCH  84  85
ENDBRANCH  56  79
BRANCH  68  89
ATOM     89  C   UNL A   1      45.371  31.129  28.469  1.00  0.00    -0.014 A 
ATOM     90  C   UNL A   1      46.628  31.756  28.384  1.00  0.00     0.010 A 
ATOM     91  C   UNL A   1      44.284  31.721  27.794  1.00  0.00     0.010 A 
ATOM     92  C   UNL A   1      46.792  32.953  27.681  1.00  0.00     0.020 A 
ATOM     93  C   UNL A   1      44.448  32.911  27.063  1.00  0.00     0.020 A 
ATOM     94  C   UNL A   1      45.699  33.531  27.032  1.00  0.00     0.054 A 
BRANCH  94  95
ATOM     95  S   UNL A   1      45.945  35.116  26.184  1.00  0.00     0.124 S 
ATOM     96  O   UNL A   1      44.905  35.951  26.775  1.00  0.00    -0.237 OA
ATOM     97  O   UNL A   1      47.314  35.469  26.554  1.00  0.00    -0.237 OA
ATOM     98  O   UNL A   1      45.754  34.804  24.766  1.00  0.00    -0.744 OA
ENDBRANCH  94  95
ENDBRANCH  68  89
ENDBRANCH  42  43
ENDBRANCH  34  37
ENDBRANCH  32  33
ENDBRANCH  31  32
ENDBRANCH   1  31
TORSDOF 18
ENDMDL
