MODEL 1
REMARK VINA RESULT:     -10.9      0.000      0.000
REMARK SMILES Cc1n[nH]c(C)c1S(=O)(=O)N[C@H](C(=O)NCCCNC(=O)c1ccc(-c2c3nc(c(-c4ccc(S(=O)(=O)[O-])cc4)c4ccc([nH]4)c(-c4ccc(S(=O)(=O)[O-])cc4)c4nc(c(-c5ccc(S(=O)(=O)[O-])cc5)c5ccc2[nH]5)C=C4)C=C3)cc1)C(C)C
REMARK SMILES IDX 17 1 16 2 15 3 13 4 14 5 12 7 11 8 8 10 9 11 10 12 7 13 1 14
REMARK SMILES IDX 2 15 3 16 4 17 5 18 6 20 82 21 83 22 84 23 18 24 19 25 20 26
REMARK SMILES IDX 21 28 22 29 23 30 81 31 24 32 80 33 25 34 26 35 27 36 74 37
REMARK SMILES IDX 28 38 79 39 73 40 75 41 29 42 78 43 72 44 71 45 30 47 60 48
REMARK SMILES IDX 41 49 59 50 42 51 45 52 58 53 76 54 43 55 44 56 57 58 77 59
REMARK SMILES IDX 46 60 31 61 32 62 40 63 33 64 39 65 34 66 35 67 36 68 37 69
REMARK SMILES IDX 38 70 61 71 62 72 70 73 63 74 69 75 64 76 65 77 66 78 67 79
REMARK SMILES IDX 68 80 47 81 48 82 56 83 49 84 55 85 50 86 51 87 52 88 53 89
REMARK SMILES IDX 54 90
REMARK H PARENT 15 6 11 9 4 19 19 27 75 46 45 57
REMARK Flexibility Score: inf
ROOT
ATOM      1  C   UNL A   1      35.265  23.656  25.995  1.00  0.00     0.042 C 
ENDROOT
BRANCH   1   2
ATOM      2  C   UNL A   1      33.995  23.732  25.146  1.00  0.00     0.117 C 
BRANCH   2   3
ATOM      3  N   UNL A   1      32.795  23.758  25.967  1.00  0.00    -0.355 N 
ATOM      4  C   UNL A   1      31.982  24.782  26.345  1.00  0.00     0.238 C 
ATOM      5  O   UNL A   1      31.105  24.521  27.179  1.00  0.00    -0.273 OA
ATOM      6  H   UNL A   1      32.522  22.877  26.312  1.00  0.00     0.163 HD
BRANCH   4   7
ATOM      7  C   UNL A   1      32.087  26.212  25.723  1.00  0.00     0.161 C 
BRANCH   7   8
ATOM      8  N   UNL A   1      30.645  26.428  25.409  1.00  0.00    -0.198 NA
ATOM      9  H   UNL A   1      30.147  25.725  25.954  1.00  0.00     0.142 HD
BRANCH   8  10
ATOM     10  S   UNL A   1      29.952  26.381  23.904  1.00  0.00     0.244 S 
ATOM     11  O   UNL A   1      28.526  26.353  24.046  1.00  0.00    -0.207 OA
ATOM     12  O   UNL A   1      30.645  25.342  23.163  1.00  0.00    -0.207 OA
BRANCH  10  13
ATOM     13  C   UNL A   1      30.326  27.816  23.040  1.00  0.00     0.125 A 
ATOM     14  C   UNL A   1      27.943  28.887  22.812  1.00  0.00     0.070 C 
ATOM     15  C   UNL A   1      29.414  28.814  22.622  1.00  0.00     0.079 A 
ATOM     16  N   UNL A   1      30.049  29.798  21.968  1.00  0.00    -0.179 NA
ATOM     17  N   UNL A   1      31.332  29.410  21.943  1.00  0.00    -0.281 N 
ATOM     18  C   UNL A   1      31.563  28.217  22.568  1.00  0.00     0.052 A 
ATOM     19  H   UNL A   1      32.045  29.936  21.512  1.00  0.00     0.190 HD
ATOM     20  C   UNL A   1      32.905  27.597  22.628  1.00  0.00     0.067 C 
ENDBRANCH  10  13
ENDBRANCH   8  10
ENDBRANCH   7   8
BRANCH   7  21
ATOM     21  C   UNL A   1      32.679  27.221  26.734  1.00  0.00     0.010 C 
ATOM     22  C   UNL A   1      33.898  27.955  26.161  1.00  0.00     0.009 C 
ATOM     23  C   UNL A   1      31.673  28.300  27.160  1.00  0.00     0.009 C 
ENDBRANCH   7  21
ENDBRANCH   4   7
ENDBRANCH   2   3
ENDBRANCH   1   2
BRANCH   1  24
ATOM     24  C   UNL A   1      36.561  23.779  25.197  1.00  0.00     0.118 C 
BRANCH  24  25
ATOM     25  N   UNL A   1      37.515  22.740  25.541  1.00  0.00    -0.352 N 
ATOM     26  C   UNL A   1      38.751  22.841  26.138  1.00  0.00     0.251 C 
ATOM     27  H   UNL A   1      37.236  21.824  25.312  1.00  0.00     0.163 HD
ATOM     28  O   UNL A   1      39.502  21.868  26.118  1.00  0.00    -0.269 OA
BRANCH  26  29
ATOM     29  C   UNL A   1      39.193  24.100  26.788  1.00  0.00     0.039 A 
ATOM     30  C   UNL A   1      39.987  24.995  26.061  1.00  0.00     0.014 A 
ATOM     31  C   UNL A   1      38.892  24.379  28.124  1.00  0.00     0.014 A 
ATOM     32  C   UNL A   1      40.438  26.180  26.655  1.00  0.00     0.010 A 
ATOM     33  C   UNL A   1      39.274  25.595  28.689  1.00  0.00     0.010 A 
ATOM     34  C   UNL A   1      40.068  26.503  27.969  1.00  0.00    -0.014 A 
BRANCH  34  35
ATOM     35  C   UNL A   1      40.533  27.751  28.635  1.00  0.00     0.031 A 
ATOM     36  C   UNL A   1      41.915  27.812  29.236  1.00  0.00     0.074 A 
ATOM     37  C   UNL A   1      39.701  28.802  28.773  1.00  0.00     0.049 A 
ATOM     38  N   UNL A   1      42.461  28.751  29.964  1.00  0.00    -0.248 NA
ATOM     39  C   UNL A   1      42.784  26.645  29.010  1.00  0.00     0.031 C 
ATOM     40  C   UNL A   1      38.330  28.873  28.264  1.00  0.00     0.029 A 
ATOM     41  N   UNL A   1      39.884  30.009  29.402  1.00  0.00    -0.354 N 
ATOM     42  C   UNL A   1      43.719  28.273  30.318  1.00  0.00     0.074 A 
ATOM     43  C   UNL A   1      43.838  26.946  29.753  1.00  0.00     0.031 C 
ATOM     44  C   UNL A   1      37.802  30.063  28.591  1.00  0.00     0.029 A 
ATOM     45  C   UNL A   1      38.776  30.824  29.367  1.00  0.00     0.049 A 
ATOM     46  H   UNL A   1      40.729  30.267  29.837  1.00  0.00     0.167 HD
ATOM     47  C   UNL A   1      44.693  28.885  31.034  1.00  0.00     0.031 A 
ATOM     48  C   UNL A   1      38.560  32.039  29.910  1.00  0.00     0.031 A 
ATOM     49  C   UNL A   1      44.587  30.214  31.572  1.00  0.00     0.049 A 
ATOM     50  C   UNL A   1      39.657  32.710  30.689  1.00  0.00     0.074 A 
ATOM     51  C   UNL A   1      45.541  30.943  32.261  1.00  0.00     0.029 A 
ATOM     52  N   UNL A   1      43.460  31.017  31.481  1.00  0.00    -0.354 N 
ATOM     53  N   UNL A   1      40.856  32.261  30.973  1.00  0.00    -0.248 NA
ATOM     54  C   UNL A   1      39.377  34.055  31.211  1.00  0.00     0.031 C 
ATOM     55  C   UNL A   1      44.976  32.171  32.621  1.00  0.00     0.029 A 
ATOM     56  C   UNL A   1      43.688  32.228  32.112  1.00  0.00     0.049 A 
ATOM     57  H   UNL A   1      42.620  30.763  31.033  1.00  0.00     0.167 HD
ATOM     58  C   UNL A   1      41.484  33.279  31.682  1.00  0.00     0.074 A 
ATOM     59  C   UNL A   1      40.535  34.368  31.780  1.00  0.00     0.031 C 
ATOM     60  C   UNL A   1      42.738  33.308  32.197  1.00  0.00     0.031 A 
BRANCH  47  61
ATOM     61  C   UNL A   1      45.956  28.103  31.288  1.00  0.00    -0.014 A 
ATOM     62  C   UNL A   1      46.065  27.229  32.386  1.00  0.00     0.010 A 
ATOM     63  C   UNL A   1      47.051  28.246  30.416  1.00  0.00     0.010 A 
ATOM     64  C   UNL A   1      47.268  26.565  32.644  1.00  0.00     0.020 A 
ATOM     65  C   UNL A   1      48.245  27.559  30.654  1.00  0.00     0.020 A 
ATOM     66  C   UNL A   1      48.355  26.745  31.783  1.00  0.00     0.054 A 
BRANCH  66  67
ATOM     67  S   UNL A   1      49.912  25.891  32.153  1.00  0.00     0.124 S 
ATOM     68  O   UNL A   1      50.845  27.009  32.271  1.00  0.00    -0.237 OA
ATOM     69  O   UNL A   1      49.609  25.193  33.401  1.00  0.00    -0.237 OA
ATOM     70  O   UNL A   1      50.117  25.029  30.993  1.00  0.00    -0.744 OA
ENDBRANCH  66  67
ENDBRANCH  47  61
BRANCH  48  71
ATOM     71  C   UNL A   1      37.244  32.704  29.709  1.00  0.00    -0.014 A 
ATOM     72  C   UNL A   1      36.195  32.492  30.620  1.00  0.00     0.010 A 
ATOM     73  C   UNL A   1      37.053  33.595  28.637  1.00  0.00     0.010 A 
ATOM     74  C   UNL A   1      34.977  33.162  30.465  1.00  0.00     0.020 A 
ATOM     75  C   UNL A   1      35.845  34.283  28.492  1.00  0.00     0.020 A 
ATOM     76  C   UNL A   1      34.813  34.060  29.405  1.00  0.00     0.054 A 
BRANCH  76  77
ATOM     77  S   UNL A   1      33.259  34.988  29.279  1.00  0.00     0.124 S 
ATOM     78  O   UNL A   1      32.776  34.964  30.655  1.00  0.00    -0.237 OA
ATOM     79  O   UNL A   1      33.707  36.289  28.787  1.00  0.00    -0.237 OA
ATOM     80  O   UNL A   1      32.473  34.209  28.323  1.00  0.00    -0.744 OA
ENDBRANCH  76  77
ENDBRANCH  48  71
BRANCH  60  81
ATOM     81  C   UNL A   1      43.185  34.572  32.881  1.00  0.00    -0.014 A 
ATOM     82  C   UNL A   1      43.774  35.624  32.159  1.00  0.00     0.010 A 
ATOM     83  C   UNL A   1      42.930  34.740  34.255  1.00  0.00     0.010 A 
ATOM     84  C   UNL A   1      44.117  36.817  32.805  1.00  0.00     0.020 A 
ATOM     85  C   UNL A   1      43.250  35.938  34.898  1.00  0.00     0.020 A 
ATOM     86  C   UNL A   1      43.850  36.967  34.170  1.00  0.00     0.054 A 
BRANCH  86  87
ATOM     87  S   UNL A   1      44.239  38.548  34.970  1.00  0.00     0.124 S 
ATOM     88  O   UNL A   1      43.375  39.476  34.247  1.00  0.00    -0.237 OA
ATOM     89  O   UNL A   1      43.872  38.303  36.363  1.00  0.00    -0.237 OA
ATOM     90  O   UNL A   1      45.671  38.713  34.730  1.00  0.00    -0.744 OA
ENDBRANCH  86  87
ENDBRANCH  60  81
ENDBRANCH  34  35
ENDBRANCH  26  29
ENDBRANCH  24  25
ENDBRANCH   1  24
TORSDOF 17
ENDMDL
MODEL 2
REMARK VINA RESULT:     -10.4      5.477     10.764
REMARK SMILES Cc1n[nH]c(C)c1S(=O)(=O)N[C@H](C(=O)NCCCNC(=O)c1ccc(-c2c3nc(c(-c4ccc(S(=O)(=O)[O-])cc4)c4ccc([nH]4)c(-c4ccc(S(=O)(=O)[O-])cc4)c4nc(c(-c5ccc(S(=O)(=O)[O-])cc5)c5ccc2[nH]5)C=C4)C=C3)cc1)C(C)C
REMARK SMILES IDX 17 1 16 2 15 3 13 4 14 5 12 7 11 8 8 10 9 11 10 12 7 13 1 14
REMARK SMILES IDX 2 15 3 16 4 17 5 18 6 20 82 21 83 22 84 23 18 24 19 25 20 26
REMARK SMILES IDX 21 28 22 29 23 30 81 31 24 32 80 33 25 34 26 35 27 36 74 37
REMARK SMILES IDX 28 38 79 39 73 40 75 41 29 42 78 43 72 44 71 45 30 47 60 48
REMARK SMILES IDX 41 49 59 50 42 51 45 52 58 53 76 54 43 55 44 56 57 58 77 59
REMARK SMILES IDX 46 60 31 61 32 62 40 63 33 64 39 65 34 66 35 67 36 68 37 69
REMARK SMILES IDX 38 70 61 71 62 72 70 73 63 74 69 75 64 76 65 77 66 78 67 79
REMARK SMILES IDX 68 80 47 81 48 82 56 83 49 84 55 85 50 86 51 87 52 88 53 89
REMARK SMILES IDX 54 90
REMARK H PARENT 15 6 11 9 4 19 19 27 75 46 45 57
REMARK Flexibility Score: inf
ROOT
ATOM      1  C   UNL A   1      36.797  30.727  32.979  1.00  0.00     0.042 C 
ENDROOT
BRANCH   1   2
ATOM      2  C   UNL A   1      38.176  31.199  33.443  1.00  0.00     0.117 C 
BRANCH   2   3
ATOM      3  N   UNL A   1      38.302  32.646  33.383  1.00  0.00    -0.355 N 
ATOM      4  C   UNL A   1      38.126  33.526  32.360  1.00  0.00     0.238 C 
ATOM      5  O   UNL A   1      38.451  34.702  32.571  1.00  0.00    -0.273 OA
ATOM      6  H   UNL A   1      38.563  33.065  34.236  1.00  0.00     0.163 HD
BRANCH   4   7
ATOM      7  C   UNL A   1      37.484  33.111  30.996  1.00  0.00     0.161 C 
BRANCH   7   8
ATOM      8  N   UNL A   1      36.406  34.139  30.932  1.00  0.00    -0.198 NA
ATOM      9  H   UNL A   1      36.785  34.952  31.417  1.00  0.00     0.142 HD
BRANCH   8  10
ATOM     10  S   UNL A   1      34.860  33.974  31.506  1.00  0.00     0.244 S 
ATOM     11  O   UNL A   1      34.823  34.391  32.877  1.00  0.00    -0.207 OA
ATOM     12  O   UNL A   1      34.416  32.648  31.120  1.00  0.00    -0.207 OA
BRANCH  10  13
ATOM     13  C   UNL A   1      33.802  35.022  30.652  1.00  0.00     0.125 A 
ATOM     14  C   UNL A   1      34.337  34.352  28.175  1.00  0.00     0.070 C 
ATOM     15  C   UNL A   1      33.649  35.112  29.249  1.00  0.00     0.079 A 
ATOM     16  N   UNL A   1      32.735  36.040  28.925  1.00  0.00    -0.179 NA
ATOM     17  N   UNL A   1      32.346  36.550  30.102  1.00  0.00    -0.281 N 
ATOM     18  C   UNL A   1      32.959  35.982  31.183  1.00  0.00     0.052 A 
ATOM     19  H   UNL A   1      31.678  37.271  30.181  1.00  0.00     0.190 HD
ATOM     20  C   UNL A   1      32.691  36.422  32.571  1.00  0.00     0.067 C 
ENDBRANCH  10  13
ENDBRANCH   8  10
ENDBRANCH   7   8
BRANCH   7  21
ATOM     21  C   UNL A   1      38.514  33.192  29.845  1.00  0.00     0.010 C 
ATOM     22  C   UNL A   1      38.641  34.616  29.292  1.00  0.00     0.009 C 
ATOM     23  C   UNL A   1      39.922  32.754  30.272  1.00  0.00     0.009 C 
ENDBRANCH   7  21
ENDBRANCH   4   7
ENDBRANCH   2   3
ENDBRANCH   1   2
BRANCH   1  24
ATOM     24  C   UNL A   1      36.829  29.509  32.058  1.00  0.00     0.118 C 
BRANCH  24  25
ATOM     25  N   UNL A   1      36.069  29.726  30.840  1.00  0.00    -0.352 N 
ATOM     26  C   UNL A   1      36.508  29.912  29.549  1.00  0.00     0.251 C 
ATOM     27  H   UNL A   1      35.091  29.743  30.955  1.00  0.00     0.163 HD
ATOM     28  O   UNL A   1      35.714  30.322  28.705  1.00  0.00    -0.269 OA
BRANCH  26  29
ATOM     29  C   UNL A   1      37.917  29.640  29.167  1.00  0.00     0.039 A 
ATOM     30  C   UNL A   1      38.281  29.730  27.818  1.00  0.00     0.014 A 
ATOM     31  C   UNL A   1      38.865  29.233  30.108  1.00  0.00     0.014 A 
ATOM     32  C   UNL A   1      39.598  29.458  27.424  1.00  0.00     0.010 A 
ATOM     33  C   UNL A   1      40.193  29.040  29.727  1.00  0.00     0.010 A 
ATOM     34  C   UNL A   1      40.573  29.130  28.379  1.00  0.00    -0.014 A 
BRANCH  34  35
ATOM     35  C   UNL A   1      41.979  28.829  27.996  1.00  0.00     0.031 A 
ATOM     36  C   UNL A   1      42.367  27.425  27.606  1.00  0.00     0.074 A 
ATOM     37  C   UNL A   1      42.927  29.784  28.071  1.00  0.00     0.049 A 
ATOM     38  N   UNL A   1      43.554  26.930  27.364  1.00  0.00    -0.248 NA
ATOM     39  C   UNL A   1      41.275  26.443  27.504  1.00  0.00     0.031 C 
ATOM     40  C   UNL A   1      42.699  31.178  28.457  1.00  0.00     0.029 A 
ATOM     41  N   UNL A   1      44.280  29.720  27.840  1.00  0.00    -0.354 N 
ATOM     42  C   UNL A   1      43.357  25.574  27.122  1.00  0.00     0.074 A 
ATOM     43  C   UNL A   1      41.942  25.320  27.284  1.00  0.00     0.031 C 
ATOM     44  C   UNL A   1      43.868  31.838  28.426  1.00  0.00     0.029 A 
ATOM     45  C   UNL A   1      44.934  30.910  28.060  1.00  0.00     0.049 A 
ATOM     46  H   UNL A   1      44.738  28.900  27.545  1.00  0.00     0.167 HD
ATOM     47  C   UNL A   1      44.266  24.627  26.784  1.00  0.00     0.031 A 
ATOM     48  C   UNL A   1      46.245  31.220  27.990  1.00  0.00     0.031 A 
ATOM     49  C   UNL A   1      45.668  24.884  26.596  1.00  0.00     0.049 A 
ATOM     50  C   UNL A   1      47.237  30.160  27.599  1.00  0.00     0.074 A 
ATOM     51  C   UNL A   1      46.658  24.003  26.197  1.00  0.00     0.029 A 
ATOM     52  N   UNL A   1      46.281  26.112  26.794  1.00  0.00    -0.354 N 
ATOM     53  N   UNL A   1      47.025  28.894  27.329  1.00  0.00    -0.248 NA
ATOM     54  C   UNL A   1      48.644  30.573  27.490  1.00  0.00     0.031 C 
ATOM     55  C   UNL A   1      47.877  24.690  26.192  1.00  0.00     0.029 A 
ATOM     56  C   UNL A   1      47.638  26.011  26.538  1.00  0.00     0.049 A 
ATOM     57  H   UNL A   1      45.820  26.935  27.076  1.00  0.00     0.167 HD
ATOM     58  C   UNL A   1      48.266  28.366  26.992  1.00  0.00     0.074 A 
ATOM     59  C   UNL A   1      49.223  29.449  27.086  1.00  0.00     0.031 C 
ATOM     60  C   UNL A   1      48.580  27.098  26.629  1.00  0.00     0.031 A 
BRANCH  47  61
ATOM     61  C   UNL A   1      43.761  23.217  26.613  1.00  0.00    -0.014 A 
ATOM     62  C   UNL A   1      42.928  22.618  27.576  1.00  0.00     0.010 A 
ATOM     63  C   UNL A   1      44.127  22.481  25.472  1.00  0.00     0.010 A 
ATOM     64  C   UNL A   1      42.527  21.287  27.434  1.00  0.00     0.020 A 
ATOM     65  C   UNL A   1      43.702  21.159  25.310  1.00  0.00     0.020 A 
ATOM     66  C   UNL A   1      42.928  20.561  26.307  1.00  0.00     0.054 A 
BRANCH  66  67
ATOM     67  S   UNL A   1      42.414  18.828  26.157  1.00  0.00     0.124 S 
ATOM     68  O   UNL A   1      43.332  18.333  25.134  1.00  0.00    -0.237 OA
ATOM     69  O   UNL A   1      42.637  18.308  27.504  1.00  0.00    -0.237 OA
ATOM     70  O   UNL A   1      41.015  18.916  25.749  1.00  0.00    -0.744 OA
ENDBRANCH  66  67
ENDBRANCH  47  61
BRANCH  48  71
ATOM     71  C   UNL A   1      46.682  32.611  28.282  1.00  0.00    -0.014 A 
ATOM     72  C   UNL A   1      46.724  33.572  27.258  1.00  0.00     0.010 A 
ATOM     73  C   UNL A   1      47.006  32.995  29.597  1.00  0.00     0.010 A 
ATOM     74  C   UNL A   1      47.079  34.895  27.542  1.00  0.00     0.020 A 
ATOM     75  C   UNL A   1      47.339  34.321  29.888  1.00  0.00     0.020 A 
ATOM     76  C   UNL A   1      47.377  35.263  28.858  1.00  0.00     0.054 A 
BRANCH  76  77
ATOM     77  S   UNL A   1      47.742  37.003  29.218  1.00  0.00     0.124 S 
ATOM     78  O   UNL A   1      47.586  37.625  27.907  1.00  0.00    -0.237 OA
ATOM     79  O   UNL A   1      46.720  37.342  30.206  1.00  0.00    -0.237 OA
ATOM     80  O   UNL A   1      49.108  36.964  29.737  1.00  0.00    -0.744 OA
ENDBRANCH  76  77
ENDBRANCH  48  71
BRANCH  60  81
ATOM     81  C   UNL A   1      50.011  26.808  26.262  1.00  0.00    -0.014 A 
ATOM     82  C   UNL A   1      50.928  26.332  27.214  1.00  0.00     0.010 A 
ATOM     83  C   UNL A   1      50.417  26.935  24.920  1.00  0.00     0.010 A 
ATOM     84  C   UNL A   1      52.232  26.003  26.834  1.00  0.00     0.020 A 
ATOM     85  C   UNL A   1      51.713  26.585  24.532  1.00  0.00     0.020 A 
ATOM     86  C   UNL A   1      52.616  26.129  25.494  1.00  0.00     0.054 A 
BRANCH  86  87
ATOM     87  S   UNL A   1      54.292  25.630  25.013  1.00  0.00     0.124 S 
ATOM     88  O   UNL A   1      54.384  26.146  23.651  1.00  0.00    -0.237 OA
ATOM     89  O   UNL A   1      55.127  26.312  26.000  1.00  0.00    -0.237 OA
ATOM     90  O   UNL A   1      54.267  24.174  25.128  1.00  0.00    -0.744 OA
ENDBRANCH  86  87
ENDBRANCH  60  81
ENDBRANCH  34  35
ENDBRANCH  26  29
ENDBRANCH  24  25
ENDBRANCH   1  24
TORSDOF 17
ENDMDL
MODEL 3
REMARK VINA RESULT:     -10.3      2.075      2.671
REMARK SMILES Cc1n[nH]c(C)c1S(=O)(=O)N[C@H](C(=O)NCCCNC(=O)c1ccc(-c2c3nc(c(-c4ccc(S(=O)(=O)[O-])cc4)c4ccc([nH]4)c(-c4ccc(S(=O)(=O)[O-])cc4)c4nc(c(-c5ccc(S(=O)(=O)[O-])cc5)c5ccc2[nH]5)C=C4)C=C3)cc1)C(C)C
REMARK SMILES IDX 17 1 16 2 15 3 13 4 14 5 12 7 11 8 8 10 9 11 10 12 7 13 1 14
REMARK SMILES IDX 2 15 3 16 4 17 5 18 6 20 82 21 83 22 84 23 18 24 19 25 20 26
REMARK SMILES IDX 21 28 22 29 23 30 81 31 24 32 80 33 25 34 26 35 27 36 74 37
REMARK SMILES IDX 28 38 79 39 73 40 75 41 29 42 78 43 72 44 71 45 30 47 60 48
REMARK SMILES IDX 41 49 59 50 42 51 45 52 58 53 76 54 43 55 44 56 57 58 77 59
REMARK SMILES IDX 46 60 31 61 32 62 40 63 33 64 39 65 34 66 35 67 36 68 37 69
REMARK SMILES IDX 38 70 61 71 62 72 70 73 63 74 69 75 64 76 65 77 66 78 67 79
REMARK SMILES IDX 68 80 47 81 48 82 56 83 49 84 55 85 50 86 51 87 52 88 53 89
REMARK SMILES IDX 54 90
REMARK H PARENT 15 6 11 9 4 19 19 27 75 46 45 57
REMARK Flexibility Score: inf
ROOT
ATOM      1  C   UNL A   1      35.670  23.833  24.623  1.00  0.00     0.042 C 
ENDROOT
BRANCH   1   2
ATOM      2  C   UNL A   1      34.510  24.823  24.506  1.00  0.00     0.117 C 
BRANCH   2   3
ATOM      3  N   UNL A   1      33.447  24.527  25.453  1.00  0.00    -0.355 N 
ATOM      4  C   UNL A   1      32.523  25.327  26.051  1.00  0.00     0.238 C 
ATOM      5  O   UNL A   1      31.828  24.813  26.937  1.00  0.00    -0.273 OA
ATOM      6  H   UNL A   1      33.386  23.578  25.708  1.00  0.00     0.163 HD
BRANCH   4   7
ATOM      7  C   UNL A   1      32.284  26.809  25.614  1.00  0.00     0.161 C 
BRANCH   7   8
ATOM      8  N   UNL A   1      30.812  26.743  25.387  1.00  0.00    -0.198 NA
ATOM      9  H   UNL A   1      30.496  25.938  25.928  1.00  0.00     0.142 HD
BRANCH   8  10
ATOM     10  S   UNL A   1      30.051  26.606  23.921  1.00  0.00     0.244 S 
ATOM     11  O   UNL A   1      28.640  26.476  24.136  1.00  0.00    -0.207 OA
ATOM     12  O   UNL A   1      30.783  25.603  23.169  1.00  0.00    -0.207 OA
BRANCH  10  13
ATOM     13  C   UNL A   1      30.272  28.041  23.008  1.00  0.00     0.125 A 
ATOM     14  C   UNL A   1      27.792  28.858  22.767  1.00  0.00     0.070 C 
ATOM     15  C   UNL A   1      29.262  28.928  22.566  1.00  0.00     0.079 A 
ATOM     16  N   UNL A   1      29.790  29.950  21.875  1.00  0.00    -0.179 NA
ATOM     17  N   UNL A   1      31.106  29.692  21.850  1.00  0.00    -0.281 N 
ATOM     18  C   UNL A   1      31.460  28.550  22.512  1.00  0.00     0.052 A 
ATOM     19  H   UNL A   1      31.759  30.273  21.396  1.00  0.00     0.190 HD
ATOM     20  C   UNL A   1      32.858  28.071  22.579  1.00  0.00     0.067 C 
ENDBRANCH  10  13
ENDBRANCH   8  10
ENDBRANCH   7   8
BRANCH   7  21
ATOM     21  C   UNL A   1      32.717  27.796  26.722  1.00  0.00     0.010 C 
ATOM     22  C   UNL A   1      34.133  28.334  26.486  1.00  0.00     0.009 C 
ATOM     23  C   UNL A   1      31.791  29.017  26.829  1.00  0.00     0.009 C 
ENDBRANCH   7  21
ENDBRANCH   4   7
ENDBRANCH   2   3
ENDBRANCH   1   2
BRANCH   1  24
ATOM     24  C   UNL A   1      36.115  23.556  26.058  1.00  0.00     0.118 C 
BRANCH  24  25
ATOM     25  N   UNL A   1      37.134  22.523  26.123  1.00  0.00    -0.352 N 
ATOM     26  C   UNL A   1      38.493  22.637  26.304  1.00  0.00     0.251 C 
ATOM     27  H   UNL A   1      36.803  21.602  26.021  1.00  0.00     0.163 HD
ATOM     28  O   UNL A   1      39.206  21.661  26.083  1.00  0.00    -0.269 OA
BRANCH  26  29
ATOM     29  C   UNL A   1      39.108  23.915  26.744  1.00  0.00     0.039 A 
ATOM     30  C   UNL A   1      39.754  24.717  25.796  1.00  0.00     0.014 A 
ATOM     31  C   UNL A   1      39.116  24.299  28.087  1.00  0.00     0.014 A 
ATOM     32  C   UNL A   1      40.363  25.917  26.185  1.00  0.00     0.010 A 
ATOM     33  C   UNL A   1      39.652  25.531  28.461  1.00  0.00     0.010 A 
ATOM     34  C   UNL A   1      40.299  26.347  27.520  1.00  0.00    -0.014 A 
BRANCH  34  35
ATOM     35  C   UNL A   1      40.940  27.613  27.971  1.00  0.00     0.031 A 
ATOM     36  C   UNL A   1      42.440  27.757  27.916  1.00  0.00     0.074 A 
ATOM     37  C   UNL A   1      40.196  28.603  28.501  1.00  0.00     0.049 A 
ATOM     38  N   UNL A   1      43.197  28.719  28.375  1.00  0.00    -0.248 NA
ATOM     39  C   UNL A   1      43.186  26.655  27.286  1.00  0.00     0.031 C 
ATOM     40  C   UNL A   1      38.738  28.590  28.639  1.00  0.00     0.029 A 
ATOM     41  N   UNL A   1      40.569  29.811  29.040  1.00  0.00    -0.354 N 
ATOM     42  C   UNL A   1      44.507  28.322  28.128  1.00  0.00     0.074 A 
ATOM     43  C   UNL A   1      44.440  27.014  27.512  1.00  0.00     0.031 C 
ATOM     44  C   UNL A   1      38.341  29.737  29.214  1.00  0.00     0.029 A 
ATOM     45  C   UNL A   1      39.514  30.550  29.523  1.00  0.00     0.049 A 
ATOM     46  H   UNL A   1      41.503  30.118  29.076  1.00  0.00     0.167 HD
ATOM     47  C   UNL A   1      45.662  28.987  28.377  1.00  0.00     0.031 A 
ATOM     48  C   UNL A   1      39.490  31.739  30.157  1.00  0.00     0.031 A 
ATOM     49  C   UNL A   1      45.729  30.298  28.964  1.00  0.00     0.049 A 
ATOM     50  C   UNL A   1      40.780  32.470  30.412  1.00  0.00     0.074 A 
ATOM     51  C   UNL A   1      46.847  31.078  29.202  1.00  0.00     0.029 A 
ATOM     52  N   UNL A   1      44.633  31.024  29.405  1.00  0.00    -0.354 N 
ATOM     53  N   UNL A   1      42.005  32.098  30.129  1.00  0.00    -0.248 NA
ATOM     54  C   UNL A   1      40.683  33.785  31.060  1.00  0.00     0.031 C 
ATOM     55  C   UNL A   1      46.430  32.260  29.824  1.00  0.00     0.029 A 
ATOM     56  C   UNL A   1      45.047  32.238  29.926  1.00  0.00     0.049 A 
ATOM     57  H   UNL A   1      43.697  30.722  29.355  1.00  0.00     0.167 HD
ATOM     58  C   UNL A   1      42.823  33.145  30.538  1.00  0.00     0.074 A 
ATOM     59  C   UNL A   1      41.954  34.167  31.085  1.00  0.00     0.031 C 
ATOM     60  C   UNL A   1      44.173  33.251  30.461  1.00  0.00     0.031 A 
BRANCH  47  61
ATOM     61  C   UNL A   1      46.949  28.287  28.025  1.00  0.00    -0.014 A 
ATOM     62  C   UNL A   1      47.613  28.544  26.812  1.00  0.00     0.010 A 
ATOM     63  C   UNL A   1      47.503  27.356  28.923  1.00  0.00     0.010 A 
ATOM     64  C   UNL A   1      48.769  27.835  26.473  1.00  0.00     0.020 A 
ATOM     65  C   UNL A   1      48.676  26.667  28.602  1.00  0.00     0.020 A 
ATOM     66  C   UNL A   1      49.285  26.891  27.365  1.00  0.00     0.054 A 
BRANCH  66  67
ATOM     67  S   UNL A   1      50.773  25.966  26.893  1.00  0.00     0.124 S 
ATOM     68  O   UNL A   1      50.578  24.704  27.604  1.00  0.00    -0.237 OA
ATOM     69  O   UNL A   1      50.657  25.890  25.438  1.00  0.00    -0.237 OA
ATOM     70  O   UNL A   1      51.867  26.796  27.386  1.00  0.00    -0.744 OA
ENDBRANCH  66  67
ENDBRANCH  47  61
BRANCH  48  71
ATOM     71  C   UNL A   1      38.185  32.318  30.575  1.00  0.00    -0.014 A 
ATOM     72  C   UNL A   1      37.690  32.092  31.871  1.00  0.00     0.010 A 
ATOM     73  C   UNL A   1      37.457  33.141  29.696  1.00  0.00     0.010 A 
ATOM     74  C   UNL A   1      36.492  32.683  32.284  1.00  0.00     0.020 A 
ATOM     75  C   UNL A   1      36.271  33.752  30.113  1.00  0.00     0.020 A 
ATOM     76  C   UNL A   1      35.794  33.517  31.404  1.00  0.00     0.054 A 
BRANCH  76  77
ATOM     77  S   UNL A   1      34.292  34.347  31.993  1.00  0.00     0.124 S 
ATOM     78  O   UNL A   1      33.553  34.557  30.753  1.00  0.00    -0.237 OA
ATOM     79  O   UNL A   1      33.724  33.360  32.909  1.00  0.00    -0.237 OA
ATOM     80  O   UNL A   1      34.801  35.558  32.635  1.00  0.00    -0.744 OA
ENDBRANCH  76  77
ENDBRANCH  48  71
BRANCH  60  81
ATOM     81  C   UNL A   1      44.804  34.531  30.937  1.00  0.00    -0.014 A 
ATOM     82  C   UNL A   1      45.335  34.647  32.233  1.00  0.00     0.010 A 
ATOM     83  C   UNL A   1      44.942  35.607  30.040  1.00  0.00     0.010 A 
ATOM     84  C   UNL A   1      45.979  35.823  32.629  1.00  0.00     0.020 A 
ATOM     85  C   UNL A   1      45.605  36.775  30.424  1.00  0.00     0.020 A 
ATOM     86  C   UNL A   1      46.113  36.879  31.721  1.00  0.00     0.054 A 
BRANCH  86  87
ATOM     87  S   UNL A   1      47.013  38.367  32.235  1.00  0.00     0.124 S 
ATOM     88  O   UNL A   1      47.196  38.134  33.664  1.00  0.00    -0.237 OA
ATOM     89  O   UNL A   1      48.229  38.303  31.427  1.00  0.00    -0.237 OA
ATOM     90  O   UNL A   1      46.103  39.458  31.891  1.00  0.00    -0.744 OA
ENDBRANCH  86  87
ENDBRANCH  60  81
ENDBRANCH  34  35
ENDBRANCH  26  29
ENDBRANCH  24  25
ENDBRANCH   1  24
TORSDOF 17
ENDMDL
