MODEL 1
REMARK VINA RESULT:     -10.8      0.000      0.000
REMARK SMILES [NH3+]CC(=O)N1C[C@H](O)C[C@H]1C(=O)NCCCNC(=O)c1ccc(-c2c3nc(c(-c4ccc(S(=O)(=O)[O-])cc4)c4ccc([nH]4)c(-c4ccc(S(=O)(=O)[O-])cc4)c4nc(c(-c5ccc(S(=O)(=O)[O-])cc5)c5ccc2[nH]5)C=C4)C=C3)cc1
REMARK SMILES IDX 15 1 14 2 13 3 11 4 12 5 10 7 5 8 6 9 7 10 9 11 3 12 4 13
REMARK SMILES IDX 2 14 1 15 8 19 16 21 17 22 18 23 19 25 20 26 21 27 79 28
REMARK SMILES IDX 22 29 78 30 23 31 24 32 25 33 72 34 26 35 77 36 71 37 73 38
REMARK SMILES IDX 27 39 76 40 70 41 69 42 28 44 58 45 39 46 57 47 40 48 43 49
REMARK SMILES IDX 56 50 74 51 41 52 42 53 55 55 75 56 44 57 29 58 30 59 38 60
REMARK SMILES IDX 31 61 37 62 32 63 33 64 34 65 35 66 36 67 59 68 60 69 68 70
REMARK SMILES IDX 61 71 67 72 62 73 63 74 64 75 65 76 66 77 45 78 46 79 54 80
REMARK SMILES IDX 47 81 53 82 48 83 49 84 50 85 51 86 52 87
REMARK H PARENT 13 6 1 16 1 17 1 18 8 20 17 24 73 43 43 54
REMARK Flexibility Score: inf
ROOT
ATOM      1  C   UNL A   1      37.498  32.246  31.441  1.00  0.00     0.042 C 
ENDROOT
BRANCH   1   2
ATOM      2  C   UNL A   1      37.106  33.301  32.460  1.00  0.00     0.117 C 
BRANCH   2   3
ATOM      3  N   UNL A   1      35.823  33.038  33.074  1.00  0.00    -0.354 N 
ATOM      4  C   UNL A   1      34.656  33.735  33.011  1.00  0.00     0.242 C 
ATOM      5  O   UNL A   1      33.642  33.168  33.436  1.00  0.00    -0.273 OA
ATOM      6  H   UNL A   1      35.789  32.224  33.627  1.00  0.00     0.163 HD
BRANCH   4   7
ATOM      7  C   UNL A   1      34.534  35.066  32.245  1.00  0.00     0.177 C 
ATOM      8  N   UNL A   1      33.690  35.133  31.047  1.00  0.00    -0.323 N 
ATOM      9  C   UNL A   1      32.793  36.277  31.080  1.00  0.00     0.152 C 
ATOM     10  C   UNL A   1      33.269  37.126  32.258  1.00  0.00     0.136 C 
ATOM     11  C   UNL A   1      34.005  36.163  33.178  1.00  0.00     0.069 C 
BRANCH   8  12
ATOM     12  C   UNL A   1      34.012  34.348  29.955  1.00  0.00     0.278 C 
ATOM     13  O   UNL A   1      34.446  33.204  30.114  1.00  0.00    -0.268 OA
BRANCH  12  14
ATOM     14  C   UNL A   1      33.940  34.947  28.543  1.00  0.00     0.360 C 
BRANCH  14  15
ATOM     15  N   UNL A   1      32.866  34.408  27.710  1.00  0.00    -0.350 N 
ATOM     16  H   UNL A   1      32.403  33.644  28.204  1.00  0.00     0.344 HD
ATOM     17  H   UNL A   1      33.258  34.058  26.835  1.00  0.00     0.344 HD
ATOM     18  H   UNL A   1      32.189  35.143  27.509  1.00  0.00     0.344 HD
ENDBRANCH  14  15
ENDBRANCH  12  14
ENDBRANCH   8  12
BRANCH  10  19
ATOM     19  O   UNL A   1      34.164  38.143  31.813  1.00  0.00    -0.391 OA
ATOM     20  H   UNL A   1      33.749  38.648  31.096  1.00  0.00     0.211 HD
ENDBRANCH  10  19
ENDBRANCH   4   7
ENDBRANCH   2   3
ENDBRANCH   1   2
BRANCH   1  21
ATOM     21  C   UNL A   1      36.873  30.883  31.704  1.00  0.00     0.118 C 
BRANCH  21  22
ATOM     22  N   UNL A   1      35.970  30.464  30.639  1.00  0.00    -0.352 N 
ATOM     23  C   UNL A   1      36.242  29.921  29.408  1.00  0.00     0.251 C 
ATOM     24  H   UNL A   1      35.013  30.590  30.833  1.00  0.00     0.163 HD
ATOM     25  O   UNL A   1      35.340  29.833  28.574  1.00  0.00    -0.269 OA
BRANCH  23  26
ATOM     26  C   UNL A   1      37.607  29.463  29.077  1.00  0.00     0.039 A 
ATOM     27  C   UNL A   1      38.107  29.688  27.792  1.00  0.00     0.014 A 
ATOM     28  C   UNL A   1      38.390  28.799  30.024  1.00  0.00     0.014 A 
ATOM     29  C   UNL A   1      39.415  29.308  27.483  1.00  0.00     0.010 A 
ATOM     30  C   UNL A   1      39.721  28.512  29.746  1.00  0.00     0.010 A 
ATOM     31  C   UNL A   1      40.246  28.751  28.469  1.00  0.00    -0.014 A 
BRANCH  31  32
ATOM     32  C   UNL A   1      41.661  28.401  28.183  1.00  0.00     0.031 A 
ATOM     33  C   UNL A   1      42.714  29.477  28.163  1.00  0.00     0.074 A 
ATOM     34  C   UNL A   1      41.985  27.128  27.878  1.00  0.00     0.049 A 
ATOM     35  N   UNL A   1      43.986  29.379  27.873  1.00  0.00    -0.248 NA
ATOM     36  C   UNL A   1      42.279  30.848  28.484  1.00  0.00     0.031 C 
ATOM     37  C   UNL A   1      41.047  26.003  27.822  1.00  0.00     0.029 A 
ATOM     38  N   UNL A   1      43.194  26.566  27.553  1.00  0.00    -0.354 N 
ATOM     39  C   UNL A   1      44.496  30.670  27.958  1.00  0.00     0.074 A 
ATOM     40  C   UNL A   1      43.387  31.543  28.273  1.00  0.00     0.031 C 
ATOM     41  C   UNL A   1      41.721  24.883  27.512  1.00  0.00     0.029 A 
ATOM     42  C   UNL A   1      43.126  25.215  27.302  1.00  0.00     0.049 A 
ATOM     43  H   UNL A   1      44.032  27.081  27.504  1.00  0.00     0.167 HD
ATOM     44  C   UNL A   1      45.774  31.089  27.809  1.00  0.00     0.031 A 
ATOM     45  C   UNL A   1      44.084  24.342  26.935  1.00  0.00     0.031 A 
ATOM     46  C   UNL A   1      46.877  30.215  27.511  1.00  0.00     0.049 A 
ATOM     47  C   UNL A   1      45.496  24.836  26.766  1.00  0.00     0.074 A 
ATOM     48  C   UNL A   1      48.219  30.533  27.398  1.00  0.00     0.029 A 
ATOM     49  N   UNL A   1      46.767  28.853  27.277  1.00  0.00    -0.354 N 
ATOM     50  N   UNL A   1      45.968  26.050  26.919  1.00  0.00    -0.248 NA
ATOM     51  C   UNL A   1      46.507  23.839  26.388  1.00  0.00     0.031 C 
ATOM     52  C   UNL A   1      48.913  29.375  27.036  1.00  0.00     0.029 A 
ATOM     53  C   UNL A   1      48.014  28.320  26.995  1.00  0.00     0.049 A 
ATOM     54  H   UNL A   1      45.928  28.340  27.308  1.00  0.00     0.167 HD
ATOM     55  C   UNL A   1      47.337  25.955  26.690  1.00  0.00     0.074 A 
ATOM     56  C   UNL A   1      47.617  24.563  26.404  1.00  0.00     0.031 C 
ATOM     57  C   UNL A   1      48.278  26.932  26.718  1.00  0.00     0.031 A 
BRANCH  44  58
ATOM     58  C   UNL A   1      46.054  32.562  27.966  1.00  0.00    -0.014 A 
ATOM     59  C   UNL A   1      46.053  33.426  26.856  1.00  0.00     0.010 A 
ATOM     60  C   UNL A   1      46.265  33.100  29.249  1.00  0.00     0.010 A 
ATOM     61  C   UNL A   1      46.286  34.794  27.021  1.00  0.00     0.020 A 
ATOM     62  C   UNL A   1      46.468  34.472  29.423  1.00  0.00     0.020 A 
ATOM     63  C   UNL A   1      46.490  35.308  28.305  1.00  0.00     0.054 A 
BRANCH  63  64
ATOM     64  S   UNL A   1      46.746  37.094  28.493  1.00  0.00     0.124 S 
ATOM     65  O   UNL A   1      48.072  37.271  27.905  1.00  0.00    -0.237 OA
ATOM     66  O   UNL A   1      45.639  37.657  27.724  1.00  0.00    -0.237 OA
ATOM     67  O   UNL A   1      46.672  37.307  29.936  1.00  0.00    -0.744 OA
ENDBRANCH  63  64
ENDBRANCH  44  58
BRANCH  45  68
ATOM     68  C   UNL A   1      43.745  22.909  26.709  1.00  0.00    -0.014 A 
ATOM     69  C   UNL A   1      44.288  22.207  25.617  1.00  0.00     0.010 A 
ATOM     70  C   UNL A   1      42.871  22.238  27.583  1.00  0.00     0.010 A 
ATOM     71  C   UNL A   1      43.940  20.872  25.388  1.00  0.00     0.020 A 
ATOM     72  C   UNL A   1      42.546  20.894  27.376  1.00  0.00     0.020 A 
ATOM     73  C   UNL A   1      43.072  20.224  26.270  1.00  0.00     0.054 A 
BRANCH  73  74
ATOM     74  S   UNL A   1      42.663  18.482  25.973  1.00  0.00     0.124 S 
ATOM     75  O   UNL A   1      41.223  18.542  25.748  1.00  0.00    -0.237 OA
ATOM     76  O   UNL A   1      43.475  18.163  24.801  1.00  0.00    -0.237 OA
ATOM     77  O   UNL A   1      43.077  17.819  27.207  1.00  0.00    -0.744 OA
ENDBRANCH  73  74
ENDBRANCH  45  68
BRANCH  57  78
ATOM     78  C   UNL A   1      49.709  26.526  26.480  1.00  0.00    -0.014 A 
ATOM     79  C   UNL A   1      50.518  26.035  27.519  1.00  0.00     0.010 A 
ATOM     80  C   UNL A   1      50.234  26.591  25.175  1.00  0.00     0.010 A 
ATOM     81  C   UNL A   1      51.836  25.649  27.265  1.00  0.00     0.020 A 
ATOM     82  C   UNL A   1      51.542  26.174  24.911  1.00  0.00     0.020 A 
ATOM     83  C   UNL A   1      52.339  25.721  25.962  1.00  0.00     0.054 A 
BRANCH  83  84
ATOM     84  S   UNL A   1      54.042  25.177  25.652  1.00  0.00     0.124 S 
ATOM     85  O   UNL A   1      54.769  25.822  26.742  1.00  0.00    -0.237 OA
ATOM     86  O   UNL A   1      53.934  23.723  25.743  1.00  0.00    -0.237 OA
ATOM     87  O   UNL A   1      54.334  25.693  24.318  1.00  0.00    -0.744 OA
ENDBRANCH  83  84
ENDBRANCH  57  78
ENDBRANCH  31  32
ENDBRANCH  23  26
ENDBRANCH  21  22
ENDBRANCH   1  21
TORSDOF 17
ENDMDL
MODEL 2
REMARK VINA RESULT:     -10.7      4.497      6.756
REMARK SMILES [NH3+]CC(=O)N1C[C@H](O)C[C@H]1C(=O)NCCCNC(=O)c1ccc(-c2c3nc(c(-c4ccc(S(=O)(=O)[O-])cc4)c4ccc([nH]4)c(-c4ccc(S(=O)(=O)[O-])cc4)c4nc(c(-c5ccc(S(=O)(=O)[O-])cc5)c5ccc2[nH]5)C=C4)C=C3)cc1
REMARK SMILES IDX 15 1 14 2 13 3 11 4 12 5 10 7 5 8 6 9 7 10 9 11 3 12 4 13
REMARK SMILES IDX 2 14 1 15 8 19 16 21 17 22 18 23 19 25 20 26 21 27 79 28
REMARK SMILES IDX 22 29 78 30 23 31 24 32 25 33 72 34 26 35 77 36 71 37 73 38
REMARK SMILES IDX 27 39 76 40 70 41 69 42 28 44 58 45 39 46 57 47 40 48 43 49
REMARK SMILES IDX 56 50 74 51 41 52 42 53 55 55 75 56 44 57 29 58 30 59 38 60
REMARK SMILES IDX 31 61 37 62 32 63 33 64 34 65 35 66 36 67 59 68 60 69 68 70
REMARK SMILES IDX 61 71 67 72 62 73 63 74 64 75 65 76 66 77 45 78 46 79 54 80
REMARK SMILES IDX 47 81 53 82 48 83 49 84 50 85 51 86 52 87
REMARK H PARENT 13 6 1 16 1 17 1 18 8 20 17 24 73 43 43 54
REMARK Flexibility Score: inf
ROOT
ATOM      1  C   UNL A   1      33.844  28.033  25.691  1.00  0.00     0.042 C 
ENDROOT
BRANCH   1   2
ATOM      2  C   UNL A   1      32.821  27.141  25.011  1.00  0.00     0.117 C 
BRANCH   2   3
ATOM      3  N   UNL A   1      33.331  26.520  23.808  1.00  0.00    -0.354 N 
ATOM      4  C   UNL A   1      33.880  25.290  23.615  1.00  0.00     0.242 C 
ATOM      5  O   UNL A   1      34.017  24.917  22.444  1.00  0.00    -0.273 OA
ATOM      6  H   UNL A   1      33.271  27.078  22.998  1.00  0.00     0.163 HD
BRANCH   4   7
ATOM      7  C   UNL A   1      34.111  24.303  24.775  1.00  0.00     0.177 C 
ATOM      8  N   UNL A   1      33.467  22.986  24.739  1.00  0.00    -0.323 N 
ATOM      9  C   UNL A   1      34.409  21.914  25.024  1.00  0.00     0.152 C 
ATOM     10  C   UNL A   1      35.676  22.614  25.513  1.00  0.00     0.136 C 
ATOM     11  C   UNL A   1      35.611  24.019  24.931  1.00  0.00     0.069 C 
BRANCH   8  12
ATOM     12  C   UNL A   1      32.086  22.914  24.740  1.00  0.00     0.278 C 
ATOM     13  O   UNL A   1      31.473  22.653  23.702  1.00  0.00    -0.268 OA
BRANCH  12  14
ATOM     14  C   UNL A   1      31.310  23.278  26.014  1.00  0.00     0.360 C 
BRANCH  14  15
ATOM     15  N   UNL A   1      30.171  22.407  26.300  1.00  0.00    -0.350 N 
ATOM     16  H   UNL A   1      29.511  22.445  25.523  1.00  0.00     0.344 HD
ATOM     17  H   UNL A   1      29.709  22.720  27.154  1.00  0.00     0.344 HD
ATOM     18  H   UNL A   1      30.498  21.449  26.422  1.00  0.00     0.344 HD
ENDBRANCH  14  15
ENDBRANCH  12  14
ENDBRANCH   8  12
BRANCH  10  19
ATOM     19  O   UNL A   1      35.692  22.685  26.937  1.00  0.00    -0.391 OA
ATOM     20  H   UNL A   1      36.584  22.481  27.261  1.00  0.00     0.211 HD
ENDBRANCH  10  19
ENDBRANCH   4   7
ENDBRANCH   2   3
ENDBRANCH   1   2
BRANCH   1  21
ATOM     21  C   UNL A   1      33.539  28.301  27.159  1.00  0.00     0.118 C 
BRANCH  21  22
ATOM     22  N   UNL A   1      33.474  29.724  27.468  1.00  0.00    -0.352 N 
ATOM     23  C   UNL A   1      34.393  30.542  28.076  1.00  0.00     0.251 C 
ATOM     24  H   UNL A   1      32.638  30.169  27.198  1.00  0.00     0.163 HD
ATOM     25  O   UNL A   1      34.055  31.672  28.431  1.00  0.00    -0.269 OA
BRANCH  23  26
ATOM     26  C   UNL A   1      35.771  30.069  28.321  1.00  0.00     0.039 A 
ATOM     27  C   UNL A   1      36.702  30.119  27.281  1.00  0.00     0.014 A 
ATOM     28  C   UNL A   1      36.143  29.561  29.568  1.00  0.00     0.014 A 
ATOM     29  C   UNL A   1      38.022  29.725  27.515  1.00  0.00     0.010 A 
ATOM     30  C   UNL A   1      37.476  29.264  29.825  1.00  0.00     0.010 A 
ATOM     31  C   UNL A   1      38.429  29.330  28.800  1.00  0.00    -0.014 A 
BRANCH  31  32
ATOM     32  C   UNL A   1      39.841  28.971  29.090  1.00  0.00     0.031 A 
ATOM     33  C   UNL A   1      40.771  29.993  29.687  1.00  0.00     0.074 A 
ATOM     34  C   UNL A   1      40.300  27.748  28.754  1.00  0.00     0.049 A 
ATOM     35  N   UNL A   1      42.048  29.888  29.953  1.00  0.00    -0.248 NA
ATOM     36  C   UNL A   1      40.201  31.314  30.006  1.00  0.00     0.031 C 
ATOM     37  C   UNL A   1      39.509  26.685  28.129  1.00  0.00     0.029 A 
ATOM     38  N   UNL A   1      41.549  27.194  28.888  1.00  0.00    -0.354 N 
ATOM     39  C   UNL A   1      42.435  31.129  30.449  1.00  0.00     0.074 A 
ATOM     40  C   UNL A   1      41.273  31.987  30.397  1.00  0.00     0.031 C 
ATOM     41  C   UNL A   1      40.282  25.600  27.962  1.00  0.00     0.029 A 
ATOM     42  C   UNL A   1      41.634  25.902  28.422  1.00  0.00     0.049 A 
ATOM     43  H   UNL A   1      42.313  27.675  29.280  1.00  0.00     0.167 HD
ATOM     44  C   UNL A   1      43.643  31.513  30.924  1.00  0.00     0.031 A 
ATOM     45  C   UNL A   1      42.682  25.058  28.363  1.00  0.00     0.031 A 
ATOM     46  C   UNL A   1      44.793  30.651  30.987  1.00  0.00     0.049 A 
ATOM     47  C   UNL A   1      44.016  25.514  28.888  1.00  0.00     0.074 A 
ATOM     48  C   UNL A   1      46.046  30.927  31.505  1.00  0.00     0.029 A 
ATOM     49  N   UNL A   1      44.832  29.347  30.517  1.00  0.00    -0.354 N 
ATOM     50  N   UNL A   1      44.343  26.669  29.417  1.00  0.00    -0.248 NA
ATOM     51  C   UNL A   1      45.120  24.547  28.823  1.00  0.00     0.031 C 
ATOM     52  C   UNL A   1      46.861  29.812  31.294  1.00  0.00     0.029 A 
ATOM     53  C   UNL A   1      46.096  28.814  30.710  1.00  0.00     0.049 A 
ATOM     54  H   UNL A   1      44.075  28.871  30.108  1.00  0.00     0.167 HD
ATOM     55  C   UNL A   1      45.682  26.555  29.778  1.00  0.00     0.074 A 
ATOM     56  C   UNL A   1      46.097  25.213  29.422  1.00  0.00     0.031 C 
ATOM     57  C   UNL A   1      46.493  27.476  30.356  1.00  0.00     0.031 A 
BRANCH  44  58
ATOM     58  C   UNL A   1      43.787  32.931  31.415  1.00  0.00    -0.014 A 
ATOM     59  C   UNL A   1      44.201  33.962  30.552  1.00  0.00     0.010 A 
ATOM     60  C   UNL A   1      43.448  33.248  32.743  1.00  0.00     0.010 A 
ATOM     61  C   UNL A   1      44.302  35.277  31.015  1.00  0.00     0.020 A 
ATOM     62  C   UNL A   1      43.518  34.566  33.203  1.00  0.00     0.020 A 
ATOM     63  C   UNL A   1      43.958  35.570  32.338  1.00  0.00     0.054 A 
BRANCH  63  64
ATOM     64  S   UNL A   1      44.057  37.293  32.897  1.00  0.00     0.124 S 
ATOM     65  O   UNL A   1      43.893  38.026  31.644  1.00  0.00    -0.237 OA
ATOM     66  O   UNL A   1      42.938  37.389  33.832  1.00  0.00    -0.237 OA
ATOM     67  O   UNL A   1      45.382  37.386  33.504  1.00  0.00    -0.744 OA
ENDBRANCH  63  64
ENDBRANCH  44  58
BRANCH  45  68
ATOM     68  C   UNL A   1      42.512  23.693  27.791  1.00  0.00    -0.014 A 
ATOM     69  C   UNL A   1      42.155  22.610  28.615  1.00  0.00     0.010 A 
ATOM     70  C   UNL A   1      42.712  23.466  26.417  1.00  0.00     0.010 A 
ATOM     71  C   UNL A   1      42.030  21.324  28.081  1.00  0.00     0.020 A 
ATOM     72  C   UNL A   1      42.557  22.187  25.874  1.00  0.00     0.020 A 
ATOM     73  C   UNL A   1      42.232  21.121  26.713  1.00  0.00     0.054 A 
BRANCH  73  74
ATOM     74  S   UNL A   1      42.030  19.450  26.038  1.00  0.00     0.124 S 
ATOM     75  O   UNL A   1      40.591  19.389  25.803  1.00  0.00    -0.237 OA
ATOM     76  O   UNL A   1      42.867  19.490  24.841  1.00  0.00    -0.237 OA
ATOM     77  O   UNL A   1      42.527  18.587  27.107  1.00  0.00    -0.744 OA
ENDBRANCH  73  74
ENDBRANCH  45  68
BRANCH  57  78
ATOM     78  C   UNL A   1      47.901  27.053  30.686  1.00  0.00    -0.014 A 
ATOM     79  C   UNL A   1      48.969  27.302  29.808  1.00  0.00     0.010 A 
ATOM     80  C   UNL A   1      48.162  26.440  31.926  1.00  0.00     0.010 A 
ATOM     81  C   UNL A   1      50.267  26.915  30.147  1.00  0.00     0.020 A 
ATOM     82  C   UNL A   1      49.464  26.082  32.284  1.00  0.00     0.020 A 
ATOM     83  C   UNL A   1      50.506  26.307  31.384  1.00  0.00     0.054 A 
BRANCH  83  84
ATOM     84  S   UNL A   1      52.207  25.850  31.818  1.00  0.00     0.124 S 
ATOM     85  O   UNL A   1      52.528  26.826  32.856  1.00  0.00    -0.237 OA
ATOM     86  O   UNL A   1      52.060  24.471  32.278  1.00  0.00    -0.237 OA
ATOM     87  O   UNL A   1      52.940  26.008  30.565  1.00  0.00    -0.744 OA
ENDBRANCH  83  84
ENDBRANCH  57  78
ENDBRANCH  31  32
ENDBRANCH  23  26
ENDBRANCH  21  22
ENDBRANCH   1  21
TORSDOF 17
ENDMDL
MODEL 3
REMARK VINA RESULT:     -10.6      0.575      8.534
REMARK SMILES [NH3+]CC(=O)N1C[C@H](O)C[C@H]1C(=O)NCCCNC(=O)c1ccc(-c2c3nc(c(-c4ccc(S(=O)(=O)[O-])cc4)c4ccc([nH]4)c(-c4ccc(S(=O)(=O)[O-])cc4)c4nc(c(-c5ccc(S(=O)(=O)[O-])cc5)c5ccc2[nH]5)C=C4)C=C3)cc1
REMARK SMILES IDX 15 1 14 2 13 3 11 4 12 5 10 7 5 8 6 9 7 10 9 11 3 12 4 13
REMARK SMILES IDX 2 14 1 15 8 19 16 21 17 22 18 23 19 25 20 26 21 27 79 28
REMARK SMILES IDX 22 29 78 30 23 31 24 32 25 33 72 34 26 35 77 36 71 37 73 38
REMARK SMILES IDX 27 39 76 40 70 41 69 42 28 44 58 45 39 46 57 47 40 48 43 49
REMARK SMILES IDX 56 50 74 51 41 52 42 53 55 55 75 56 44 57 29 58 30 59 38 60
REMARK SMILES IDX 31 61 37 62 32 63 33 64 34 65 35 66 36 67 59 68 60 69 68 70
REMARK SMILES IDX 61 71 67 72 62 73 63 74 64 75 65 76 66 77 45 78 46 79 54 80
REMARK SMILES IDX 47 81 53 82 48 83 49 84 50 85 51 86 52 87
REMARK H PARENT 13 6 1 16 1 17 1 18 8 20 17 24 73 43 43 54
REMARK Flexibility Score: inf
ROOT
ATOM      1  C   UNL A   1      37.212  32.319  31.657  1.00  0.00     0.042 C 
ENDROOT
BRANCH   1   2
ATOM      2  C   UNL A   1      36.839  33.133  32.883  1.00  0.00     0.117 C 
BRANCH   2   3
ATOM      3  N   UNL A   1      35.479  32.901  33.318  1.00  0.00    -0.354 N 
ATOM      4  C   UNL A   1      34.351  33.636  33.115  1.00  0.00     0.242 C 
ATOM      5  O   UNL A   1      33.274  33.095  33.392  1.00  0.00    -0.273 OA
ATOM      6  H   UNL A   1      35.348  32.080  33.846  1.00  0.00     0.163 HD
BRANCH   4   7
ATOM      7  C   UNL A   1      34.372  34.982  32.366  1.00  0.00     0.177 C 
ATOM      8  N   UNL A   1      33.581  35.135  31.139  1.00  0.00    -0.323 N 
ATOM      9  C   UNL A   1      32.783  36.350  31.158  1.00  0.00     0.152 C 
ATOM     10  C   UNL A   1      33.285  37.142  32.365  1.00  0.00     0.136 C 
ATOM     11  C   UNL A   1      33.902  36.108  33.296  1.00  0.00     0.069 C 
BRANCH   8  12
ATOM     12  C   UNL A   1      33.876  34.339  30.048  1.00  0.00     0.278 C 
ATOM     13  O   UNL A   1      34.207  33.160  30.205  1.00  0.00    -0.268 OA
BRANCH  12  14
ATOM     14  C   UNL A   1      33.907  34.959  28.644  1.00  0.00     0.360 C 
BRANCH  14  15
ATOM     15  N   UNL A   1      33.107  34.247  27.648  1.00  0.00    -0.350 N 
ATOM     16  H   UNL A   1      33.148  34.746  26.759  1.00  0.00     0.344 HD
ATOM     17  H   UNL A   1      32.139  34.194  27.964  1.00  0.00     0.344 HD
ATOM     18  H   UNL A   1      33.477  33.304  27.526  1.00  0.00     0.344 HD
ENDBRANCH  14  15
ENDBRANCH  12  14
ENDBRANCH   8  12
BRANCH  10  19
ATOM     19  O   UNL A   1      34.279  38.084  31.969  1.00  0.00    -0.391 OA
ATOM     20  H   UNL A   1      35.050  37.613  31.619  1.00  0.00     0.211 HD
ENDBRANCH  10  19
ENDBRANCH   4   7
ENDBRANCH   2   3
ENDBRANCH   1   2
BRANCH   1  21
ATOM     21  C   UNL A   1      36.805  30.854  31.752  1.00  0.00     0.118 C 
BRANCH  21  22
ATOM     22  N   UNL A   1      35.939  30.440  30.654  1.00  0.00    -0.352 N 
ATOM     23  C   UNL A   1      36.255  29.944  29.414  1.00  0.00     0.251 C 
ATOM     24  H   UNL A   1      34.975  30.529  30.831  1.00  0.00     0.163 HD
ATOM     25  O   UNL A   1      35.374  29.853  28.558  1.00  0.00    -0.269 OA
BRANCH  23  26
ATOM     26  C   UNL A   1      37.641  29.540  29.100  1.00  0.00     0.039 A 
ATOM     27  C   UNL A   1      38.093  29.632  27.782  1.00  0.00     0.014 A 
ATOM     28  C   UNL A   1      38.490  29.056  30.098  1.00  0.00     0.014 A 
ATOM     29  C   UNL A   1      39.418  29.304  27.482  1.00  0.00     0.010 A 
ATOM     30  C   UNL A   1      39.831  28.826  29.815  1.00  0.00     0.010 A 
ATOM     31  C   UNL A   1      40.308  28.935  28.503  1.00  0.00    -0.014 A 
BRANCH  31  32
ATOM     32  C   UNL A   1      41.738  28.647  28.218  1.00  0.00     0.031 A 
ATOM     33  C   UNL A   1      42.164  27.254  27.836  1.00  0.00     0.074 A 
ATOM     34  C   UNL A   1      42.658  29.621  28.368  1.00  0.00     0.049 A 
ATOM     35  N   UNL A   1      43.368  26.794  27.610  1.00  0.00    -0.248 NA
ATOM     36  C   UNL A   1      41.104  26.238  27.714  1.00  0.00     0.031 C 
ATOM     37  C   UNL A   1      42.376  31.000  28.777  1.00  0.00     0.029 A 
ATOM     38  N   UNL A   1      44.019  29.601  28.197  1.00  0.00    -0.354 N 
ATOM     39  C   UNL A   1      43.212  25.439  27.342  1.00  0.00     0.074 A 
ATOM     40  C   UNL A   1      41.805  25.138  27.484  1.00  0.00     0.031 C 
ATOM     41  C   UNL A   1      43.523  31.698  28.796  1.00  0.00     0.029 A 
ATOM     42  C   UNL A   1      44.627  30.809  28.448  1.00  0.00     0.049 A 
ATOM     43  H   UNL A   1      44.515  28.796  27.922  1.00  0.00     0.167 HD
ATOM     44  C   UNL A   1      44.151  24.531  26.987  1.00  0.00     0.031 A 
ATOM     45  C   UNL A   1      45.927  31.162  28.412  1.00  0.00     0.031 A 
ATOM     46  C   UNL A   1      45.548  24.838  26.831  1.00  0.00     0.049 A 
ATOM     47  C   UNL A   1      46.952  30.130  28.025  1.00  0.00     0.074 A 
ATOM     48  C   UNL A   1      46.570  24.003  26.419  1.00  0.00     0.029 A 
ATOM     49  N   UNL A   1      46.119  26.076  27.082  1.00  0.00    -0.354 N 
ATOM     50  N   UNL A   1      46.774  28.870  27.707  1.00  0.00    -0.248 NA
ATOM     51  C   UNL A   1      48.352  30.572  27.978  1.00  0.00     0.031 C 
ATOM     52  C   UNL A   1      47.770  24.717  26.478  1.00  0.00     0.029 A 
ATOM     53  C   UNL A   1      47.485  26.020  26.858  1.00  0.00     0.049 A 
ATOM     54  H   UNL A   1      45.628  26.876  27.376  1.00  0.00     0.167 HD
ATOM     55  C   UNL A   1      48.036  28.378  27.389  1.00  0.00     0.074 A 
ATOM     56  C   UNL A   1      48.964  29.481  27.537  1.00  0.00     0.031 C 
ATOM     57  C   UNL A   1      48.394  27.128  27.005  1.00  0.00     0.031 A 
BRANCH  44  58
ATOM     58  C   UNL A   1      43.702  23.113  26.742  1.00  0.00    -0.014 A 
ATOM     59  C   UNL A   1      43.976  22.462  25.526  1.00  0.00     0.010 A 
ATOM     60  C   UNL A   1      43.045  22.402  27.764  1.00  0.00     0.010 A 
ATOM     61  C   UNL A   1      43.577  21.137  25.324  1.00  0.00     0.020 A 
ATOM     62  C   UNL A   1      42.672  21.068  27.579  1.00  0.00     0.020 A 
ATOM     63  C   UNL A   1      42.930  20.448  26.354  1.00  0.00     0.054 A 
BRANCH  63  64
ATOM     64  S   UNL A   1      42.464  18.717  26.079  1.00  0.00     0.124 S 
ATOM     65  O   UNL A   1      42.659  18.139  27.406  1.00  0.00    -0.237 OA
ATOM     66  O   UNL A   1      41.075  18.827  25.640  1.00  0.00    -0.237 OA
ATOM     67  O   UNL A   1      43.404  18.262  25.058  1.00  0.00    -0.744 OA
ENDBRANCH  63  64
ENDBRANCH  44  58
BRANCH  45  68
ATOM     68  C   UNL A   1      46.334  32.555  28.745  1.00  0.00    -0.014 A 
ATOM     69  C   UNL A   1      46.451  33.528  27.735  1.00  0.00     0.010 A 
ATOM     70  C   UNL A   1      46.613  32.917  30.075  1.00  0.00     0.010 A 
ATOM     71  C   UNL A   1      46.867  34.827  28.047  1.00  0.00     0.020 A 
ATOM     72  C   UNL A   1      46.998  34.223  30.395  1.00  0.00     0.020 A 
ATOM     73  C   UNL A   1      47.137  35.165  29.375  1.00  0.00     0.054 A 
BRANCH  73  74
ATOM     74  S   UNL A   1      47.641  36.865  29.759  1.00  0.00     0.124 S 
ATOM     75  O   UNL A   1      48.970  36.930  29.161  1.00  0.00    -0.237 OA
ATOM     76  O   UNL A   1      46.608  37.657  29.096  1.00  0.00    -0.237 OA
ATOM     77  O   UNL A   1      47.608  36.910  31.219  1.00  0.00    -0.744 OA
ENDBRANCH  73  74
ENDBRANCH  45  68
BRANCH  57  78
ATOM     78  C   UNL A   1      49.844  26.891  26.669  1.00  0.00    -0.014 A 
ATOM     79  C   UNL A   1      50.765  26.466  27.642  1.00  0.00     0.010 A 
ATOM     80  C   UNL A   1      50.276  27.050  25.339  1.00  0.00     0.010 A 
ATOM     81  C   UNL A   1      52.099  26.238  27.298  1.00  0.00     0.020 A 
ATOM     82  C   UNL A   1      51.603  26.790  24.985  1.00  0.00     0.020 A 
ATOM     83  C   UNL A   1      52.509  26.401  25.971  1.00  0.00     0.054 A 
BRANCH  83  84
ATOM     84  S   UNL A   1      54.239  26.060  25.543  1.00  0.00     0.124 S 
ATOM     85  O   UNL A   1      54.525  27.115  24.576  1.00  0.00    -0.237 OA
ATOM     86  O   UNL A   1      54.917  26.187  26.831  1.00  0.00    -0.237 OA
ATOM     87  O   UNL A   1      54.201  24.706  24.996  1.00  0.00    -0.744 OA
ENDBRANCH  83  84
ENDBRANCH  57  78
ENDBRANCH  31  32
ENDBRANCH  23  26
ENDBRANCH  21  22
ENDBRANCH   1  21
TORSDOF 17
ENDMDL
