MODEL 1
REMARK VINA RESULT:     -12.2      0.000      0.000
REMARK SMILES CCc1ncc(C[N@H+]2CCC[C@@H](c3cccc(C(=O)NCCCNC(=O)c4ccc(-c5c6nc(c(-c7ccc(S(=O)(=O)[O-])cc7)c7ccc([nH]7)c(-c7ccc(S(=O)(=O)[O-])cc7)c7nc(c(-c8ccc(S(=O)(=O)[O-])cc8)c8ccc5[nH]8)C=C7)C=C6)cc4)c3)C2)cn1
REMARK SMILES IDX 21 1 20 2 18 3 19 4 17 6 13 7 14 8 87 9 15 10 16 11 12 12
REMARK SMILES IDX 8 13 9 14 88 15 10 17 11 18 7 19 6 20 3 21 4 22 90 23 5 24
REMARK SMILES IDX 89 25 2 26 1 27 22 28 23 29 24 30 25 31 26 33 27 34 28 35
REMARK SMILES IDX 86 36 29 37 85 38 30 39 31 40 32 41 79 42 33 43 84 44 78 45
REMARK SMILES IDX 80 46 34 47 83 48 77 49 76 50 35 52 65 53 46 54 64 55 47 56
REMARK SMILES IDX 50 57 63 58 81 59 48 60 49 61 62 63 82 64 51 65 36 66 37 67
REMARK SMILES IDX 45 68 38 69 44 70 39 71 40 72 41 73 42 74 43 75 66 76 67 77
REMARK SMILES IDX 75 78 68 79 74 80 69 81 70 82 71 83 72 84 73 85 52 86 53 87
REMARK SMILES IDX 61 88 54 89 60 90 55 91 56 92 57 93 58 94 59 95
REMARK H PARENT 20 5 8 16 24 32 80 51 50 62
REMARK Flexibility Score: inf
ROOT
ATOM      1  C   UNL A   1      33.376  29.519  26.357  1.00  0.00     0.118 C 
ENDROOT
BRANCH   1   2
ATOM      2  N   UNL A   1      33.665  29.453  24.933  1.00  0.00    -0.352 N 
ATOM      3  C   UNL A   1      33.055  28.917  23.826  1.00  0.00     0.251 C 
ATOM      4  O   UNL A   1      33.622  29.100  22.745  1.00  0.00    -0.269 OA
ATOM      5  H   UNL A   1      34.509  29.905  24.706  1.00  0.00     0.163 HD
BRANCH   3   6
ATOM      6  C   UNL A   1      31.806  28.103  23.843  1.00  0.00     0.040 A 
ATOM      7  C   UNL A   1      30.585  25.997  24.087  1.00  0.00    -0.039 A 
ATOM      8  C   UNL A   1      29.407  26.630  23.687  1.00  0.00     0.004 A 
ATOM      9  C   UNL A   1      31.737  26.776  24.246  1.00  0.00     0.018 A 
ATOM     10  C   UNL A   1      29.416  27.992  23.387  1.00  0.00     0.001 A 
ATOM     11  C   UNL A   1      30.612  28.715  23.435  1.00  0.00     0.014 A 
BRANCH   7  12
ATOM     12  C   UNL A   1      30.693  24.523  24.440  1.00  0.00     0.074 C 
ATOM     13  N   UNL A   1      32.276  22.576  24.249  1.00  0.00    -0.331 N 
ATOM     14  C   UNL A   1      32.128  22.316  25.687  1.00  0.00     0.262 C 
ATOM     15  C   UNL A   1      32.035  23.991  23.928  1.00  0.00     0.270 C 
ATOM     16  H   UNL A   1      31.550  22.029  23.786  1.00  0.00     0.348 HD
ATOM     17  C   UNL A   1      30.744  22.733  26.190  1.00  0.00     0.062 C 
ATOM     18  C   UNL A   1      30.488  24.214  25.926  1.00  0.00     0.020 C 
BRANCH  13  19
ATOM     19  C   UNL A   1      33.556  22.088  23.693  1.00  0.00     0.302 C 
BRANCH  19  20
ATOM     20  C   UNL A   1      34.780  22.426  24.494  1.00  0.00     0.043 A 
ATOM     21  C   UNL A   1      37.180  22.879  25.680  1.00  0.00     0.127 A 
ATOM     22  N   UNL A   1      36.674  23.852  24.898  1.00  0.00    -0.241 NA
ATOM     23  N   UNL A   1      36.550  21.727  25.971  1.00  0.00    -0.241 NA
ATOM     24  C   UNL A   1      35.478  23.602  24.327  1.00  0.00     0.124 A 
ATOM     25  C   UNL A   1      35.359  21.534  25.375  1.00  0.00     0.124 A 
BRANCH  21  26
ATOM     26  C   UNL A   1      38.579  23.052  26.201  1.00  0.00     0.074 C 
ATOM     27  C   UNL A   1      39.375  21.758  26.099  1.00  0.00     0.012 C 
ENDBRANCH  21  26
ENDBRANCH  19  20
ENDBRANCH  13  19
ENDBRANCH   7  12
ENDBRANCH   3   6
ENDBRANCH   1   2
BRANCH   1  28
ATOM     28  C   UNL A   1      34.514  29.019  27.231  1.00  0.00     0.042 C 
BRANCH  28  29
ATOM     29  C   UNL A   1      35.410  30.147  27.719  1.00  0.00     0.118 C 
BRANCH  29  30
ATOM     30  N   UNL A   1      35.407  30.258  29.176  1.00  0.00    -0.352 N 
ATOM     31  C   UNL A   1      36.328  29.859  30.112  1.00  0.00     0.251 C 
ATOM     32  H   UNL A   1      34.608  30.694  29.551  1.00  0.00     0.163 HD
ATOM     33  O   UNL A   1      35.997  29.795  31.291  1.00  0.00    -0.269 OA
BRANCH  31  34
ATOM     34  C   UNL A   1      37.706  29.517  29.704  1.00  0.00     0.039 A 
ATOM     35  C   UNL A   1      38.092  29.695  28.372  1.00  0.00     0.014 A 
ATOM     36  C   UNL A   1      38.602  28.970  30.623  1.00  0.00     0.014 A 
ATOM     37  C   UNL A   1      39.390  29.364  27.981  1.00  0.00     0.010 A 
ATOM     38  C   UNL A   1      39.923  28.756  30.262  1.00  0.00     0.010 A 
ATOM     39  C   UNL A   1      40.323  28.915  28.929  1.00  0.00    -0.014 A 
BRANCH  39  40
ATOM     40  C   UNL A   1      41.704  28.534  28.551  1.00  0.00     0.031 A 
ATOM     41  C   UNL A   1      42.786  29.585  28.543  1.00  0.00     0.074 A 
ATOM     42  C   UNL A   1      41.971  27.273  28.160  1.00  0.00     0.049 A 
ATOM     43  N   UNL A   1      44.029  29.487  28.152  1.00  0.00    -0.248 NA
ATOM     44  C   UNL A   1      42.408  30.936  28.997  1.00  0.00     0.031 C 
ATOM     45  C   UNL A   1      41.000  26.178  28.094  1.00  0.00     0.029 A 
ATOM     46  N   UNL A   1      43.144  26.701  27.740  1.00  0.00    -0.354 N 
ATOM     47  C   UNL A   1      44.572  30.759  28.296  1.00  0.00     0.074 A 
ATOM     48  C   UNL A   1      43.506  31.628  28.739  1.00  0.00     0.031 C 
ATOM     49  C   UNL A   1      41.626  25.058  27.696  1.00  0.00     0.029 A 
ATOM     50  C   UNL A   1      43.028  25.366  27.434  1.00  0.00     0.049 A 
ATOM     51  H   UNL A   1      43.990  27.199  27.664  1.00  0.00     0.167 HD
ATOM     52  C   UNL A   1      45.850  31.165  28.110  1.00  0.00     0.031 A 
ATOM     53  C   UNL A   1      43.950  24.489  26.993  1.00  0.00     0.031 A 
ATOM     54  C   UNL A   1      46.911  30.290  27.693  1.00  0.00     0.049 A 
ATOM     55  C   UNL A   1      45.363  24.966  26.784  1.00  0.00     0.074 A 
ATOM     56  C   UNL A   1      48.249  30.585  27.507  1.00  0.00     0.029 A 
ATOM     57  N   UNL A   1      46.754  28.940  27.412  1.00  0.00    -0.354 N 
ATOM     58  N   UNL A   1      45.865  26.166  26.962  1.00  0.00    -0.248 NA
ATOM     59  C   UNL A   1      46.338  23.964  26.335  1.00  0.00     0.031 C 
ATOM     60  C   UNL A   1      48.895  29.423  27.073  1.00  0.00     0.029 A 
ATOM     61  C   UNL A   1      47.971  28.390  27.049  1.00  0.00     0.049 A 
ATOM     62  H   UNL A   1      45.904  28.447  27.464  1.00  0.00     0.167 HD
ATOM     63  C   UNL A   1      47.224  26.051  26.690  1.00  0.00     0.074 A 
ATOM     64  C   UNL A   1      47.464  24.664  26.345  1.00  0.00     0.031 C 
ATOM     65  C   UNL A   1      48.189  27.003  26.727  1.00  0.00     0.031 A 
BRANCH  52  66
ATOM     66  C   UNL A   1      46.166  32.614  28.371  1.00  0.00    -0.014 A 
ATOM     67  C   UNL A   1      46.055  33.575  27.348  1.00  0.00     0.010 A 
ATOM     68  C   UNL A   1      46.547  33.030  29.660  1.00  0.00     0.010 A 
ATOM     69  C   UNL A   1      46.358  34.915  27.598  1.00  0.00     0.020 A 
ATOM     70  C   UNL A   1      46.820  34.377  29.921  1.00  0.00     0.020 A 
ATOM     71  C   UNL A   1      46.740  35.308  28.884  1.00  0.00     0.054 A 
BRANCH  71  72
ATOM     72  S   UNL A   1      47.096  37.061  29.185  1.00  0.00     0.124 S 
ATOM     73  O   UNL A   1      47.359  37.072  30.621  1.00  0.00    -0.237 OA
ATOM     74  O   UNL A   1      48.257  37.301  28.331  1.00  0.00    -0.237 OA
ATOM     75  O   UNL A   1      45.870  37.740  28.771  1.00  0.00    -0.744 OA
ENDBRANCH  71  72
ENDBRANCH  52  66
BRANCH  53  76
ATOM     76  C   UNL A   1      43.582  23.068  26.746  1.00  0.00    -0.014 A 
ATOM     77  C   UNL A   1      42.932  22.318  27.745  1.00  0.00     0.010 A 
ATOM     78  C   UNL A   1      43.888  22.450  25.521  1.00  0.00     0.010 A 
ATOM     79  C   UNL A   1      42.633  20.969  27.538  1.00  0.00     0.020 A 
ATOM     80  C   UNL A   1      43.561  21.109  25.297  1.00  0.00     0.020 A 
ATOM     81  C   UNL A   1      42.953  20.372  26.315  1.00  0.00     0.054 A 
BRANCH  81  82
ATOM     82  S   UNL A   1      42.538  18.623  26.061  1.00  0.00     0.124 S 
ATOM     83  O   UNL A   1      43.420  18.261  24.957  1.00  0.00    -0.237 OA
ATOM     84  O   UNL A   1      42.865  18.030  27.355  1.00  0.00    -0.237 OA
ATOM     85  O   UNL A   1      41.112  18.654  25.741  1.00  0.00    -0.744 OA
ENDBRANCH  81  82
ENDBRANCH  53  76
BRANCH  65  86
ATOM     86  C   UNL A   1      49.604  26.564  26.460  1.00  0.00    -0.014 A 
ATOM     87  C   UNL A   1      50.437  26.090  27.488  1.00  0.00     0.010 A 
ATOM     88  C   UNL A   1      50.091  26.592  25.139  1.00  0.00     0.010 A 
ATOM     89  C   UNL A   1      51.748  25.696  27.206  1.00  0.00     0.020 A 
ATOM     90  C   UNL A   1      51.388  26.168  24.848  1.00  0.00     0.020 A 
ATOM     91  C   UNL A   1      52.215  25.741  25.888  1.00  0.00     0.054 A 
BRANCH  91  92
ATOM     92  S   UNL A   1      53.911  25.200  25.545  1.00  0.00     0.124 S 
ATOM     93  O   UNL A   1      53.693  24.063  24.654  1.00  0.00    -0.237 OA
ATOM     94  O   UNL A   1      54.506  26.380  24.924  1.00  0.00    -0.237 OA
ATOM     95  O   UNL A   1      54.441  24.863  26.864  1.00  0.00    -0.744 OA
ENDBRANCH  91  92
ENDBRANCH  65  86
ENDBRANCH  39  40
ENDBRANCH  31  34
ENDBRANCH  29  30
ENDBRANCH  28  29
ENDBRANCH   1  28
TORSDOF 17
ENDMDL
MODEL 2
REMARK VINA RESULT:     -12.2      1.670      2.682
REMARK SMILES CCc1ncc(C[N@H+]2CCC[C@@H](c3cccc(C(=O)NCCCNC(=O)c4ccc(-c5c6nc(c(-c7ccc(S(=O)(=O)[O-])cc7)c7ccc([nH]7)c(-c7ccc(S(=O)(=O)[O-])cc7)c7nc(c(-c8ccc(S(=O)(=O)[O-])cc8)c8ccc5[nH]8)C=C7)C=C6)cc4)c3)C2)cn1
REMARK SMILES IDX 21 1 20 2 18 3 19 4 17 6 13 7 14 8 87 9 15 10 16 11 12 12
REMARK SMILES IDX 8 13 9 14 88 15 10 17 11 18 7 19 6 20 3 21 4 22 90 23 5 24
REMARK SMILES IDX 89 25 2 26 1 27 22 28 23 29 24 30 25 31 26 33 27 34 28 35
REMARK SMILES IDX 86 36 29 37 85 38 30 39 31 40 32 41 79 42 33 43 84 44 78 45
REMARK SMILES IDX 80 46 34 47 83 48 77 49 76 50 35 52 65 53 46 54 64 55 47 56
REMARK SMILES IDX 50 57 63 58 81 59 48 60 49 61 62 63 82 64 51 65 36 66 37 67
REMARK SMILES IDX 45 68 38 69 44 70 39 71 40 72 41 73 42 74 43 75 66 76 67 77
REMARK SMILES IDX 75 78 68 79 74 80 69 81 70 82 71 83 72 84 73 85 52 86 53 87
REMARK SMILES IDX 61 88 54 89 60 90 55 91 56 92 57 93 58 94 59 95
REMARK H PARENT 20 5 8 16 24 32 80 51 50 62
REMARK Flexibility Score: inf
ROOT
ATOM      1  C   UNL A   1      34.848  30.579  27.468  1.00  0.00     0.118 C 
ENDROOT
BRANCH   1   2
ATOM      2  N   UNL A   1      33.478  30.140  27.679  1.00  0.00    -0.352 N 
ATOM      3  C   UNL A   1      32.652  29.186  27.139  1.00  0.00     0.251 C 
ATOM      4  O   UNL A   1      31.520  29.101  27.624  1.00  0.00    -0.269 OA
ATOM      5  H   UNL A   1      33.030  30.657  28.388  1.00  0.00     0.163 HD
BRANCH   3   6
ATOM      6  C   UNL A   1      33.003  28.294  25.997  1.00  0.00     0.040 A 
ATOM      7  C   UNL A   1      33.709  26.154  25.045  1.00  0.00    -0.039 A 
ATOM      8  C   UNL A   1      33.807  26.743  23.783  1.00  0.00     0.004 A 
ATOM      9  C   UNL A   1      33.216  26.926  26.103  1.00  0.00     0.018 A 
ATOM     10  C   UNL A   1      33.486  28.091  23.618  1.00  0.00     0.001 A 
ATOM     11  C   UNL A   1      33.116  28.866  24.721  1.00  0.00     0.014 A 
BRANCH   7  12
ATOM     12  C   UNL A   1      34.031  24.699  25.342  1.00  0.00     0.074 C 
ATOM     13  N   UNL A   1      33.405  22.370  24.623  1.00  0.00    -0.331 N 
ATOM     14  C   UNL A   1      34.825  22.045  24.439  1.00  0.00     0.262 C 
ATOM     15  C   UNL A   1      33.153  23.808  24.456  1.00  0.00     0.270 C 
ATOM     16  H   UNL A   1      33.182  22.129  25.589  1.00  0.00     0.348 HD
ATOM     17  C   UNL A   1      35.709  22.842  25.403  1.00  0.00     0.062 C 
ATOM     18  C   UNL A   1      35.515  24.343  25.212  1.00  0.00     0.020 C 
BRANCH  13  19
ATOM     19  C   UNL A   1      32.502  21.546  23.792  1.00  0.00     0.302 C 
BRANCH  19  20
ATOM     20  C   UNL A   1      32.531  20.070  24.071  1.00  0.00     0.043 A 
ATOM     21  C   UNL A   1      32.935  17.422  24.513  1.00  0.00     0.127 A 
ATOM     22  N   UNL A   1      32.958  18.246  25.578  1.00  0.00    -0.241 NA
ATOM     23  N   UNL A   1      32.657  17.808  23.255  1.00  0.00    -0.241 NA
ATOM     24  C   UNL A   1      32.748  19.555  25.330  1.00  0.00     0.124 A 
ATOM     25  C   UNL A   1      32.454  19.124  23.067  1.00  0.00     0.124 A 
BRANCH  21  26
ATOM     26  C   UNL A   1      33.324  15.986  24.726  1.00  0.00     0.074 C 
ATOM     27  C   UNL A   1      34.740  15.869  25.276  1.00  0.00     0.012 C 
ENDBRANCH  21  26
ENDBRANCH  19  20
ENDBRANCH  13  19
ENDBRANCH   7  12
ENDBRANCH   3   6
ENDBRANCH   1   2
BRANCH   1  28
ATOM     28  C   UNL A   1      35.126  31.976  27.997  1.00  0.00     0.042 C 
BRANCH  28  29
ATOM     29  C   UNL A   1      36.311  32.011  28.950  1.00  0.00     0.118 C 
BRANCH  29  30
ATOM     30  N   UNL A   1      36.069  31.220  30.155  1.00  0.00    -0.352 N 
ATOM     31  C   UNL A   1      36.715  30.116  30.653  1.00  0.00     0.251 C 
ATOM     32  H   UNL A   1      35.313  31.532  30.703  1.00  0.00     0.163 HD
ATOM     33  O   UNL A   1      36.172  29.446  31.525  1.00  0.00    -0.269 OA
BRANCH  31  34
ATOM     34  C   UNL A   1      38.053  29.745  30.150  1.00  0.00     0.039 A 
ATOM     35  C   UNL A   1      38.273  29.673  28.772  1.00  0.00     0.014 A 
ATOM     36  C   UNL A   1      39.077  29.416  31.039  1.00  0.00     0.014 A 
ATOM     37  C   UNL A   1      39.533  29.313  28.293  1.00  0.00     0.010 A 
ATOM     38  C   UNL A   1      40.357  29.176  30.564  1.00  0.00     0.010 A 
ATOM     39  C   UNL A   1      40.592  29.086  29.187  1.00  0.00    -0.014 A 
BRANCH  39  40
ATOM     40  C   UNL A   1      41.939  28.682  28.721  1.00  0.00     0.031 A 
ATOM     41  C   UNL A   1      43.039  29.713  28.651  1.00  0.00     0.074 A 
ATOM     42  C   UNL A   1      42.157  27.419  28.305  1.00  0.00     0.049 A 
ATOM     43  N   UNL A   1      44.253  29.594  28.182  1.00  0.00    -0.248 NA
ATOM     44  C   UNL A   1      42.716  31.067  29.137  1.00  0.00     0.031 C 
ATOM     45  C   UNL A   1      41.163  26.343  28.293  1.00  0.00     0.029 A 
ATOM     46  N   UNL A   1      43.290  26.828  27.808  1.00  0.00    -0.354 N 
ATOM     47  C   UNL A   1      44.827  30.855  28.300  1.00  0.00     0.074 A 
ATOM     48  C   UNL A   1      43.809  31.741  28.814  1.00  0.00     0.031 C 
ATOM     49  C   UNL A   1      41.742  25.215  27.849  1.00  0.00     0.029 A 
ATOM     50  C   UNL A   1      43.129  25.498  27.502  1.00  0.00     0.049 A 
ATOM     51  H   UNL A   1      44.139  27.311  27.683  1.00  0.00     0.167 HD
ATOM     52  C   UNL A   1      46.099  31.238  28.037  1.00  0.00     0.031 A 
ATOM     53  C   UNL A   1      44.005  24.608  26.998  1.00  0.00     0.031 A 
ATOM     54  C   UNL A   1      47.115  30.346  27.548  1.00  0.00     0.049 A 
ATOM     55  C   UNL A   1      45.412  25.060  26.704  1.00  0.00     0.074 A 
ATOM     56  C   UNL A   1      48.444  30.618  27.280  1.00  0.00     0.029 A 
ATOM     57  N   UNL A   1      46.915  29.002  27.269  1.00  0.00    -0.354 N 
ATOM     58  N   UNL A   1      45.946  26.248  26.857  1.00  0.00    -0.248 NA
ATOM     59  C   UNL A   1      46.337  24.044  26.188  1.00  0.00     0.031 C 
ATOM     60  C   UNL A   1      49.039  29.448  26.799  1.00  0.00     0.029 A 
ATOM     61  C   UNL A   1      48.096  28.432  26.827  1.00  0.00     0.049 A 
ATOM     62  H   UNL A   1      46.060  28.525  27.371  1.00  0.00     0.167 HD
ATOM     63  C   UNL A   1      47.283  26.110  26.500  1.00  0.00     0.074 A 
ATOM     64  C   UNL A   1      47.474  24.722  26.132  1.00  0.00     0.031 C 
ATOM     65  C   UNL A   1      48.267  27.044  26.483  1.00  0.00     0.031 A 
BRANCH  52  66
ATOM     66  C   UNL A   1      46.459  32.679  28.286  1.00  0.00    -0.014 A 
ATOM     67  C   UNL A   1      46.967  33.093  29.532  1.00  0.00     0.010 A 
ATOM     68  C   UNL A   1      46.319  33.628  27.257  1.00  0.00     0.010 A 
ATOM     69  C   UNL A   1      47.291  34.433  29.757  1.00  0.00     0.020 A 
ATOM     70  C   UNL A   1      46.673  34.965  27.468  1.00  0.00     0.020 A 
ATOM     71  C   UNL A   1      47.140  35.361  28.723  1.00  0.00     0.054 A 
BRANCH  71  72
ATOM     72  S   UNL A   1      47.599  37.088  29.035  1.00  0.00     0.124 S 
ATOM     73  O   UNL A   1      47.410  37.692  27.719  1.00  0.00    -0.237 OA
ATOM     74  O   UNL A   1      46.638  37.494  30.057  1.00  0.00    -0.237 OA
ATOM     75  O   UNL A   1      48.986  37.002  29.487  1.00  0.00    -0.744 OA
ENDBRANCH  71  72
ENDBRANCH  52  66
BRANCH  53  76
ATOM     76  C   UNL A   1      43.595  23.195  26.766  1.00  0.00    -0.014 A 
ATOM     77  C   UNL A   1      42.821  22.513  27.723  1.00  0.00     0.010 A 
ATOM     78  C   UNL A   1      43.984  22.519  25.596  1.00  0.00     0.010 A 
ATOM     79  C   UNL A   1      42.479  21.172  27.534  1.00  0.00     0.020 A 
ATOM     80  C   UNL A   1      43.616  21.186  25.388  1.00  0.00     0.020 A 
ATOM     81  C   UNL A   1      42.883  20.515  26.368  1.00  0.00     0.054 A 
BRANCH  81  82
ATOM     82  S   UNL A   1      42.412  18.778  26.136  1.00  0.00     0.124 S 
ATOM     83  O   UNL A   1      42.674  18.215  27.456  1.00  0.00    -0.237 OA
ATOM     84  O   UNL A   1      41.005  18.880  25.757  1.00  0.00    -0.237 OA
ATOM     85  O   UNL A   1      43.304  18.323  25.071  1.00  0.00    -0.744 OA
ENDBRANCH  81  82
ENDBRANCH  53  76
BRANCH  65  86
ATOM     86  C   UNL A   1      49.653  26.580  26.124  1.00  0.00    -0.014 A 
ATOM     87  C   UNL A   1      50.172  26.737  24.827  1.00  0.00     0.010 A 
ATOM     88  C   UNL A   1      50.465  26.011  27.124  1.00  0.00     0.010 A 
ATOM     89  C   UNL A   1      51.461  26.290  24.525  1.00  0.00     0.020 A 
ATOM     90  C   UNL A   1      51.765  25.594  26.835  1.00  0.00     0.020 A 
ATOM     91  C   UNL A   1      52.247  25.719  25.532  1.00  0.00     0.054 A 
BRANCH  91  92
ATOM     92  S   UNL A   1      53.926  25.171  25.121  1.00  0.00     0.124 S 
ATOM     93  O   UNL A   1      54.200  25.921  23.898  1.00  0.00    -0.237 OA
ATOM     94  O   UNL A   1      54.694  25.579  26.294  1.00  0.00    -0.237 OA
ATOM     95  O   UNL A   1      53.786  23.727  24.947  1.00  0.00    -0.744 OA
ENDBRANCH  91  92
ENDBRANCH  65  86
ENDBRANCH  39  40
ENDBRANCH  31  34
ENDBRANCH  29  30
ENDBRANCH  28  29
ENDBRANCH   1  28
TORSDOF 17
ENDMDL
MODEL 3
REMARK VINA RESULT:     -12.0      6.321     12.008
REMARK SMILES CCc1ncc(C[N@H+]2CCC[C@@H](c3cccc(C(=O)NCCCNC(=O)c4ccc(-c5c6nc(c(-c7ccc(S(=O)(=O)[O-])cc7)c7ccc([nH]7)c(-c7ccc(S(=O)(=O)[O-])cc7)c7nc(c(-c8ccc(S(=O)(=O)[O-])cc8)c8ccc5[nH]8)C=C7)C=C6)cc4)c3)C2)cn1
REMARK SMILES IDX 21 1 20 2 18 3 19 4 17 6 13 7 14 8 87 9 15 10 16 11 12 12
REMARK SMILES IDX 8 13 9 14 88 15 10 17 11 18 7 19 6 20 3 21 4 22 90 23 5 24
REMARK SMILES IDX 89 25 2 26 1 27 22 28 23 29 24 30 25 31 26 33 27 34 28 35
REMARK SMILES IDX 86 36 29 37 85 38 30 39 31 40 32 41 79 42 33 43 84 44 78 45
REMARK SMILES IDX 80 46 34 47 83 48 77 49 76 50 35 52 65 53 46 54 64 55 47 56
REMARK SMILES IDX 50 57 63 58 81 59 48 60 49 61 62 63 82 64 51 65 36 66 37 67
REMARK SMILES IDX 45 68 38 69 44 70 39 71 40 72 41 73 42 74 43 75 66 76 67 77
REMARK SMILES IDX 75 78 68 79 74 80 69 81 70 82 71 83 72 84 73 85 52 86 53 87
REMARK SMILES IDX 61 88 54 89 60 90 55 91 56 92 57 93 58 94 59 95
REMARK H PARENT 20 5 8 16 24 32 80 51 50 62
REMARK Flexibility Score: inf
ROOT
ATOM      1  C   UNL A   1      36.755  23.066  25.716  1.00  0.00     0.118 C 
ENDROOT
BRANCH   1   2
ATOM      2  N   UNL A   1      35.833  22.463  26.666  1.00  0.00    -0.352 N 
ATOM      3  C   UNL A   1      34.606  21.852  26.599  1.00  0.00     0.251 C 
ATOM      4  O   UNL A   1      34.143  21.433  27.663  1.00  0.00    -0.269 OA
ATOM      5  H   UNL A   1      36.175  22.503  27.589  1.00  0.00     0.163 HD
BRANCH   3   6
ATOM      6  C   UNL A   1      33.786  21.706  25.362  1.00  0.00     0.040 A 
ATOM      7  C   UNL A   1      32.430  22.599  23.532  1.00  0.00    -0.039 A 
ATOM      8  C   UNL A   1      32.117  21.301  23.126  1.00  0.00     0.004 A 
ATOM      9  C   UNL A   1      33.337  22.766  24.586  1.00  0.00     0.018 A 
ATOM     10  C   UNL A   1      32.648  20.210  23.813  1.00  0.00     0.001 A 
ATOM     11  C   UNL A   1      33.450  20.411  24.940  1.00  0.00     0.014 A 
BRANCH   7  12
ATOM     12  C   UNL A   1      31.913  23.860  22.859  1.00  0.00     0.074 C 
ATOM     13  N   UNL A   1      30.873  26.084  23.408  1.00  0.00    -0.331 N 
ATOM     14  C   UNL A   1      31.890  26.761  22.593  1.00  0.00     0.262 C 
ATOM     15  C   UNL A   1      31.366  24.804  23.935  1.00  0.00     0.270 C 
ATOM     16  H   UNL A   1      30.097  25.879  22.779  1.00  0.00     0.348 HD
ATOM     17  C   UNL A   1      32.361  25.872  21.439  1.00  0.00     0.062 C 
ATOM     18  C   UNL A   1      32.937  24.558  21.958  1.00  0.00     0.020 C 
BRANCH  13  19
ATOM     19  C   UNL A   1      30.306  26.943  24.469  1.00  0.00     0.302 C 
BRANCH  19  20
ATOM     20  C   UNL A   1      31.279  27.866  25.145  1.00  0.00     0.043 A 
ATOM     21  C   UNL A   1      32.764  29.637  26.570  1.00  0.00     0.127 A 
ATOM     22  N   UNL A   1      32.749  28.355  26.984  1.00  0.00    -0.241 NA
ATOM     23  N   UNL A   1      32.152  30.089  25.461  1.00  0.00    -0.241 NA
ATOM     24  C   UNL A   1      32.009  27.497  26.253  1.00  0.00     0.124 A 
ATOM     25  C   UNL A   1      31.430  29.187  24.771  1.00  0.00     0.124 A 
BRANCH  21  26
ATOM     26  C   UNL A   1      33.443  30.651  27.447  1.00  0.00     0.074 C 
ATOM     27  C   UNL A   1      34.943  30.399  27.529  1.00  0.00     0.012 C 
ENDBRANCH  21  26
ENDBRANCH  19  20
ENDBRANCH  13  19
ENDBRANCH   7  12
ENDBRANCH   3   6
ENDBRANCH   1   2
BRANCH   1  28
ATOM     28  C   UNL A   1      38.214  22.752  26.003  1.00  0.00     0.042 C 
BRANCH  28  29
ATOM     29  C   UNL A   1      38.928  23.897  26.703  1.00  0.00     0.118 C 
BRANCH  29  30
ATOM     30  N   UNL A   1      40.221  24.194  26.089  1.00  0.00    -0.352 N 
ATOM     31  C   UNL A   1      41.062  25.268  26.234  1.00  0.00     0.251 C 
ATOM     32  H   UNL A   1      40.544  23.505  25.463  1.00  0.00     0.163 HD
ATOM     33  O   UNL A   1      41.956  25.447  25.414  1.00  0.00    -0.269 OA
BRANCH  31  34
ATOM     34  C   UNL A   1      40.897  26.196  27.372  1.00  0.00     0.039 A 
ATOM     35  C   UNL A   1      40.013  25.866  28.404  1.00  0.00     0.014 A 
ATOM     36  C   UNL A   1      41.574  27.416  27.395  1.00  0.00     0.014 A 
ATOM     37  C   UNL A   1      39.847  26.745  29.475  1.00  0.00     0.010 A 
ATOM     38  C   UNL A   1      41.500  28.229  28.515  1.00  0.00     0.010 A 
ATOM     39  C   UNL A   1      40.609  27.922  29.551  1.00  0.00    -0.014 A 
BRANCH  39  40
ATOM     40  C   UNL A   1      40.448  28.891  30.661  1.00  0.00     0.031 A 
ATOM     41  C   UNL A   1      41.325  28.769  31.883  1.00  0.00     0.074 A 
ATOM     42  C   UNL A   1      39.484  29.830  30.601  1.00  0.00     0.049 A 
ATOM     43  N   UNL A   1      41.283  29.446  32.999  1.00  0.00    -0.248 NA
ATOM     44  C   UNL A   1      42.361  27.721  31.859  1.00  0.00     0.031 C 
ATOM     45  C   UNL A   1      38.552  30.023  29.487  1.00  0.00     0.029 A 
ATOM     46  N   UNL A   1      39.127  30.798  31.503  1.00  0.00    -0.354 N 
ATOM     47  C   UNL A   1      42.268  28.895  33.812  1.00  0.00     0.074 A 
ATOM     48  C   UNL A   1      42.842  27.783  33.091  1.00  0.00     0.031 C 
ATOM     49  C   UNL A   1      37.757  31.071  29.756  1.00  0.00     0.029 A 
ATOM     50  C   UNL A   1      38.089  31.592  31.077  1.00  0.00     0.049 A 
ATOM     51  H   UNL A   1      39.572  30.914  32.373  1.00  0.00     0.167 HD
ATOM     52  C   UNL A   1      42.684  29.297  35.036  1.00  0.00     0.031 A 
ATOM     53  C   UNL A   1      37.475  32.625  31.686  1.00  0.00     0.031 A 
ATOM     54  C   UNL A   1      42.126  30.421  35.738  1.00  0.00     0.049 A 
ATOM     55  C   UNL A   1      37.950  33.049  33.051  1.00  0.00     0.074 A 
ATOM     56  C   UNL A   1      42.494  30.939  36.966  1.00  0.00     0.029 A 
ATOM     57  N   UNL A   1      41.088  31.210  35.263  1.00  0.00    -0.354 N 
ATOM     58  N   UNL A   1      38.909  32.538  33.787  1.00  0.00    -0.248 NA
ATOM     59  C   UNL A   1      37.272  34.201  33.658  1.00  0.00     0.031 C 
ATOM     60  C   UNL A   1      41.651  32.017  37.254  1.00  0.00     0.029 A 
ATOM     61  C   UNL A   1      40.800  32.208  36.177  1.00  0.00     0.049 A 
ATOM     62  H   UNL A   1      40.626  31.079  34.404  1.00  0.00     0.167 HD
ATOM     63  C   UNL A   1      38.979  33.337  34.924  1.00  0.00     0.074 A 
ATOM     64  C   UNL A   1      37.971  34.367  34.771  1.00  0.00     0.031 C 
ATOM     65  C   UNL A   1      39.804  33.233  35.995  1.00  0.00     0.031 A 
BRANCH  52  66
ATOM     66  C   UNL A   1      43.805  28.524  35.680  1.00  0.00    -0.014 A 
ATOM     67  C   UNL A   1      43.537  27.444  36.542  1.00  0.00     0.010 A 
ATOM     68  C   UNL A   1      45.142  28.857  35.398  1.00  0.00     0.010 A 
ATOM     69  C   UNL A   1      44.583  26.738  37.141  1.00  0.00     0.020 A 
ATOM     70  C   UNL A   1      46.192  28.131  35.970  1.00  0.00     0.020 A 
ATOM     71  C   UNL A   1      45.905  27.087  36.851  1.00  0.00     0.054 A 
BRANCH  71  72
ATOM     72  S   UNL A   1      47.241  26.131  37.620  1.00  0.00     0.124 S 
ATOM     73  O   UNL A   1      48.044  27.182  38.239  1.00  0.00    -0.237 OA
ATOM     74  O   UNL A   1      46.520  25.262  38.546  1.00  0.00    -0.237 OA
ATOM     75  O   UNL A   1      47.872  25.448  36.492  1.00  0.00    -0.744 OA
ENDBRANCH  71  72
ENDBRANCH  52  66
BRANCH  53  76
ATOM     76  C   UNL A   1      36.369  33.352  31.005  1.00  0.00    -0.014 A 
ATOM     77  C   UNL A   1      36.585  33.970  29.759  1.00  0.00     0.010 A 
ATOM     78  C   UNL A   1      35.099  33.443  31.600  1.00  0.00     0.010 A 
ATOM     79  C   UNL A   1      35.565  34.699  29.142  1.00  0.00     0.020 A 
ATOM     80  C   UNL A   1      34.065  34.145  30.970  1.00  0.00     0.020 A 
ATOM     81  C   UNL A   1      34.311  34.784  29.754  1.00  0.00     0.054 A 
BRANCH  81  82
ATOM     82  S   UNL A   1      32.996  35.720  28.925  1.00  0.00     0.124 S 
ATOM     83  O   UNL A   1      32.209  36.200  30.056  1.00  0.00    -0.237 OA
ATOM     84  O   UNL A   1      33.745  36.740  28.195  1.00  0.00    -0.237 OA
ATOM     85  O   UNL A   1      32.342  34.718  28.086  1.00  0.00    -0.744 OA
ENDBRANCH  81  82
ENDBRANCH  53  76
BRANCH  65  86
ATOM     86  C   UNL A   1      39.704  34.302  37.051  1.00  0.00    -0.014 A 
ATOM     87  C   UNL A   1      38.912  34.133  38.200  1.00  0.00     0.010 A 
ATOM     88  C   UNL A   1      40.453  35.484  36.900  1.00  0.00     0.010 A 
ATOM     89  C   UNL A   1      38.836  35.148  39.158  1.00  0.00     0.020 A 
ATOM     90  C   UNL A   1      40.406  36.486  37.871  1.00  0.00     0.020 A 
ATOM     91  C   UNL A   1      39.582  36.318  38.985  1.00  0.00     0.054 A 
BRANCH  91  92
ATOM     92  S   UNL A   1      39.486  37.609  40.255  1.00  0.00     0.124 S 
ATOM     93  O   UNL A   1      40.741  38.328  40.052  1.00  0.00    -0.237 OA
ATOM     94  O   UNL A   1      38.277  38.338  39.882  1.00  0.00    -0.237 OA
ATOM     95  O   UNL A   1      39.394  36.858  41.505  1.00  0.00    -0.744 OA
ENDBRANCH  91  92
ENDBRANCH  65  86
ENDBRANCH  39  40
ENDBRANCH  31  34
ENDBRANCH  29  30
ENDBRANCH  28  29
ENDBRANCH   1  28
TORSDOF 17
ENDMDL
