MODEL 1
REMARK VINA RESULT:     -13.4      0.000      0.000
REMARK SMILES C[C@]12CC[C@@H]3[C@@H](CCC4=C/C(=N\OCC(=O)N5CCC[C@@H]5C(=O)NCCCNC(=O)c5ccc(-c6c7nc(c(-c8ccc(S(=O)(=O)[O-])cc8)c8ccc([nH]8)c(-c8ccc(S(=O)(=O)[O-])cc8)c8nc(c(-c9ccc(S(=O)(=O)[O-])cc9)c9ccc6[nH]9)C=C8)C=C7)cc5)CC[C@@]43C)[C@@H]1CC[C@@H]2O
REMARK SMILES IDX 25 1 24 2 22 3 23 4 21 6 17 7 18 8 19 9 20 10 15 11 16 12
REMARK SMILES IDX 14 13 13 14 12 15 1 16 2 17 3 18 95 19 98 20 4 21 6 22 96 23
REMARK SMILES IDX 97 24 5 25 7 26 93 27 8 28 9 29 92 30 94 31 10 32 91 33
REMARK SMILES IDX 11 34 99 35 26 37 27 38 28 39 29 40 30 42 31 43 32 44 90 45
REMARK SMILES IDX 33 46 89 47 34 48 35 49 36 50 83 51 37 52 88 53 82 54 84 55
REMARK SMILES IDX 38 56 87 57 81 58 80 59 39 61 69 62 50 63 68 64 51 65 54 66
REMARK SMILES IDX 67 67 85 68 52 69 53 70 66 72 86 73 55 74 40 75 41 76 49 77
REMARK SMILES IDX 42 78 48 79 43 80 44 81 45 82 46 83 47 84 70 85 71 86 79 87
REMARK SMILES IDX 72 88 78 89 73 90 74 91 75 92 76 93 77 94 56 95 57 96 65 97
REMARK SMILES IDX 58 98 64 99 59 100 60 101 61 102 62 103 63 104
REMARK H PARENT 24 5 99 36 28 41 84 60 54 71
REMARK Flexibility Score: inf
ROOT
ATOM      1  C   UNL A   1      44.180  23.524  24.438  1.00  0.00     0.117 C 
ENDROOT
BRANCH   1   2
ATOM      2  N   UNL A   1      44.544  22.693  25.566  1.00  0.00    -0.354 N 
ATOM      3  C   UNL A   1      43.692  21.936  26.320  1.00  0.00     0.242 C 
ATOM      4  O   UNL A   1      43.620  22.215  27.522  1.00  0.00    -0.273 OA
ATOM      5  H   UNL A   1      45.497  22.670  25.813  1.00  0.00     0.163 HD
BRANCH   3   6
ATOM      6  C   UNL A   1      42.734  20.885  25.711  1.00  0.00     0.174 C 
ATOM      7  N   UNL A   1      41.524  20.580  26.472  1.00  0.00    -0.328 N 
ATOM      8  C   UNL A   1      41.394  19.162  26.741  1.00  0.00     0.120 C 
ATOM      9  C   UNL A   1      42.731  18.536  26.398  1.00  0.00     0.024 C 
ATOM     10  C   UNL A   1      43.404  19.533  25.459  1.00  0.00     0.037 C 
BRANCH   7  11
ATOM     11  C   UNL A   1      40.405  21.379  26.625  1.00  0.00     0.264 C 
ATOM     12  O   UNL A   1      40.291  22.108  27.621  1.00  0.00    -0.271 OA
BRANCH  11  13
ATOM     13  C   UNL A   1      39.193  21.202  25.682  1.00  0.00     0.363 C 
BRANCH  13  14
ATOM     14  O   UNL A   1      37.955  21.835  25.927  1.00  0.00    -0.385 OA
BRANCH  14  15
ATOM     15  N   UNL A   1      37.403  22.183  24.699  1.00  0.00    -0.091 NA
ATOM     16  C   UNL A   1      29.764  26.253  23.730  1.00  0.00     0.014 C 
ATOM     17  C   UNL A   1      31.252  25.923  24.043  1.00  0.00    -0.003 C 
ATOM     18  C   UNL A   1      31.713  25.055  22.877  1.00  0.00     0.010 C 
ATOM     19  C   UNL A   1      31.538  25.294  25.436  1.00  0.00     0.001 C 
ATOM     20  C   UNL A   1      32.068  27.207  24.311  1.00  0.00     0.120 C 
ATOM     21  C   UNL A   1      31.285  23.591  23.074  1.00  0.00     0.005 C 
ATOM     22  C   UNL A   1      31.136  23.836  25.607  1.00  0.00    -0.003 C 
ATOM     23  C   UNL A   1      31.035  26.399  26.381  1.00  0.00     0.007 C 
ATOM     24  C   UNL A   1      31.449  27.703  25.634  1.00  0.00     0.032 C 
ATOM     25  C   UNL A   1      31.694  22.987  24.436  1.00  0.00     0.002 C 
ATOM     26  C   UNL A   1      31.592  23.192  26.926  1.00  0.00     0.008 C 
ATOM     27  C   UNL A   1      33.225  22.552  24.515  1.00  0.00    -0.008 C 
ATOM     28  C   UNL A   1      33.110  23.063  27.098  1.00  0.00     0.032 C 
ATOM     29  C   UNL A   1      33.924  22.736  25.866  1.00  0.00    -0.062 C 
ATOM     30  C   UNL A   1      34.127  23.307  23.505  1.00  0.00     0.018 C 
ATOM     31  C   UNL A   1      33.232  21.039  24.166  1.00  0.00     0.016 C 
ATOM     32  C   UNL A   1      35.276  22.679  25.968  1.00  0.00     0.027 C 
ATOM     33  C   UNL A   1      35.547  22.801  23.410  1.00  0.00     0.061 C 
ATOM     34  C   UNL A   1      36.154  22.521  24.761  1.00  0.00     0.080 C 
BRANCH  20  35
ATOM     35  O   UNL A   1      32.067  28.148  23.269  1.00  0.00    -0.393 OA
ATOM     36  H   UNL A   1      32.410  27.735  22.461  1.00  0.00     0.210 HD
ENDBRANCH  20  35
ENDBRANCH  14  15
ENDBRANCH  13  14
ENDBRANCH  11  13
ENDBRANCH   7  11
ENDBRANCH   3   6
ENDBRANCH   1   2
BRANCH   1  37
ATOM     37  C   UNL A   1      44.018  24.992  24.853  1.00  0.00     0.042 C 
BRANCH  37  38
ATOM     38  C   UNL A   1      43.025  25.209  25.998  1.00  0.00     0.118 C 
BRANCH  38  39
ATOM     39  N   UNL A   1      41.653  24.955  25.583  1.00  0.00    -0.352 N 
ATOM     40  C   UNL A   1      40.467  25.252  26.209  1.00  0.00     0.251 C 
ATOM     41  H   UNL A   1      41.561  24.498  24.716  1.00  0.00     0.163 HD
ATOM     42  O   UNL A   1      39.434  24.718  25.811  1.00  0.00    -0.269 OA
BRANCH  40  43
ATOM     43  C   UNL A   1      40.412  26.197  27.349  1.00  0.00     0.039 A 
ATOM     44  C   UNL A   1      41.189  27.360  27.299  1.00  0.00     0.014 A 
ATOM     45  C   UNL A   1      39.664  25.914  28.495  1.00  0.00     0.014 A 
ATOM     46  C   UNL A   1      41.175  28.258  28.371  1.00  0.00     0.010 A 
ATOM     47  C   UNL A   1      39.598  26.843  29.534  1.00  0.00     0.010 A 
ATOM     48  C   UNL A   1      40.358  28.022  29.488  1.00  0.00    -0.014 A 
BRANCH  48  49
ATOM     49  C   UNL A   1      40.290  28.991  30.615  1.00  0.00     0.031 A 
ATOM     50  C   UNL A   1      41.195  28.834  31.809  1.00  0.00     0.074 A 
ATOM     51  C   UNL A   1      39.372  29.977  30.592  1.00  0.00     0.049 A 
ATOM     52  N   UNL A   1      41.237  29.539  32.911  1.00  0.00    -0.248 NA
ATOM     53  C   UNL A   1      42.164  27.726  31.771  1.00  0.00     0.031 C 
ATOM     54  C   UNL A   1      38.415  30.217  29.509  1.00  0.00     0.029 A 
ATOM     55  N   UNL A   1      39.086  30.959  31.508  1.00  0.00    -0.354 N 
ATOM     56  C   UNL A   1      42.215  28.950  33.704  1.00  0.00     0.074 A 
ATOM     57  C   UNL A   1      42.713  27.803  32.975  1.00  0.00     0.031 C 
ATOM     58  C   UNL A   1      37.668  31.291  29.812  1.00  0.00     0.029 A 
ATOM     59  C   UNL A   1      38.059  31.790  31.127  1.00  0.00     0.049 A 
ATOM     60  H   UNL A   1      39.572  31.057  32.359  1.00  0.00     0.167 HD
ATOM     61  C   UNL A   1      42.670  29.335  34.921  1.00  0.00     0.031 A 
ATOM     62  C   UNL A   1      37.490  32.832  31.764  1.00  0.00     0.031 A 
ATOM     63  C   UNL A   1      42.182  30.485  35.638  1.00  0.00     0.049 A 
ATOM     64  C   UNL A   1      38.006  33.236  33.117  1.00  0.00     0.074 A 
ATOM     65  C   UNL A   1      42.620  30.993  36.849  1.00  0.00     0.029 A 
ATOM     66  N   UNL A   1      41.148  31.304  35.212  1.00  0.00    -0.354 N 
ATOM     67  N   UNL A   1      38.976  32.702  33.821  1.00  0.00    -0.248 NA
ATOM     68  C   UNL A   1      37.360  34.389  33.757  1.00  0.00     0.031 C 
ATOM     69  C   UNL A   1      41.816  32.088  37.180  1.00  0.00     0.029 A 
ATOM     70  C   UNL A   1      40.916  32.298  36.147  1.00  0.00     0.049 A 
ATOM     71  H   UNL A   1      40.651  31.194  34.369  1.00  0.00     0.167 HD
ATOM     72  C   UNL A   1      39.073  33.472  34.975  1.00  0.00     0.074 A 
ATOM     73  C   UNL A   1      38.074  34.516  34.866  1.00  0.00     0.031 C 
ATOM     74  C   UNL A   1      39.916  33.330  36.027  1.00  0.00     0.031 A 
BRANCH  61  75
ATOM     75  C   UNL A   1      43.745  28.496  35.564  1.00  0.00    -0.014 A 
ATOM     76  C   UNL A   1      45.108  28.761  35.341  1.00  0.00     0.010 A 
ATOM     77  C   UNL A   1      43.387  27.452  36.437  1.00  0.00     0.010 A 
ATOM     78  C   UNL A   1      46.092  27.971  35.941  1.00  0.00     0.020 A 
ATOM     79  C   UNL A   1      44.369  26.678  37.064  1.00  0.00     0.020 A 
ATOM     80  C   UNL A   1      45.716  26.931  36.796  1.00  0.00     0.054 A 
BRANCH  80  81
ATOM     81  S   UNL A   1      47.016  25.931  37.574  1.00  0.00     0.124 S 
ATOM     82  O   UNL A   1      46.348  24.643  37.736  1.00  0.00    -0.237 OA
ATOM     83  O   UNL A   1      48.083  25.965  36.580  1.00  0.00    -0.237 OA
ATOM     84  O   UNL A   1      47.304  26.645  38.818  1.00  0.00    -0.744 OA
ENDBRANCH  80  81
ENDBRANCH  61  75
BRANCH  62  85
ATOM     85  C   UNL A   1      36.375  33.577  31.118  1.00  0.00    -0.014 A 
ATOM     86  C   UNL A   1      35.251  33.969  31.867  1.00  0.00     0.010 A 
ATOM     87  C   UNL A   1      36.437  33.916  29.753  1.00  0.00     0.010 A 
ATOM     88  C   UNL A   1      34.204  34.668  31.262  1.00  0.00     0.020 A 
ATOM     89  C   UNL A   1      35.405  34.640  29.152  1.00  0.00     0.020 A 
ATOM     90  C   UNL A   1      34.289  35.003  29.907  1.00  0.00     0.054 A 
BRANCH  90  91
ATOM     91  S   UNL A   1      32.942  35.959  29.155  1.00  0.00     0.124 S 
ATOM     92  O   UNL A   1      32.112  36.274  30.313  1.00  0.00    -0.237 OA
ATOM     93  O   UNL A   1      33.652  37.088  28.558  1.00  0.00    -0.237 OA
ATOM     94  O   UNL A   1      32.355  35.026  28.197  1.00  0.00    -0.744 OA
ENDBRANCH  90  91
ENDBRANCH  62  85
BRANCH  74  95
ATOM     95  C   UNL A   1      39.822  34.346  37.134  1.00  0.00    -0.014 A 
ATOM     96  C   UNL A   1      40.416  35.615  37.013  1.00  0.00     0.010 A 
ATOM     97  C   UNL A   1      39.083  34.043  38.291  1.00  0.00     0.010 A 
ATOM     98  C   UNL A   1      40.297  36.551  38.044  1.00  0.00     0.020 A 
ATOM     99  C   UNL A   1      38.937  34.986  39.311  1.00  0.00     0.020 A 
ATOM    100  C   UNL A   1      39.558  36.230  39.187  1.00  0.00     0.054 A 
BRANCH 100 101
ATOM    101  S   UNL A   1      39.380  37.478  40.491  1.00  0.00     0.124 S 
ATOM    102  O   UNL A   1      38.552  38.486  39.836  1.00  0.00    -0.237 OA
ATOM    103  O   UNL A   1      38.729  36.731  41.565  1.00  0.00    -0.237 OA
ATOM    104  O   UNL A   1      40.755  37.887  40.770  1.00  0.00    -0.744 OA
ENDBRANCH 100 101
ENDBRANCH  74  95
ENDBRANCH  48  49
ENDBRANCH  40  43
ENDBRANCH  38  39
ENDBRANCH  37  38
ENDBRANCH   1  37
TORSDOF 18
ENDMDL
MODEL 2
REMARK VINA RESULT:     -13.3      1.289      1.951
REMARK SMILES C[C@]12CC[C@@H]3[C@@H](CCC4=C/C(=N\OCC(=O)N5CCC[C@@H]5C(=O)NCCCNC(=O)c5ccc(-c6c7nc(c(-c8ccc(S(=O)(=O)[O-])cc8)c8ccc([nH]8)c(-c8ccc(S(=O)(=O)[O-])cc8)c8nc(c(-c9ccc(S(=O)(=O)[O-])cc9)c9ccc6[nH]9)C=C8)C=C7)cc5)CC[C@@]43C)[C@@H]1CC[C@@H]2O
REMARK SMILES IDX 25 1 24 2 22 3 23 4 21 6 17 7 18 8 19 9 20 10 15 11 16 12
REMARK SMILES IDX 14 13 13 14 12 15 1 16 2 17 3 18 95 19 98 20 4 21 6 22 96 23
REMARK SMILES IDX 97 24 5 25 7 26 93 27 8 28 9 29 92 30 94 31 10 32 91 33
REMARK SMILES IDX 11 34 99 35 26 37 27 38 28 39 29 40 30 42 31 43 32 44 90 45
REMARK SMILES IDX 33 46 89 47 34 48 35 49 36 50 83 51 37 52 88 53 82 54 84 55
REMARK SMILES IDX 38 56 87 57 81 58 80 59 39 61 69 62 50 63 68 64 51 65 54 66
REMARK SMILES IDX 67 67 85 68 52 69 53 70 66 72 86 73 55 74 40 75 41 76 49 77
REMARK SMILES IDX 42 78 48 79 43 80 44 81 45 82 46 83 47 84 70 85 71 86 79 87
REMARK SMILES IDX 72 88 78 89 73 90 74 91 75 92 76 93 77 94 56 95 57 96 65 97
REMARK SMILES IDX 58 98 64 99 59 100 60 101 61 102 62 103 63 104
REMARK H PARENT 24 5 99 36 28 41 84 60 54 71
REMARK Flexibility Score: inf
ROOT
ATOM      1  C   UNL A   1      45.611  23.665  24.716  1.00  0.00     0.117 C 
ENDROOT
BRANCH   1   2
ATOM      2  N   UNL A   1      45.464  22.892  25.930  1.00  0.00    -0.354 N 
ATOM      3  C   UNL A   1      44.351  22.200  26.318  1.00  0.00     0.242 C 
ATOM      4  O   UNL A   1      43.823  22.549  27.380  1.00  0.00    -0.273 OA
ATOM      5  H   UNL A   1      46.241  22.860  26.535  1.00  0.00     0.163 HD
BRANCH   3   6
ATOM      6  C   UNL A   1      43.663  21.140  25.425  1.00  0.00     0.174 C 
ATOM      7  N   UNL A   1      42.921  20.085  26.112  1.00  0.00    -0.328 N 
ATOM      8  C   UNL A   1      43.364  18.763  25.716  1.00  0.00     0.120 C 
ATOM      9  C   UNL A   1      44.659  18.955  24.955  1.00  0.00     0.024 C 
ATOM     10  C   UNL A   1      44.637  20.410  24.497  1.00  0.00     0.037 C 
BRANCH   7  11
ATOM     11  C   UNL A   1      41.702  20.200  26.757  1.00  0.00     0.264 C 
ATOM     12  O   UNL A   1      41.438  19.469  27.723  1.00  0.00    -0.271 OA
BRANCH  11  13
ATOM     13  C   UNL A   1      40.581  21.069  26.145  1.00  0.00     0.363 C 
BRANCH  13  14
ATOM     14  O   UNL A   1      39.385  21.348  26.842  1.00  0.00    -0.385 OA
BRANCH  14  15
ATOM     15  N   UNL A   1      38.957  22.616  26.465  1.00  0.00    -0.091 NA
ATOM     16  C   UNL A   1      30.767  24.571  24.238  1.00  0.00     0.014 C 
ATOM     17  C   UNL A   1      32.051  24.199  25.035  1.00  0.00    -0.003 C 
ATOM     18  C   UNL A   1      33.145  25.085  24.448  1.00  0.00     0.010 C 
ATOM     19  C   UNL A   1      32.425  22.691  25.072  1.00  0.00     0.001 C 
ATOM     20  C   UNL A   1      31.818  24.311  26.558  1.00  0.00     0.120 C 
ATOM     21  C   UNL A   1      33.706  24.481  23.149  1.00  0.00     0.005 C 
ATOM     22  C   UNL A   1      33.006  22.115  23.788  1.00  0.00    -0.003 C 
ATOM     23  C   UNL A   1      31.188  22.084  25.756  1.00  0.00     0.007 C 
ATOM     24  C   UNL A   1      30.811  23.170  26.807  1.00  0.00     0.032 C 
ATOM     25  C   UNL A   1      34.164  23.011  23.276  1.00  0.00     0.002 C 
ATOM     26  C   UNL A   1      33.532  20.676  23.907  1.00  0.00     0.008 C 
ATOM     27  C   UNL A   1      35.586  22.836  23.974  1.00  0.00    -0.008 C 
ATOM     28  C   UNL A   1      34.736  20.496  24.839  1.00  0.00     0.032 C 
ATOM     29  C   UNL A   1      35.770  21.600  24.860  1.00  0.00    -0.062 C 
ATOM     30  C   UNL A   1      35.968  24.030  24.887  1.00  0.00     0.018 C 
ATOM     31  C   UNL A   1      36.600  22.750  22.802  1.00  0.00     0.016 C 
ATOM     32  C   UNL A   1      36.815  21.505  25.721  1.00  0.00     0.027 C 
ATOM     33  C   UNL A   1      37.381  24.000  25.422  1.00  0.00     0.061 C 
ATOM     34  C   UNL A   1      37.787  22.633  25.912  1.00  0.00     0.080 C 
BRANCH  20  35
ATOM     35  O   UNL A   1      31.404  25.574  27.012  1.00  0.00    -0.393 OA
ATOM     36  H   UNL A   1      30.935  25.476  27.855  1.00  0.00     0.210 HD
ENDBRANCH  20  35
ENDBRANCH  14  15
ENDBRANCH  13  14
ENDBRANCH  11  13
ENDBRANCH   7  11
ENDBRANCH   3   6
ENDBRANCH   1   2
BRANCH   1  37
ATOM     37  C   UNL A   1      45.838  25.152  25.023  1.00  0.00     0.042 C 
BRANCH  37  38
ATOM     38  C   UNL A   1      44.709  25.801  25.827  1.00  0.00     0.118 C 
BRANCH  38  39
ATOM     39  N   UNL A   1      43.419  25.655  25.168  1.00  0.00    -0.352 N 
ATOM     40  C   UNL A   1      42.152  25.924  25.625  1.00  0.00     0.251 C 
ATOM     41  H   UNL A   1      43.462  25.308  24.247  1.00  0.00     0.163 HD
ATOM     42  O   UNL A   1      41.189  25.484  25.003  1.00  0.00    -0.269 OA
BRANCH  40  43
ATOM     43  C   UNL A   1      41.930  26.728  26.850  1.00  0.00     0.039 A 
ATOM     44  C   UNL A   1      42.439  28.030  26.903  1.00  0.00     0.014 A 
ATOM     45  C   UNL A   1      41.292  26.189  27.971  1.00  0.00     0.014 A 
ATOM     46  C   UNL A   1      42.265  28.804  28.055  1.00  0.00     0.010 A 
ATOM     47  C   UNL A   1      41.059  26.985  29.093  1.00  0.00     0.010 A 
ATOM     48  C   UNL A   1      41.549  28.298  29.152  1.00  0.00    -0.014 A 
BRANCH  48  49
ATOM     49  C   UNL A   1      41.309  29.124  30.366  1.00  0.00     0.031 A 
ATOM     50  C   UNL A   1      42.177  28.955  31.586  1.00  0.00     0.074 A 
ATOM     51  C   UNL A   1      40.271  29.984  30.392  1.00  0.00     0.049 A 
ATOM     52  N   UNL A   1      42.080  29.537  32.754  1.00  0.00    -0.248 NA
ATOM     53  C   UNL A   1      43.282  27.988  31.489  1.00  0.00     0.031 C 
ATOM     54  C   UNL A   1      39.337  30.217  29.289  1.00  0.00     0.029 A 
ATOM     55  N   UNL A   1      39.822  30.817  31.387  1.00  0.00    -0.354 N 
ATOM     56  C   UNL A   1      43.093  28.994  33.536  1.00  0.00     0.074 A 
ATOM     57  C   UNL A   1      43.766  28.004  32.722  1.00  0.00     0.031 C 
ATOM     58  C   UNL A   1      38.443  31.149  29.658  1.00  0.00     0.029 A 
ATOM     59  C   UNL A   1      38.712  31.549  31.036  1.00  0.00     0.049 A 
ATOM     60  H   UNL A   1      40.255  30.884  32.268  1.00  0.00     0.167 HD
ATOM     61  C   UNL A   1      43.443  29.300  34.809  1.00  0.00     0.031 A 
ATOM     62  C   UNL A   1      37.985  32.436  31.742  1.00  0.00     0.031 A 
ATOM     63  C   UNL A   1      42.780  30.296  35.610  1.00  0.00     0.049 A 
ATOM     64  C   UNL A   1      38.388  32.754  33.156  1.00  0.00     0.074 A 
ATOM     65  C   UNL A   1      43.097  30.722  36.889  1.00  0.00     0.029 A 
ATOM     66  N   UNL A   1      41.666  31.019  35.214  1.00  0.00    -0.354 N 
ATOM     67  N   UNL A   1      39.389  32.274  33.854  1.00  0.00    -0.248 NA
ATOM     68  C   UNL A   1      37.570  33.742  33.873  1.00  0.00     0.031 C 
ATOM     69  C   UNL A   1      42.143  31.665  37.285  1.00  0.00     0.029 A 
ATOM     70  C   UNL A   1      41.267  31.870  36.230  1.00  0.00     0.049 A 
ATOM     71  H   UNL A   1      41.223  30.939  34.338  1.00  0.00     0.167 HD
ATOM     72  C   UNL A   1      39.337  32.922  35.084  1.00  0.00     0.074 A 
ATOM     73  C   UNL A   1      38.215  33.838  35.027  1.00  0.00     0.031 C 
ATOM     74  C   UNL A   1      40.147  32.775  36.161  1.00  0.00     0.031 A 
BRANCH  61  75
ATOM     75  C   UNL A   1      44.591  28.539  35.421  1.00  0.00    -0.014 A 
ATOM     76  C   UNL A   1      45.913  29.007  35.321  1.00  0.00     0.010 A 
ATOM     77  C   UNL A   1      44.339  27.357  36.144  1.00  0.00     0.010 A 
ATOM     78  C   UNL A   1      46.967  28.287  35.891  1.00  0.00     0.020 A 
ATOM     79  C   UNL A   1      45.387  26.650  36.741  1.00  0.00     0.020 A 
ATOM     80  C   UNL A   1      46.697  27.110  36.594  1.00  0.00     0.054 A 
BRANCH  80  81
ATOM     81  S   UNL A   1      48.083  26.204  37.337  1.00  0.00     0.124 S 
ATOM     82  O   UNL A   1      49.003  26.084  36.210  1.00  0.00    -0.237 OA
ATOM     83  O   UNL A   1      48.513  27.098  38.407  1.00  0.00    -0.237 OA
ATOM     84  O   UNL A   1      47.477  24.949  37.784  1.00  0.00    -0.744 OA
ENDBRANCH  80  81
ENDBRANCH  61  75
BRANCH  62  85
ATOM     85  C   UNL A   1      36.810  33.101  31.115  1.00  0.00    -0.014 A 
ATOM     86  C   UNL A   1      36.980  33.962  30.017  1.00  0.00     0.010 A 
ATOM     87  C   UNL A   1      35.510  32.863  31.602  1.00  0.00     0.010 A 
ATOM     88  C   UNL A   1      35.877  34.587  29.428  1.00  0.00     0.020 A 
ATOM     89  C   UNL A   1      34.403  33.464  30.997  1.00  0.00     0.020 A 
ATOM     90  C   UNL A   1      34.594  34.331  29.921  1.00  0.00     0.054 A 
BRANCH  90  91
ATOM     91  S   UNL A   1      33.172  35.110  29.105  1.00  0.00     0.124 S 
ATOM     92  O   UNL A   1      32.268  35.341  30.227  1.00  0.00    -0.237 OA
ATOM     93  O   UNL A   1      33.765  36.306  28.511  1.00  0.00    -0.237 OA
ATOM     94  O   UNL A   1      32.734  34.099  28.145  1.00  0.00    -0.744 OA
ENDBRANCH  90  91
ENDBRANCH  62  85
BRANCH  74  95
ATOM     95  C   UNL A   1      39.875  33.647  37.358  1.00  0.00    -0.014 A 
ATOM     96  C   UNL A   1      40.514  34.889  37.517  1.00  0.00     0.010 A 
ATOM     97  C   UNL A   1      38.926  33.237  38.311  1.00  0.00     0.010 A 
ATOM     98  C   UNL A   1      40.229  35.693  38.625  1.00  0.00     0.020 A 
ATOM     99  C   UNL A   1      38.617  34.049  39.405  1.00  0.00     0.020 A 
ATOM    100  C   UNL A   1      39.283  35.266  39.562  1.00  0.00     0.054 A 
BRANCH 100 101
ATOM    101  S   UNL A   1      38.898  36.347  40.967  1.00  0.00     0.124 S 
ATOM    102  O   UNL A   1      37.826  35.612  41.631  1.00  0.00    -0.237 OA
ATOM    103  O   UNL A   1      40.167  36.397  41.691  1.00  0.00    -0.237 OA
ATOM    104  O   UNL A   1      38.497  37.604  40.339  1.00  0.00    -0.744 OA
ENDBRANCH 100 101
ENDBRANCH  74  95
ENDBRANCH  48  49
ENDBRANCH  40  43
ENDBRANCH  38  39
ENDBRANCH  37  38
ENDBRANCH   1  37
TORSDOF 18
ENDMDL
MODEL 3
REMARK VINA RESULT:     -12.9      1.268      7.832
REMARK SMILES C[C@]12CC[C@@H]3[C@@H](CCC4=C/C(=N\OCC(=O)N5CCC[C@@H]5C(=O)NCCCNC(=O)c5ccc(-c6c7nc(c(-c8ccc(S(=O)(=O)[O-])cc8)c8ccc([nH]8)c(-c8ccc(S(=O)(=O)[O-])cc8)c8nc(c(-c9ccc(S(=O)(=O)[O-])cc9)c9ccc6[nH]9)C=C8)C=C7)cc5)CC[C@@]43C)[C@@H]1CC[C@@H]2O
REMARK SMILES IDX 25 1 24 2 22 3 23 4 21 6 17 7 18 8 19 9 20 10 15 11 16 12
REMARK SMILES IDX 14 13 13 14 12 15 1 16 2 17 3 18 95 19 98 20 4 21 6 22 96 23
REMARK SMILES IDX 97 24 5 25 7 26 93 27 8 28 9 29 92 30 94 31 10 32 91 33
REMARK SMILES IDX 11 34 99 35 26 37 27 38 28 39 29 40 30 42 31 43 32 44 90 45
REMARK SMILES IDX 33 46 89 47 34 48 35 49 36 50 83 51 37 52 88 53 82 54 84 55
REMARK SMILES IDX 38 56 87 57 81 58 80 59 39 61 69 62 50 63 68 64 51 65 54 66
REMARK SMILES IDX 67 67 85 68 52 69 53 70 66 72 86 73 55 74 40 75 41 76 49 77
REMARK SMILES IDX 42 78 48 79 43 80 44 81 45 82 46 83 47 84 70 85 71 86 79 87
REMARK SMILES IDX 72 88 78 89 73 90 74 91 75 92 76 93 77 94 56 95 57 96 65 97
REMARK SMILES IDX 58 98 64 99 59 100 60 101 61 102 62 103 63 104
REMARK H PARENT 24 5 99 36 28 41 84 60 54 71
REMARK Flexibility Score: inf
ROOT
ATOM      1  C   UNL A   1      45.410  23.749  24.688  1.00  0.00     0.117 C 
ENDROOT
BRANCH   1   2
ATOM      2  N   UNL A   1      45.438  22.914  25.870  1.00  0.00    -0.354 N 
ATOM      3  C   UNL A   1      44.409  22.147  26.341  1.00  0.00     0.242 C 
ATOM      4  O   UNL A   1      43.988  22.418  27.472  1.00  0.00    -0.273 OA
ATOM      5  H   UNL A   1      46.278  22.896  26.384  1.00  0.00     0.163 HD
BRANCH   3   6
ATOM      6  C   UNL A   1      43.678  21.093  25.476  1.00  0.00     0.174 C 
ATOM      7  N   UNL A   1      42.868  20.107  26.188  1.00  0.00    -0.328 N 
ATOM      8  C   UNL A   1      43.243  18.749  25.848  1.00  0.00     0.120 C 
ATOM      9  C   UNL A   1      44.558  18.841  25.103  1.00  0.00     0.024 C 
ATOM     10  C   UNL A   1      44.624  20.277  24.593  1.00  0.00     0.037 C 
BRANCH   7  11
ATOM     11  C   UNL A   1      41.648  20.312  26.808  1.00  0.00     0.264 C 
ATOM     12  O   UNL A   1      41.223  19.492  27.634  1.00  0.00    -0.271 OA
BRANCH  11  13
ATOM     13  C   UNL A   1      40.707  21.434  26.312  1.00  0.00     0.363 C 
BRANCH  13  14
ATOM     14  O   UNL A   1      39.377  21.552  26.771  1.00  0.00    -0.385 OA
BRANCH  14  15
ATOM     15  N   UNL A   1      38.903  22.803  26.389  1.00  0.00    -0.091 NA
ATOM     16  C   UNL A   1      30.621  24.478  24.278  1.00  0.00     0.014 C 
ATOM     17  C   UNL A   1      31.929  24.155  25.058  1.00  0.00    -0.003 C 
ATOM     18  C   UNL A   1      32.984  25.068  24.444  1.00  0.00     0.010 C 
ATOM     19  C   UNL A   1      32.351  22.659  25.102  1.00  0.00     0.001 C 
ATOM     20  C   UNL A   1      31.716  24.274  26.583  1.00  0.00     0.120 C 
ATOM     21  C   UNL A   1      33.543  24.470  23.142  1.00  0.00     0.005 C 
ATOM     22  C   UNL A   1      32.929  22.089  23.815  1.00  0.00    -0.003 C 
ATOM     23  C   UNL A   1      31.144  22.021  25.812  1.00  0.00     0.007 C 
ATOM     24  C   UNL A   1      30.750  23.104  26.859  1.00  0.00     0.032 C 
ATOM     25  C   UNL A   1      34.049  23.016  23.275  1.00  0.00     0.002 C 
ATOM     26  C   UNL A   1      33.501  20.668  23.939  1.00  0.00     0.008 C 
ATOM     27  C   UNL A   1      35.487  22.893  23.952  1.00  0.00    -0.008 C 
ATOM     28  C   UNL A   1      34.725  20.536  24.853  1.00  0.00     0.032 C 
ATOM     29  C   UNL A   1      35.724  21.671  24.846  1.00  0.00    -0.062 C 
ATOM     30  C   UNL A   1      35.846  24.106  24.847  1.00  0.00     0.018 C 
ATOM     31  C   UNL A   1      36.484  22.827  22.764  1.00  0.00     0.016 C 
ATOM     32  C   UNL A   1      36.785  21.618  25.691  1.00  0.00     0.027 C 
ATOM     33  C   UNL A   1      37.267  24.126  25.359  1.00  0.00     0.061 C 
ATOM     34  C   UNL A   1      37.724  22.777  25.855  1.00  0.00     0.080 C 
BRANCH  20  35
ATOM     35  O   UNL A   1      31.271  25.527  27.031  1.00  0.00    -0.393 OA
ATOM     36  H   UNL A   1      32.012  26.010  27.431  1.00  0.00     0.210 HD
ENDBRANCH  20  35
ENDBRANCH  14  15
ENDBRANCH  13  14
ENDBRANCH  11  13
ENDBRANCH   7  11
ENDBRANCH   3   6
ENDBRANCH   1   2
BRANCH   1  37
ATOM     37  C   UNL A   1      45.610  25.229  25.043  1.00  0.00     0.042 C 
BRANCH  37  38
ATOM     38  C   UNL A   1      44.473  25.830  25.872  1.00  0.00     0.118 C 
BRANCH  38  39
ATOM     39  N   UNL A   1      43.184  25.689  25.210  1.00  0.00    -0.352 N 
ATOM     40  C   UNL A   1      41.916  25.951  25.669  1.00  0.00     0.251 C 
ATOM     41  H   UNL A   1      43.229  25.353  24.285  1.00  0.00     0.163 HD
ATOM     42  O   UNL A   1      40.954  25.517  25.040  1.00  0.00    -0.269 OA
BRANCH  40  43
ATOM     43  C   UNL A   1      41.691  26.741  26.902  1.00  0.00     0.039 A 
ATOM     44  C   UNL A   1      40.953  26.168  27.945  1.00  0.00     0.014 A 
ATOM     45  C   UNL A   1      42.135  28.061  27.014  1.00  0.00     0.014 A 
ATOM     46  C   UNL A   1      40.705  26.899  29.111  1.00  0.00     0.010 A 
ATOM     47  C   UNL A   1      41.945  28.765  28.204  1.00  0.00     0.010 A 
ATOM     48  C   UNL A   1      41.222  28.195  29.263  1.00  0.00    -0.014 A 
BRANCH  48  49
ATOM     49  C   UNL A   1      41.013  28.969  30.517  1.00  0.00     0.031 A 
ATOM     50  C   UNL A   1      39.909  29.989  30.606  1.00  0.00     0.074 A 
ATOM     51  C   UNL A   1      41.855  28.796  31.555  1.00  0.00     0.049 A 
ATOM     52  N   UNL A   1      39.613  30.802  31.589  1.00  0.00    -0.248 NA
ATOM     53  C   UNL A   1      39.037  30.133  29.429  1.00  0.00     0.031 C 
ATOM     54  C   UNL A   1      42.984  27.863  31.583  1.00  0.00     0.029 A 
ATOM     55  N   UNL A   1      41.899  29.404  32.785  1.00  0.00    -0.354 N 
ATOM     56  C   UNL A   1      38.541  31.566  31.144  1.00  0.00     0.074 A 
ATOM     57  C   UNL A   1      38.265  31.150  29.785  1.00  0.00     0.031 C 
ATOM     58  C   UNL A   1      43.592  27.943  32.778  1.00  0.00     0.029 A 
ATOM     59  C   UNL A   1      42.926  28.961  33.585  1.00  0.00     0.049 A 
ATOM     60  H   UNL A   1      41.255  30.093  33.067  1.00  0.00     0.167 HD
ATOM     61  C   UNL A   1      37.840  32.517  31.807  1.00  0.00     0.031 A 
ATOM     62  C   UNL A   1      43.298  29.334  34.825  1.00  0.00     0.031 A 
ATOM     63  C   UNL A   1      38.109  32.919  33.163  1.00  0.00     0.049 A 
ATOM     64  C   UNL A   1      42.509  30.397  35.539  1.00  0.00     0.074 A 
ATOM     65  C   UNL A   1      37.417  33.829  33.944  1.00  0.00     0.029 A 
ATOM     66  N   UNL A   1      39.152  32.438  33.940  1.00  0.00    -0.354 N 
ATOM     67  N   UNL A   1      41.458  31.062  35.121  1.00  0.00    -0.248 NA
ATOM     68  C   UNL A   1      42.948  30.752  36.895  1.00  0.00     0.031 C 
ATOM     69  C   UNL A   1      38.074  33.938  35.174  1.00  0.00     0.029 A 
ATOM     70  C   UNL A   1      39.139  33.051  35.182  1.00  0.00     0.049 A 
ATOM     71  H   UNL A   1      39.806  31.762  33.651  1.00  0.00     0.167 HD
ATOM     72  C   UNL A   1      41.095  31.895  36.175  1.00  0.00     0.074 A 
ATOM     73  C   UNL A   1      42.029  31.637  37.252  1.00  0.00     0.031 C 
ATOM     74  C   UNL A   1      40.077  32.787  36.245  1.00  0.00     0.031 A 
BRANCH  61  75
ATOM     75  C   UNL A   1      36.716  33.200  31.070  1.00  0.00    -0.014 A 
ATOM     76  C   UNL A   1      36.974  34.179  30.092  1.00  0.00     0.010 A 
ATOM     77  C   UNL A   1      35.384  32.830  31.330  1.00  0.00     0.010 A 
ATOM     78  C   UNL A   1      35.920  34.805  29.421  1.00  0.00     0.020 A 
ATOM     79  C   UNL A   1      34.328  33.433  30.638  1.00  0.00     0.020 A 
ATOM     80  C   UNL A   1      34.603  34.431  29.702  1.00  0.00     0.054 A 
BRANCH  80  81
ATOM     81  S   UNL A   1      33.256  35.250  28.803  1.00  0.00     0.124 S 
ATOM     82  O   UNL A   1      33.990  36.140  27.907  1.00  0.00    -0.237 OA
ATOM     83  O   UNL A   1      32.574  34.132  28.159  1.00  0.00    -0.237 OA
ATOM     84  O   UNL A   1      32.492  35.919  29.857  1.00  0.00    -0.744 OA
ENDBRANCH  80  81
ENDBRANCH  61  75
BRANCH  62  85
ATOM     85  C   UNL A   1      44.467  28.683  35.478  1.00  0.00    -0.014 A 
ATOM     86  C   UNL A   1      44.277  27.660  36.423  1.00  0.00     0.010 A 
ATOM     87  C   UNL A   1      45.778  29.070  35.145  1.00  0.00     0.010 A 
ATOM     88  C   UNL A   1      45.373  27.049  37.037  1.00  0.00     0.020 A 
ATOM     89  C   UNL A   1      46.878  28.441  35.736  1.00  0.00     0.020 A 
ATOM     90  C   UNL A   1      46.668  27.442  36.686  1.00  0.00     0.054 A 
BRANCH  90  91
ATOM     91  S   UNL A   1      48.078  26.595  37.455  1.00  0.00     0.124 S 
ATOM     92  O   UNL A   1      47.610  25.214  37.508  1.00  0.00    -0.237 OA
ATOM     93  O   UNL A   1      49.160  26.863  36.511  1.00  0.00    -0.237 OA
ATOM     94  O   UNL A   1      48.211  27.263  38.749  1.00  0.00    -0.744 OA
ENDBRANCH  90  91
ENDBRANCH  62  85
BRANCH  74  95
ATOM     95  C   UNL A   1      39.894  33.532  37.540  1.00  0.00    -0.014 A 
ATOM     96  C   UNL A   1      40.424  34.821  37.722  1.00  0.00     0.010 A 
ATOM     97  C   UNL A   1      39.135  32.951  38.572  1.00  0.00     0.010 A 
ATOM     98  C   UNL A   1      40.223  35.504  38.925  1.00  0.00     0.020 A 
ATOM     99  C   UNL A   1      38.908  33.641  39.765  1.00  0.00     0.020 A 
ATOM    100  C   UNL A   1      39.466  34.908  39.939  1.00  0.00     0.054 A 
BRANCH 100 101
ATOM    101  S   UNL A   1      39.182  35.833  41.473  1.00  0.00     0.124 S 
ATOM    102  O   UNL A   1      40.077  35.156  42.406  1.00  0.00    -0.237 OA
ATOM    103  O   UNL A   1      39.570  37.193  41.106  1.00  0.00    -0.237 OA
ATOM    104  O   UNL A   1      37.755  35.647  41.732  1.00  0.00    -0.744 OA
ENDBRANCH 100 101
ENDBRANCH  74  95
ENDBRANCH  48  49
ENDBRANCH  40  43
ENDBRANCH  38  39
ENDBRANCH  37  38
ENDBRANCH   1  37
TORSDOF 18
ENDMDL
