MODEL 1
REMARK VINA RESULT:     -10.6      0.000      0.000
REMARK SMILES Cc1cccc2sc(NC(=O)/C=C/C(=O)NCCCNC(=O)c3ccc(-c4c5nc(c(-c6ccc(S(=O)(=O)[O-])cc6)c6ccc([nH]6)c(-c6ccc(S(=O)(=O)[O-])cc6)c6nc(c(-c7ccc(S(=O)(=O)[O-])cc7)c7ccc4[nH]7)C=C6)C=C5)cc3)nc12
REMARK SMILES IDX 18 1 17 2 16 3 14 4 15 5 13 7 12 8 10 9 9 10 11 12 8 13 1 14
REMARK SMILES IDX 2 15 3 16 84 17 4 18 6 19 83 20 5 21 7 22 19 23 20 24 21 25
REMARK SMILES IDX 22 27 23 28 24 29 82 30 25 31 81 32 26 33 27 34 28 35 75 36
REMARK SMILES IDX 29 37 80 38 74 39 76 40 30 41 79 42 73 43 72 44 31 46 61 47
REMARK SMILES IDX 42 48 60 49 43 50 46 51 59 52 77 53 44 54 45 55 58 57 78 58
REMARK SMILES IDX 47 59 32 60 33 61 41 62 34 63 40 64 35 65 36 66 37 67 38 68
REMARK SMILES IDX 39 69 62 70 63 71 71 72 64 73 70 74 65 75 66 76 67 77 68 78
REMARK SMILES IDX 69 79 48 80 49 81 57 82 50 83 56 84 51 85 52 86 53 87 54 88
REMARK SMILES IDX 55 89
REMARK H PARENT 16 6 9 11 20 26 76 45 46 56
REMARK Flexibility Score: inf
ROOT
ATOM      1  C   UNL A   1      41.338  20.919  27.158  1.00  0.00     0.042 C 
ENDROOT
BRANCH   1   2
ATOM      2  C   UNL A   1      41.024  19.546  26.576  1.00  0.00     0.118 C 
BRANCH   2   3
ATOM      3  N   UNL A   1      41.978  18.544  27.017  1.00  0.00    -0.352 N 
ATOM      4  C   UNL A   1      43.164  18.181  26.475  1.00  0.00     0.244 C 
ATOM      5  O   UNL A   1      43.917  17.422  27.079  1.00  0.00    -0.270 OA
ATOM      6  H   UNL A   1      41.723  18.055  27.834  1.00  0.00     0.163 HD
BRANCH   4   7
ATOM      7  C   UNL A   1      43.573  18.722  25.170  1.00  0.00     0.077 C 
ATOM      8  C   UNL A   1      44.502  19.687  25.097  1.00  0.00     0.077 C 
BRANCH   8   9
ATOM      9  C   UNL A   1      44.709  20.383  23.816  1.00  0.00     0.250 C 
ATOM     10  N   UNL A   1      45.062  21.698  23.768  1.00  0.00    -0.298 N 
ATOM     11  H   UNL A   1      45.111  22.061  22.855  1.00  0.00     0.172 HD
ATOM     12  O   UNL A   1      44.527  19.752  22.776  1.00  0.00    -0.270 OA
BRANCH  10  13
ATOM     13  C   UNL A   1      45.364  22.614  24.744  1.00  0.00     0.190 A 
ATOM     14  C   UNL A   1      43.755  23.130  28.721  1.00  0.00     0.047 C 
ATOM     15  C   UNL A   1      45.008  23.702  28.128  1.00  0.00    -0.024 A 
ATOM     16  C   UNL A   1      45.891  24.457  28.928  1.00  0.00     0.006 A 
ATOM     17  C   UNL A   1      45.360  23.484  26.775  1.00  0.00     0.087 A 
ATOM     18  C   UNL A   1      47.051  25.019  28.401  1.00  0.00     0.002 A 
ATOM     19  C   UNL A   1      46.490  24.118  26.259  1.00  0.00     0.057 A 
ATOM     20  N   UNL A   1      44.699  22.651  25.875  1.00  0.00    -0.220 NA
ATOM     21  C   UNL A   1      47.357  24.883  27.048  1.00  0.00     0.021 A 
ATOM     22  S   UNL A   1      46.568  23.801  24.579  1.00  0.00    -0.097 S 
ENDBRANCH  10  13
ENDBRANCH   8   9
ENDBRANCH   4   7
ENDBRANCH   2   3
ENDBRANCH   1   2
BRANCH   1  23
ATOM     23  C   UNL A   1      41.137  22.066  26.171  1.00  0.00     0.118 C 
BRANCH  23  24
ATOM     24  N   UNL A   1      39.744  22.203  25.762  1.00  0.00    -0.352 N 
ATOM     25  C   UNL A   1      38.810  23.131  26.137  1.00  0.00     0.251 C 
ATOM     26  H   UNL A   1      39.427  21.526  25.121  1.00  0.00     0.163 HD
ATOM     27  O   UNL A   1      37.617  22.922  25.906  1.00  0.00    -0.269 OA
BRANCH  25  28
ATOM     28  C   UNL A   1      39.228  24.375  26.812  1.00  0.00     0.039 A 
ATOM     29  C   UNL A   1      38.865  24.587  28.144  1.00  0.00     0.014 A 
ATOM     30  C   UNL A   1      39.947  25.351  26.115  1.00  0.00     0.014 A 
ATOM     31  C   UNL A   1      39.270  25.755  28.793  1.00  0.00     0.010 A 
ATOM     32  C   UNL A   1      40.416  26.475  26.784  1.00  0.00     0.010 A 
ATOM     33  C   UNL A   1      40.071  26.695  28.126  1.00  0.00    -0.014 A 
BRANCH  33  34
ATOM     34  C   UNL A   1      40.547  27.927  28.803  1.00  0.00     0.031 A 
ATOM     35  C   UNL A   1      41.936  27.980  29.381  1.00  0.00     0.074 A 
ATOM     36  C   UNL A   1      39.705  28.967  28.959  1.00  0.00     0.049 A 
ATOM     37  N   UNL A   1      42.506  28.933  30.071  1.00  0.00    -0.248 NA
ATOM     38  C   UNL A   1      42.786  26.795  29.179  1.00  0.00     0.031 C 
ATOM     39  C   UNL A   1      38.319  29.016  28.485  1.00  0.00     0.029 A 
ATOM     40  N   UNL A   1      39.888  30.182  29.571  1.00  0.00    -0.354 N 
ATOM     41  C   UNL A   1      43.768  28.455  30.405  1.00  0.00     0.074 A 
ATOM     42  C   UNL A   1      43.862  27.108  29.885  1.00  0.00     0.031 C 
ATOM     43  C   UNL A   1      37.788  30.207  28.802  1.00  0.00     0.029 A 
ATOM     44  C   UNL A   1      38.778  30.991  29.533  1.00  0.00     0.049 A 
ATOM     45  H   UNL A   1      40.735  30.448  29.996  1.00  0.00     0.167 HD
ATOM     46  C   UNL A   1      44.768  29.087  31.065  1.00  0.00     0.031 A 
ATOM     47  C   UNL A   1      38.576  32.224  30.036  1.00  0.00     0.031 A 
ATOM     48  C   UNL A   1      44.674  30.432  31.564  1.00  0.00     0.049 A 
ATOM     49  C   UNL A   1      39.704  32.911  30.755  1.00  0.00     0.074 A 
ATOM     50  C   UNL A   1      45.646  31.185  32.200  1.00  0.00     0.029 A 
ATOM     51  N   UNL A   1      43.540  31.229  31.482  1.00  0.00    -0.354 N 
ATOM     52  N   UNL A   1      40.911  32.465  31.010  1.00  0.00    -0.248 NA
ATOM     53  C   UNL A   1      39.447  34.273  31.243  1.00  0.00     0.031 C 
ATOM     54  C   UNL A   1      45.085  32.421  32.542  1.00  0.00     0.029 A 
ATOM     55  C   UNL A   1      43.782  32.458  32.070  1.00  0.00     0.049 A 
ATOM     56  H   UNL A   1      42.689  30.958  31.068  1.00  0.00     0.167 HD
ATOM     57  C   UNL A   1      41.566  33.500  31.666  1.00  0.00     0.074 A 
ATOM     58  C   UNL A   1      40.626  34.600  31.754  1.00  0.00     0.031 C 
ATOM     59  C   UNL A   1      42.832  33.538  32.150  1.00  0.00     0.031 A 
BRANCH  46  60
ATOM     60  C   UNL A   1      46.049  28.324  31.281  1.00  0.00    -0.014 A 
ATOM     61  C   UNL A   1      47.123  28.437  30.378  1.00  0.00     0.010 A 
ATOM     62  C   UNL A   1      46.195  27.506  32.416  1.00  0.00     0.010 A 
ATOM     63  C   UNL A   1      48.299  27.710  30.580  1.00  0.00     0.020 A 
ATOM     64  C   UNL A   1      47.382  26.800  32.638  1.00  0.00     0.020 A 
ATOM     65  C   UNL A   1      48.418  26.892  31.708  1.00  0.00     0.054 A 
BRANCH  65  66
ATOM     66  S   UNL A   1      49.963  25.972  31.953  1.00  0.00     0.124 S 
ATOM     67  O   UNL A   1      49.505  24.815  32.718  1.00  0.00    -0.237 OA
ATOM     68  O   UNL A   1      50.391  25.691  30.586  1.00  0.00    -0.237 OA
ATOM     69  O   UNL A   1      50.811  26.909  32.688  1.00  0.00    -0.744 OA
ENDBRANCH  65  66
ENDBRANCH  46  60
BRANCH  47  70
ATOM     70  C   UNL A   1      37.259  32.892  29.853  1.00  0.00    -0.014 A 
ATOM     71  C   UNL A   1      36.282  32.832  30.861  1.00  0.00     0.010 A 
ATOM     72  C   UNL A   1      36.987  33.621  28.680  1.00  0.00     0.010 A 
ATOM     73  C   UNL A   1      35.051  33.473  30.696  1.00  0.00     0.020 A 
ATOM     74  C   UNL A   1      35.768  34.286  28.523  1.00  0.00     0.020 A 
ATOM     75  C   UNL A   1      34.803  34.200  29.528  1.00  0.00     0.054 A 
BRANCH  75  76
ATOM     76  S   UNL A   1      33.223  35.075  29.360  1.00  0.00     0.124 S 
ATOM     77  O   UNL A   1      32.693  35.007  30.718  1.00  0.00    -0.237 OA
ATOM     78  O   UNL A   1      33.642  36.400  28.909  1.00  0.00    -0.237 OA
ATOM     79  O   UNL A   1      32.501  34.286  28.364  1.00  0.00    -0.744 OA
ENDBRANCH  75  76
ENDBRANCH  47  70
BRANCH  59  80
ATOM     80  C   UNL A   1      43.286  34.821  32.794  1.00  0.00    -0.014 A 
ATOM     81  C   UNL A   1      43.881  35.845  32.037  1.00  0.00     0.010 A 
ATOM     82  C   UNL A   1      43.063  35.023  34.168  1.00  0.00     0.010 A 
ATOM     83  C   UNL A   1      44.274  37.038  32.649  1.00  0.00     0.020 A 
ATOM     84  C   UNL A   1      43.429  36.225  34.779  1.00  0.00     0.020 A 
ATOM     85  C   UNL A   1      44.046  37.220  34.017  1.00  0.00     0.054 A 
BRANCH  85  86
ATOM     86  S   UNL A   1      44.525  38.793  34.781  1.00  0.00     0.124 S 
ATOM     87  O   UNL A   1      44.466  38.470  36.204  1.00  0.00    -0.237 OA
ATOM     88  O   UNL A   1      45.865  39.016  34.242  1.00  0.00    -0.237 OA
ATOM     89  O   UNL A   1      43.508  39.730  34.312  1.00  0.00    -0.744 OA
ENDBRANCH  85  86
ENDBRANCH  59  80
ENDBRANCH  33  34
ENDBRANCH  25  28
ENDBRANCH  23  24
ENDBRANCH   1  23
TORSDOF 15
ENDMDL
MODEL 2
REMARK VINA RESULT:     -10.5      3.370      4.011
REMARK SMILES Cc1cccc2sc(NC(=O)/C=C/C(=O)NCCCNC(=O)c3ccc(-c4c5nc(c(-c6ccc(S(=O)(=O)[O-])cc6)c6ccc([nH]6)c(-c6ccc(S(=O)(=O)[O-])cc6)c6nc(c(-c7ccc(S(=O)(=O)[O-])cc7)c7ccc4[nH]7)C=C6)C=C5)cc3)nc12
REMARK SMILES IDX 18 1 17 2 16 3 14 4 15 5 13 7 12 8 10 9 9 10 11 12 8 13 1 14
REMARK SMILES IDX 2 15 3 16 84 17 4 18 6 19 83 20 5 21 7 22 19 23 20 24 21 25
REMARK SMILES IDX 22 27 23 28 24 29 82 30 25 31 81 32 26 33 27 34 28 35 75 36
REMARK SMILES IDX 29 37 80 38 74 39 76 40 30 41 79 42 73 43 72 44 31 46 61 47
REMARK SMILES IDX 42 48 60 49 43 50 46 51 59 52 77 53 44 54 45 55 58 57 78 58
REMARK SMILES IDX 47 59 32 60 33 61 41 62 34 63 40 64 35 65 36 66 37 67 38 68
REMARK SMILES IDX 39 69 62 70 63 71 71 72 64 73 70 74 65 75 66 76 67 77 68 78
REMARK SMILES IDX 69 79 48 80 49 81 57 82 50 83 56 84 51 85 52 86 53 87 54 88
REMARK SMILES IDX 55 89
REMARK H PARENT 16 6 9 11 20 26 76 45 46 56
REMARK Flexibility Score: inf
ROOT
ATOM      1  C   UNL A   1      41.023  21.568  27.550  1.00  0.00     0.042 C 
ENDROOT
BRANCH   1   2
ATOM      2  C   UNL A   1      41.959  20.765  26.653  1.00  0.00     0.118 C 
BRANCH   2   3
ATOM      3  N   UNL A   1      42.159  19.417  27.155  1.00  0.00    -0.352 N 
ATOM      4  C   UNL A   1      42.984  18.442  26.705  1.00  0.00     0.244 C 
ATOM      5  O   UNL A   1      43.141  17.413  27.356  1.00  0.00    -0.270 OA
ATOM      6  H   UNL A   1      41.615  19.178  27.939  1.00  0.00     0.163 HD
BRANCH   4   7
ATOM      7  C   UNL A   1      43.724  18.625  25.447  1.00  0.00     0.077 C 
ATOM      8  C   UNL A   1      44.952  19.164  25.455  1.00  0.00     0.077 C 
BRANCH   8   9
ATOM      9  C   UNL A   1      45.563  19.567  24.178  1.00  0.00     0.250 C 
ATOM     10  N   UNL A   1      45.705  20.878  23.837  1.00  0.00    -0.298 N 
ATOM     11  H   UNL A   1      46.071  21.015  22.934  1.00  0.00     0.172 HD
ATOM     12  O   UNL A   1      45.923  18.683  23.401  1.00  0.00    -0.270 OA
BRANCH  10  13
ATOM     13  C   UNL A   1      45.438  22.045  24.507  1.00  0.00     0.190 A 
ATOM     14  C   UNL A   1      47.907  24.407  27.152  1.00  0.00     0.047 C 
ATOM     15  C   UNL A   1      46.629  24.786  26.465  1.00  0.00    -0.024 A 
ATOM     16  C   UNL A   1      46.130  26.100  26.570  1.00  0.00     0.006 A 
ATOM     17  C   UNL A   1      45.904  23.862  25.675  1.00  0.00     0.087 A 
ATOM     18  C   UNL A   1      44.935  26.477  25.962  1.00  0.00     0.002 A 
ATOM     19  C   UNL A   1      44.677  24.248  25.137  1.00  0.00     0.057 A 
ATOM     20  N   UNL A   1      46.309  22.573  25.334  1.00  0.00    -0.220 NA
ATOM     21  C   UNL A   1      44.172  25.548  25.257  1.00  0.00     0.021 A 
ATOM     22  S   UNL A   1      43.968  22.888  24.379  1.00  0.00    -0.097 S 
ENDBRANCH  10  13
ENDBRANCH   8   9
ENDBRANCH   4   7
ENDBRANCH   2   3
ENDBRANCH   1   2
BRANCH   1  23
ATOM     23  C   UNL A   1      41.423  23.034  27.699  1.00  0.00     0.118 C 
BRANCH  23  24
ATOM     24  N   UNL A   1      41.246  23.781  26.460  1.00  0.00    -0.352 N 
ATOM     25  C   UNL A   1      40.803  25.063  26.268  1.00  0.00     0.251 C 
ATOM     26  H   UNL A   1      41.481  23.292  25.639  1.00  0.00     0.163 HD
ATOM     27  O   UNL A   1      40.456  25.424  25.141  1.00  0.00    -0.269 OA
BRANCH  25  28
ATOM     28  C   UNL A   1      40.741  26.006  27.401  1.00  0.00     0.039 A 
ATOM     29  C   UNL A   1      41.698  27.019  27.502  1.00  0.00     0.014 A 
ATOM     30  C   UNL A   1      39.758  25.866  28.386  1.00  0.00     0.014 A 
ATOM     31  C   UNL A   1      41.636  27.924  28.563  1.00  0.00     0.010 A 
ATOM     32  C   UNL A   1      39.651  26.813  29.397  1.00  0.00     0.010 A 
ATOM     33  C   UNL A   1      40.597  27.844  29.504  1.00  0.00    -0.014 A 
BRANCH  33  34
ATOM     34  C   UNL A   1      40.486  28.816  30.620  1.00  0.00     0.031 A 
ATOM     35  C   UNL A   1      41.366  28.672  31.833  1.00  0.00     0.074 A 
ATOM     36  C   UNL A   1      39.546  29.781  30.570  1.00  0.00     0.049 A 
ATOM     37  N   UNL A   1      41.367  29.372  32.938  1.00  0.00    -0.248 NA
ATOM     38  C   UNL A   1      42.354  27.582  31.812  1.00  0.00     0.031 C 
ATOM     39  C   UNL A   1      38.603  29.991  29.470  1.00  0.00     0.029 A 
ATOM     40  N   UNL A   1      39.223  30.761  31.475  1.00  0.00    -0.354 N 
ATOM     41  C   UNL A   1      42.336  28.795  33.750  1.00  0.00     0.074 A 
ATOM     42  C   UNL A   1      42.867  27.657  33.032  1.00  0.00     0.031 C 
ATOM     43  C   UNL A   1      37.826  31.047  29.752  1.00  0.00     0.029 A 
ATOM     44  C   UNL A   1      38.187  31.566  31.067  1.00  0.00     0.049 A 
ATOM     45  H   UNL A   1      39.689  30.876  32.334  1.00  0.00     0.167 HD
ATOM     46  C   UNL A   1      42.763  29.189  34.974  1.00  0.00     0.031 A 
ATOM     47  C   UNL A   1      37.588  32.602  31.686  1.00  0.00     0.031 A 
ATOM     48  C   UNL A   1      42.242  30.331  35.674  1.00  0.00     0.049 A 
ATOM     49  C   UNL A   1      38.086  33.029  33.039  1.00  0.00     0.074 A 
ATOM     50  C   UNL A   1      42.641  30.848  36.895  1.00  0.00     0.029 A 
ATOM     51  N   UNL A   1      41.210  31.137  35.216  1.00  0.00    -0.354 N 
ATOM     52  N   UNL A   1      39.044  32.506  33.767  1.00  0.00    -0.248 NA
ATOM     53  C   UNL A   1      37.431  34.194  33.649  1.00  0.00     0.031 C 
ATOM     54  C   UNL A   1      41.819  31.941  37.194  1.00  0.00     0.029 A 
ATOM     55  C   UNL A   1      40.947  32.138  36.136  1.00  0.00     0.049 A 
ATOM     56  H   UNL A   1      40.735  31.015  34.363  1.00  0.00     0.167 HD
ATOM     57  C   UNL A   1      39.124  33.293  34.909  1.00  0.00     0.074 A 
ATOM     58  C   UNL A   1      38.128  34.336  34.768  1.00  0.00     0.031 C 
ATOM     59  C   UNL A   1      39.949  33.165  35.978  1.00  0.00     0.031 A 
BRANCH  46  60
ATOM     60  C   UNL A   1      43.848  28.372  35.628  1.00  0.00    -0.014 A 
ATOM     61  C   UNL A   1      45.207  28.650  35.392  1.00  0.00     0.010 A 
ATOM     62  C   UNL A   1      43.507  27.333  36.512  1.00  0.00     0.010 A 
ATOM     63  C   UNL A   1      46.204  27.874  35.990  1.00  0.00     0.020 A 
ATOM     64  C   UNL A   1      44.501  26.573  37.136  1.00  0.00     0.020 A 
ATOM     65  C   UNL A   1      45.843  26.836  36.855  1.00  0.00     0.054 A 
BRANCH  65  66
ATOM     66  S   UNL A   1      47.158  25.856  37.630  1.00  0.00     0.124 S 
ATOM     67  O   UNL A   1      46.820  25.967  39.047  1.00  0.00    -0.237 OA
ATOM     68  O   UNL A   1      46.964  24.534  37.041  1.00  0.00    -0.237 OA
ATOM     69  O   UNL A   1      48.384  26.541  37.227  1.00  0.00    -0.744 OA
ENDBRANCH  65  66
ENDBRANCH  46  60
BRANCH  47  70
ATOM     70  C   UNL A   1      36.469  33.319  31.016  1.00  0.00    -0.014 A 
ATOM     71  C   UNL A   1      35.216  33.430  31.643  1.00  0.00     0.010 A 
ATOM     72  C   UNL A   1      36.661  33.922  29.759  1.00  0.00     0.010 A 
ATOM     73  C   UNL A   1      34.171  34.117  31.020  1.00  0.00     0.020 A 
ATOM     74  C   UNL A   1      35.626  34.633  29.146  1.00  0.00     0.020 A 
ATOM     75  C   UNL A   1      34.383  34.718  29.776  1.00  0.00     0.054 A 
BRANCH  75  76
ATOM     76  S   UNL A   1      33.030  35.656  29.015  1.00  0.00     0.124 S 
ATOM     77  O   UNL A   1      33.752  36.694  28.286  1.00  0.00    -0.237 OA
ATOM     78  O   UNL A   1      32.370  34.645  28.191  1.00  0.00    -0.237 OA
ATOM     79  O   UNL A   1      32.249  36.120  30.160  1.00  0.00    -0.744 OA
ENDBRANCH  75  76
ENDBRANCH  47  70
BRANCH  59  80
ATOM     80  C   UNL A   1      39.830  34.196  37.068  1.00  0.00    -0.014 A 
ATOM     81  C   UNL A   1      40.351  35.491  36.907  1.00  0.00     0.010 A 
ATOM     82  C   UNL A   1      39.136  33.877  38.251  1.00  0.00     0.010 A 
ATOM     83  C   UNL A   1      40.209  36.440  37.922  1.00  0.00     0.020 A 
ATOM     84  C   UNL A   1      38.968  34.831  39.257  1.00  0.00     0.020 A 
ATOM     85  C   UNL A   1      39.519  36.104  39.091  1.00  0.00     0.054 A 
BRANCH  85  86
ATOM     86  S   UNL A   1      39.311  37.366  40.376  1.00  0.00     0.124 S 
ATOM     87  O   UNL A   1      38.600  38.419  39.656  1.00  0.00    -0.237 OA
ATOM     88  O   UNL A   1      38.531  36.663  41.393  1.00  0.00    -0.237 OA
ATOM     89  O   UNL A   1      40.681  37.692  40.766  1.00  0.00    -0.744 OA
ENDBRANCH  85  86
ENDBRANCH  59  80
ENDBRANCH  33  34
ENDBRANCH  25  28
ENDBRANCH  23  24
ENDBRANCH   1  23
TORSDOF 15
ENDMDL
MODEL 3
REMARK VINA RESULT:     -10.5      3.654      6.597
REMARK SMILES Cc1cccc2sc(NC(=O)/C=C/C(=O)NCCCNC(=O)c3ccc(-c4c5nc(c(-c6ccc(S(=O)(=O)[O-])cc6)c6ccc([nH]6)c(-c6ccc(S(=O)(=O)[O-])cc6)c6nc(c(-c7ccc(S(=O)(=O)[O-])cc7)c7ccc4[nH]7)C=C6)C=C5)cc3)nc12
REMARK SMILES IDX 18 1 17 2 16 3 14 4 15 5 13 7 12 8 10 9 9 10 11 12 8 13 1 14
REMARK SMILES IDX 2 15 3 16 84 17 4 18 6 19 83 20 5 21 7 22 19 23 20 24 21 25
REMARK SMILES IDX 22 27 23 28 24 29 82 30 25 31 81 32 26 33 27 34 28 35 75 36
REMARK SMILES IDX 29 37 80 38 74 39 76 40 30 41 79 42 73 43 72 44 31 46 61 47
REMARK SMILES IDX 42 48 60 49 43 50 46 51 59 52 77 53 44 54 45 55 58 57 78 58
REMARK SMILES IDX 47 59 32 60 33 61 41 62 34 63 40 64 35 65 36 66 37 67 38 68
REMARK SMILES IDX 39 69 62 70 63 71 71 72 64 73 70 74 65 75 66 76 67 77 68 78
REMARK SMILES IDX 69 79 48 80 49 81 57 82 50 83 56 84 51 85 52 86 53 87 54 88
REMARK SMILES IDX 55 89
REMARK H PARENT 16 6 9 11 20 26 76 45 46 56
REMARK Flexibility Score: inf
ROOT
ATOM      1  C   UNL A   1      35.844  23.586  24.397  1.00  0.00     0.042 C 
ENDROOT
BRANCH   1   2
ATOM      2  C   UNL A   1      34.384  23.151  24.433  1.00  0.00     0.118 C 
BRANCH   2   3
ATOM      3  N   UNL A   1      34.230  21.831  25.017  1.00  0.00    -0.352 N 
ATOM      4  C   UNL A   1      33.116  21.216  25.483  1.00  0.00     0.244 C 
ATOM      5  O   UNL A   1      33.147  20.029  25.795  1.00  0.00    -0.270 OA
ATOM      6  H   UNL A   1      35.059  21.303  25.083  1.00  0.00     0.163 HD
BRANCH   4   7
ATOM      7  C   UNL A   1      31.853  21.962  25.587  1.00  0.00     0.077 C 
ATOM      8  C   UNL A   1      31.585  22.691  26.681  1.00  0.00     0.077 C 
BRANCH   8   9
ATOM      9  C   UNL A   1      30.223  23.217  26.872  1.00  0.00     0.250 C 
ATOM     10  N   UNL A   1      29.887  24.480  26.491  1.00  0.00    -0.298 N 
ATOM     11  H   UNL A   1      28.966  24.733  26.728  1.00  0.00     0.172 HD
ATOM     12  O   UNL A   1      29.391  22.491  27.415  1.00  0.00    -0.270 OA
BRANCH  10  13
ATOM     13  C   UNL A   1      30.581  25.470  25.842  1.00  0.00     0.190 A 
ATOM     14  C   UNL A   1      31.985  29.310  27.239  1.00  0.00     0.047 C 
ATOM     15  C   UNL A   1      32.381  28.551  26.007  1.00  0.00    -0.024 A 
ATOM     16  C   UNL A   1      33.407  29.040  25.172  1.00  0.00     0.006 A 
ATOM     17  C   UNL A   1      31.770  27.323  25.660  1.00  0.00     0.087 A 
ATOM     18  C   UNL A   1      33.781  28.370  24.010  1.00  0.00     0.002 A 
ATOM     19  C   UNL A   1      32.118  26.712  24.455  1.00  0.00     0.057 A 
ATOM     20  N   UNL A   1      30.853  26.612  26.429  1.00  0.00    -0.220 NA
ATOM     21  C   UNL A   1      33.123  27.207  23.615  1.00  0.00     0.021 A 
ATOM     22  S   UNL A   1      31.111  25.346  24.232  1.00  0.00    -0.097 S 
ENDBRANCH  10  13
ENDBRANCH   8   9
ENDBRANCH   4   7
ENDBRANCH   2   3
ENDBRANCH   1   2
BRANCH   1  23
ATOM     23  C   UNL A   1      36.492  23.677  25.776  1.00  0.00     0.118 C 
BRANCH  23  24
ATOM     24  N   UNL A   1      37.593  22.733  25.930  1.00  0.00    -0.352 N 
ATOM     25  C   UNL A   1      38.893  22.959  26.297  1.00  0.00     0.251 C 
ATOM     26  H   UNL A   1      37.368  21.794  25.743  1.00  0.00     0.163 HD
ATOM     27  O   UNL A   1      39.741  22.085  26.102  1.00  0.00    -0.269 OA
BRANCH  25  28
ATOM     28  C   UNL A   1      39.277  24.239  26.923  1.00  0.00     0.039 A 
ATOM     29  C   UNL A   1      38.920  24.487  28.250  1.00  0.00     0.014 A 
ATOM     30  C   UNL A   1      39.960  25.210  26.185  1.00  0.00     0.014 A 
ATOM     31  C   UNL A   1      39.294  25.689  28.853  1.00  0.00     0.010 A 
ATOM     32  C   UNL A   1      40.399  26.372  26.809  1.00  0.00     0.010 A 
ATOM     33  C   UNL A   1      40.060  26.630  28.145  1.00  0.00    -0.014 A 
BRANCH  33  34
ATOM     34  C   UNL A   1      40.502  27.899  28.774  1.00  0.00     0.031 A 
ATOM     35  C   UNL A   1      41.884  28.006  29.361  1.00  0.00     0.074 A 
ATOM     36  C   UNL A   1      39.637  28.926  28.878  1.00  0.00     0.049 A 
ATOM     37  N   UNL A   1      42.427  28.999  30.016  1.00  0.00    -0.248 NA
ATOM     38  C   UNL A   1      42.761  26.832  29.217  1.00  0.00     0.031 C 
ATOM     39  C   UNL A   1      38.255  28.925  28.391  1.00  0.00     0.029 A 
ATOM     40  N   UNL A   1      39.789  30.170  29.439  1.00  0.00    -0.354 N 
ATOM     41  C   UNL A   1      43.696  28.563  30.380  1.00  0.00     0.074 A 
ATOM     42  C   UNL A   1      43.823  27.198  29.919  1.00  0.00     0.031 C 
ATOM     43  C   UNL A   1      37.696  30.116  28.651  1.00  0.00     0.029 A 
ATOM     44  C   UNL A   1      38.662  30.952  29.357  1.00  0.00     0.049 A 
ATOM     45  H   UNL A   1      40.625  30.471  29.861  1.00  0.00     0.167 HD
ATOM     46  C   UNL A   1      44.676  29.244  31.021  1.00  0.00     0.031 A 
ATOM     47  C   UNL A   1      38.429  32.200  29.805  1.00  0.00     0.031 A 
ATOM     48  C   UNL A   1      44.548  30.607  31.462  1.00  0.00     0.049 A 
ATOM     49  C   UNL A   1      39.535  32.941  30.505  1.00  0.00     0.074 A 
ATOM     50  C   UNL A   1      45.497  31.407  32.074  1.00  0.00     0.029 A 
ATOM     51  N   UNL A   1      43.399  31.374  31.337  1.00  0.00    -0.354 N 
ATOM     52  N   UNL A   1      40.749  32.533  30.789  1.00  0.00    -0.248 NA
ATOM     53  C   UNL A   1      39.244  34.317  30.932  1.00  0.00     0.031 C 
ATOM     54  C   UNL A   1      44.908  32.644  32.358  1.00  0.00     0.029 A 
ATOM     55  C   UNL A   1      43.609  32.633  31.874  1.00  0.00     0.049 A 
ATOM     56  H   UNL A   1      42.558  31.068  30.927  1.00  0.00     0.167 HD
ATOM     57  C   UNL A   1      41.375  33.609  31.406  1.00  0.00     0.074 A 
ATOM     58  C   UNL A   1      40.411  34.691  31.439  1.00  0.00     0.031 C 
ATOM     59  C   UNL A   1      42.635  33.695  31.900  1.00  0.00     0.031 A 
BRANCH  46  60
ATOM     60  C   UNL A   1      45.971  28.519  31.281  1.00  0.00    -0.014 A 
ATOM     61  C   UNL A   1      46.154  27.761  32.452  1.00  0.00     0.010 A 
ATOM     62  C   UNL A   1      47.007  28.571  30.332  1.00  0.00     0.010 A 
ATOM     63  C   UNL A   1      47.367  27.108  32.692  1.00  0.00     0.020 A 
ATOM     64  C   UNL A   1      48.211  27.894  30.553  1.00  0.00     0.020 A 
ATOM     65  C   UNL A   1      48.390  27.184  31.741  1.00  0.00     0.054 A 
BRANCH  65  66
ATOM     66  S   UNL A   1      49.947  26.313  32.071  1.00  0.00     0.124 S 
ATOM     67  O   UNL A   1      50.807  27.399  32.533  1.00  0.00    -0.237 OA
ATOM     68  O   UNL A   1      49.563  25.341  33.090  1.00  0.00    -0.237 OA
ATOM     69  O   UNL A   1      50.306  25.743  30.774  1.00  0.00    -0.744 OA
ENDBRANCH  65  66
ENDBRANCH  46  60
BRANCH  47  70
ATOM     70  C   UNL A   1      37.100  32.832  29.583  1.00  0.00    -0.014 A 
ATOM     71  C   UNL A   1      36.158  32.898  30.624  1.00  0.00     0.010 A 
ATOM     72  C   UNL A   1      36.781  33.399  28.335  1.00  0.00     0.010 A 
ATOM     73  C   UNL A   1      34.916  33.506  30.419  1.00  0.00     0.020 A 
ATOM     74  C   UNL A   1      35.551  34.031  28.134  1.00  0.00     0.020 A 
ATOM     75  C   UNL A   1      34.621  34.072  29.176  1.00  0.00     0.054 A 
BRANCH  75  76
ATOM     76  S   UNL A   1      33.028  34.909  28.950  1.00  0.00     0.124 S 
ATOM     77  O   UNL A   1      32.474  34.875  30.300  1.00  0.00    -0.237 OA
ATOM     78  O   UNL A   1      33.429  36.226  28.462  1.00  0.00    -0.237 OA
ATOM     79  O   UNL A   1      32.340  34.073  27.968  1.00  0.00    -0.744 OA
ENDBRANCH  75  76
ENDBRANCH  47  70
BRANCH  59  80
ATOM     80  C   UNL A   1      43.056  35.013  32.492  1.00  0.00    -0.014 A 
ATOM     81  C   UNL A   1      43.705  35.987  31.714  1.00  0.00     0.010 A 
ATOM     82  C   UNL A   1      42.746  35.299  33.835  1.00  0.00     0.010 A 
ATOM     83  C   UNL A   1      44.066  37.214  32.277  1.00  0.00     0.020 A 
ATOM     84  C   UNL A   1      43.081  36.535  34.394  1.00  0.00     0.020 A 
ATOM     85  C   UNL A   1      43.751  37.480  33.614  1.00  0.00     0.054 A 
BRANCH  85  86
ATOM     86  S   UNL A   1      44.192  39.095  34.310  1.00  0.00     0.124 S 
ATOM     87  O   UNL A   1      43.108  39.942  33.821  1.00  0.00    -0.237 OA
ATOM     88  O   UNL A   1      44.188  38.836  35.749  1.00  0.00    -0.237 OA
ATOM     89  O   UNL A   1      45.507  39.372  33.738  1.00  0.00    -0.744 OA
ENDBRANCH  85  86
ENDBRANCH  59  80
ENDBRANCH  33  34
ENDBRANCH  25  28
ENDBRANCH  23  24
ENDBRANCH   1  23
TORSDOF 15
ENDMDL
