MODEL 1
REMARK VINA RESULT:      -9.9      0.000      0.000
REMARK SMILES C[C@@H](CC(=O)NCCCNC(=O)c1ccc(-c2c3nc(c(-c4ccc(S(=O)(=O)[O-])cc4)c4ccc([nH]4)c(-c4ccc(S(=O)(=O)[O-])cc4)c4nc(c(-c5ccc(S(=O)(=O)[O-])cc5)c5ccc2[nH]5)C=C4)C=C3)cc1)NC(=O)CN(C)c1ncccn1
REMARK SMILES IDX 7 1 6 2 4 3 5 4 3 6 2 7 1 8 73 9 74 10 75 12 76 13 77 14
REMARK SMILES IDX 78 15 79 16 80 17 84 18 81 19 83 20 82 21 8 22 9 23 10 24
REMARK SMILES IDX 11 25 12 27 13 28 14 29 72 30 15 31 71 32 16 33 17 34 18 35
REMARK SMILES IDX 65 36 19 37 70 38 64 39 66 40 20 41 69 42 63 43 62 44 21 46
REMARK SMILES IDX 51 47 32 48 50 49 33 50 36 51 49 52 67 53 34 54 35 55 48 57
REMARK SMILES IDX 68 58 37 59 22 60 23 61 31 62 24 63 30 64 25 65 26 66 27 67
REMARK SMILES IDX 28 68 29 69 52 70 53 71 61 72 54 73 60 74 55 75 56 76 57 77
REMARK SMILES IDX 58 78 59 79 38 80 39 81 47 82 40 83 46 84 41 85 42 86 43 87
REMARK SMILES IDX 44 88 45 89
REMARK H PARENT 6 5 73 11 10 26 66 45 36 56
REMARK Flexibility Score: inf
ROOT
ATOM      1  C   UNL A   1      32.841  29.432  24.513  1.00  0.00     0.117 C 
ENDROOT
BRANCH   1   2
ATOM      2  N   UNL A   1      32.140  29.015  23.309  1.00  0.00    -0.356 N 
ATOM      3  C   UNL A   1      31.105  28.154  23.124  1.00  0.00     0.222 C 
ATOM      4  O   UNL A   1      30.755  27.917  21.966  1.00  0.00    -0.275 OA
ATOM      5  H   UNL A   1      32.475  29.429  22.481  1.00  0.00     0.163 HD
BRANCH   3   6
ATOM      6  C   UNL A   1      30.383  27.509  24.289  1.00  0.00     0.124 C 
BRANCH   6   7
ATOM      7  C   UNL A   1      30.836  26.077  24.620  1.00  0.00     0.088 C 
ATOM      8  C   UNL A   1      31.199  25.935  26.091  1.00  0.00     0.031 C 
BRANCH   7   9
ATOM      9  N   UNL A   1      31.943  25.641  23.777  1.00  0.00    -0.352 N 
ATOM     10  C   UNL A   1      32.309  24.378  23.393  1.00  0.00     0.239 C 
ATOM     11  H   UNL A   1      32.514  26.364  23.430  1.00  0.00     0.163 HD
ATOM     12  O   UNL A   1      33.340  24.266  22.721  1.00  0.00    -0.273 OA
BRANCH  10  13
ATOM     13  C   UNL A   1      31.378  23.181  23.622  1.00  0.00     0.219 C 
BRANCH  13  14
ATOM     14  N   UNL A   1      32.007  21.954  24.103  1.00  0.00    -0.335 N 
ATOM     15  C   UNL A   1      32.323  20.886  23.180  1.00  0.00     0.147 C 
BRANCH  14  16
ATOM     16  C   UNL A   1      32.689  21.981  25.304  1.00  0.00     0.225 A 
ATOM     17  N   UNL A   1      32.079  22.514  26.380  1.00  0.00    -0.221 NA
ATOM     18  N   UNL A   1      33.952  21.538  25.342  1.00  0.00    -0.221 NA
ATOM     19  C   UNL A   1      32.780  22.585  27.529  1.00  0.00     0.117 A 
ATOM     20  C   UNL A   1      34.628  21.659  26.503  1.00  0.00     0.117 A 
ATOM     21  C   UNL A   1      34.082  22.178  27.647  1.00  0.00     0.040 A 
ENDBRANCH  14  16
ENDBRANCH  13  14
ENDBRANCH  10  13
ENDBRANCH   7   9
ENDBRANCH   6   7
ENDBRANCH   3   6
ENDBRANCH   1   2
BRANCH   1  22
ATOM     22  C   UNL A   1      33.782  28.345  25.032  1.00  0.00     0.042 C 
BRANCH  22  23
ATOM     23  C   UNL A   1      34.036  28.403  26.531  1.00  0.00     0.118 C 
BRANCH  23  24
ATOM     24  N   UNL A   1      33.814  29.734  27.065  1.00  0.00    -0.352 N 
ATOM     25  C   UNL A   1      34.581  30.464  27.940  1.00  0.00     0.251 C 
ATOM     26  H   UNL A   1      32.993  30.179  26.754  1.00  0.00     0.163 HD
ATOM     27  O   UNL A   1      34.094  31.467  28.464  1.00  0.00    -0.269 OA
BRANCH  25  28
ATOM     28  C   UNL A   1      35.968  30.055  28.274  1.00  0.00     0.039 A 
ATOM     29  C   UNL A   1      36.962  30.188  27.299  1.00  0.00     0.014 A 
ATOM     30  C   UNL A   1      36.290  29.491  29.511  1.00  0.00     0.014 A 
ATOM     31  C   UNL A   1      38.275  29.798  27.579  1.00  0.00     0.010 A 
ATOM     32  C   UNL A   1      37.614  29.180  29.818  1.00  0.00     0.010 A 
ATOM     33  C   UNL A   1      38.620  29.311  28.850  1.00  0.00    -0.014 A 
BRANCH  33  34
ATOM     34  C   UNL A   1      40.014  28.899  29.168  1.00  0.00     0.031 A 
ATOM     35  C   UNL A   1      40.954  29.867  29.842  1.00  0.00     0.074 A 
ATOM     36  C   UNL A   1      40.452  27.672  28.820  1.00  0.00     0.049 A 
ATOM     37  N   UNL A   1      42.218  29.714  30.147  1.00  0.00    -0.248 NA
ATOM     38  C   UNL A   1      40.410  31.189  30.198  1.00  0.00     0.031 C 
ATOM     39  C   UNL A   1      39.657  26.650  28.134  1.00  0.00     0.029 A 
ATOM     40  N   UNL A   1      41.677  27.076  28.992  1.00  0.00    -0.354 N 
ATOM     41  C   UNL A   1      42.621  30.919  30.713  1.00  0.00     0.074 A 
ATOM     42  C   UNL A   1      41.483  31.810  30.665  1.00  0.00     0.031 C 
ATOM     43  C   UNL A   1      40.406  25.547  27.969  1.00  0.00     0.029 A 
ATOM     44  C   UNL A   1      41.744  25.794  28.501  1.00  0.00     0.049 A 
ATOM     45  H   UNL A   1      42.436  27.525  29.428  1.00  0.00     0.167 HD
ATOM     46  C   UNL A   1      43.822  31.250  31.246  1.00  0.00     0.031 A 
ATOM     47  C   UNL A   1      42.766  24.916  28.472  1.00  0.00     0.031 A 
ATOM     48  C   UNL A   1      44.947  30.358  31.319  1.00  0.00     0.049 A 
ATOM     49  C   UNL A   1      44.090  25.309  29.068  1.00  0.00     0.074 A 
ATOM     50  C   UNL A   1      46.191  30.587  31.883  1.00  0.00     0.029 A 
ATOM     51  N   UNL A   1      44.966  29.066  30.820  1.00  0.00    -0.354 N 
ATOM     52  N   UNL A   1      44.434  26.438  29.640  1.00  0.00    -0.248 NA
ATOM     53  C   UNL A   1      45.163  24.304  29.024  1.00  0.00     0.031 C 
ATOM     54  C   UNL A   1      46.975  29.445  31.690  1.00  0.00     0.029 A 
ATOM     55  C   UNL A   1      46.204  28.488  31.051  1.00  0.00     0.049 A 
ATOM     56  H   UNL A   1      44.213  28.623  30.369  1.00  0.00     0.167 HD
ATOM     57  C   UNL A   1      45.753  26.268  30.047  1.00  0.00     0.074 A 
ATOM     58  C   UNL A   1      46.140  24.925  29.670  1.00  0.00     0.031 C 
ATOM     59  C   UNL A   1      46.571  27.148  30.676  1.00  0.00     0.031 A 
BRANCH  46  60
ATOM     60  C   UNL A   1      43.978  32.639  31.807  1.00  0.00    -0.014 A 
ATOM     61  C   UNL A   1      43.695  32.909  33.157  1.00  0.00     0.010 A 
ATOM     62  C   UNL A   1      44.465  33.676  30.989  1.00  0.00     0.010 A 
ATOM     63  C   UNL A   1      43.867  34.196  33.674  1.00  0.00     0.020 A 
ATOM     64  C   UNL A   1      44.662  34.959  31.507  1.00  0.00     0.020 A 
ATOM     65  C   UNL A   1      44.348  35.213  32.844  1.00  0.00     0.054 A 
BRANCH  65  66
ATOM     66  S   UNL A   1      44.595  36.866  33.551  1.00  0.00     0.124 S 
ATOM     67  O   UNL A   1      43.658  37.670  32.770  1.00  0.00    -0.237 OA
ATOM     68  O   UNL A   1      44.237  36.672  34.954  1.00  0.00    -0.237 OA
ATOM     69  O   UNL A   1      46.008  37.141  33.305  1.00  0.00    -0.744 OA
ENDBRANCH  65  66
ENDBRANCH  46  60
BRANCH  47  70
ATOM     70  C   UNL A   1      42.582  23.572  27.860  1.00  0.00    -0.014 A 
ATOM     71  C   UNL A   1      42.148  22.485  28.639  1.00  0.00     0.010 A 
ATOM     72  C   UNL A   1      42.852  23.370  26.495  1.00  0.00     0.010 A 
ATOM     73  C   UNL A   1      42.014  21.214  28.070  1.00  0.00     0.020 A 
ATOM     74  C   UNL A   1      42.694  22.108  25.917  1.00  0.00     0.020 A 
ATOM     75  C   UNL A   1      42.292  21.034  26.712  1.00  0.00     0.054 A 
BRANCH  75  76
ATOM     76  S   UNL A   1      42.079  19.386  25.982  1.00  0.00     0.124 S 
ATOM     77  O   UNL A   1      42.596  18.520  27.036  1.00  0.00    -0.237 OA
ATOM     78  O   UNL A   1      40.638  19.321  25.756  1.00  0.00    -0.237 OA
ATOM     79  O   UNL A   1      42.889  19.450  24.766  1.00  0.00    -0.744 OA
ENDBRANCH  75  76
ENDBRANCH  47  70
BRANCH  59  80
ATOM     80  C   UNL A   1      47.954  26.674  31.032  1.00  0.00    -0.014 A 
ATOM     81  C   UNL A   1      49.034  26.857  30.153  1.00  0.00     0.010 A 
ATOM     82  C   UNL A   1      48.182  26.086  32.290  1.00  0.00     0.010 A 
ATOM     83  C   UNL A   1      50.316  26.431  30.512  1.00  0.00     0.020 A 
ATOM     84  C   UNL A   1      49.466  25.681  32.663  1.00  0.00     0.020 A 
ATOM     85  C   UNL A   1      50.523  25.844  31.764  1.00  0.00     0.054 A 
BRANCH  85  86
ATOM     86  S   UNL A   1      52.202  25.338  32.226  1.00  0.00     0.124 S 
ATOM     87  O   UNL A   1      52.979  25.775  31.071  1.00  0.00    -0.237 OA
ATOM     88  O   UNL A   1      52.437  26.084  33.460  1.00  0.00    -0.237 OA
ATOM     89  O   UNL A   1      52.095  23.890  32.393  1.00  0.00    -0.744 OA
ENDBRANCH  85  86
ENDBRANCH  59  80
ENDBRANCH  33  34
ENDBRANCH  25  28
ENDBRANCH  23  24
ENDBRANCH  22  23
ENDBRANCH   1  22
TORSDOF 18
ENDMDL
MODEL 2
REMARK VINA RESULT:      -9.8      3.392      4.998
REMARK SMILES C[C@@H](CC(=O)NCCCNC(=O)c1ccc(-c2c3nc(c(-c4ccc(S(=O)(=O)[O-])cc4)c4ccc([nH]4)c(-c4ccc(S(=O)(=O)[O-])cc4)c4nc(c(-c5ccc(S(=O)(=O)[O-])cc5)c5ccc2[nH]5)C=C4)C=C3)cc1)NC(=O)CN(C)c1ncccn1
REMARK SMILES IDX 7 1 6 2 4 3 5 4 3 6 2 7 1 8 73 9 74 10 75 12 76 13 77 14
REMARK SMILES IDX 78 15 79 16 80 17 84 18 81 19 83 20 82 21 8 22 9 23 10 24
REMARK SMILES IDX 11 25 12 27 13 28 14 29 72 30 15 31 71 32 16 33 17 34 18 35
REMARK SMILES IDX 65 36 19 37 70 38 64 39 66 40 20 41 69 42 63 43 62 44 21 46
REMARK SMILES IDX 51 47 32 48 50 49 33 50 36 51 49 52 67 53 34 54 35 55 48 57
REMARK SMILES IDX 68 58 37 59 22 60 23 61 31 62 24 63 30 64 25 65 26 66 27 67
REMARK SMILES IDX 28 68 29 69 52 70 53 71 61 72 54 73 60 74 55 75 56 76 57 77
REMARK SMILES IDX 58 78 59 79 38 80 39 81 47 82 40 83 46 84 41 85 42 86 43 87
REMARK SMILES IDX 44 88 45 89
REMARK H PARENT 6 5 73 11 10 26 66 45 36 56
REMARK Flexibility Score: inf
ROOT
ATOM      1  C   UNL A   1      33.840  30.929  27.127  1.00  0.00     0.117 C 
ENDROOT
BRANCH   1   2
ATOM      2  N   UNL A   1      32.910  29.944  27.657  1.00  0.00    -0.356 N 
ATOM      3  C   UNL A   1      32.810  28.603  27.456  1.00  0.00     0.222 C 
ATOM      4  O   UNL A   1      31.859  28.015  27.976  1.00  0.00    -0.275 OA
ATOM      5  H   UNL A   1      32.234  30.313  28.270  1.00  0.00     0.163 HD
BRANCH   3   6
ATOM      6  C   UNL A   1      33.830  27.838  26.639  1.00  0.00     0.124 C 
BRANCH   6   7
ATOM      7  C   UNL A   1      33.251  27.055  25.449  1.00  0.00     0.088 C 
ATOM      8  C   UNL A   1      33.931  25.703  25.289  1.00  0.00     0.031 C 
BRANCH   7   9
ATOM      9  N   UNL A   1      33.321  27.812  24.205  1.00  0.00    -0.352 N 
ATOM     10  C   UNL A   1      32.340  28.496  23.537  1.00  0.00     0.239 C 
ATOM     11  H   UNL A   1      34.208  27.835  23.779  1.00  0.00     0.163 HD
ATOM     12  O   UNL A   1      32.641  29.006  22.453  1.00  0.00    -0.273 OA
BRANCH  10  13
ATOM     13  C   UNL A   1      30.984  28.780  24.197  1.00  0.00     0.219 C 
BRANCH  13  14
ATOM     14  N   UNL A   1      29.816  28.733  23.323  1.00  0.00    -0.335 N 
ATOM     15  C   UNL A   1      28.932  27.588  23.347  1.00  0.00     0.147 C 
BRANCH  14  16
ATOM     16  C   UNL A   1      29.311  29.917  22.820  1.00  0.00     0.225 A 
ATOM     17  N   UNL A   1      29.193  30.971  23.649  1.00  0.00    -0.221 NA
ATOM     18  N   UNL A   1      28.897  29.955  21.547  1.00  0.00    -0.221 NA
ATOM     19  C   UNL A   1      28.645  32.100  23.157  1.00  0.00     0.117 A 
ATOM     20  C   UNL A   1      28.323  31.093  21.105  1.00  0.00     0.117 A 
ATOM     21  C   UNL A   1      28.174  32.215  21.876  1.00  0.00     0.040 A 
ENDBRANCH  14  16
ENDBRANCH  13  14
ENDBRANCH  10  13
ENDBRANCH   7   9
ENDBRANCH   6   7
ENDBRANCH   3   6
ENDBRANCH   1   2
BRANCH   1  22
ATOM     22  C   UNL A   1      34.676  31.578  28.229  1.00  0.00     0.042 C 
BRANCH  22  23
ATOM     23  C   UNL A   1      35.395  30.586  29.132  1.00  0.00     0.118 C 
BRANCH  23  24
ATOM     24  N   UNL A   1      35.579  31.110  30.472  1.00  0.00    -0.352 N 
ATOM     25  C   UNL A   1      36.673  31.031  31.299  1.00  0.00     0.251 C 
ATOM     26  H   UNL A   1      34.807  31.596  30.843  1.00  0.00     0.163 HD
ATOM     27  O   UNL A   1      36.541  31.321  32.490  1.00  0.00    -0.269 OA
BRANCH  25  28
ATOM     28  C   UNL A   1      37.993  30.587  30.788  1.00  0.00     0.039 A 
ATOM     29  C   UNL A   1      38.286  30.769  29.433  1.00  0.00     0.014 A 
ATOM     30  C   UNL A   1      38.922  29.946  31.613  1.00  0.00     0.014 A 
ATOM     31  C   UNL A   1      39.518  30.348  28.920  1.00  0.00     0.010 A 
ATOM     32  C   UNL A   1      40.180  29.602  31.119  1.00  0.00     0.010 A 
ATOM     33  C   UNL A   1      40.487  29.781  29.762  1.00  0.00    -0.014 A 
BRANCH  33  34
ATOM     34  C   UNL A   1      41.805  29.334  29.234  1.00  0.00     0.031 A 
ATOM     35  C   UNL A   1      42.950  30.312  29.135  1.00  0.00     0.074 A 
ATOM     36  C   UNL A   1      41.967  28.066  28.808  1.00  0.00     0.049 A 
ATOM     37  N   UNL A   1      44.152  30.128  28.650  1.00  0.00    -0.248 NA
ATOM     38  C   UNL A   1      42.705  31.680  29.623  1.00  0.00     0.031 C 
ATOM     39  C   UNL A   1      40.933  27.028  28.817  1.00  0.00     0.029 A 
ATOM     40  N   UNL A   1      43.064  27.432  28.279  1.00  0.00    -0.354 N 
ATOM     41  C   UNL A   1      44.797  31.355  28.758  1.00  0.00     0.074 A 
ATOM     42  C   UNL A   1      43.839  32.289  29.310  1.00  0.00     0.031 C 
ATOM     43  C   UNL A   1      41.453  25.884  28.342  1.00  0.00     0.029 A 
ATOM     44  C   UNL A   1      42.843  26.113  27.960  1.00  0.00     0.049 A 
ATOM     45  H   UNL A   1      43.929  27.881  28.141  1.00  0.00     0.167 HD
ATOM     46  C   UNL A   1      46.077  31.675  28.450  1.00  0.00     0.031 A 
ATOM     47  C   UNL A   1      43.662  25.193  27.414  1.00  0.00     0.031 A 
ATOM     48  C   UNL A   1      47.039  30.744  27.926  1.00  0.00     0.049 A 
ATOM     49  C   UNL A   1      45.078  25.573  27.078  1.00  0.00     0.074 A 
ATOM     50  C   UNL A   1      48.373  30.962  27.626  1.00  0.00     0.029 A 
ATOM     51  N   UNL A   1      46.775  29.416  27.631  1.00  0.00    -0.354 N 
ATOM     52  N   UNL A   1      45.679  26.728  27.234  1.00  0.00    -0.248 NA
ATOM     53  C   UNL A   1      45.930  24.522  26.502  1.00  0.00     0.031 C 
ATOM     54  C   UNL A   1      48.905  29.775  27.113  1.00  0.00     0.029 A 
ATOM     55  C   UNL A   1      47.917  28.805  27.140  1.00  0.00     0.049 A 
ATOM     56  H   UNL A   1      45.905  28.972  27.752  1.00  0.00     0.167 HD
ATOM     57  C   UNL A   1      46.986  26.534  26.799  1.00  0.00     0.074 A 
ATOM     58  C   UNL A   1      47.092  25.150  26.390  1.00  0.00     0.031 C 
ATOM     59  C   UNL A   1      48.008  27.424  26.744  1.00  0.00     0.031 A 
BRANCH  46  60
ATOM     60  C   UNL A   1      46.517  33.096  28.683  1.00  0.00    -0.014 A 
ATOM     61  C   UNL A   1      47.098  33.481  29.904  1.00  0.00     0.010 A 
ATOM     62  C   UNL A   1      46.399  34.046  27.651  1.00  0.00     0.010 A 
ATOM     63  C   UNL A   1      47.526  34.797  30.102  1.00  0.00     0.020 A 
ATOM     64  C   UNL A   1      46.849  35.357  27.836  1.00  0.00     0.020 A 
ATOM     65  C   UNL A   1      47.397  35.727  29.066  1.00  0.00     0.054 A 
BRANCH  65  66
ATOM     66  S   UNL A   1      47.994  37.418  29.338  1.00  0.00     0.124 S 
ATOM     67  O   UNL A   1      49.398  37.307  28.947  1.00  0.00    -0.237 OA
ATOM     68  O   UNL A   1      47.153  38.204  28.439  1.00  0.00    -0.237 OA
ATOM     69  O   UNL A   1      47.761  37.644  30.762  1.00  0.00    -0.744 OA
ENDBRANCH  65  66
ENDBRANCH  46  60
BRANCH  47  70
ATOM     70  C   UNL A   1      43.168  23.813  27.152  1.00  0.00    -0.014 A 
ATOM     71  C   UNL A   1      43.111  22.865  28.188  1.00  0.00     0.010 A 
ATOM     72  C   UNL A   1      42.762  23.437  25.859  1.00  0.00     0.010 A 
ATOM     73  C   UNL A   1      42.685  21.558  27.931  1.00  0.00     0.020 A 
ATOM     74  C   UNL A   1      42.311  22.141  25.604  1.00  0.00     0.020 A 
ATOM     75  C   UNL A   1      42.290  21.204  26.638  1.00  0.00     0.054 A 
BRANCH  75  76
ATOM     76  S   UNL A   1      41.705  19.514  26.328  1.00  0.00     0.124 S 
ATOM     77  O   UNL A   1      42.094  18.829  27.556  1.00  0.00    -0.237 OA
ATOM     78  O   UNL A   1      40.270  19.704  26.134  1.00  0.00    -0.237 OA
ATOM     79  O   UNL A   1      42.440  19.118  25.128  1.00  0.00    -0.744 OA
ENDBRANCH  75  76
ENDBRANCH  47  70
BRANCH  59  80
ATOM     80  C   UNL A   1      49.340  26.921  26.258  1.00  0.00    -0.014 A 
ATOM     81  C   UNL A   1      49.743  27.100  24.925  1.00  0.00     0.010 A 
ATOM     82  C   UNL A   1      50.221  26.306  27.167  1.00  0.00     0.010 A 
ATOM     83  C   UNL A   1      50.995  26.646  24.499  1.00  0.00     0.020 A 
ATOM     84  C   UNL A   1      51.483  25.873  26.752  1.00  0.00     0.020 A 
ATOM     85  C   UNL A   1      51.856  26.033  25.415  1.00  0.00     0.054 A 
BRANCH  85  86
ATOM     86  S   UNL A   1      53.491  25.489  24.850  1.00  0.00     0.124 S 
ATOM     87  O   UNL A   1      53.433  25.786  23.423  1.00  0.00    -0.237 OA
ATOM     88  O   UNL A   1      54.397  26.329  25.630  1.00  0.00    -0.237 OA
ATOM     89  O   UNL A   1      53.521  24.069  25.192  1.00  0.00    -0.744 OA
ENDBRANCH  85  86
ENDBRANCH  59  80
ENDBRANCH  33  34
ENDBRANCH  25  28
ENDBRANCH  23  24
ENDBRANCH  22  23
ENDBRANCH   1  22
TORSDOF 18
ENDMDL
MODEL 3
REMARK VINA RESULT:      -9.7      3.232      3.971
REMARK SMILES C[C@@H](CC(=O)NCCCNC(=O)c1ccc(-c2c3nc(c(-c4ccc(S(=O)(=O)[O-])cc4)c4ccc([nH]4)c(-c4ccc(S(=O)(=O)[O-])cc4)c4nc(c(-c5ccc(S(=O)(=O)[O-])cc5)c5ccc2[nH]5)C=C4)C=C3)cc1)NC(=O)CN(C)c1ncccn1
REMARK SMILES IDX 7 1 6 2 4 3 5 4 3 6 2 7 1 8 73 9 74 10 75 12 76 13 77 14
REMARK SMILES IDX 78 15 79 16 80 17 84 18 81 19 83 20 82 21 8 22 9 23 10 24
REMARK SMILES IDX 11 25 12 27 13 28 14 29 72 30 15 31 71 32 16 33 17 34 18 35
REMARK SMILES IDX 65 36 19 37 70 38 64 39 66 40 20 41 69 42 63 43 62 44 21 46
REMARK SMILES IDX 51 47 32 48 50 49 33 50 36 51 49 52 67 53 34 54 35 55 48 57
REMARK SMILES IDX 68 58 37 59 22 60 23 61 31 62 24 63 30 64 25 65 26 66 27 67
REMARK SMILES IDX 28 68 29 69 52 70 53 71 61 72 54 73 60 74 55 75 56 76 57 77
REMARK SMILES IDX 58 78 59 79 38 80 39 81 47 82 40 83 46 84 41 85 42 86 43 87
REMARK SMILES IDX 44 88 45 89
REMARK H PARENT 6 5 73 11 10 26 66 45 36 56
REMARK Flexibility Score: inf
ROOT
ATOM      1  C   UNL A   1      33.981  29.063  26.387  1.00  0.00     0.117 C 
ENDROOT
BRANCH   1   2
ATOM      2  N   UNL A   1      32.779  28.638  27.088  1.00  0.00    -0.356 N 
ATOM      3  C   UNL A   1      32.012  27.523  26.962  1.00  0.00     0.222 C 
ATOM      4  O   UNL A   1      30.982  27.455  27.639  1.00  0.00    -0.275 OA
ATOM      5  H   UNL A   1      32.465  29.270  27.775  1.00  0.00     0.163 HD
BRANCH   3   6
ATOM      6  C   UNL A   1      32.399  26.385  26.041  1.00  0.00     0.124 C 
BRANCH   6   7
ATOM      7  C   UNL A   1      31.216  25.596  25.454  1.00  0.00     0.088 C 
ATOM      8  C   UNL A   1      30.218  26.519  24.770  1.00  0.00     0.031 C 
BRANCH   7   9
ATOM      9  N   UNL A   1      30.548  24.777  26.458  1.00  0.00    -0.352 N 
ATOM     10  C   UNL A   1      30.634  23.430  26.690  1.00  0.00     0.239 C 
ATOM     11  H   UNL A   1      29.942  25.265  27.060  1.00  0.00     0.163 HD
ATOM     12  O   UNL A   1      29.906  22.958  27.570  1.00  0.00    -0.273 OA
BRANCH  10  13
ATOM     13  C   UNL A   1      31.724  22.580  26.024  1.00  0.00     0.219 C 
BRANCH  13  14
ATOM     14  N   UNL A   1      33.062  22.673  26.601  1.00  0.00    -0.335 N 
ATOM     15  C   UNL A   1      33.261  22.463  28.018  1.00  0.00     0.147 C 
BRANCH  14  16
ATOM     16  C   UNL A   1      34.158  22.519  25.774  1.00  0.00     0.225 A 
ATOM     17  N   UNL A   1      34.533  21.273  25.427  1.00  0.00    -0.221 NA
ATOM     18  N   UNL A   1      34.846  23.606  25.400  1.00  0.00    -0.221 NA
ATOM     19  C   UNL A   1      35.638  21.138  24.667  1.00  0.00     0.117 A 
ATOM     20  C   UNL A   1      35.964  23.423  24.668  1.00  0.00     0.117 A 
ATOM     21  C   UNL A   1      36.411  22.193  24.262  1.00  0.00     0.040 A 
ENDBRANCH  14  16
ENDBRANCH  13  14
ENDBRANCH  10  13
ENDBRANCH   7   9
ENDBRANCH   6   7
ENDBRANCH   3   6
ENDBRANCH   1   2
BRANCH   1  22
ATOM     22  C   UNL A   1      35.202  29.080  27.306  1.00  0.00     0.042 C 
BRANCH  22  23
ATOM     23  C   UNL A   1      35.584  30.465  27.810  1.00  0.00     0.118 C 
BRANCH  23  24
ATOM     24  N   UNL A   1      35.539  30.543  29.258  1.00  0.00    -0.352 N 
ATOM     25  C   UNL A   1      36.459  30.118  30.186  1.00  0.00     0.251 C 
ATOM     26  H   UNL A   1      34.730  30.963  29.631  1.00  0.00     0.163 HD
ATOM     27  O   UNL A   1      36.122  30.048  31.369  1.00  0.00    -0.269 OA
BRANCH  25  28
ATOM     28  C   UNL A   1      37.833  29.729  29.784  1.00  0.00     0.039 A 
ATOM     29  C   UNL A   1      38.169  29.752  28.427  1.00  0.00     0.014 A 
ATOM     30  C   UNL A   1      38.774  29.289  30.718  1.00  0.00     0.014 A 
ATOM     31  C   UNL A   1      39.453  29.378  28.016  1.00  0.00     0.010 A 
ATOM     32  C   UNL A   1      40.078  28.995  30.317  1.00  0.00     0.010 A 
ATOM     33  C   UNL A   1      40.428  29.017  28.959  1.00  0.00    -0.014 A 
BRANCH  33  34
ATOM     34  C   UNL A   1      41.801  28.622  28.541  1.00  0.00     0.031 A 
ATOM     35  C   UNL A   1      42.897  29.657  28.474  1.00  0.00     0.074 A 
ATOM     36  C   UNL A   1      42.058  27.349  28.184  1.00  0.00     0.049 A 
ATOM     37  N   UNL A   1      44.138  29.520  28.079  1.00  0.00    -0.248 NA
ATOM     38  C   UNL A   1      42.548  31.028  28.882  1.00  0.00     0.031 C 
ATOM     39  C   UNL A   1      41.082  26.256  28.171  1.00  0.00     0.029 A 
ATOM     40  N   UNL A   1      43.221  26.755  27.758  1.00  0.00    -0.354 N 
ATOM     41  C   UNL A   1      44.708  30.785  28.174  1.00  0.00     0.074 A 
ATOM     42  C   UNL A   1      43.667  31.686  28.618  1.00  0.00     0.031 C 
ATOM     43  C   UNL A   1      41.693  25.124  27.784  1.00  0.00     0.029 A 
ATOM     44  C   UNL A   1      43.092  25.414  27.485  1.00  0.00     0.049 A 
ATOM     45  H   UNL A   1      44.069  27.246  27.658  1.00  0.00     0.167 HD
ATOM     46  C   UNL A   1      45.988  31.161  27.938  1.00  0.00     0.031 A 
ATOM     47  C   UNL A   1      43.993  24.518  27.037  1.00  0.00     0.031 A 
ATOM     48  C   UNL A   1      47.031  30.264  27.522  1.00  0.00     0.049 A 
ATOM     49  C   UNL A   1      45.407  24.963  26.779  1.00  0.00     0.074 A 
ATOM     50  C   UNL A   1      48.369  30.543  27.302  1.00  0.00     0.029 A 
ATOM     51  N   UNL A   1      46.859  28.913  27.270  1.00  0.00    -0.354 N 
ATOM     52  N   UNL A   1      45.935  26.154  26.922  1.00  0.00    -0.248 NA
ATOM     53  C   UNL A   1      46.351  23.937  26.308  1.00  0.00     0.031 C 
ATOM     54  C   UNL A   1      48.998  29.368  26.879  1.00  0.00     0.029 A 
ATOM     55  C   UNL A   1      48.062  28.346  26.884  1.00  0.00     0.049 A 
ATOM     56  H   UNL A   1      46.007  28.426  27.353  1.00  0.00     0.167 HD
ATOM     57  C   UNL A   1      47.277  26.015  26.585  1.00  0.00     0.074 A 
ATOM     58  C   UNL A   1      47.484  24.623  26.246  1.00  0.00     0.031 C 
ATOM     59  C   UNL A   1      48.252  26.957  26.557  1.00  0.00     0.031 A 
BRANCH  46  60
ATOM     60  C   UNL A   1      46.336  32.613  28.136  1.00  0.00    -0.014 A 
ATOM     61  C   UNL A   1      46.707  33.101  29.401  1.00  0.00     0.010 A 
ATOM     62  C   UNL A   1      46.347  33.489  27.034  1.00  0.00     0.010 A 
ATOM     63  C   UNL A   1      47.051  34.445  29.569  1.00  0.00     0.020 A 
ATOM     64  C   UNL A   1      46.715  34.828  27.193  1.00  0.00     0.020 A 
ATOM     65  C   UNL A   1      47.052  35.301  28.464  1.00  0.00     0.054 A 
BRANCH  65  66
ATOM     66  S   UNL A   1      47.540  37.031  28.705  1.00  0.00     0.124 S 
ATOM     67  O   UNL A   1      46.375  37.746  28.188  1.00  0.00    -0.237 OA
ATOM     68  O   UNL A   1      47.734  37.112  30.150  1.00  0.00    -0.237 OA
ATOM     69  O   UNL A   1      48.756  37.164  27.907  1.00  0.00    -0.744 OA
ENDBRANCH  65  66
ENDBRANCH  46  60
BRANCH  47  70
ATOM     70  C   UNL A   1      43.591  23.104  26.805  1.00  0.00    -0.014 A 
ATOM     71  C   UNL A   1      42.866  22.397  27.780  1.00  0.00     0.010 A 
ATOM     72  C   UNL A   1      43.944  22.452  25.610  1.00  0.00     0.010 A 
ATOM     73  C   UNL A   1      42.525  21.056  27.577  1.00  0.00     0.020 A 
ATOM     74  C   UNL A   1      43.582  21.121  25.392  1.00  0.00     0.020 A 
ATOM     75  C   UNL A   1      42.888  20.426  26.384  1.00  0.00     0.054 A 
BRANCH  75  76
ATOM     76  S   UNL A   1      42.407  18.696  26.120  1.00  0.00     0.124 S 
ATOM     77  O   UNL A   1      40.996  18.825  25.770  1.00  0.00    -0.237 OA
ATOM     78  O   UNL A   1      43.295  18.280  25.037  1.00  0.00    -0.237 OA
ATOM     79  O   UNL A   1      42.679  18.070  27.412  1.00  0.00    -0.744 OA
ENDBRANCH  75  76
ENDBRANCH  47  70
BRANCH  59  80
ATOM     80  C   UNL A   1      49.639  26.509  26.185  1.00  0.00    -0.014 A 
ATOM     81  C   UNL A   1      50.142  26.700  24.887  1.00  0.00     0.010 A 
ATOM     82  C   UNL A   1      50.468  25.935  27.166  1.00  0.00     0.010 A 
ATOM     83  C   UNL A   1      51.441  26.298  24.567  1.00  0.00     0.020 A 
ATOM     84  C   UNL A   1      51.776  25.553  26.857  1.00  0.00     0.020 A 
ATOM     85  C   UNL A   1      52.250  25.724  25.554  1.00  0.00     0.054 A 
BRANCH  85  86
ATOM     86  S   UNL A   1      53.947  25.248  25.127  1.00  0.00     0.124 S 
ATOM     87  O   UNL A   1      54.695  25.722  26.287  1.00  0.00    -0.237 OA
ATOM     88  O   UNL A   1      53.850  23.797  24.992  1.00  0.00    -0.237 OA
ATOM     89  O   UNL A   1      54.205  25.967  23.881  1.00  0.00    -0.744 OA
ENDBRANCH  85  86
ENDBRANCH  59  80
ENDBRANCH  33  34
ENDBRANCH  25  28
ENDBRANCH  23  24
ENDBRANCH  22  23
ENDBRANCH   1  22
TORSDOF 18
ENDMDL
