MODEL 1
REMARK VINA RESULT:     -12.8      0.000      0.000
REMARK SMILES O=C(Cn1nc(-c2ccc(Br)cc2)ccc1=O)N[C@H](C(=O)NCCCNC(=O)c1ccc(-c2c3nc(c(-c4ccc(S(=O)(=O)[O-])cc4)c4ccc([nH]4)c(-c4ccc(S(=O)(=O)[O-])cc4)c4nc(c(-c5ccc(S(=O)(=O)[O-])cc5)c5ccc2[nH]5)C=C4)C=C3)cc1)c1ccccc1
REMARK SMILES IDX 23 1 22 2 20 3 21 4 19 6 18 7 1 8 2 9 3 11 4 12 5 13 16 14
REMARK SMILES IDX 6 15 15 16 17 17 14 18 7 19 8 20 13 21 9 22 12 23 10 24
REMARK SMILES IDX 11 25 89 26 90 27 94 28 91 29 93 30 92 31 24 32 25 33 26 34
REMARK SMILES IDX 27 35 28 37 29 38 30 39 88 40 31 41 87 42 32 43 33 44 34 45
REMARK SMILES IDX 81 46 35 47 86 48 80 49 82 50 36 51 85 52 79 53 78 54 37 56
REMARK SMILES IDX 67 57 48 58 66 59 49 60 52 61 65 62 83 63 50 64 51 65 64 67
REMARK SMILES IDX 84 68 53 69 38 70 39 71 47 72 40 73 46 74 41 75 42 76 43 77
REMARK SMILES IDX 44 78 45 79 68 80 69 81 77 82 70 83 76 84 71 85 72 86 73 87
REMARK SMILES IDX 74 88 75 89 54 90 55 91 63 92 56 93 62 94 57 95 58 96 59 97
REMARK SMILES IDX 60 98 61 99
REMARK H PARENT 22 5 18 10 26 36 82 55 52 66
REMARK Flexibility Score: inf
ROOT
ATOM      1  C   UNL A   1      33.072  29.138  26.989  1.00  0.00     0.117 C 
ENDROOT
BRANCH   1   2
ATOM      2  N   UNL A   1      32.262  27.963  27.254  1.00  0.00    -0.354 N 
ATOM      3  C   UNL A   1      31.713  27.067  26.361  1.00  0.00     0.247 C 
ATOM      4  O   UNL A   1      31.040  26.153  26.853  1.00  0.00    -0.272 OA
ATOM      5  H   UNL A   1      32.079  27.780  28.204  1.00  0.00     0.163 HD
BRANCH   3   6
ATOM      6  C   UNL A   1      31.743  27.349  24.820  1.00  0.00     0.202 C 
BRANCH   6   7
ATOM      7  N   UNL A   1      32.113  26.234  23.955  1.00  0.00    -0.339 N 
ATOM      8  O   UNL A   1      33.728  27.420  22.836  1.00  0.00    -0.273 OA
ATOM      9  C   UNL A   1      33.136  26.360  23.038  1.00  0.00     0.242 C 
ATOM     10  H   UNL A   1      31.626  25.380  24.027  1.00  0.00     0.164 HD
BRANCH   9  11
ATOM     11  C   UNL A   1      33.340  25.151  22.133  1.00  0.00     0.248 C 
BRANCH  11  12
ATOM     12  N   UNL A   1      33.589  23.874  22.776  1.00  0.00    -0.220 N 
ATOM     13  N   UNL A   1      34.886  23.731  23.244  1.00  0.00    -0.169 NA
ATOM     14  C   UNL A   1      32.536  23.086  23.220  1.00  0.00     0.267 A 
ATOM     15  C   UNL A   1      35.131  22.732  24.026  1.00  0.00     0.091 A 
ATOM     16  C   UNL A   1      32.898  21.897  24.011  1.00  0.00     0.075 A 
ATOM     17  O   UNL A   1      31.340  23.265  22.990  1.00  0.00    -0.268 OA
ATOM     18  C   UNL A   1      34.153  21.699  24.413  1.00  0.00     0.036 A 
BRANCH  15  19
ATOM     19  C   UNL A   1      36.454  22.599  24.661  1.00  0.00     0.002 A 
ATOM     20  C   UNL A   1      36.965  23.686  25.379  1.00  0.00     0.011 A 
ATOM     21  C   UNL A   1      37.137  21.381  24.617  1.00  0.00     0.011 A 
ATOM     22  C   UNL A   1      38.149  23.534  26.102  1.00  0.00     0.016 A 
ATOM     23  C   UNL A   1      38.324  21.238  25.333  1.00  0.00     0.016 A 
ATOM     24  C   UNL A   1      38.815  22.308  26.084  1.00  0.00     0.018 A 
ATOM     25  Br  UNL A   1      40.388  22.083  27.108  1.00  0.00    -0.051 Br
ENDBRANCH  15  19
ENDBRANCH  11  12
ENDBRANCH   9  11
ENDBRANCH   6   7
BRANCH   6  26
ATOM     26  C   UNL A   1      30.520  28.041  24.229  1.00  0.00    -0.016 A 
ATOM     27  C   UNL A   1      29.383  27.321  23.836  1.00  0.00     0.006 A 
ATOM     28  C   UNL A   1      30.589  29.409  23.905  1.00  0.00     0.006 A 
ATOM     29  C   UNL A   1      28.361  27.938  23.111  1.00  0.00     0.000 A 
ATOM     30  C   UNL A   1      29.564  30.025  23.184  1.00  0.00     0.000 A 
ATOM     31  C   UNL A   1      28.456  29.287  22.777  1.00  0.00     0.000 A 
ENDBRANCH   6  26
ENDBRANCH   3   6
ENDBRANCH   1   2
BRANCH   1  32
ATOM     32  C   UNL A   1      34.567  28.908  27.026  1.00  0.00     0.042 C 
BRANCH  32  33
ATOM     33  C   UNL A   1      35.315  30.051  27.709  1.00  0.00     0.118 C 
BRANCH  33  34
ATOM     34  N   UNL A   1      35.560  29.871  29.146  1.00  0.00    -0.352 N 
ATOM     35  C   UNL A   1      36.644  29.381  29.850  1.00  0.00     0.251 C 
ATOM     36  H   UNL A   1      34.809  30.154  29.715  1.00  0.00     0.163 HD
ATOM     37  O   UNL A   1      36.594  29.301  31.076  1.00  0.00    -0.269 OA
BRANCH  35  38
ATOM     38  C   UNL A   1      37.834  28.871  29.133  1.00  0.00     0.039 A 
ATOM     39  C   UNL A   1      38.643  27.908  29.715  1.00  0.00     0.014 A 
ATOM     40  C   UNL A   1      38.212  29.441  27.914  1.00  0.00     0.014 A 
ATOM     41  C   UNL A   1      39.965  27.814  29.315  1.00  0.00     0.010 A 
ATOM     42  C   UNL A   1      39.488  29.185  27.396  1.00  0.00     0.010 A 
ATOM     43  C   UNL A   1      40.419  28.461  28.154  1.00  0.00    -0.014 A 
BRANCH  43  44
ATOM     44  C   UNL A   1      41.869  28.399  27.803  1.00  0.00     0.031 A 
ATOM     45  C   UNL A   1      42.808  29.524  28.183  1.00  0.00     0.074 A 
ATOM     46  C   UNL A   1      42.367  27.282  27.232  1.00  0.00     0.049 A 
ATOM     47  N   UNL A   1      44.096  29.626  27.963  1.00  0.00    -0.248 NA
ATOM     48  C   UNL A   1      42.240  30.683  28.892  1.00  0.00     0.031 C 
ATOM     49  C   UNL A   1      41.574  26.108  26.852  1.00  0.00     0.029 A 
ATOM     50  N   UNL A   1      43.653  26.920  26.917  1.00  0.00    -0.354 N 
ATOM     51  C   UNL A   1      44.477  30.866  28.468  1.00  0.00     0.074 A 
ATOM     52  C   UNL A   1      43.283  31.497  28.982  1.00  0.00     0.031 C 
ATOM     53  C   UNL A   1      42.396  25.128  26.461  1.00  0.00     0.029 A 
ATOM     54  C   UNL A   1      43.762  25.636  26.435  1.00  0.00     0.049 A 
ATOM     55  H   UNL A   1      44.424  27.523  27.026  1.00  0.00     0.167 HD
ATOM     56  C   UNL A   1      45.712  31.421  28.514  1.00  0.00     0.031 A 
ATOM     57  C   UNL A   1      44.828  24.939  25.995  1.00  0.00     0.031 A 
ATOM     58  C   UNL A   1      46.904  30.767  28.039  1.00  0.00     0.049 A 
ATOM     59  C   UNL A   1      46.178  25.592  26.010  1.00  0.00     0.074 A 
ATOM     60  C   UNL A   1      48.204  31.244  28.052  1.00  0.00     0.029 A 
ATOM     61  N   UNL A   1      46.952  29.495  27.484  1.00  0.00    -0.354 N 
ATOM     62  N   UNL A   1      46.507  26.777  26.466  1.00  0.00    -0.248 NA
ATOM     63  C   UNL A   1      47.297  24.828  25.448  1.00  0.00     0.031 C 
ATOM     64  C   UNL A   1      49.024  30.296  27.440  1.00  0.00     0.029 A 
ATOM     65  C   UNL A   1      48.254  29.187  27.127  1.00  0.00     0.049 A 
ATOM     66  H   UNL A   1      46.176  28.902  27.363  1.00  0.00     0.167 HD
ATOM     67  C   UNL A   1      47.875  26.895  26.258  1.00  0.00     0.074 A 
ATOM     68  C   UNL A   1      48.316  25.652  25.656  1.00  0.00     0.031 C 
ATOM     69  C   UNL A   1      48.687  27.943  26.535  1.00  0.00     0.031 A 
BRANCH  56  70
ATOM     70  C   UNL A   1      45.866  32.807  29.094  1.00  0.00    -0.014 A 
ATOM     71  C   UNL A   1      46.109  32.961  30.473  1.00  0.00     0.010 A 
ATOM     72  C   UNL A   1      45.637  33.955  28.314  1.00  0.00     0.010 A 
ATOM     73  C   UNL A   1      46.079  34.226  31.068  1.00  0.00     0.020 A 
ATOM     74  C   UNL A   1      45.640  35.227  28.900  1.00  0.00     0.020 A 
ATOM     75  C   UNL A   1      45.833  35.351  30.278  1.00  0.00     0.054 A 
BRANCH  75  76
ATOM     76  S   UNL A   1      45.759  36.980  31.073  1.00  0.00     0.124 S 
ATOM     77  O   UNL A   1      47.156  37.401  31.046  1.00  0.00    -0.237 OA
ATOM     78  O   UNL A   1      44.857  37.722  30.197  1.00  0.00    -0.237 OA
ATOM     79  O   UNL A   1      45.221  36.687  32.401  1.00  0.00    -0.744 OA
ENDBRANCH  75  76
ENDBRANCH  56  70
BRANCH  57  80
ATOM     80  C   UNL A   1      44.630  23.544  25.508  1.00  0.00    -0.014 A 
ATOM     81  C   UNL A   1      44.321  22.511  26.416  1.00  0.00     0.010 A 
ATOM     82  C   UNL A   1      44.857  23.218  24.160  1.00  0.00     0.010 A 
ATOM     83  C   UNL A   1      44.324  21.177  26.006  1.00  0.00     0.020 A 
ATOM     84  C   UNL A   1      44.819  21.885  23.735  1.00  0.00     0.020 A 
ATOM     85  C   UNL A   1      44.590  20.872  24.669  1.00  0.00     0.054 A 
BRANCH  85  86
ATOM     86  S   UNL A   1      44.659  19.127  24.176  1.00  0.00     0.124 S 
ATOM     87  O   UNL A   1      45.955  18.717  24.710  1.00  0.00    -0.237 OA
ATOM     88  O   UNL A   1      43.493  18.560  24.848  1.00  0.00    -0.237 OA
ATOM     89  O   UNL A   1      44.570  19.180  22.719  1.00  0.00    -0.744 OA
ENDBRANCH  85  86
ENDBRANCH  57  80
BRANCH  69  90
ATOM     90  C   UNL A   1      50.153  27.816  26.211  1.00  0.00    -0.014 A 
ATOM     91  C   UNL A   1      50.594  28.038  24.893  1.00  0.00     0.010 A 
ATOM     92  C   UNL A   1      51.065  27.336  27.168  1.00  0.00     0.010 A 
ATOM     93  C   UNL A   1      51.907  27.739  24.525  1.00  0.00     0.020 A 
ATOM     94  C   UNL A   1      52.389  27.067  26.811  1.00  0.00     0.020 A 
ATOM     95  C   UNL A   1      52.793  27.242  25.484  1.00  0.00     0.054 A 
BRANCH  95  96
ATOM     96  S   UNL A   1      54.477  26.807  24.973  1.00  0.00     0.124 S 
ATOM     97  O   UNL A   1      55.185  26.766  26.249  1.00  0.00    -0.237 OA
ATOM     98  O   UNL A   1      54.290  25.517  24.313  1.00  0.00    -0.237 OA
ATOM     99  O   UNL A   1      54.859  27.903  24.083  1.00  0.00    -0.744 OA
ENDBRANCH  95  96
ENDBRANCH  69  90
ENDBRANCH  43  44
ENDBRANCH  35  38
ENDBRANCH  33  34
ENDBRANCH  32  33
ENDBRANCH   1  32
TORSDOF 18
ENDMDL
MODEL 2
REMARK VINA RESULT:     -12.6      4.741      9.741
REMARK SMILES O=C(Cn1nc(-c2ccc(Br)cc2)ccc1=O)N[C@H](C(=O)NCCCNC(=O)c1ccc(-c2c3nc(c(-c4ccc(S(=O)(=O)[O-])cc4)c4ccc([nH]4)c(-c4ccc(S(=O)(=O)[O-])cc4)c4nc(c(-c5ccc(S(=O)(=O)[O-])cc5)c5ccc2[nH]5)C=C4)C=C3)cc1)c1ccccc1
REMARK SMILES IDX 23 1 22 2 20 3 21 4 19 6 18 7 1 8 2 9 3 11 4 12 5 13 16 14
REMARK SMILES IDX 6 15 15 16 17 17 14 18 7 19 8 20 13 21 9 22 12 23 10 24
REMARK SMILES IDX 11 25 89 26 90 27 94 28 91 29 93 30 92 31 24 32 25 33 26 34
REMARK SMILES IDX 27 35 28 37 29 38 30 39 88 40 31 41 87 42 32 43 33 44 34 45
REMARK SMILES IDX 81 46 35 47 86 48 80 49 82 50 36 51 85 52 79 53 78 54 37 56
REMARK SMILES IDX 67 57 48 58 66 59 49 60 52 61 65 62 83 63 50 64 51 65 64 67
REMARK SMILES IDX 84 68 53 69 38 70 39 71 47 72 40 73 46 74 41 75 42 76 43 77
REMARK SMILES IDX 44 78 45 79 68 80 69 81 77 82 70 83 76 84 71 85 72 86 73 87
REMARK SMILES IDX 74 88 75 89 54 90 55 91 63 92 56 93 62 94 57 95 58 96 59 97
REMARK SMILES IDX 60 98 61 99
REMARK H PARENT 22 5 18 10 26 36 82 55 52 66
REMARK Flexibility Score: inf
ROOT
ATOM      1  C   UNL A   1      35.593  22.049  24.341  1.00  0.00     0.117 C 
ENDROOT
BRANCH   1   2
ATOM      2  N   UNL A   1      35.127  21.816  25.697  1.00  0.00    -0.354 N 
ATOM      3  C   UNL A   1      33.995  21.156  26.124  1.00  0.00     0.247 C 
ATOM      4  O   UNL A   1      33.820  21.115  27.348  1.00  0.00    -0.272 OA
ATOM      5  H   UNL A   1      35.701  22.179  26.410  1.00  0.00     0.163 HD
BRANCH   3   6
ATOM      6  C   UNL A   1      32.890  20.714  25.105  1.00  0.00     0.202 C 
BRANCH   6   7
ATOM      7  N   UNL A   1      32.340  21.753  24.241  1.00  0.00    -0.339 N 
ATOM      8  O   UNL A   1      30.996  22.638  25.877  1.00  0.00    -0.273 OA
ATOM      9  C   UNL A   1      31.444  22.680  24.732  1.00  0.00     0.242 C 
ATOM     10  H   UNL A   1      32.612  21.793  23.294  1.00  0.00     0.164 HD
BRANCH   9  11
ATOM     11  C   UNL A   1      30.876  23.637  23.691  1.00  0.00     0.248 C 
BRANCH  11  12
ATOM     12  N   UNL A   1      31.727  24.729  23.257  1.00  0.00    -0.220 N 
ATOM     13  N   UNL A   1      31.790  25.778  24.162  1.00  0.00    -0.169 NA
ATOM     14  C   UNL A   1      32.669  24.540  22.256  1.00  0.00     0.267 A 
ATOM     15  C   UNL A   1      32.695  26.679  23.968  1.00  0.00     0.091 A 
ATOM     16  C   UNL A   1      33.596  25.658  22.011  1.00  0.00     0.075 A 
ATOM     17  O   UNL A   1      32.781  23.549  21.535  1.00  0.00    -0.268 OA
ATOM     18  C   UNL A   1      33.628  26.711  22.827  1.00  0.00     0.036 A 
BRANCH  15  19
ATOM     19  C   UNL A   1      32.900  27.745  24.964  1.00  0.00     0.002 A 
ATOM     20  C   UNL A   1      33.868  27.558  25.958  1.00  0.00     0.011 A 
ATOM     21  C   UNL A   1      32.203  28.951  24.858  1.00  0.00     0.011 A 
ATOM     22  C   UNL A   1      34.174  28.608  26.823  1.00  0.00     0.016 A 
ATOM     23  C   UNL A   1      32.506  29.994  25.732  1.00  0.00     0.016 A 
ATOM     24  C   UNL A   1      33.500  29.824  26.698  1.00  0.00     0.018 A 
ATOM     25  Br  UNL A   1      33.953  31.266  27.832  1.00  0.00    -0.051 Br
ENDBRANCH  15  19
ENDBRANCH  11  12
ENDBRANCH   9  11
ENDBRANCH   6   7
BRANCH   6  26
ATOM     26  C   UNL A   1      33.196  19.484  24.258  1.00  0.00    -0.016 A 
ATOM     27  C   UNL A   1      32.358  19.085  23.208  1.00  0.00     0.006 A 
ATOM     28  C   UNL A   1      34.242  18.625  24.641  1.00  0.00     0.006 A 
ATOM     29  C   UNL A   1      32.536  17.850  22.581  1.00  0.00     0.000 A 
ATOM     30  C   UNL A   1      34.423  17.393  24.009  1.00  0.00     0.000 A 
ATOM     31  C   UNL A   1      33.562  17.000  22.986  1.00  0.00     0.000 A 
ENDBRANCH   6  26
ENDBRANCH   3   6
ENDBRANCH   1   2
BRANCH   1  32
ATOM     32  C   UNL A   1      36.981  22.644  24.234  1.00  0.00     0.042 C 
BRANCH  32  33
ATOM     33  C   UNL A   1      37.604  22.917  25.601  1.00  0.00     0.118 C 
BRANCH  33  34
ATOM     34  N   UNL A   1      39.024  22.565  25.726  1.00  0.00    -0.352 N 
ATOM     35  C   UNL A   1      40.097  23.216  26.305  1.00  0.00     0.251 C 
ATOM     36  H   UNL A   1      39.255  21.698  25.320  1.00  0.00     0.163 HD
ATOM     37  O   UNL A   1      41.219  22.718  26.251  1.00  0.00    -0.269 OA
BRANCH  35  38
ATOM     38  C   UNL A   1      39.919  24.553  26.915  1.00  0.00     0.039 A 
ATOM     39  C   UNL A   1      40.464  25.675  26.312  1.00  0.00     0.014 A 
ATOM     40  C   UNL A   1      39.301  24.675  28.162  1.00  0.00     0.014 A 
ATOM     41  C   UNL A   1      40.745  26.784  27.093  1.00  0.00     0.010 A 
ATOM     42  C   UNL A   1      39.410  25.875  28.875  1.00  0.00     0.010 A 
ATOM     43  C   UNL A   1      40.235  26.902  28.395  1.00  0.00    -0.014 A 
BRANCH  43  44
ATOM     44  C   UNL A   1      40.628  28.075  29.231  1.00  0.00     0.031 A 
ATOM     45  C   UNL A   1      39.663  29.216  29.470  1.00  0.00     0.074 A 
ATOM     46  C   UNL A   1      41.820  28.069  29.864  1.00  0.00     0.049 A 
ATOM     47  N   UNL A   1      39.841  30.306  30.176  1.00  0.00    -0.248 NA
ATOM     48  C   UNL A   1      38.335  29.137  28.837  1.00  0.00     0.031 C 
ATOM     49  C   UNL A   1      42.827  27.008  29.751  1.00  0.00     0.029 A 
ATOM     50  N   UNL A   1      42.372  28.944  30.766  1.00  0.00    -0.354 N 
ATOM     51  C   UNL A   1      38.672  31.049  30.040  1.00  0.00     0.074 A 
ATOM     52  C   UNL A   1      37.799  30.306  29.162  1.00  0.00     0.031 C 
ATOM     53  C   UNL A   1      43.813  27.240  30.625  1.00  0.00     0.029 A 
ATOM     54  C   UNL A   1      43.583  28.526  31.270  1.00  0.00     0.049 A 
ATOM     55  H   UNL A   1      41.943  29.791  31.027  1.00  0.00     0.167 HD
ATOM     56  C   UNL A   1      38.349  32.236  30.609  1.00  0.00     0.031 A 
ATOM     57  C   UNL A   1      44.435  29.111  32.135  1.00  0.00     0.031 A 
ATOM     58  C   UNL A   1      39.208  32.950  31.518  1.00  0.00     0.049 A 
ATOM     59  C   UNL A   1      44.079  30.447  32.713  1.00  0.00     0.074 A 
ATOM     60  C   UNL A   1      38.965  34.155  32.154  1.00  0.00     0.029 A 
ATOM     61  N   UNL A   1      40.461  32.524  31.936  1.00  0.00    -0.354 N 
ATOM     62  N   UNL A   1      42.980  31.143  32.545  1.00  0.00    -0.248 NA
ATOM     63  C   UNL A   1      45.071  31.084  33.587  1.00  0.00     0.031 C 
ATOM     64  C   UNL A   1      40.096  34.494  32.897  1.00  0.00     0.029 A 
ATOM     65  C   UNL A   1      41.012  33.457  32.799  1.00  0.00     0.049 A 
ATOM     66  H   UNL A   1      40.893  31.684  31.661  1.00  0.00     0.167 HD
ATOM     67  C   UNL A   1      43.143  32.295  33.305  1.00  0.00     0.074 A 
ATOM     68  C   UNL A   1      44.437  32.191  33.950  1.00  0.00     0.031 C 
ATOM     69  C   UNL A   1      42.297  33.344  33.445  1.00  0.00     0.031 A 
BRANCH  56  70
ATOM     70  C   UNL A   1      37.014  32.862  30.280  1.00  0.00    -0.014 A 
ATOM     71  C   UNL A   1      36.890  33.675  29.136  1.00  0.00     0.010 A 
ATOM     72  C   UNL A   1      35.924  32.764  31.163  1.00  0.00     0.010 A 
ATOM     73  C   UNL A   1      35.723  34.408  28.902  1.00  0.00     0.020 A 
ATOM     74  C   UNL A   1      34.741  33.471  30.916  1.00  0.00     0.020 A 
ATOM     75  C   UNL A   1      34.659  34.310  29.801  1.00  0.00     0.054 A 
BRANCH  75  76
ATOM     76  S   UNL A   1      33.167  35.299  29.503  1.00  0.00     0.124 S 
ATOM     77  O   UNL A   1      32.499  34.540  28.450  1.00  0.00    -0.237 OA
ATOM     78  O   UNL A   1      32.510  35.286  30.807  1.00  0.00    -0.237 OA
ATOM     79  O   UNL A   1      33.696  36.600  29.096  1.00  0.00    -0.744 OA
ENDBRANCH  75  76
ENDBRANCH  56  70
BRANCH  57  80
ATOM     80  C   UNL A   1      45.703  28.409  32.486  1.00  0.00    -0.014 A 
ATOM     81  C   UNL A   1      46.846  28.558  31.674  1.00  0.00     0.010 A 
ATOM     82  C   UNL A   1      45.747  27.505  33.561  1.00  0.00     0.010 A 
ATOM     83  C   UNL A   1      47.974  27.762  31.878  1.00  0.00     0.020 A 
ATOM     84  C   UNL A   1      46.892  26.735  33.795  1.00  0.00     0.020 A 
ATOM     85  C   UNL A   1      47.982  26.842  32.929  1.00  0.00     0.054 A 
BRANCH  85  86
ATOM     86  S   UNL A   1      49.431  25.769  33.129  1.00  0.00     0.124 S 
ATOM     87  O   UNL A   1      49.982  25.755  31.776  1.00  0.00    -0.237 OA
ATOM     88  O   UNL A   1      50.224  26.487  34.124  1.00  0.00    -0.237 OA
ATOM     89  O   UNL A   1      48.860  24.505  33.586  1.00  0.00    -0.744 OA
ENDBRANCH  85  86
ENDBRANCH  57  80
BRANCH  69  90
ATOM     90  C   UNL A   1      42.714  34.482  34.340  1.00  0.00    -0.014 A 
ATOM     91  C   UNL A   1      43.527  35.509  33.824  1.00  0.00     0.010 A 
ATOM     92  C   UNL A   1      42.428  34.459  35.717  1.00  0.00     0.010 A 
ATOM     93  C   UNL A   1      44.086  36.465  34.674  1.00  0.00     0.020 A 
ATOM     94  C   UNL A   1      42.958  35.436  36.565  1.00  0.00     0.020 A 
ATOM     95  C   UNL A   1      43.808  36.414  36.042  1.00  0.00     0.054 A 
BRANCH  95  96
ATOM     96  S   UNL A   1      44.587  37.633  37.135  1.00  0.00     0.124 S 
ATOM     97  O   UNL A   1      45.397  36.789  38.008  1.00  0.00    -0.237 OA
ATOM     98  O   UNL A   1      45.334  38.471  36.200  1.00  0.00    -0.237 OA
ATOM     99  O   UNL A   1      43.453  38.291  37.780  1.00  0.00    -0.744 OA
ENDBRANCH  95  96
ENDBRANCH  69  90
ENDBRANCH  43  44
ENDBRANCH  35  38
ENDBRANCH  33  34
ENDBRANCH  32  33
ENDBRANCH   1  32
TORSDOF 18
ENDMDL
MODEL 3
REMARK VINA RESULT:     -12.3      0.860      7.885
REMARK SMILES O=C(Cn1nc(-c2ccc(Br)cc2)ccc1=O)N[C@H](C(=O)NCCCNC(=O)c1ccc(-c2c3nc(c(-c4ccc(S(=O)(=O)[O-])cc4)c4ccc([nH]4)c(-c4ccc(S(=O)(=O)[O-])cc4)c4nc(c(-c5ccc(S(=O)(=O)[O-])cc5)c5ccc2[nH]5)C=C4)C=C3)cc1)c1ccccc1
REMARK SMILES IDX 23 1 22 2 20 3 21 4 19 6 18 7 1 8 2 9 3 11 4 12 5 13 16 14
REMARK SMILES IDX 6 15 15 16 17 17 14 18 7 19 8 20 13 21 9 22 12 23 10 24
REMARK SMILES IDX 11 25 89 26 90 27 94 28 91 29 93 30 92 31 24 32 25 33 26 34
REMARK SMILES IDX 27 35 28 37 29 38 30 39 88 40 31 41 87 42 32 43 33 44 34 45
REMARK SMILES IDX 81 46 35 47 86 48 80 49 82 50 36 51 85 52 79 53 78 54 37 56
REMARK SMILES IDX 67 57 48 58 66 59 49 60 52 61 65 62 83 63 50 64 51 65 64 67
REMARK SMILES IDX 84 68 53 69 38 70 39 71 47 72 40 73 46 74 41 75 42 76 43 77
REMARK SMILES IDX 44 78 45 79 68 80 69 81 77 82 70 83 76 84 71 85 72 86 73 87
REMARK SMILES IDX 74 88 75 89 54 90 55 91 63 92 56 93 62 94 57 95 58 96 59 97
REMARK SMILES IDX 60 98 61 99
REMARK H PARENT 22 5 18 10 26 36 82 55 52 66
REMARK Flexibility Score: inf
ROOT
ATOM      1  C   UNL A   1      32.477  29.822  26.694  1.00  0.00     0.117 C 
ENDROOT
BRANCH   1   2
ATOM      2  N   UNL A   1      31.752  28.583  26.908  1.00  0.00    -0.354 N 
ATOM      3  C   UNL A   1      31.319  27.658  25.982  1.00  0.00     0.247 C 
ATOM      4  O   UNL A   1      30.698  26.687  26.432  1.00  0.00    -0.272 OA
ATOM      5  H   UNL A   1      31.539  28.373  27.847  1.00  0.00     0.163 HD
BRANCH   3   6
ATOM      6  C   UNL A   1      31.399  27.963  24.446  1.00  0.00     0.202 C 
BRANCH   6   7
ATOM      7  N   UNL A   1      31.836  26.872  23.583  1.00  0.00    -0.339 N 
ATOM      8  O   UNL A   1      34.038  27.519  23.596  1.00  0.00    -0.273 OA
ATOM      9  C   UNL A   1      33.168  26.717  23.258  1.00  0.00     0.242 C 
ATOM     10  H   UNL A   1      31.171  26.237  23.226  1.00  0.00     0.164 HD
BRANCH   9  11
ATOM     11  C   UNL A   1      33.461  25.600  22.265  1.00  0.00     0.248 C 
BRANCH  11  12
ATOM     12  N   UNL A   1      33.596  24.256  22.796  1.00  0.00    -0.220 N 
ATOM     13  N   UNL A   1      34.839  24.001  23.355  1.00  0.00    -0.169 NA
ATOM     14  C   UNL A   1      32.474  23.485  23.069  1.00  0.00     0.267 A 
ATOM     15  C   UNL A   1      34.969  22.921  24.052  1.00  0.00     0.091 A 
ATOM     16  C   UNL A   1      32.713  22.209  23.765  1.00  0.00     0.075 A 
ATOM     17  O   UNL A   1      31.313  23.747  22.758  1.00  0.00    -0.268 OA
ATOM     18  C   UNL A   1      33.916  21.909  24.251  1.00  0.00     0.036 A 
BRANCH  15  19
ATOM     19  C   UNL A   1      36.223  22.660  24.780  1.00  0.00     0.002 A 
ATOM     20  C   UNL A   1      36.819  21.400  24.659  1.00  0.00     0.011 A 
ATOM     21  C   UNL A   1      36.844  23.683  25.502  1.00  0.00     0.011 A 
ATOM     22  C   UNL A   1      38.074  21.178  25.226  1.00  0.00     0.016 A 
ATOM     23  C   UNL A   1      38.094  23.452  26.074  1.00  0.00     0.016 A 
ATOM     24  C   UNL A   1      38.710  22.208  25.920  1.00  0.00     0.018 A 
ATOM     25  Br  UNL A   1      40.435  21.927  26.640  1.00  0.00    -0.051 Br
ENDBRANCH  15  19
ENDBRANCH  11  12
ENDBRANCH   9  11
ENDBRANCH   6   7
BRANCH   6  26
ATOM     26  C   UNL A   1      30.179  28.626  23.818  1.00  0.00    -0.016 A 
ATOM     27  C   UNL A   1      30.012  30.018  23.822  1.00  0.00     0.006 A 
ATOM     28  C   UNL A   1      29.107  27.826  23.379  1.00  0.00     0.006 A 
ATOM     29  C   UNL A   1      28.801  30.594  23.432  1.00  0.00     0.000 A 
ATOM     30  C   UNL A   1      27.899  28.405  22.984  1.00  0.00     0.000 A 
ATOM     31  C   UNL A   1      27.742  29.788  23.022  1.00  0.00     0.000 A 
ENDBRANCH   6  26
ENDBRANCH   3   6
ENDBRANCH   1   2
BRANCH   1  32
ATOM     32  C   UNL A   1      33.916  29.656  26.254  1.00  0.00     0.042 C 
BRANCH  32  33
ATOM     33  C   UNL A   1      34.771  28.963  27.313  1.00  0.00     0.118 C 
BRANCH  33  34
ATOM     34  N   UNL A   1      35.039  29.754  28.521  1.00  0.00    -0.352 N 
ATOM     35  C   UNL A   1      36.192  29.980  29.248  1.00  0.00     0.251 C 
ATOM     36  H   UNL A   1      34.244  30.211  28.881  1.00  0.00     0.163 HD
ATOM     37  O   UNL A   1      36.152  30.672  30.263  1.00  0.00    -0.269 OA
BRANCH  35  38
ATOM     38  C   UNL A   1      37.461  29.324  28.861  1.00  0.00     0.039 A 
ATOM     39  C   UNL A   1      38.112  28.480  29.747  1.00  0.00     0.014 A 
ATOM     40  C   UNL A   1      38.068  29.642  27.643  1.00  0.00     0.014 A 
ATOM     41  C   UNL A   1      39.476  28.291  29.611  1.00  0.00     0.010 A 
ATOM     42  C   UNL A   1      39.400  29.272  27.416  1.00  0.00     0.010 A 
ATOM     43  C   UNL A   1      40.152  28.694  28.449  1.00  0.00    -0.014 A 
BRANCH  43  44
ATOM     44  C   UNL A   1      41.636  28.545  28.377  1.00  0.00     0.031 A 
ATOM     45  C   UNL A   1      42.264  27.328  27.733  1.00  0.00     0.074 A 
ATOM     46  C   UNL A   1      42.426  29.556  28.798  1.00  0.00     0.049 A 
ATOM     47  N   UNL A   1      43.535  27.045  27.580  1.00  0.00    -0.248 NA
ATOM     48  C   UNL A   1      41.363  26.292  27.199  1.00  0.00     0.031 C 
ATOM     49  C   UNL A   1      41.944  30.803  29.402  1.00  0.00     0.029 A 
ATOM     50  N   UNL A   1      43.787  29.728  28.741  1.00  0.00    -0.354 N 
ATOM     51  C   UNL A   1      43.581  25.794  26.971  1.00  0.00     0.074 A 
ATOM     52  C   UNL A   1      42.215  25.353  26.808  1.00  0.00     0.031 C 
ATOM     53  C   UNL A   1      42.973  31.645  29.557  1.00  0.00     0.029 A 
ATOM     54  C   UNL A   1      44.206  30.960  29.189  1.00  0.00     0.049 A 
ATOM     55  H   UNL A   1      44.404  29.035  28.412  1.00  0.00     0.167 HD
ATOM     56  C   UNL A   1      44.663  25.083  26.572  1.00  0.00     0.031 A 
ATOM     57  C   UNL A   1      45.440  31.486  29.319  1.00  0.00     0.031 A 
ATOM     58  C   UNL A   1      46.020  25.549  26.699  1.00  0.00     0.049 A 
ATOM     59  C   UNL A   1      46.625  30.662  28.916  1.00  0.00     0.074 A 
ATOM     60  C   UNL A   1      47.184  24.905  26.314  1.00  0.00     0.029 A 
ATOM     61  N   UNL A   1      46.400  26.772  27.234  1.00  0.00    -0.354 N 
ATOM     62  N   UNL A   1      46.644  29.469  28.371  1.00  0.00    -0.248 NA
ATOM     63  C   UNL A   1      47.953  31.242  29.148  1.00  0.00     0.031 C 
ATOM     64  C   UNL A   1      48.267  25.704  26.681  1.00  0.00     0.029 A 
ATOM     65  C   UNL A   1      47.780  26.887  27.213  1.00  0.00     0.049 A 
ATOM     66  H   UNL A   1      45.780  27.456  27.577  1.00  0.00     0.167 HD
ATOM     67  C   UNL A   1      47.985  29.161  28.182  1.00  0.00     0.074 A 
ATOM     68  C   UNL A   1      48.747  30.302  28.650  1.00  0.00     0.031 C 
ATOM     69  C   UNL A   1      48.532  28.030  27.673  1.00  0.00     0.031 A 
BRANCH  56  70
ATOM     70  C   UNL A   1      44.452  23.721  25.955  1.00  0.00    -0.014 A 
ATOM     71  C   UNL A   1      44.249  22.604  26.788  1.00  0.00     0.010 A 
ATOM     72  C   UNL A   1      44.590  23.517  24.570  1.00  0.00     0.010 A 
ATOM     73  C   UNL A   1      44.229  21.310  26.259  1.00  0.00     0.020 A 
ATOM     74  C   UNL A   1      44.538  22.225  24.031  1.00  0.00     0.020 A 
ATOM     75  C   UNL A   1      44.385  21.128  24.883  1.00  0.00     0.054 A 
BRANCH  75  76
ATOM     76  S   UNL A   1      44.395  19.440  24.219  1.00  0.00     0.124 S 
ATOM     77  O   UNL A   1      45.613  18.886  24.802  1.00  0.00    -0.237 OA
ATOM     78  O   UNL A   1      43.142  18.890  24.727  1.00  0.00    -0.237 OA
ATOM     79  O   UNL A   1      44.433  19.643  22.771  1.00  0.00    -0.744 OA
ENDBRANCH  75  76
ENDBRANCH  56  70
BRANCH  57  80
ATOM     80  C   UNL A   1      45.584  32.868  29.860  1.00  0.00    -0.014 A 
ATOM     81  C   UNL A   1      45.591  33.089  31.252  1.00  0.00     0.010 A 
ATOM     82  C   UNL A   1      45.601  33.976  28.996  1.00  0.00     0.010 A 
ATOM     83  C   UNL A   1      45.529  34.384  31.768  1.00  0.00     0.020 A 
ATOM     84  C   UNL A   1      45.582  35.278  29.510  1.00  0.00     0.020 A 
ATOM     85  C   UNL A   1      45.509  35.471  30.891  1.00  0.00     0.054 A 
BRANCH  85  86
ATOM     86  S   UNL A   1      45.357  37.141  31.585  1.00  0.00     0.124 S 
ATOM     87  O   UNL A   1      46.372  37.121  32.635  1.00  0.00    -0.237 OA
ATOM     88  O   UNL A   1      45.655  37.991  30.435  1.00  0.00    -0.237 OA
ATOM     89  O   UNL A   1      43.974  37.192  32.052  1.00  0.00    -0.744 OA
ENDBRANCH  85  86
ENDBRANCH  57  80
BRANCH  69  90
ATOM     90  C   UNL A   1      50.032  27.946  27.572  1.00  0.00    -0.014 A 
ATOM     91  C   UNL A   1      50.667  28.307  26.369  1.00  0.00     0.010 A 
ATOM     92  C   UNL A   1      50.795  27.376  28.606  1.00  0.00     0.010 A 
ATOM     93  C   UNL A   1      52.028  28.055  26.182  1.00  0.00     0.020 A 
ATOM     94  C   UNL A   1      52.165  27.155  28.435  1.00  0.00     0.020 A 
ATOM     95  C   UNL A   1      52.765  27.468  27.213  1.00  0.00     0.054 A 
BRANCH  95  96
ATOM     96  S   UNL A   1      54.518  27.100  26.930  1.00  0.00     0.124 S 
ATOM     97  O   UNL A   1      54.560  25.652  27.109  1.00  0.00    -0.237 OA
ATOM     98  O   UNL A   1      54.728  27.573  25.564  1.00  0.00    -0.237 OA
ATOM     99  O   UNL A   1      55.203  27.876  27.962  1.00  0.00    -0.744 OA
ENDBRANCH  95  96
ENDBRANCH  69  90
ENDBRANCH  43  44
ENDBRANCH  35  38
ENDBRANCH  33  34
ENDBRANCH  32  33
ENDBRANCH   1  32
TORSDOF 18
ENDMDL
