MODEL 1
REMARK VINA RESULT:     -11.2      0.000      0.000
REMARK SMILES Cc1ccc(NC(=O)c2cccnc2C(=O)NCCCNC(=O)c2ccc(-c3c4nc(c(-c5ccc(S(=O)(=O)[O-])cc5)c5ccc([nH]5)c(-c5ccc(S(=O)(=O)[O-])cc5)c5nc(c(-c6ccc(S(=O)(=O)[O-])cc6)c6ccc3[nH]6)C=C5)C=C4)cc2)nc1
REMARK SMILES IDX 19 1 18 2 17 3 15 4 16 5 14 7 9 8 10 9 11 10 13 11 12 12
REMARK SMILES IDX 7 13 6 14 8 16 5 17 1 18 2 19 3 20 85 21 4 22 84 23 20 24
REMARK SMILES IDX 21 25 22 26 23 28 24 29 25 30 83 31 26 32 82 33 27 34 28 35
REMARK SMILES IDX 29 36 76 37 30 38 81 39 75 40 77 41 31 42 80 43 74 44 73 45
REMARK SMILES IDX 32 47 62 48 43 49 61 50 44 51 47 52 60 53 78 54 45 55 46 56
REMARK SMILES IDX 59 58 79 59 48 60 33 61 34 62 42 63 35 64 41 65 36 66 37 67
REMARK SMILES IDX 38 68 39 69 40 70 63 71 64 72 72 73 65 74 71 75 66 76 67 77
REMARK SMILES IDX 68 78 69 79 70 80 49 81 50 82 58 83 51 84 57 85 52 86 53 87
REMARK SMILES IDX 54 88 55 89 56 90
REMARK H PARENT 17 6 6 15 21 27 77 46 47 57
REMARK Flexibility Score: inf
ROOT
ATOM      1  C   UNL A   1      32.118  27.445  26.761  1.00  0.00     0.042 C 
ENDROOT
BRANCH   1   2
ATOM      2  C   UNL A   1      32.241  26.135  25.981  1.00  0.00     0.118 C 
BRANCH   2   3
ATOM      3  N   UNL A   1      33.625  25.718  25.868  1.00  0.00    -0.351 N 
ATOM      4  C   UNL A   1      34.247  24.585  25.390  1.00  0.00     0.270 C 
ATOM      5  O   UNL A   1      35.482  24.594  25.435  1.00  0.00    -0.267 OA
ATOM      6  H   UNL A   1      34.259  26.390  26.206  1.00  0.00     0.163 HD
BRANCH   4   7
ATOM      7  C   UNL A   1      33.551  23.432  24.723  1.00  0.00     0.140 A 
ATOM      8  C   UNL A   1      33.127  23.372  23.403  1.00  0.00     0.071 A 
ATOM      9  C   UNL A   1      32.454  22.217  22.958  1.00  0.00     0.018 A 
ATOM     10  C   UNL A   1      32.152  21.199  23.850  1.00  0.00     0.021 A 
ATOM     11  N   UNL A   1      33.291  22.402  25.593  1.00  0.00    -0.250 NA
ATOM     12  C   UNL A   1      32.566  21.351  25.157  1.00  0.00     0.112 A 
BRANCH   8  13
ATOM     13  C   UNL A   1      32.997  24.549  22.543  1.00  0.00     0.259 C 
ATOM     14  N   UNL A   1      31.707  24.971  22.295  1.00  0.00    -0.306 N 
ATOM     15  H   UNL A   1      31.080  24.388  21.810  1.00  0.00     0.171 HD
ATOM     16  O   UNL A   1      34.023  25.129  22.197  1.00  0.00    -0.269 OA
BRANCH  14  17
ATOM     17  C   UNL A   1      31.296  26.236  22.740  1.00  0.00     0.132 A 
ATOM     18  C   UNL A   1      29.624  30.038  23.589  1.00  0.00     0.046 C 
ATOM     19  C   UNL A   1      30.269  28.723  23.294  1.00  0.00    -0.033 A 
ATOM     20  C   UNL A   1      31.540  28.613  22.730  1.00  0.00     0.009 A 
ATOM     21  C   UNL A   1      29.586  27.548  23.560  1.00  0.00     0.117 A 
ATOM     22  C   UNL A   1      32.063  27.352  22.437  1.00  0.00     0.047 A 
ATOM     23  N   UNL A   1      30.069  26.324  23.285  1.00  0.00    -0.239 NA
ENDBRANCH  14  17
ENDBRANCH   8  13
ENDBRANCH   4   7
ENDBRANCH   2   3
ENDBRANCH   1   2
BRANCH   1  24
ATOM     24  C   UNL A   1      33.449  28.069  27.160  1.00  0.00     0.118 C 
BRANCH  24  25
ATOM     25  N   UNL A   1      33.352  29.513  27.293  1.00  0.00    -0.352 N 
ATOM     26  C   UNL A   1      34.234  30.414  27.843  1.00  0.00     0.251 C 
ATOM     27  H   UNL A   1      32.525  29.910  26.934  1.00  0.00     0.163 HD
ATOM     28  O   UNL A   1      33.837  31.551  28.090  1.00  0.00    -0.269 OA
BRANCH  26  29
ATOM     29  C   UNL A   1      35.639  30.041  28.150  1.00  0.00     0.039 A 
ATOM     30  C   UNL A   1      35.964  29.671  29.460  1.00  0.00     0.014 A 
ATOM     31  C   UNL A   1      36.653  30.117  27.191  1.00  0.00     0.014 A 
ATOM     32  C   UNL A   1      37.282  29.341  29.794  1.00  0.00     0.010 A 
ATOM     33  C   UNL A   1      37.950  29.706  27.502  1.00  0.00     0.010 A 
ATOM     34  C   UNL A   1      38.285  29.331  28.811  1.00  0.00    -0.014 A 
BRANCH  34  35
ATOM     35  C   UNL A   1      39.689  28.965  29.141  1.00  0.00     0.031 A 
ATOM     36  C   UNL A   1      40.601  29.971  29.796  1.00  0.00     0.074 A 
ATOM     37  C   UNL A   1      40.162  27.747  28.806  1.00  0.00     0.049 A 
ATOM     38  N   UNL A   1      41.867  29.857  30.111  1.00  0.00    -0.248 NA
ATOM     39  C   UNL A   1      40.023  31.286  30.119  1.00  0.00     0.031 C 
ATOM     40  C   UNL A   1      39.395  26.696  28.133  1.00  0.00     0.029 A 
ATOM     41  N   UNL A   1      41.405  27.188  28.981  1.00  0.00    -0.354 N 
ATOM     42  C   UNL A   1      42.239  31.086  30.644  1.00  0.00     0.074 A 
ATOM     43  C   UNL A   1      41.079  31.947  30.570  1.00  0.00     0.031 C 
ATOM     44  C   UNL A   1      40.175  25.615  27.975  1.00  0.00     0.029 A 
ATOM     45  C   UNL A   1      41.507  25.905  28.497  1.00  0.00     0.049 A 
ATOM     46  H   UNL A   1      42.151  27.662  29.414  1.00  0.00     0.167 HD
ATOM     47  C   UNL A   1      43.431  31.463  31.167  1.00  0.00     0.031 A 
ATOM     48  C   UNL A   1      42.556  25.059  28.465  1.00  0.00     0.031 A 
ATOM     49  C   UNL A   1      44.580  30.599  31.257  1.00  0.00     0.049 A 
ATOM     50  C   UNL A   1      43.870  25.498  29.052  1.00  0.00     0.074 A 
ATOM     51  C   UNL A   1      45.815  30.867  31.822  1.00  0.00     0.029 A 
ATOM     52  N   UNL A   1      44.636  29.303  30.768  1.00  0.00    -0.354 N 
ATOM     53  N   UNL A   1      44.181  26.644  29.612  1.00  0.00    -0.248 NA
ATOM     54  C   UNL A   1      44.972  24.525  29.016  1.00  0.00     0.031 C 
ATOM     55  C   UNL A   1      46.633  29.748  31.632  1.00  0.00     0.029 A 
ATOM     56  C   UNL A   1      45.890  28.763  31.001  1.00  0.00     0.049 A 
ATOM     57  H   UNL A   1      43.893  28.835  30.322  1.00  0.00     0.167 HD
ATOM     58  C   UNL A   1      45.506  26.520  30.016  1.00  0.00     0.074 A 
ATOM     59  C   UNL A   1      45.931  25.184  29.652  1.00  0.00     0.031 C 
ATOM     60  C   UNL A   1      46.298  27.431  30.634  1.00  0.00     0.031 A 
BRANCH  47  61
ATOM     61  C   UNL A   1      43.557  32.874  31.681  1.00  0.00    -0.014 A 
ATOM     62  C   UNL A   1      43.928  33.928  30.827  1.00  0.00     0.010 A 
ATOM     63  C   UNL A   1      43.256  33.160  33.025  1.00  0.00     0.010 A 
ATOM     64  C   UNL A   1      44.038  35.233  31.316  1.00  0.00     0.020 A 
ATOM     65  C   UNL A   1      43.336  34.469  33.512  1.00  0.00     0.020 A 
ATOM     66  C   UNL A   1      43.743  35.494  32.656  1.00  0.00     0.054 A 
BRANCH  66  67
ATOM     67  S   UNL A   1      43.869  37.201  33.257  1.00  0.00     0.124 S 
ATOM     68  O   UNL A   1      45.155  37.182  33.953  1.00  0.00    -0.237 OA
ATOM     69  O   UNL A   1      43.837  37.980  32.022  1.00  0.00    -0.237 OA
ATOM     70  O   UNL A   1      42.699  37.355  34.117  1.00  0.00    -0.744 OA
ENDBRANCH  66  67
ENDBRANCH  47  61
BRANCH  48  71
ATOM     71  C   UNL A   1      42.400  23.704  27.867  1.00  0.00    -0.014 A 
ATOM     72  C   UNL A   1      42.693  23.483  26.509  1.00  0.00     0.010 A 
ATOM     73  C   UNL A   1      41.969  22.622  28.656  1.00  0.00     0.010 A 
ATOM     74  C   UNL A   1      42.544  22.211  25.949  1.00  0.00     0.020 A 
ATOM     75  C   UNL A   1      41.847  21.342  28.107  1.00  0.00     0.020 A 
ATOM     76  C   UNL A   1      42.125  21.147  26.752  1.00  0.00     0.054 A 
BRANCH  76  77
ATOM     77  S   UNL A   1      41.996  19.492  26.019  1.00  0.00     0.124 S 
ATOM     78  O   UNL A   1      42.848  19.615  24.839  1.00  0.00    -0.237 OA
ATOM     79  O   UNL A   1      42.509  18.633  27.083  1.00  0.00    -0.237 OA
ATOM     80  O   UNL A   1      40.568  19.347  25.748  1.00  0.00    -0.744 OA
ENDBRANCH  76  77
ENDBRANCH  48  71
BRANCH  60  81
ATOM     81  C   UNL A   1      47.696  27.004  30.990  1.00  0.00    -0.014 A 
ATOM     82  C   UNL A   1      47.976  26.366  32.211  1.00  0.00     0.010 A 
ATOM     83  C   UNL A   1      48.736  27.195  30.062  1.00  0.00     0.010 A 
ATOM     84  C   UNL A   1      49.277  25.954  32.510  1.00  0.00     0.020 A 
ATOM     85  C   UNL A   1      50.033  26.760  30.346  1.00  0.00     0.020 A 
ATOM     86  C   UNL A   1      50.298  26.154  31.575  1.00  0.00     0.054 A 
BRANCH  86  87
ATOM     87  S   UNL A   1      51.970  25.573  31.969  1.00  0.00     0.124 S 
ATOM     88  O   UNL A   1      52.278  26.330  33.180  1.00  0.00    -0.237 OA
ATOM     89  O   UNL A   1      51.776  24.138  32.158  1.00  0.00    -0.237 OA
ATOM     90  O   UNL A   1      52.752  25.940  30.790  1.00  0.00    -0.744 OA
ENDBRANCH  86  87
ENDBRANCH  60  81
ENDBRANCH  34  35
ENDBRANCH  26  29
ENDBRANCH  24  25
ENDBRANCH   1  24
TORSDOF 15
ENDMDL
MODEL 2
REMARK VINA RESULT:     -11.2      2.698      4.442
REMARK SMILES Cc1ccc(NC(=O)c2cccnc2C(=O)NCCCNC(=O)c2ccc(-c3c4nc(c(-c5ccc(S(=O)(=O)[O-])cc5)c5ccc([nH]5)c(-c5ccc(S(=O)(=O)[O-])cc5)c5nc(c(-c6ccc(S(=O)(=O)[O-])cc6)c6ccc3[nH]6)C=C5)C=C4)cc2)nc1
REMARK SMILES IDX 19 1 18 2 17 3 15 4 16 5 14 7 9 8 10 9 11 10 13 11 12 12
REMARK SMILES IDX 7 13 6 14 8 16 5 17 1 18 2 19 3 20 85 21 4 22 84 23 20 24
REMARK SMILES IDX 21 25 22 26 23 28 24 29 25 30 83 31 26 32 82 33 27 34 28 35
REMARK SMILES IDX 29 36 76 37 30 38 81 39 75 40 77 41 31 42 80 43 74 44 73 45
REMARK SMILES IDX 32 47 62 48 43 49 61 50 44 51 47 52 60 53 78 54 45 55 46 56
REMARK SMILES IDX 59 58 79 59 48 60 33 61 34 62 42 63 35 64 41 65 36 66 37 67
REMARK SMILES IDX 38 68 39 69 40 70 63 71 64 72 72 73 65 74 71 75 66 76 67 77
REMARK SMILES IDX 68 78 69 79 70 80 49 81 50 82 58 83 51 84 57 85 52 86 53 87
REMARK SMILES IDX 54 88 55 89 56 90
REMARK H PARENT 17 6 6 15 21 27 77 46 47 57
REMARK Flexibility Score: inf
ROOT
ATOM      1  C   UNL A   1      33.312  27.701  24.967  1.00  0.00     0.042 C 
ENDROOT
BRANCH   1   2
ATOM      2  C   UNL A   1      33.352  26.182  24.789  1.00  0.00     0.118 C 
BRANCH   2   3
ATOM      3  N   UNL A   1      33.343  25.816  23.385  1.00  0.00    -0.351 N 
ATOM      4  C   UNL A   1      33.467  24.625  22.707  1.00  0.00     0.270 C 
ATOM      5  O   UNL A   1      33.385  24.699  21.477  1.00  0.00    -0.267 OA
ATOM      6  H   UNL A   1      33.222  26.589  22.787  1.00  0.00     0.163 HD
BRANCH   4   7
ATOM      7  C   UNL A   1      33.565  23.269  23.350  1.00  0.00     0.140 A 
ATOM      8  C   UNL A   1      34.684  22.720  23.958  1.00  0.00     0.071 A 
ATOM      9  C   UNL A   1      34.602  21.412  24.478  1.00  0.00     0.018 A 
ATOM     10  C   UNL A   1      33.446  20.666  24.306  1.00  0.00     0.021 A 
ATOM     11  N   UNL A   1      32.406  22.543  23.221  1.00  0.00    -0.250 NA
ATOM     12  C   UNL A   1      32.390  21.264  23.650  1.00  0.00     0.112 A 
BRANCH   8  13
ATOM     13  C   UNL A   1      36.039  23.243  23.779  1.00  0.00     0.259 C 
ATOM     14  N   UNL A   1      36.612  23.816  24.896  1.00  0.00    -0.306 N 
ATOM     15  H   UNL A   1      36.216  24.622  25.297  1.00  0.00     0.171 HD
ATOM     16  O   UNL A   1      36.599  23.044  22.704  1.00  0.00    -0.269 OA
BRANCH  14  17
ATOM     17  C   UNL A   1      37.763  23.241  25.453  1.00  0.00     0.132 A 
ATOM     18  C   UNL A   1      40.829  21.182  27.534  1.00  0.00     0.046 C 
ATOM     19  C   UNL A   1      39.781  21.959  26.809  1.00  0.00    -0.033 A 
ATOM     20  C   UNL A   1      39.564  23.321  27.022  1.00  0.00     0.009 A 
ATOM     21  C   UNL A   1      38.957  21.319  25.898  1.00  0.00     0.117 A 
ATOM     22  C   UNL A   1      38.535  23.975  26.343  1.00  0.00     0.047 A 
ATOM     23  N   UNL A   1      37.959  21.928  25.235  1.00  0.00    -0.239 NA
ENDBRANCH  14  17
ENDBRANCH   8  13
ENDBRANCH   4   7
ENDBRANCH   2   3
ENDBRANCH   1   2
BRANCH   1  24
ATOM     24  C   UNL A   1      34.110  28.218  26.157  1.00  0.00     0.118 C 
BRANCH  24  25
ATOM     25  N   UNL A   1      33.850  29.625  26.414  1.00  0.00    -0.352 N 
ATOM     26  C   UNL A   1      34.448  30.489  27.300  1.00  0.00     0.251 C 
ATOM     27  H   UNL A   1      33.131  30.022  25.869  1.00  0.00     0.163 HD
ATOM     28  O   UNL A   1      33.897  31.561  27.541  1.00  0.00    -0.269 OA
BRANCH  26  29
ATOM     29  C   UNL A   1      35.731  30.153  27.972  1.00  0.00     0.039 A 
ATOM     30  C   UNL A   1      35.691  29.654  29.279  1.00  0.00     0.014 A 
ATOM     31  C   UNL A   1      36.968  30.387  27.367  1.00  0.00     0.014 A 
ATOM     32  C   UNL A   1      36.880  29.353  29.954  1.00  0.00     0.010 A 
ATOM     33  C   UNL A   1      38.149  30.006  28.007  1.00  0.00     0.010 A 
ATOM     34  C   UNL A   1      38.121  29.503  29.315  1.00  0.00    -0.014 A 
BRANCH  34  35
ATOM     35  C   UNL A   1      39.395  29.171  30.009  1.00  0.00     0.031 A 
ATOM     36  C   UNL A   1      39.795  29.916  31.257  1.00  0.00     0.074 A 
ATOM     37  C   UNL A   1      40.218  28.236  29.492  1.00  0.00     0.049 A 
ATOM     38  N   UNL A   1      40.888  29.807  31.970  1.00  0.00    -0.248 NA
ATOM     39  C   UNL A   1      38.856  30.935  31.758  1.00  0.00     0.031 C 
ATOM     40  C   UNL A   1      39.967  27.470  28.269  1.00  0.00     0.029 A 
ATOM     41  N   UNL A   1      41.436  27.774  29.927  1.00  0.00    -0.354 N 
ATOM     42  C   UNL A   1      40.778  30.755  32.983  1.00  0.00     0.074 A 
ATOM     43  C   UNL A   1      39.534  31.460  32.768  1.00  0.00     0.031 C 
ATOM     44  C   UNL A   1      40.985  26.619  28.066  1.00  0.00     0.029 A 
ATOM     45  C   UNL A   1      41.980  26.804  29.118  1.00  0.00     0.049 A 
ATOM     46  H   UNL A   1      41.877  28.106  30.742  1.00  0.00     0.167 HD
ATOM     47  C   UNL A   1      41.623  31.004  34.012  1.00  0.00     0.031 A 
ATOM     48  C   UNL A   1      43.151  26.142  29.205  1.00  0.00     0.031 A 
ATOM     49  C   UNL A   1      42.852  30.289  34.236  1.00  0.00     0.049 A 
ATOM     50  C   UNL A   1      44.075  26.436  30.356  1.00  0.00     0.074 A 
ATOM     51  C   UNL A   1      43.750  30.426  35.281  1.00  0.00     0.029 A 
ATOM     52  N   UNL A   1      43.358  29.303  33.401  1.00  0.00    -0.354 N 
ATOM     53  N   UNL A   1      43.919  27.289  31.341  1.00  0.00    -0.248 NA
ATOM     54  C   UNL A   1      45.326  25.666  30.417  1.00  0.00     0.031 C 
ATOM     55  C   UNL A   1      44.822  29.557  35.053  1.00  0.00     0.029 A 
ATOM     56  C   UNL A   1      44.564  28.837  33.896  1.00  0.00     0.049 A 
ATOM     57  H   UNL A   1      42.923  28.982  32.578  1.00  0.00     0.167 HD
ATOM     58  C   UNL A   1      45.041  27.142  32.150  1.00  0.00     0.074 A 
ATOM     59  C   UNL A   1      45.856  26.106  31.551  1.00  0.00     0.031 C 
ATOM     60  C   UNL A   1      45.364  27.804  33.289  1.00  0.00     0.031 A 
BRANCH  47  61
ATOM     61  C   UNL A   1      41.250  32.102  34.975  1.00  0.00    -0.014 A 
ATOM     62  C   UNL A   1      40.427  31.845  36.087  1.00  0.00     0.010 A 
ATOM     63  C   UNL A   1      41.765  33.398  34.793  1.00  0.00     0.010 A 
ATOM     64  C   UNL A   1      40.090  32.871  36.973  1.00  0.00     0.020 A 
ATOM     65  C   UNL A   1      41.454  34.422  35.694  1.00  0.00     0.020 A 
ATOM     66  C   UNL A   1      40.606  34.154  36.770  1.00  0.00     0.054 A 
BRANCH  66  67
ATOM     67  S   UNL A   1      40.173  35.462  37.951  1.00  0.00     0.124 S 
ATOM     68  O   UNL A   1      41.439  35.667  38.652  1.00  0.00    -0.237 OA
ATOM     69  O   UNL A   1      39.755  36.556  37.079  1.00  0.00    -0.237 OA
ATOM     70  O   UNL A   1      39.107  34.866  38.754  1.00  0.00    -0.744 OA
ENDBRANCH  66  67
ENDBRANCH  47  61
BRANCH  48  71
ATOM     71  C   UNL A   1      43.510  25.127  28.176  1.00  0.00    -0.014 A 
ATOM     72  C   UNL A   1      44.042  25.523  26.935  1.00  0.00     0.010 A 
ATOM     73  C   UNL A   1      43.334  23.756  28.437  1.00  0.00     0.010 A 
ATOM     74  C   UNL A   1      44.376  24.568  25.971  1.00  0.00     0.020 A 
ATOM     75  C   UNL A   1      43.694  22.797  27.485  1.00  0.00     0.020 A 
ATOM     76  C   UNL A   1      44.203  23.210  26.252  1.00  0.00     0.054 A 
BRANCH  76  77
ATOM     77  S   UNL A   1      44.700  21.986  25.008  1.00  0.00     0.124 S 
ATOM     78  O   UNL A   1      45.986  21.530  25.526  1.00  0.00    -0.237 OA
ATOM     79  O   UNL A   1      43.612  21.013  25.069  1.00  0.00    -0.237 OA
ATOM     80  O   UNL A   1      44.761  22.761  23.770  1.00  0.00    -0.744 OA
ENDBRANCH  76  77
ENDBRANCH  48  71
BRANCH  60  81
ATOM     81  C   UNL A   1      46.639  27.406  33.983  1.00  0.00    -0.014 A 
ATOM     82  C   UNL A   1      46.668  26.340  34.899  1.00  0.00     0.010 A 
ATOM     83  C   UNL A   1      47.837  28.074  33.669  1.00  0.00     0.010 A 
ATOM     84  C   UNL A   1      47.868  25.969  35.513  1.00  0.00     0.020 A 
ATOM     85  C   UNL A   1      49.042  27.689  34.260  1.00  0.00     0.020 A 
ATOM     86  C   UNL A   1      49.047  26.647  35.189  1.00  0.00     0.054 A 
BRANCH  86  87
ATOM     87  S   UNL A   1      50.599  26.120  35.967  1.00  0.00     0.124 S 
ATOM     88  O   UNL A   1      51.594  26.853  35.188  1.00  0.00    -0.237 OA
ATOM     89  O   UNL A   1      50.433  26.563  37.349  1.00  0.00    -0.237 OA
ATOM     90  O   UNL A   1      50.606  24.671  35.780  1.00  0.00    -0.744 OA
ENDBRANCH  86  87
ENDBRANCH  60  81
ENDBRANCH  34  35
ENDBRANCH  26  29
ENDBRANCH  24  25
ENDBRANCH   1  24
TORSDOF 15
ENDMDL
MODEL 3
REMARK VINA RESULT:     -11.2      4.394     10.003
REMARK SMILES Cc1ccc(NC(=O)c2cccnc2C(=O)NCCCNC(=O)c2ccc(-c3c4nc(c(-c5ccc(S(=O)(=O)[O-])cc5)c5ccc([nH]5)c(-c5ccc(S(=O)(=O)[O-])cc5)c5nc(c(-c6ccc(S(=O)(=O)[O-])cc6)c6ccc3[nH]6)C=C5)C=C4)cc2)nc1
REMARK SMILES IDX 19 1 18 2 17 3 15 4 16 5 14 7 9 8 10 9 11 10 13 11 12 12
REMARK SMILES IDX 7 13 6 14 8 16 5 17 1 18 2 19 3 20 85 21 4 22 84 23 20 24
REMARK SMILES IDX 21 25 22 26 23 28 24 29 25 30 83 31 26 32 82 33 27 34 28 35
REMARK SMILES IDX 29 36 76 37 30 38 81 39 75 40 77 41 31 42 80 43 74 44 73 45
REMARK SMILES IDX 32 47 62 48 43 49 61 50 44 51 47 52 60 53 78 54 45 55 46 56
REMARK SMILES IDX 59 58 79 59 48 60 33 61 34 62 42 63 35 64 41 65 36 66 37 67
REMARK SMILES IDX 38 68 39 69 40 70 63 71 64 72 72 73 65 74 71 75 66 76 67 77
REMARK SMILES IDX 68 78 69 79 70 80 49 81 50 82 58 83 51 84 57 85 52 86 53 87
REMARK SMILES IDX 54 88 55 89 56 90
REMARK H PARENT 17 6 6 15 21 27 77 46 47 57
REMARK Flexibility Score: inf
ROOT
ATOM      1  C   UNL A   1      37.719  22.855  25.934  1.00  0.00     0.042 C 
ENDROOT
BRANCH   1   2
ATOM      2  C   UNL A   1      36.985  23.621  24.831  1.00  0.00     0.118 C 
BRANCH   2   3
ATOM      3  N   UNL A   1      35.795  24.272  25.345  1.00  0.00    -0.351 N 
ATOM      4  C   UNL A   1      34.475  23.899  25.461  1.00  0.00     0.270 C 
ATOM      5  O   UNL A   1      33.728  24.731  25.986  1.00  0.00    -0.267 OA
ATOM      6  H   UNL A   1      35.969  25.179  25.684  1.00  0.00     0.163 HD
BRANCH   4   7
ATOM      7  C   UNL A   1      33.926  22.541  25.120  1.00  0.00     0.140 A 
ATOM      8  C   UNL A   1      33.433  22.132  23.889  1.00  0.00     0.071 A 
ATOM      9  C   UNL A   1      32.922  20.825  23.762  1.00  0.00     0.018 A 
ATOM     10  C   UNL A   1      32.841  19.998  24.873  1.00  0.00     0.021 A 
ATOM     11  N   UNL A   1      33.886  21.704  26.207  1.00  0.00    -0.250 NA
ATOM     12  C   UNL A   1      33.309  20.492  26.073  1.00  0.00     0.112 A 
BRANCH   8  13
ATOM     13  C   UNL A   1      33.066  23.060  22.818  1.00  0.00     0.259 C 
ATOM     14  N   UNL A   1      31.743  23.449  22.789  1.00  0.00    -0.306 N 
ATOM     15  H   UNL A   1      31.035  22.784  22.631  1.00  0.00     0.171 HD
ATOM     16  O   UNL A   1      33.962  23.500  22.102  1.00  0.00    -0.269 OA
BRANCH  14  17
ATOM     17  C   UNL A   1      31.415  24.798  22.987  1.00  0.00     0.132 A 
ATOM     18  C   UNL A   1      29.805  28.690  23.467  1.00  0.00     0.046 C 
ATOM     19  C   UNL A   1      30.415  27.343  23.261  1.00  0.00    -0.033 A 
ATOM     20  C   UNL A   1      31.161  27.013  22.128  1.00  0.00     0.009 A 
ATOM     21  C   UNL A   1      30.227  26.351  24.210  1.00  0.00     0.117 A 
ATOM     22  C   UNL A   1      31.663  25.719  21.980  1.00  0.00     0.047 A 
ATOM     23  N   UNL A   1      30.699  25.099  24.087  1.00  0.00    -0.239 NA
ENDBRANCH  14  17
ENDBRANCH   8  13
ENDBRANCH   4   7
ENDBRANCH   2   3
ENDBRANCH   1   2
BRANCH   1  24
ATOM     24  C   UNL A   1      38.634  23.714  26.796  1.00  0.00     0.118 C 
BRANCH  24  25
ATOM     25  N   UNL A   1      39.902  23.985  26.137  1.00  0.00    -0.352 N 
ATOM     26  C   UNL A   1      40.755  25.055  26.265  1.00  0.00     0.251 C 
ATOM     27  H   UNL A   1      40.195  23.295  25.499  1.00  0.00     0.163 HD
ATOM     28  O   UNL A   1      41.636  25.210  25.421  1.00  0.00    -0.269 OA
BRANCH  26  29
ATOM     29  C   UNL A   1      40.630  26.024  27.385  1.00  0.00     0.039 A 
ATOM     30  C   UNL A   1      41.446  27.161  27.382  1.00  0.00     0.014 A 
ATOM     31  C   UNL A   1      39.778  25.797  28.470  1.00  0.00     0.014 A 
ATOM     32  C   UNL A   1      41.376  28.081  28.434  1.00  0.00     0.010 A 
ATOM     33  C   UNL A   1      39.646  26.756  29.475  1.00  0.00     0.010 A 
ATOM     34  C   UNL A   1      40.456  27.901  29.480  1.00  0.00    -0.014 A 
BRANCH  34  35
ATOM     35  C   UNL A   1      40.353  28.877  30.598  1.00  0.00     0.031 A 
ATOM     36  C   UNL A   1      41.239  28.738  31.811  1.00  0.00     0.074 A 
ATOM     37  C   UNL A   1      39.431  29.859  30.550  1.00  0.00     0.049 A 
ATOM     38  N   UNL A   1      41.260  29.455  32.906  1.00  0.00    -0.248 NA
ATOM     39  C   UNL A   1      42.214  27.633  31.803  1.00  0.00     0.031 C 
ATOM     40  C   UNL A   1      38.486  30.080  29.453  1.00  0.00     0.029 A 
ATOM     41  N   UNL A   1      39.130  30.853  31.449  1.00  0.00    -0.354 N 
ATOM     42  C   UNL A   1      42.226  28.877  33.722  1.00  0.00     0.074 A 
ATOM     43  C   UNL A   1      42.739  27.723  33.016  1.00  0.00     0.031 C 
ATOM     44  C   UNL A   1      37.730  31.154  29.732  1.00  0.00     0.029 A 
ATOM     45  C   UNL A   1      38.106  31.675  31.042  1.00  0.00     0.049 A 
ATOM     46  H   UNL A   1      39.605  30.966  32.304  1.00  0.00     0.167 HD
ATOM     47  C   UNL A   1      42.664  29.278  34.940  1.00  0.00     0.031 A 
ATOM     48  C   UNL A   1      37.525  32.725  31.657  1.00  0.00     0.031 A 
ATOM     49  C   UNL A   1      42.166  30.437  35.633  1.00  0.00     0.049 A 
ATOM     50  C   UNL A   1      38.028  33.153  33.009  1.00  0.00     0.074 A 
ATOM     51  C   UNL A   1      42.584  30.961  36.844  1.00  0.00     0.029 A 
ATOM     52  N   UNL A   1      41.139  31.250  35.179  1.00  0.00    -0.354 N 
ATOM     53  N   UNL A   1      38.990  32.631  33.734  1.00  0.00    -0.248 NA
ATOM     54  C   UNL A   1      37.377  34.320  33.621  1.00  0.00     0.031 C 
ATOM     55  C   UNL A   1      41.778  32.063  37.145  1.00  0.00     0.029 A 
ATOM     56  C   UNL A   1      40.896  32.261  36.094  1.00  0.00     0.049 A 
ATOM     57  H   UNL A   1      40.654  31.127  34.330  1.00  0.00     0.167 HD
ATOM     58  C   UNL A   1      39.074  33.421  34.875  1.00  0.00     0.074 A 
ATOM     59  C   UNL A   1      38.080  34.465  34.737  1.00  0.00     0.031 C 
ATOM     60  C   UNL A   1      39.903  33.294  35.941  1.00  0.00     0.031 A 
BRANCH  47  61
ATOM     61  C   UNL A   1      43.737  28.453  35.605  1.00  0.00    -0.014 A 
ATOM     62  C   UNL A   1      43.407  27.383  36.457  1.00  0.00     0.010 A 
ATOM     63  C   UNL A   1      45.092  28.722  35.341  1.00  0.00     0.010 A 
ATOM     64  C   UNL A   1      44.411  26.625  37.065  1.00  0.00     0.020 A 
ATOM     65  C   UNL A   1      46.100  27.948  35.925  1.00  0.00     0.020 A 
ATOM     66  C   UNL A   1      45.752  26.914  36.796  1.00  0.00     0.054 A 
BRANCH  66  67
ATOM     67  S   UNL A   1      47.034  25.897  37.580  1.00  0.00     0.124 S 
ATOM     68  O   UNL A   1      46.805  26.164  38.999  1.00  0.00    -0.237 OA
ATOM     69  O   UNL A   1      46.692  24.549  37.133  1.00  0.00    -0.237 OA
ATOM     70  O   UNL A   1      48.281  26.432  37.039  1.00  0.00    -0.744 OA
ENDBRANCH  66  67
ENDBRANCH  47  61
BRANCH  48  71
ATOM     71  C   UNL A   1      36.409  33.453  30.991  1.00  0.00    -0.014 A 
ATOM     72  C   UNL A   1      35.197  33.679  31.667  1.00  0.00     0.010 A 
ATOM     73  C   UNL A   1      36.558  33.936  29.677  1.00  0.00     0.010 A 
ATOM     74  C   UNL A   1      34.151  34.360  31.039  1.00  0.00     0.020 A 
ATOM     75  C   UNL A   1      35.524  34.643  29.056  1.00  0.00     0.020 A 
ATOM     76  C   UNL A   1      34.322  34.842  29.738  1.00  0.00     0.054 A 
BRANCH  76  77
ATOM     77  S   UNL A   1      32.972  35.775  28.964  1.00  0.00     0.124 S 
ATOM     78  O   UNL A   1      33.695  36.841  28.276  1.00  0.00    -0.237 OA
ATOM     79  O   UNL A   1      32.348  34.775  28.102  1.00  0.00    -0.237 OA
ATOM     80  O   UNL A   1      32.155  36.202  30.098  1.00  0.00    -0.744 OA
ENDBRANCH  76  77
ENDBRANCH  48  71
BRANCH  60  81
ATOM     81  C   UNL A   1      39.797  34.329  37.028  1.00  0.00    -0.014 A 
ATOM     82  C   UNL A   1      40.437  35.576  36.914  1.00  0.00     0.010 A 
ATOM     83  C   UNL A   1      38.996  34.069  38.156  1.00  0.00     0.010 A 
ATOM     84  C   UNL A   1      40.303  36.533  37.924  1.00  0.00     0.020 A 
ATOM     85  C   UNL A   1      38.838  35.033  39.154  1.00  0.00     0.020 A 
ATOM     86  C   UNL A   1      39.504  36.254  39.038  1.00  0.00     0.054 A 
BRANCH  86  87
ATOM     87  S   UNL A   1      39.312  37.528  40.315  1.00  0.00     0.124 S 
ATOM     88  O   UNL A   1      38.334  38.425  39.705  1.00  0.00    -0.237 OA
ATOM     89  O   UNL A   1      38.832  36.763  41.463  1.00  0.00    -0.237 OA
ATOM     90  O   UNL A   1      40.657  38.080  40.460  1.00  0.00    -0.744 OA
ENDBRANCH  86  87
ENDBRANCH  60  81
ENDBRANCH  34  35
ENDBRANCH  26  29
ENDBRANCH  24  25
ENDBRANCH   1  24
TORSDOF 15
ENDMDL
