MODEL 1
REMARK VINA RESULT:     -12.2      0.000      0.000
REMARK SMILES CN(C)S(=O)(=O)Nc1ccc(-n2nnc(C(=O)NCCCNC(=O)c3ccc(-c4c5nc(c(-c6ccc(S(=O)(=O)[O-])cc6)c6ccc([nH]6)c(-c6ccc(S(=O)(=O)[O-])cc6)c6nc(c(-c7ccc(S(=O)(=O)[O-])cc7)c7ccc4[nH]7)C=C6)C=C5)cc3)c2N)cc1
REMARK SMILES IDX 19 1 18 2 16 3 17 4 15 6 12 7 13 8 85 9 14 10 11 11 8 12
REMARK SMILES IDX 9 13 88 14 10 15 87 16 7 17 4 19 5 20 6 21 2 22 1 23 3 24
REMARK SMILES IDX 86 25 20 28 21 29 22 30 23 31 24 33 25 34 26 35 84 36 27 37
REMARK SMILES IDX 83 38 28 39 29 40 30 41 77 42 31 43 82 44 76 45 78 46 32 47
REMARK SMILES IDX 81 48 75 49 74 50 33 52 63 53 44 54 62 55 45 56 48 57 61 58
REMARK SMILES IDX 79 59 46 60 47 61 60 63 80 64 49 65 34 66 35 67 43 68 36 69
REMARK SMILES IDX 42 70 37 71 38 72 39 73 40 74 41 75 64 76 65 77 73 78 66 79
REMARK SMILES IDX 72 80 67 81 68 82 69 83 70 84 71 85 50 86 51 87 59 88 52 89
REMARK SMILES IDX 58 90 53 91 54 92 55 93 56 94 57 95
REMARK H PARENT 18 5 7 18 86 26 86 27 22 32 78 51 48 62
REMARK Flexibility Score: inf
ROOT
ATOM      1  C   UNL A   1      37.623  21.963  25.498  1.00  0.00     0.118 C 
ENDROOT
BRANCH   1   2
ATOM      2  N   UNL A   1      36.307  21.546  25.952  1.00  0.00    -0.350 N 
ATOM      3  C   UNL A   1      35.011  21.817  25.573  1.00  0.00     0.275 C 
ATOM      4  O   UNL A   1      34.148  21.092  26.071  1.00  0.00    -0.267 OA
ATOM      5  H   UNL A   1      36.353  20.923  26.712  1.00  0.00     0.163 HD
BRANCH   3   6
ATOM      6  C   UNL A   1      34.644  22.934  24.712  1.00  0.00     0.194 A 
ATOM      7  N   UNL A   1      33.760  24.664  23.679  1.00  0.00    -0.197 N 
ATOM      8  N   UNL A   1      34.400  23.917  22.754  1.00  0.00    -0.059 NA
ATOM      9  C   UNL A   1      33.955  24.109  24.955  1.00  0.00     0.161 A 
ATOM     10  N   UNL A   1      34.965  22.891  23.369  1.00  0.00    -0.122 NA
BRANCH   7  11
ATOM     11  C   UNL A   1      33.023  25.824  23.316  1.00  0.00     0.069 A 
ATOM     12  C   UNL A   1      31.620  28.159  22.654  1.00  0.00     0.050 A 
ATOM     13  C   UNL A   1      31.171  26.915  22.198  1.00  0.00     0.029 A 
ATOM     14  C   UNL A   1      32.648  28.200  23.569  1.00  0.00     0.029 A 
ATOM     15  C   UNL A   1      31.864  25.739  22.536  1.00  0.00     0.031 A 
ATOM     16  C   UNL A   1      33.423  27.077  23.777  1.00  0.00     0.031 A 
BRANCH  12  17
ATOM     17  N   UNL A   1      30.980  29.342  22.189  1.00  0.00    -0.271 N 
ATOM     18  H   UNL A   1      31.357  29.805  21.406  1.00  0.00     0.181 HD
BRANCH  17  19
ATOM     19  S   UNL A   1      29.603  29.984  22.919  1.00  0.00     0.301 S 
ATOM     20  O   UNL A   1      29.976  30.543  24.193  1.00  0.00    -0.189 OA
ATOM     21  O   UNL A   1      28.628  28.912  22.855  1.00  0.00    -0.189 OA
BRANCH  19  22
ATOM     22  N   UNL A   1      29.093  31.236  21.881  1.00  0.00    -0.191 NA
ATOM     23  C   UNL A   1      28.037  30.846  20.926  1.00  0.00     0.125 C 
ATOM     24  C   UNL A   1      28.798  32.570  22.464  1.00  0.00     0.125 C 
ENDBRANCH  19  22
ENDBRANCH  17  19
ENDBRANCH  12  17
ENDBRANCH   7  11
BRANCH   9  25
ATOM     25  N   UNL A   1      33.499  24.677  26.097  1.00  0.00    -0.382 N 
ATOM     26  H   UNL A   1      33.969  25.450  26.484  1.00  0.00     0.158 HD
ATOM     27  H   UNL A   1      32.696  24.316  26.539  1.00  0.00     0.158 HD
ENDBRANCH   9  25
ENDBRANCH   3   6
ENDBRANCH   1   2
BRANCH   1  28
ATOM     28  C   UNL A   1      38.026  23.409  25.800  1.00  0.00     0.042 C 
BRANCH  28  29
ATOM     29  C   UNL A   1      39.032  23.472  26.951  1.00  0.00     0.118 C 
BRANCH  29  30
ATOM     30  N   UNL A   1      40.216  22.616  26.755  1.00  0.00    -0.352 N 
ATOM     31  C   UNL A   1      41.531  22.987  26.465  1.00  0.00     0.251 C 
ATOM     32  H   UNL A   1      40.057  21.647  26.839  1.00  0.00     0.163 HD
ATOM     33  O   UNL A   1      42.330  22.194  26.024  1.00  0.00    -0.269 OA
BRANCH  31  34
ATOM     34  C   UNL A   1      41.906  24.391  26.733  1.00  0.00     0.039 A 
ATOM     35  C   UNL A   1      41.730  25.408  25.792  1.00  0.00     0.014 A 
ATOM     36  C   UNL A   1      42.224  24.674  28.049  1.00  0.00     0.014 A 
ATOM     37  C   UNL A   1      41.715  26.729  26.243  1.00  0.00     0.010 A 
ATOM     38  C   UNL A   1      41.948  25.930  28.511  1.00  0.00     0.010 A 
ATOM     39  C   UNL A   1      41.762  26.983  27.624  1.00  0.00    -0.014 A 
BRANCH  39  40
ATOM     40  C   UNL A   1      41.538  28.310  28.189  1.00  0.00     0.031 A 
ATOM     41  C   UNL A   1      42.566  29.341  27.886  1.00  0.00     0.074 A 
ATOM     42  C   UNL A   1      40.391  28.672  28.806  1.00  0.00     0.049 A 
ATOM     43  N   UNL A   1      43.527  29.722  28.658  1.00  0.00    -0.248 NA
ATOM     44  C   UNL A   1      42.618  29.929  26.540  1.00  0.00     0.031 C 
ATOM     45  C   UNL A   1      39.133  27.924  28.961  1.00  0.00     0.029 A 
ATOM     46  N   UNL A   1      40.085  29.870  29.364  1.00  0.00    -0.354 N 
ATOM     47  C   UNL A   1      44.168  30.766  27.999  1.00  0.00     0.074 A 
ATOM     48  C   UNL A   1      43.697  30.713  26.636  1.00  0.00     0.031 C 
ATOM     49  C   UNL A   1      38.146  28.758  29.351  1.00  0.00     0.029 A 
ATOM     50  C   UNL A   1      38.748  30.028  29.695  1.00  0.00     0.049 A 
ATOM     51  H   UNL A   1      40.758  30.571  29.523  1.00  0.00     0.167 HD
ATOM     52  C   UNL A   1      44.851  31.727  28.685  1.00  0.00     0.031 A 
ATOM     53  C   UNL A   1      38.172  31.114  30.258  1.00  0.00     0.031 A 
ATOM     54  C   UNL A   1      44.984  31.381  30.081  1.00  0.00     0.049 A 
ATOM     55  C   UNL A   1      39.251  31.842  30.964  1.00  0.00     0.074 A 
ATOM     56  C   UNL A   1      45.552  30.331  30.776  1.00  0.00     0.029 A 
ATOM     57  N   UNL A   1      44.096  31.973  30.953  1.00  0.00    -0.354 N 
ATOM     58  N   UNL A   1      39.889  31.348  31.990  1.00  0.00    -0.248 NA
ATOM     59  C   UNL A   1      39.941  32.913  30.264  1.00  0.00     0.031 C 
ATOM     60  C   UNL A   1      44.630  30.048  31.828  1.00  0.00     0.029 A 
ATOM     61  C   UNL A   1      43.597  30.989  31.769  1.00  0.00     0.049 A 
ATOM     62  H   UNL A   1      43.863  32.929  30.986  1.00  0.00     0.167 HD
ATOM     63  C   UNL A   1      41.213  31.723  31.804  1.00  0.00     0.074 A 
ATOM     64  C   UNL A   1      41.162  32.775  30.789  1.00  0.00     0.031 C 
ATOM     65  C   UNL A   1      42.242  30.963  32.288  1.00  0.00     0.031 A 
BRANCH  52  66
ATOM     66  C   UNL A   1      45.067  33.144  28.209  1.00  0.00    -0.014 A 
ATOM     67  C   UNL A   1      45.669  34.071  29.089  1.00  0.00     0.010 A 
ATOM     68  C   UNL A   1      44.475  33.669  27.043  1.00  0.00     0.010 A 
ATOM     69  C   UNL A   1      45.607  35.451  28.854  1.00  0.00     0.020 A 
ATOM     70  C   UNL A   1      44.447  35.040  26.776  1.00  0.00     0.020 A 
ATOM     71  C   UNL A   1      44.980  35.926  27.704  1.00  0.00     0.054 A 
BRANCH  71  72
ATOM     72  S   UNL A   1      44.798  37.711  27.466  1.00  0.00     0.124 S 
ATOM     73  O   UNL A   1      45.018  38.216  28.818  1.00  0.00    -0.237 OA
ATOM     74  O   UNL A   1      45.853  38.003  26.500  1.00  0.00    -0.237 OA
ATOM     75  O   UNL A   1      43.437  37.851  26.956  1.00  0.00    -0.744 OA
ENDBRANCH  71  72
ENDBRANCH  52  66
BRANCH  53  76
ATOM     76  C   UNL A   1      36.840  31.684  29.962  1.00  0.00    -0.014 A 
ATOM     77  C   UNL A   1      36.043  32.212  30.993  1.00  0.00     0.010 A 
ATOM     78  C   UNL A   1      36.481  31.982  28.630  1.00  0.00     0.010 A 
ATOM     79  C   UNL A   1      34.980  33.081  30.705  1.00  0.00     0.020 A 
ATOM     80  C   UNL A   1      35.418  32.844  28.336  1.00  0.00     0.020 A 
ATOM     81  C   UNL A   1      34.694  33.415  29.378  1.00  0.00     0.054 A 
BRANCH  81  82
ATOM     82  S   UNL A   1      33.468  34.713  29.033  1.00  0.00     0.124 S 
ATOM     83  O   UNL A   1      32.901  34.961  30.355  1.00  0.00    -0.237 OA
ATOM     84  O   UNL A   1      34.290  35.788  28.485  1.00  0.00    -0.237 OA
ATOM     85  O   UNL A   1      32.561  34.082  28.076  1.00  0.00    -0.744 OA
ENDBRANCH  81  82
ENDBRANCH  53  76
BRANCH  65  86
ATOM     86  C   UNL A   1      41.922  29.856  33.272  1.00  0.00    -0.014 A 
ATOM     87  C   UNL A   1      41.479  28.572  32.894  1.00  0.00     0.010 A 
ATOM     88  C   UNL A   1      42.230  30.080  34.626  1.00  0.00     0.010 A 
ATOM     89  C   UNL A   1      41.324  27.553  33.849  1.00  0.00     0.020 A 
ATOM     90  C   UNL A   1      42.096  29.065  35.578  1.00  0.00     0.020 A 
ATOM     91  C   UNL A   1      41.635  27.808  35.187  1.00  0.00     0.054 A 
BRANCH  91  92
ATOM     92  S   UNL A   1      41.479  26.476  36.412  1.00  0.00     0.124 S 
ATOM     93  O   UNL A   1      40.791  25.431  35.660  1.00  0.00    -0.237 OA
ATOM     94  O   UNL A   1      42.869  26.188  36.759  1.00  0.00    -0.237 OA
ATOM     95  O   UNL A   1      40.695  27.082  37.488  1.00  0.00    -0.744 OA
ENDBRANCH  91  92
ENDBRANCH  65  86
ENDBRANCH  39  40
ENDBRANCH  31  34
ENDBRANCH  29  30
ENDBRANCH  28  29
ENDBRANCH   1  28
TORSDOF 18
ENDMDL
MODEL 2
REMARK VINA RESULT:     -12.2      1.778      2.355
REMARK SMILES CN(C)S(=O)(=O)Nc1ccc(-n2nnc(C(=O)NCCCNC(=O)c3ccc(-c4c5nc(c(-c6ccc(S(=O)(=O)[O-])cc6)c6ccc([nH]6)c(-c6ccc(S(=O)(=O)[O-])cc6)c6nc(c(-c7ccc(S(=O)(=O)[O-])cc7)c7ccc4[nH]7)C=C6)C=C5)cc3)c2N)cc1
REMARK SMILES IDX 19 1 18 2 16 3 17 4 15 6 12 7 13 8 85 9 14 10 11 11 8 12
REMARK SMILES IDX 9 13 88 14 10 15 87 16 7 17 4 19 5 20 6 21 2 22 1 23 3 24
REMARK SMILES IDX 86 25 20 28 21 29 22 30 23 31 24 33 25 34 26 35 84 36 27 37
REMARK SMILES IDX 83 38 28 39 29 40 30 41 77 42 31 43 82 44 76 45 78 46 32 47
REMARK SMILES IDX 81 48 75 49 74 50 33 52 63 53 44 54 62 55 45 56 48 57 61 58
REMARK SMILES IDX 79 59 46 60 47 61 60 63 80 64 49 65 34 66 35 67 43 68 36 69
REMARK SMILES IDX 42 70 37 71 38 72 39 73 40 74 41 75 64 76 65 77 73 78 66 79
REMARK SMILES IDX 72 80 67 81 68 82 69 83 70 84 71 85 50 86 51 87 59 88 52 89
REMARK SMILES IDX 58 90 53 91 54 92 55 93 56 94 57 95
REMARK H PARENT 18 5 7 18 86 26 86 27 22 32 78 51 48 62
REMARK Flexibility Score: inf
ROOT
ATOM      1  C   UNL A   1      35.925  22.322  24.995  1.00  0.00     0.118 C 
ENDROOT
BRANCH   1   2
ATOM      2  N   UNL A   1      34.713  21.599  24.650  1.00  0.00    -0.350 N 
ATOM      3  C   UNL A   1      33.612  21.855  23.862  1.00  0.00     0.275 C 
ATOM      4  O   UNL A   1      32.877  20.890  23.643  1.00  0.00    -0.267 OA
ATOM      5  H   UNL A   1      34.667  20.716  25.082  1.00  0.00     0.163 HD
BRANCH   3   6
ATOM      6  C   UNL A   1      33.265  23.185  23.377  1.00  0.00     0.194 A 
ATOM      7  N   UNL A   1      32.451  25.186  22.959  1.00  0.00    -0.197 N 
ATOM      8  N   UNL A   1      32.899  24.673  21.793  1.00  0.00    -0.059 NA
ATOM      9  C   UNL A   1      32.733  24.296  24.008  1.00  0.00     0.161 A 
ATOM     10  N   UNL A   1      33.423  23.483  22.038  1.00  0.00    -0.122 NA
BRANCH   7  11
ATOM     11  C   UNL A   1      31.800  26.449  23.013  1.00  0.00     0.069 A 
ATOM     12  C   UNL A   1      30.440  28.896  23.133  1.00  0.00     0.050 A 
ATOM     13  C   UNL A   1      31.775  28.853  22.719  1.00  0.00     0.029 A 
ATOM     14  C   UNL A   1      29.759  27.712  23.308  1.00  0.00     0.029 A 
ATOM     15  C   UNL A   1      32.459  27.627  22.646  1.00  0.00     0.031 A 
ATOM     16  C   UNL A   1      30.461  26.527  23.391  1.00  0.00     0.031 A 
BRANCH  12  17
ATOM     17  N   UNL A   1      29.813  30.160  23.326  1.00  0.00    -0.271 N 
ATOM     18  H   UNL A   1      30.203  30.783  23.981  1.00  0.00     0.181 HD
BRANCH  17  19
ATOM     19  S   UNL A   1      28.433  30.634  22.484  1.00  0.00     0.301 S 
ATOM     20  O   UNL A   1      27.317  30.645  23.395  1.00  0.00    -0.189 OA
ATOM     21  O   UNL A   1      28.408  29.772  21.317  1.00  0.00    -0.189 OA
BRANCH  19  22
ATOM     22  N   UNL A   1      28.754  32.227  21.967  1.00  0.00    -0.191 NA
ATOM     23  C   UNL A   1      27.949  32.669  20.811  1.00  0.00     0.125 C 
ATOM     24  C   UNL A   1      28.832  33.304  22.987  1.00  0.00     0.125 C 
ENDBRANCH  19  22
ENDBRANCH  17  19
ENDBRANCH  12  17
ENDBRANCH   7  11
BRANCH   9  25
ATOM     25  N   UNL A   1      32.472  24.565  25.310  1.00  0.00    -0.382 N 
ATOM     26  H   UNL A   1      31.836  24.005  25.811  1.00  0.00     0.158 HD
ATOM     27  H   UNL A   1      32.920  25.321  25.755  1.00  0.00     0.158 HD
ENDBRANCH   9  25
ENDBRANCH   3   6
ENDBRANCH   1   2
BRANCH   1  28
ATOM     28  C   UNL A   1      37.226  21.515  25.000  1.00  0.00     0.042 C 
BRANCH  28  29
ATOM     29  C   UNL A   1      38.227  22.088  26.005  1.00  0.00     0.118 C 
BRANCH  29  30
ATOM     30  N   UNL A   1      39.568  21.482  25.920  1.00  0.00    -0.352 N 
ATOM     31  C   UNL A   1      40.800  22.016  26.305  1.00  0.00     0.251 C 
ATOM     32  H   UNL A   1      39.600  20.574  25.538  1.00  0.00     0.163 HD
ATOM     33  O   UNL A   1      41.843  21.557  25.902  1.00  0.00    -0.269 OA
BRANCH  31  34
ATOM     34  C   UNL A   1      40.771  23.161  27.238  1.00  0.00     0.039 A 
ATOM     35  C   UNL A   1      41.718  23.329  28.252  1.00  0.00     0.014 A 
ATOM     36  C   UNL A   1      39.890  24.173  26.902  1.00  0.00     0.014 A 
ATOM     37  C   UNL A   1      41.872  24.600  28.808  1.00  0.00     0.010 A 
ATOM     38  C   UNL A   1      40.225  25.449  27.258  1.00  0.00     0.010 A 
ATOM     39  C   UNL A   1      41.161  25.680  28.258  1.00  0.00    -0.014 A 
BRANCH  39  40
ATOM     40  C   UNL A   1      41.420  27.066  28.633  1.00  0.00     0.031 A 
ATOM     41  C   UNL A   1      42.649  27.686  28.069  1.00  0.00     0.074 A 
ATOM     42  C   UNL A   1      40.533  27.834  29.304  1.00  0.00     0.049 A 
ATOM     43  N   UNL A   1      43.782  27.836  28.668  1.00  0.00    -0.248 NA
ATOM     44  C   UNL A   1      42.673  28.071  26.651  1.00  0.00     0.031 C 
ATOM     45  C   UNL A   1      39.148  27.536  29.703  1.00  0.00     0.029 A 
ATOM     46  N   UNL A   1      40.676  29.124  29.701  1.00  0.00    -0.354 N 
ATOM     47  C   UNL A   1      44.596  28.546  27.793  1.00  0.00     0.074 A 
ATOM     48  C   UNL A   1      43.936  28.487  26.511  1.00  0.00     0.031 C 
ATOM     49  C   UNL A   1      38.517  28.674  30.062  1.00  0.00     0.029 A 
ATOM     50  C   UNL A   1      39.508  29.725  30.142  1.00  0.00     0.049 A 
ATOM     51  H   UNL A   1      41.541  29.595  29.678  1.00  0.00     0.167 HD
ATOM     52  C   UNL A   1      45.624  29.320  28.248  1.00  0.00     0.031 A 
ATOM     53  C   UNL A   1      39.364  30.993  30.589  1.00  0.00     0.031 A 
ATOM     54  C   UNL A   1      45.853  29.112  29.659  1.00  0.00     0.049 A 
ATOM     55  C   UNL A   1      40.701  31.426  31.057  1.00  0.00     0.074 A 
ATOM     56  C   UNL A   1      46.184  28.025  30.442  1.00  0.00     0.029 A 
ATOM     57  N   UNL A   1      45.316  30.046  30.517  1.00  0.00    -0.354 N 
ATOM     58  N   UNL A   1      41.310  30.879  32.074  1.00  0.00    -0.248 NA
ATOM     59  C   UNL A   1      41.563  32.143  30.132  1.00  0.00     0.031 C 
ATOM     60  C   UNL A   1      45.385  28.164  31.617  1.00  0.00     0.029 A 
ATOM     61  C   UNL A   1      44.676  29.365  31.523  1.00  0.00     0.049 A 
ATOM     62  H   UNL A   1      45.380  31.024  30.427  1.00  0.00     0.167 HD
ATOM     63  C   UNL A   1      42.643  30.801  31.695  1.00  0.00     0.074 A 
ATOM     64  C   UNL A   1      42.754  31.694  30.542  1.00  0.00     0.031 C 
ATOM     65  C   UNL A   1      43.464  29.821  32.179  1.00  0.00     0.031 A 
BRANCH  52  66
ATOM     66  C   UNL A   1      46.173  30.537  27.539  1.00  0.00    -0.014 A 
ATOM     67  C   UNL A   1      47.569  30.641  27.356  1.00  0.00     0.010 A 
ATOM     68  C   UNL A   1      45.410  31.693  27.280  1.00  0.00     0.010 A 
ATOM     69  C   UNL A   1      48.174  31.858  27.013  1.00  0.00     0.020 A 
ATOM     70  C   UNL A   1      45.998  32.900  26.894  1.00  0.00     0.020 A 
ATOM     71  C   UNL A   1      47.381  32.985  26.800  1.00  0.00     0.054 A 
BRANCH  71  72
ATOM     72  S   UNL A   1      48.175  34.579  26.476  1.00  0.00     0.124 S 
ATOM     73  O   UNL A   1      49.510  34.365  27.027  1.00  0.00    -0.237 OA
ATOM     74  O   UNL A   1      48.097  34.672  25.021  1.00  0.00    -0.237 OA
ATOM     75  O   UNL A   1      47.339  35.531  27.203  1.00  0.00    -0.744 OA
ENDBRANCH  71  72
ENDBRANCH  52  66
BRANCH  53  76
ATOM     76  C   UNL A   1      38.229  31.911  30.351  1.00  0.00    -0.014 A 
ATOM     77  C   UNL A   1      38.211  32.748  29.222  1.00  0.00     0.010 A 
ATOM     78  C   UNL A   1      37.027  31.747  31.073  1.00  0.00     0.010 A 
ATOM     79  C   UNL A   1      37.014  33.327  28.776  1.00  0.00     0.020 A 
ATOM     80  C   UNL A   1      35.830  32.327  30.637  1.00  0.00     0.020 A 
ATOM     81  C   UNL A   1      35.824  33.087  29.471  1.00  0.00     0.054 A 
BRANCH  81  82
ATOM     82  S   UNL A   1      34.250  33.653  28.759  1.00  0.00     0.124 S 
ATOM     83  O   UNL A   1      34.682  34.726  27.868  1.00  0.00    -0.237 OA
ATOM     84  O   UNL A   1      33.749  32.449  28.102  1.00  0.00    -0.237 OA
ATOM     85  O   UNL A   1      33.481  34.084  29.925  1.00  0.00    -0.744 OA
ENDBRANCH  81  82
ENDBRANCH  53  76
BRANCH  65  86
ATOM     86  C   UNL A   1      42.982  28.988  33.349  1.00  0.00    -0.014 A 
ATOM     87  C   UNL A   1      42.126  27.874  33.223  1.00  0.00     0.010 A 
ATOM     88  C   UNL A   1      43.543  29.253  34.612  1.00  0.00     0.010 A 
ATOM     89  C   UNL A   1      41.821  27.069  34.333  1.00  0.00     0.020 A 
ATOM     90  C   UNL A   1      43.259  28.445  35.717  1.00  0.00     0.020 A 
ATOM     91  C   UNL A   1      42.392  27.361  35.575  1.00  0.00     0.054 A 
BRANCH  91  92
ATOM     92  S   UNL A   1      42.034  26.291  36.999  1.00  0.00     0.124 S 
ATOM     93  O   UNL A   1      43.117  26.619  37.922  1.00  0.00    -0.237 OA
ATOM     94  O   UNL A   1      40.703  26.732  37.410  1.00  0.00    -0.237 OA
ATOM     95  O   UNL A   1      42.085  24.941  36.440  1.00  0.00    -0.744 OA
ENDBRANCH  91  92
ENDBRANCH  65  86
ENDBRANCH  39  40
ENDBRANCH  31  34
ENDBRANCH  29  30
ENDBRANCH  28  29
ENDBRANCH   1  28
TORSDOF 18
ENDMDL
MODEL 3
REMARK VINA RESULT:     -12.1      3.201      9.937
REMARK SMILES CN(C)S(=O)(=O)Nc1ccc(-n2nnc(C(=O)NCCCNC(=O)c3ccc(-c4c5nc(c(-c6ccc(S(=O)(=O)[O-])cc6)c6ccc([nH]6)c(-c6ccc(S(=O)(=O)[O-])cc6)c6nc(c(-c7ccc(S(=O)(=O)[O-])cc7)c7ccc4[nH]7)C=C6)C=C5)cc3)c2N)cc1
REMARK SMILES IDX 19 1 18 2 16 3 17 4 15 6 12 7 13 8 85 9 14 10 11 11 8 12
REMARK SMILES IDX 9 13 88 14 10 15 87 16 7 17 4 19 5 20 6 21 2 22 1 23 3 24
REMARK SMILES IDX 86 25 20 28 21 29 22 30 23 31 24 33 25 34 26 35 84 36 27 37
REMARK SMILES IDX 83 38 28 39 29 40 30 41 77 42 31 43 82 44 76 45 78 46 32 47
REMARK SMILES IDX 81 48 75 49 74 50 33 52 63 53 44 54 62 55 45 56 48 57 61 58
REMARK SMILES IDX 79 59 46 60 47 61 60 63 80 64 49 65 34 66 35 67 43 68 36 69
REMARK SMILES IDX 42 70 37 71 38 72 39 73 40 74 41 75 64 76 65 77 73 78 66 79
REMARK SMILES IDX 72 80 67 81 68 82 69 83 70 84 71 85 50 86 51 87 59 88 52 89
REMARK SMILES IDX 58 90 53 91 54 92 55 93 56 94 57 95
REMARK H PARENT 18 5 7 18 86 26 86 27 22 32 78 51 48 62
REMARK Flexibility Score: inf
ROOT
ATOM      1  C   UNL A   1      32.324  29.205  25.628  1.00  0.00     0.118 C 
ENDROOT
BRANCH   1   2
ATOM      2  N   UNL A   1      33.295  29.302  24.552  1.00  0.00    -0.350 N 
ATOM      3  C   UNL A   1      33.727  28.466  23.545  1.00  0.00     0.275 C 
ATOM      4  O   UNL A   1      34.427  28.993  22.679  1.00  0.00    -0.267 OA
ATOM      5  H   UNL A   1      33.756  30.171  24.539  1.00  0.00     0.163 HD
BRANCH   3   6
ATOM      6  C   UNL A   1      33.463  27.033  23.526  1.00  0.00     0.194 A 
ATOM      7  N   UNL A   1      33.436  24.840  23.704  1.00  0.00    -0.197 N 
ATOM      8  N   UNL A   1      32.772  25.168  22.575  1.00  0.00    -0.059 NA
ATOM      9  C   UNL A   1      33.829  26.007  24.379  1.00  0.00     0.161 A 
ATOM     10  N   UNL A   1      32.752  26.487  22.474  1.00  0.00    -0.122 NA
BRANCH   7  11
ATOM     11  C   UNL A   1      33.654  23.483  24.069  1.00  0.00     0.069 A 
ATOM     12  C   UNL A   1      34.001  20.804  24.815  1.00  0.00     0.050 A 
ATOM     13  C   UNL A   1      35.102  21.575  24.430  1.00  0.00     0.029 A 
ATOM     14  C   UNL A   1      32.784  21.424  24.990  1.00  0.00     0.029 A 
ATOM     15  C   UNL A   1      34.936  22.923  24.066  1.00  0.00     0.031 A 
ATOM     16  C   UNL A   1      32.585  22.693  24.487  1.00  0.00     0.031 A 
BRANCH  12  17
ATOM     17  N   UNL A   1      34.176  19.411  25.050  1.00  0.00    -0.271 N 
ATOM     18  H   UNL A   1      35.042  19.098  25.398  1.00  0.00     0.181 HD
BRANCH  17  19
ATOM     19  S   UNL A   1      32.966  18.275  24.758  1.00  0.00     0.301 S 
ATOM     20  O   UNL A   1      32.262  18.650  23.558  1.00  0.00    -0.189 OA
ATOM     21  O   UNL A   1      32.252  18.178  26.017  1.00  0.00    -0.189 OA
BRANCH  19  22
ATOM     22  N   UNL A   1      33.790  16.807  24.493  1.00  0.00    -0.191 NA
ATOM     23  C   UNL A   1      33.104  15.615  25.029  1.00  0.00     0.125 C 
ATOM     24  C   UNL A   1      34.330  16.528  23.137  1.00  0.00     0.125 C 
ENDBRANCH  19  22
ENDBRANCH  17  19
ENDBRANCH  12  17
ENDBRANCH   7  11
BRANCH   9  25
ATOM     25  N   UNL A   1      34.448  26.004  25.584  1.00  0.00    -0.382 N 
ATOM     26  H   UNL A   1      34.040  26.471  26.348  1.00  0.00     0.158 HD
ATOM     27  H   UNL A   1      35.307  25.533  25.695  1.00  0.00     0.158 HD
ENDBRANCH   9  25
ENDBRANCH   3   6
ENDBRANCH   1   2
BRANCH   1  28
ATOM     28  C   UNL A   1      32.839  28.681  26.971  1.00  0.00     0.042 C 
BRANCH  28  29
ATOM     29  C   UNL A   1      34.127  29.396  27.385  1.00  0.00     0.118 C 
BRANCH  29  30
ATOM     30  N   UNL A   1      33.910  30.752  27.919  1.00  0.00    -0.352 N 
ATOM     31  C   UNL A   1      34.813  31.597  28.569  1.00  0.00     0.251 C 
ATOM     32  H   UNL A   1      33.000  31.114  27.801  1.00  0.00     0.163 HD
ATOM     33  O   UNL A   1      34.437  32.540  29.226  1.00  0.00    -0.269 OA
BRANCH  31  34
ATOM     34  C   UNL A   1      36.250  31.294  28.406  1.00  0.00     0.039 A 
ATOM     35  C   UNL A   1      37.249  32.013  29.066  1.00  0.00     0.014 A 
ATOM     36  C   UNL A   1      36.531  30.112  27.745  1.00  0.00     0.014 A 
ATOM     37  C   UNL A   1      38.510  31.428  29.190  1.00  0.00     0.010 A 
ATOM     38  C   UNL A   1      37.671  29.446  28.094  1.00  0.00     0.010 A 
ATOM     39  C   UNL A   1      38.700  30.107  28.753  1.00  0.00    -0.014 A 
BRANCH  39  40
ATOM     40  C   UNL A   1      39.915  29.350  29.036  1.00  0.00     0.031 A 
ATOM     41  C   UNL A   1      40.219  29.097  30.470  1.00  0.00     0.074 A 
ATOM     42  C   UNL A   1      40.654  28.744  28.080  1.00  0.00     0.049 A 
ATOM     43  N   UNL A   1      41.050  29.749  31.210  1.00  0.00    -0.248 NA
ATOM     44  C   UNL A   1      39.432  28.096  31.205  1.00  0.00     0.031 C 
ATOM     45  C   UNL A   1      40.392  28.607  26.639  1.00  0.00     0.029 A 
ATOM     46  N   UNL A   1      41.794  28.025  28.236  1.00  0.00    -0.354 N 
ATOM     47  C   UNL A   1      41.074  29.099  32.439  1.00  0.00     0.074 A 
ATOM     48  C   UNL A   1      39.925  28.225  32.440  1.00  0.00     0.031 C 
ATOM     49  C   UNL A   1      41.204  27.667  26.111  1.00  0.00     0.029 A 
ATOM     50  C   UNL A   1      42.186  27.314  27.113  1.00  0.00     0.049 A 
ATOM     51  H   UNL A   1      42.303  28.010  29.080  1.00  0.00     0.167 HD
ATOM     52  C   UNL A   1      42.165  29.163  33.256  1.00  0.00     0.031 A 
ATOM     53  C   UNL A   1      43.273  26.519  26.991  1.00  0.00     0.031 A 
ATOM     54  C   UNL A   1      43.125  30.129  32.775  1.00  0.00     0.049 A 
ATOM     55  C   UNL A   1      44.242  26.974  28.016  1.00  0.00     0.074 A 
ATOM     56  C   UNL A   1      43.100  31.487  32.526  1.00  0.00     0.029 A 
ATOM     57  N   UNL A   1      44.198  29.635  32.066  1.00  0.00    -0.354 N 
ATOM     58  N   UNL A   1      44.801  28.154  27.991  1.00  0.00    -0.248 NA
ATOM     59  C   UNL A   1      44.245  26.314  29.311  1.00  0.00     0.031 C 
ATOM     60  C   UNL A   1      43.835  31.649  31.313  1.00  0.00     0.029 A 
ATOM     61  C   UNL A   1      44.335  30.400  30.934  1.00  0.00     0.049 A 
ATOM     62  H   UNL A   1      44.766  28.874  32.324  1.00  0.00     0.167 HD
ATOM     63  C   UNL A   1      44.827  28.565  29.316  1.00  0.00     0.074 A 
ATOM     64  C   UNL A   1      44.576  27.349  30.089  1.00  0.00     0.031 C 
ATOM     65  C   UNL A   1      44.780  29.891  29.651  1.00  0.00     0.031 A 
BRANCH  52  66
ATOM     66  C   UNL A   1      42.559  28.105  34.260  1.00  0.00    -0.014 A 
ATOM     67  C   UNL A   1      42.722  28.481  35.612  1.00  0.00     0.010 A 
ATOM     68  C   UNL A   1      43.025  26.826  33.897  1.00  0.00     0.010 A 
ATOM     69  C   UNL A   1      43.389  27.655  36.527  1.00  0.00     0.020 A 
ATOM     70  C   UNL A   1      43.652  25.976  34.811  1.00  0.00     0.020 A 
ATOM     71  C   UNL A   1      43.865  26.412  36.112  1.00  0.00     0.054 A 
BRANCH  71  72
ATOM     72  S   UNL A   1      44.829  25.404  37.264  1.00  0.00     0.124 S 
ATOM     73  O   UNL A   1      44.607  24.059  36.742  1.00  0.00    -0.237 OA
ATOM     74  O   UNL A   1      46.177  25.938  37.089  1.00  0.00    -0.237 OA
ATOM     75  O   UNL A   1      44.216  25.684  38.560  1.00  0.00    -0.744 OA
ENDBRANCH  71  72
ENDBRANCH  52  66
BRANCH  53  76
ATOM     76  C   UNL A   1      43.377  25.238  26.260  1.00  0.00    -0.014 A 
ATOM     77  C   UNL A   1      44.320  25.076  25.231  1.00  0.00     0.010 A 
ATOM     78  C   UNL A   1      42.755  24.080  26.776  1.00  0.00     0.010 A 
ATOM     79  C   UNL A   1      44.696  23.796  24.796  1.00  0.00     0.020 A 
ATOM     80  C   UNL A   1      43.121  22.800  26.343  1.00  0.00     0.020 A 
ATOM     81  C   UNL A   1      44.115  22.665  25.377  1.00  0.00     0.054 A 
BRANCH  81  82
ATOM     82  S   UNL A   1      44.771  21.020  24.969  1.00  0.00     0.124 S 
ATOM     83  O   UNL A   1      43.859  20.136  25.689  1.00  0.00    -0.237 OA
ATOM     84  O   UNL A   1      44.666  20.988  23.513  1.00  0.00    -0.237 OA
ATOM     85  O   UNL A   1      46.138  21.058  25.486  1.00  0.00    -0.744 OA
ENDBRANCH  81  82
ENDBRANCH  53  76
BRANCH  65  86
ATOM     86  C   UNL A   1      44.983  30.919  28.556  1.00  0.00    -0.014 A 
ATOM     87  C   UNL A   1      43.987  31.287  27.628  1.00  0.00     0.010 A 
ATOM     88  C   UNL A   1      46.184  31.652  28.565  1.00  0.00     0.010 A 
ATOM     89  C   UNL A   1      44.199  32.339  26.721  1.00  0.00     0.020 A 
ATOM     90  C   UNL A   1      46.394  32.712  27.678  1.00  0.00     0.020 A 
ATOM     91  C   UNL A   1      45.405  33.045  26.754  1.00  0.00     0.054 A 
BRANCH  91  92
ATOM     92  S   UNL A   1      45.660  34.435  25.612  1.00  0.00     0.124 S 
ATOM     93  O   UNL A   1      45.236  35.582  26.409  1.00  0.00    -0.237 OA
ATOM     94  O   UNL A   1      47.091  34.364  25.326  1.00  0.00    -0.237 OA
ATOM     95  O   UNL A   1      44.794  34.116  24.478  1.00  0.00    -0.744 OA
ENDBRANCH  91  92
ENDBRANCH  65  86
ENDBRANCH  39  40
ENDBRANCH  31  34
ENDBRANCH  29  30
ENDBRANCH  28  29
ENDBRANCH   1  28
TORSDOF 18
ENDMDL
