MODEL 1
REMARK VINA RESULT:     -13.2      0.000      0.000
REMARK SMILES O=C(NCCCNC(=O)[C@H]1CC2=c3ccccc3=N[C@H]2[C@H](c2ccccc2F)[NH2+]1)c1ccc(-c2c3nc(c(-c4ccc(S(=O)(=O)[O-])cc4)c4ccc([nH]4)c(-c4ccc(S(=O)(=O)[O-])cc4)c4nc(c(-c5ccc(S(=O)(=O)[O-])cc5)c5ccc2[nH]5)C=C4)C=C3)cc1
REMARK SMILES IDX 4 1 3 2 1 3 2 4 30 6 31 7 89 8 32 9 88 10 33 11 34 12 35 13
REMARK SMILES IDX 82 14 36 15 87 16 81 17 83 18 37 19 86 20 80 21 79 22 38 24
REMARK SMILES IDX 68 25 49 26 67 27 50 28 53 29 66 30 84 31 51 32 52 33 65 35
REMARK SMILES IDX 85 36 54 37 39 38 40 39 48 40 41 41 47 42 42 43 43 44 44 45
REMARK SMILES IDX 45 46 46 47 69 48 70 49 78 50 71 51 77 52 72 53 73 54 74 55
REMARK SMILES IDX 75 56 76 57 55 58 56 59 64 60 57 61 63 62 58 63 59 64 60 65
REMARK SMILES IDX 61 66 62 67 5 68 6 69 7 70 8 71 9 73 10 74 11 75 29 76 12 77
REMARK SMILES IDX 21 78 13 81 20 82 14 83 18 84 19 85 15 86 17 87 16 88 22 89
REMARK SMILES IDX 23 90 27 91 24 92 26 93 28 94 25 95
REMARK H PARENT 3 5 83 23 53 34 7 72 29 79 29 80
REMARK Flexibility Score: inf
ROOT
ATOM      1  C   UNL A   1      35.443  29.506  27.880  1.00  0.00     0.118 C 
ENDROOT
BRANCH   1   2
ATOM      2  N   UNL A   1      35.668  29.666  29.306  1.00  0.00    -0.352 N 
ATOM      3  O   UNL A   1      36.572  29.247  31.310  1.00  0.00    -0.269 OA
ATOM      4  C   UNL A   1      36.729  29.289  30.083  1.00  0.00     0.251 C 
ATOM      5  H   UNL A   1      34.941  30.119  29.790  1.00  0.00     0.163 HD
BRANCH   4   6
ATOM      6  C   UNL A   1      38.049  28.945  29.504  1.00  0.00     0.039 A 
ATOM      7  C   UNL A   1      38.908  28.117  30.235  1.00  0.00     0.014 A 
ATOM      8  C   UNL A   1      38.507  29.523  28.316  1.00  0.00     0.014 A 
ATOM      9  C   UNL A   1      40.211  27.882  29.788  1.00  0.00     0.010 A 
ATOM     10  C   UNL A   1      39.769  29.209  27.818  1.00  0.00     0.010 A 
ATOM     11  C   UNL A   1      40.655  28.433  28.577  1.00  0.00    -0.014 A 
BRANCH  11  12
ATOM     12  C   UNL A   1      42.078  28.340  28.159  1.00  0.00     0.031 A 
ATOM     13  C   UNL A   1      42.994  29.516  28.406  1.00  0.00     0.074 A 
ATOM     14  C   UNL A   1      42.550  27.231  27.559  1.00  0.00     0.049 A 
ATOM     15  N   UNL A   1      44.240  29.681  28.044  1.00  0.00    -0.248 NA
ATOM     16  C   UNL A   1      42.429  30.666  29.136  1.00  0.00     0.031 C 
ATOM     17  C   UNL A   1      41.769  26.027  27.269  1.00  0.00     0.029 A 
ATOM     18  N   UNL A   1      43.807  26.931  27.097  1.00  0.00    -0.354 N 
ATOM     19  C   UNL A   1      44.593  30.955  28.476  1.00  0.00     0.074 A 
ATOM     20  C   UNL A   1      43.420  31.542  29.079  1.00  0.00     0.031 C 
ATOM     21  C   UNL A   1      42.575  25.104  26.718  1.00  0.00     0.029 A 
ATOM     22  C   UNL A   1      43.919  25.662  26.576  1.00  0.00     0.049 A 
ATOM     23  H   UNL A   1      44.560  27.564  27.134  1.00  0.00     0.167 HD
ATOM     24  C   UNL A   1      45.795  31.570  28.407  1.00  0.00     0.031 A 
ATOM     25  C   UNL A   1      44.980  25.019  26.050  1.00  0.00     0.031 A 
ATOM     26  C   UNL A   1      46.977  30.960  27.864  1.00  0.00     0.049 A 
ATOM     27  C   UNL A   1      46.311  25.721  25.990  1.00  0.00     0.074 A 
ATOM     28  C   UNL A   1      48.251  31.493  27.777  1.00  0.00     0.029 A 
ATOM     29  N   UNL A   1      47.040  29.675  27.349  1.00  0.00    -0.354 N 
ATOM     30  N   UNL A   1      46.621  26.929  26.397  1.00  0.00    -0.248 NA
ATOM     31  C   UNL A   1      47.437  24.974  25.411  1.00  0.00     0.031 C 
ATOM     32  C   UNL A   1      49.078  30.542  27.177  1.00  0.00     0.029 A 
ATOM     33  C   UNL A   1      48.331  29.398  26.943  1.00  0.00     0.049 A 
ATOM     34  H   UNL A   1      46.280  29.054  27.285  1.00  0.00     0.167 HD
ATOM     35  C   UNL A   1      47.981  27.075  26.149  1.00  0.00     0.074 A 
ATOM     36  C   UNL A   1      48.439  25.832  25.565  1.00  0.00     0.031 C 
ATOM     37  C   UNL A   1      48.776  28.146  26.385  1.00  0.00     0.031 A 
BRANCH  24  38
ATOM     38  C   UNL A   1      45.919  32.963  28.962  1.00  0.00    -0.014 A 
ATOM     39  C   UNL A   1      45.644  34.072  28.142  1.00  0.00     0.010 A 
ATOM     40  C   UNL A   1      46.421  33.177  30.258  1.00  0.00     0.010 A 
ATOM     41  C   UNL A   1      45.901  35.369  28.593  1.00  0.00     0.020 A 
ATOM     42  C   UNL A   1      46.654  34.473  30.724  1.00  0.00     0.020 A 
ATOM     43  C   UNL A   1      46.416  35.560  29.879  1.00  0.00     0.054 A 
BRANCH  43  44
ATOM     44  S   UNL A   1      46.775  37.248  30.439  1.00  0.00     0.124 S 
ATOM     45  O   UNL A   1      45.516  37.934  30.171  1.00  0.00    -0.237 OA
ATOM     46  O   UNL A   1      47.103  37.055  31.850  1.00  0.00    -0.237 OA
ATOM     47  O   UNL A   1      47.901  37.652  29.599  1.00  0.00    -0.744 OA
ENDBRANCH  43  44
ENDBRANCH  24  38
BRANCH  25  48
ATOM     48  C   UNL A   1      44.832  23.612  25.589  1.00  0.00    -0.014 A 
ATOM     49  C   UNL A   1      44.997  22.541  26.484  1.00  0.00     0.010 A 
ATOM     50  C   UNL A   1      44.577  23.337  24.233  1.00  0.00     0.010 A 
ATOM     51  C   UNL A   1      44.949  21.220  26.028  1.00  0.00     0.020 A 
ATOM     52  C   UNL A   1      44.503  22.017  23.777  1.00  0.00     0.020 A 
ATOM     53  C   UNL A   1      44.716  20.968  24.673  1.00  0.00     0.054 A 
BRANCH  53  54
ATOM     54  S   UNL A   1      44.685  19.248  24.096  1.00  0.00     0.124 S 
ATOM     55  O   UNL A   1      46.006  18.774  24.501  1.00  0.00    -0.237 OA
ATOM     56  O   UNL A   1      43.560  18.680  24.831  1.00  0.00    -0.237 OA
ATOM     57  O   UNL A   1      44.481  19.378  22.654  1.00  0.00    -0.744 OA
ENDBRANCH  53  54
ENDBRANCH  25  48
BRANCH  37  58
ATOM     58  C   UNL A   1      50.239  28.042  26.049  1.00  0.00    -0.014 A 
ATOM     59  C   UNL A   1      50.655  28.204  24.715  1.00  0.00     0.010 A 
ATOM     60  C   UNL A   1      51.170  27.625  27.016  1.00  0.00     0.010 A 
ATOM     61  C   UNL A   1      51.968  27.912  24.342  1.00  0.00     0.020 A 
ATOM     62  C   UNL A   1      52.491  27.355  26.651  1.00  0.00     0.020 A 
ATOM     63  C   UNL A   1      52.874  27.473  25.311  1.00  0.00     0.054 A 
BRANCH  63  64
ATOM     64  S   UNL A   1      54.562  27.048  24.803  1.00  0.00     0.124 S 
ATOM     65  O   UNL A   1      54.906  28.159  23.921  1.00  0.00    -0.237 OA
ATOM     66  O   UNL A   1      55.282  27.006  26.074  1.00  0.00    -0.237 OA
ATOM     67  O   UNL A   1      54.403  25.753  24.145  1.00  0.00    -0.744 OA
ENDBRANCH  63  64
ENDBRANCH  37  58
ENDBRANCH  11  12
ENDBRANCH   4   6
ENDBRANCH   1   2
BRANCH   1  68
ATOM     68  C   UNL A   1      34.744  30.719  27.285  1.00  0.00     0.042 C 
BRANCH  68  69
ATOM     69  C   UNL A   1      33.289  30.465  26.909  1.00  0.00     0.118 C 
BRANCH  69  70
ATOM     70  N   UNL A   1      32.763  29.295  27.586  1.00  0.00    -0.351 N 
ATOM     71  C   UNL A   1      32.047  28.229  27.131  1.00  0.00     0.278 C 
ATOM     72  H   UNL A   1      32.959  29.266  28.551  1.00  0.00     0.163 HD
ATOM     73  O   UNL A   1      31.556  27.482  27.985  1.00  0.00    -0.268 OA
BRANCH  71  74
ATOM     74  C   UNL A   1      31.845  27.955  25.628  1.00  0.00     0.277 C 
ATOM     75  C   UNL A   1      33.153  27.563  24.903  1.00  0.00     0.109 C 
ATOM     76  N   UNL A   1      30.679  27.043  25.442  1.00  0.00    -0.327 N 
ATOM     77  C   UNL A   1      32.952  26.309  24.126  1.00  0.00    -0.024 C 
ATOM     78  C   UNL A   1      30.411  26.742  24.015  1.00  0.00     0.246 C 
ATOM     79  H   UNL A   1      29.852  27.484  25.845  1.00  0.00     0.347 HD
ATOM     80  H   UNL A   1      30.899  26.162  25.908  1.00  0.00     0.347 HD
ATOM     81  C   UNL A   1      33.634  25.170  24.117  1.00  0.00     0.002 A 
ATOM     82  C   UNL A   1      31.707  26.215  23.286  1.00  0.00     0.196 C 
ATOM     83  C   UNL A   1      34.852  24.709  24.695  1.00  0.00     0.010 A 
ATOM     84  C   UNL A   1      32.717  24.266  23.398  1.00  0.00     0.066 A 
ATOM     85  N   UNL A   1      31.605  24.764  22.942  1.00  0.00    -0.270 NA
ATOM     86  C   UNL A   1      35.168  23.408  24.582  1.00  0.00     0.001 A 
ATOM     87  C   UNL A   1      33.134  22.847  23.320  1.00  0.00     0.028 A 
ATOM     88  C   UNL A   1      34.292  22.475  23.893  1.00  0.00     0.002 A 
BRANCH  78  89
ATOM     89  C   UNL A   1      29.712  27.887  23.267  1.00  0.00     0.048 A 
ATOM     90  C   UNL A   1      30.472  28.766  22.468  1.00  0.00     0.013 A 
ATOM     91  C   UNL A   1      28.321  28.089  23.274  1.00  0.00     0.132 A 
ATOM     92  C   UNL A   1      29.882  29.851  21.810  1.00  0.00     0.001 A 
ATOM     93  C   UNL A   1      27.729  29.173  22.624  1.00  0.00     0.040 A 
ATOM     94  F   UNL A   1      27.491  27.251  23.910  1.00  0.00    -0.206 F 
ATOM     95  C   UNL A   1      28.512  30.067  21.903  1.00  0.00     0.003 A 
ENDBRANCH  78  89
ENDBRANCH  71  74
ENDBRANCH  69  70
ENDBRANCH  68  69
ENDBRANCH   1  68
TORSDOF 14
ENDMDL
MODEL 2
REMARK VINA RESULT:     -13.1      6.826     12.497
REMARK SMILES O=C(NCCCNC(=O)[C@H]1CC2=c3ccccc3=N[C@H]2[C@H](c2ccccc2F)[NH2+]1)c1ccc(-c2c3nc(c(-c4ccc(S(=O)(=O)[O-])cc4)c4ccc([nH]4)c(-c4ccc(S(=O)(=O)[O-])cc4)c4nc(c(-c5ccc(S(=O)(=O)[O-])cc5)c5ccc2[nH]5)C=C4)C=C3)cc1
REMARK SMILES IDX 4 1 3 2 1 3 2 4 30 6 31 7 89 8 32 9 88 10 33 11 34 12 35 13
REMARK SMILES IDX 82 14 36 15 87 16 81 17 83 18 37 19 86 20 80 21 79 22 38 24
REMARK SMILES IDX 68 25 49 26 67 27 50 28 53 29 66 30 84 31 51 32 52 33 65 35
REMARK SMILES IDX 85 36 54 37 39 38 40 39 48 40 41 41 47 42 42 43 43 44 44 45
REMARK SMILES IDX 45 46 46 47 69 48 70 49 78 50 71 51 77 52 72 53 73 54 74 55
REMARK SMILES IDX 75 56 76 57 55 58 56 59 64 60 57 61 63 62 58 63 59 64 60 65
REMARK SMILES IDX 61 66 62 67 5 68 6 69 7 70 8 71 9 73 10 74 11 75 29 76 12 77
REMARK SMILES IDX 21 78 13 81 20 82 14 83 18 84 19 85 15 86 17 87 16 88 22 89
REMARK SMILES IDX 23 90 27 91 24 92 26 93 28 94 25 95
REMARK H PARENT 3 5 83 23 53 34 7 72 29 79 29 80
REMARK Flexibility Score: inf
ROOT
ATOM      1  C   UNL A   1      38.927  24.422  26.561  1.00  0.00     0.118 C 
ENDROOT
BRANCH   1   2
ATOM      2  N   UNL A   1      40.097  25.027  25.947  1.00  0.00    -0.352 N 
ATOM      3  O   UNL A   1      41.473  26.674  25.315  1.00  0.00    -0.269 OA
ATOM      4  C   UNL A   1      40.679  26.247  26.162  1.00  0.00     0.251 C 
ATOM      5  H   UNL A   1      40.542  24.470  25.269  1.00  0.00     0.163 HD
BRANCH   4   6
ATOM      6  C   UNL A   1      40.397  27.054  27.372  1.00  0.00     0.039 A 
ATOM      7  C   UNL A   1      40.686  28.424  27.347  1.00  0.00     0.014 A 
ATOM      8  C   UNL A   1      39.974  26.468  28.568  1.00  0.00     0.014 A 
ATOM      9  C   UNL A   1      40.563  29.190  28.510  1.00  0.00     0.010 A 
ATOM     10  C   UNL A   1      39.755  27.250  29.700  1.00  0.00     0.010 A 
ATOM     11  C   UNL A   1      40.103  28.607  29.699  1.00  0.00    -0.014 A 
BRANCH  11  12
ATOM     12  C   UNL A   1      40.120  29.352  30.985  1.00  0.00     0.031 A 
ATOM     13  C   UNL A   1      41.256  29.118  31.953  1.00  0.00     0.074 A 
ATOM     14  C   UNL A   1      39.137  30.218  31.294  1.00  0.00     0.049 A 
ATOM     15  N   UNL A   1      41.421  29.592  33.161  1.00  0.00    -0.248 NA
ATOM     16  C   UNL A   1      42.337  28.214  31.515  1.00  0.00     0.031 C 
ATOM     17  C   UNL A   1      37.989  30.535  30.444  1.00  0.00     0.029 A 
ATOM     18  N   UNL A   1      38.953  31.001  32.407  1.00  0.00    -0.354 N 
ATOM     19  C   UNL A   1      42.601  29.025  33.631  1.00  0.00     0.074 A 
ATOM     20  C   UNL A   1      43.086  28.132  32.604  1.00  0.00     0.031 C 
ATOM     21  C   UNL A   1      37.244  31.478  31.045  1.00  0.00     0.029 A 
ATOM     22  C   UNL A   1      37.836  31.802  32.343  1.00  0.00     0.049 A 
ATOM     23  H   UNL A   1      39.563  30.991  33.180  1.00  0.00     0.167 HD
ATOM     24  C   UNL A   1      43.243  29.251  34.800  1.00  0.00     0.031 A 
ATOM     25  C   UNL A   1      37.347  32.697  33.223  1.00  0.00     0.031 A 
ATOM     26  C   UNL A   1      42.793  30.187  35.793  1.00  0.00     0.049 A 
ATOM     27  C   UNL A   1      38.081  32.939  34.514  1.00  0.00     0.074 A 
ATOM     28  C   UNL A   1      43.392  30.509  36.997  1.00  0.00     0.029 A 
ATOM     29  N   UNL A   1      41.658  30.974  35.682  1.00  0.00    -0.354 N 
ATOM     30  N   UNL A   1      39.191  32.386  34.942  1.00  0.00    -0.248 NA
ATOM     31  C   UNL A   1      37.508  33.929  35.437  1.00  0.00     0.031 C 
ATOM     32  C   UNL A   1      42.600  31.466  37.633  1.00  0.00     0.029 A 
ATOM     33  C   UNL A   1      41.539  31.780  36.798  1.00  0.00     0.049 A 
ATOM     34  H   UNL A   1      41.032  30.961  34.923  1.00  0.00     0.167 HD
ATOM     35  C   UNL A   1      39.463  32.982  36.169  1.00  0.00     0.074 A 
ATOM     36  C   UNL A   1      38.408  33.942  36.414  1.00  0.00     0.031 C 
ATOM     37  C   UNL A   1      40.495  32.749  37.015  1.00  0.00     0.031 A 
BRANCH  24  38
ATOM     38  C   UNL A   1      44.524  28.510  35.067  1.00  0.00    -0.014 A 
ATOM     39  C   UNL A   1      44.495  27.286  35.762  1.00  0.00     0.010 A 
ATOM     40  C   UNL A   1      45.767  29.080  34.737  1.00  0.00     0.010 A 
ATOM     41  C   UNL A   1      45.683  26.663  36.151  1.00  0.00     0.020 A 
ATOM     42  C   UNL A   1      46.958  28.446  35.100  1.00  0.00     0.020 A 
ATOM     43  C   UNL A   1      46.908  27.255  35.828  1.00  0.00     0.054 A 
BRANCH  43  44
ATOM     44  S   UNL A   1      48.441  26.451  36.369  1.00  0.00     0.124 S 
ATOM     45  O   UNL A   1      49.446  27.130  35.558  1.00  0.00    -0.237 OA
ATOM     46  O   UNL A   1      48.474  26.752  37.799  1.00  0.00    -0.237 OA
ATOM     47  O   UNL A   1      48.219  25.043  36.045  1.00  0.00    -0.744 OA
ENDBRANCH  43  44
ENDBRANCH  24  38
BRANCH  25  48
ATOM     48  C   UNL A   1      36.121  33.469  32.880  1.00  0.00    -0.014 A 
ATOM     49  C   UNL A   1      36.213  34.711  32.227  1.00  0.00     0.010 A 
ATOM     50  C   UNL A   1      34.855  32.987  33.258  1.00  0.00     0.010 A 
ATOM     51  C   UNL A   1      35.066  35.476  31.991  1.00  0.00     0.020 A 
ATOM     52  C   UNL A   1      33.703  33.737  33.000  1.00  0.00     0.020 A 
ATOM     53  C   UNL A   1      33.820  34.988  32.391  1.00  0.00     0.054 A 
BRANCH  53  54
ATOM     54  S   UNL A   1      32.347  36.008  32.102  1.00  0.00     0.124 S 
ATOM     55  O   UNL A   1      31.279  35.127  32.568  1.00  0.00    -0.237 OA
ATOM     56  O   UNL A   1      32.599  37.183  32.930  1.00  0.00    -0.237 OA
ATOM     57  O   UNL A   1      32.378  36.247  30.660  1.00  0.00    -0.744 OA
ENDBRANCH  53  54
ENDBRANCH  25  48
BRANCH  37  58
ATOM     58  C   UNL A   1      40.579  33.555  38.283  1.00  0.00    -0.014 A 
ATOM     59  C   UNL A   1      39.866  33.132  39.419  1.00  0.00     0.010 A 
ATOM     60  C   UNL A   1      41.224  34.804  38.299  1.00  0.00     0.010 A 
ATOM     61  C   UNL A   1      39.759  33.960  40.538  1.00  0.00     0.020 A 
ATOM     62  C   UNL A   1      41.140  35.625  39.426  1.00  0.00     0.020 A 
ATOM     63  C   UNL A   1      40.384  35.210  40.527  1.00  0.00     0.054 A 
BRANCH  63  64
ATOM     64  S   UNL A   1      40.195  36.297  41.966  1.00  0.00     0.124 S 
ATOM     65  O   UNL A   1      41.248  35.816  42.855  1.00  0.00    -0.237 OA
ATOM     66  O   UNL A   1      40.407  37.626  41.399  1.00  0.00    -0.237 OA
ATOM     67  O   UNL A   1      38.828  36.032  42.414  1.00  0.00    -0.744 OA
ENDBRANCH  63  64
ENDBRANCH  37  58
ENDBRANCH  11  12
ENDBRANCH   4   6
ENDBRANCH   1   2
BRANCH   1  68
ATOM     68  C   UNL A   1      39.040  22.906  26.606  1.00  0.00     0.042 C 
BRANCH  68  69
ATOM     69  C   UNL A   1      37.935  22.186  25.843  1.00  0.00     0.118 C 
BRANCH  69  70
ATOM     70  N   UNL A   1      37.637  22.851  24.589  1.00  0.00    -0.351 N 
ATOM     71  C   UNL A   1      36.484  22.958  23.871  1.00  0.00     0.278 C 
ATOM     72  H   UNL A   1      38.409  23.307  24.181  1.00  0.00     0.163 HD
ATOM     73  O   UNL A   1      36.581  23.415  22.726  1.00  0.00    -0.268 OA
BRANCH  71  74
ATOM     74  C   UNL A   1      35.117  22.533  24.442  1.00  0.00     0.277 C 
ATOM     75  C   UNL A   1      34.709  23.335  25.698  1.00  0.00     0.109 C 
ATOM     76  N   UNL A   1      34.117  22.468  23.336  1.00  0.00    -0.327 N 
ATOM     77  C   UNL A   1      33.335  23.883  25.533  1.00  0.00    -0.024 C 
ATOM     78  C   UNL A   1      32.774  22.050  23.805  1.00  0.00     0.246 C 
ATOM     79  H   UNL A   1      34.443  21.799  22.639  1.00  0.00     0.347 HD
ATOM     80  H   UNL A   1      34.029  23.406  22.944  1.00  0.00     0.347 HD
ATOM     81  C   UNL A   1      32.867  25.118  25.662  1.00  0.00     0.002 A 
ATOM     82  C   UNL A   1      32.282  22.945  25.009  1.00  0.00     0.196 C 
ATOM     83  C   UNL A   1      33.392  26.363  26.116  1.00  0.00     0.010 A 
ATOM     84  C   UNL A   1      31.534  25.011  25.041  1.00  0.00     0.066 A 
ATOM     85  N   UNL A   1      31.153  23.842  24.614  1.00  0.00    -0.270 NA
ATOM     86  C   UNL A   1      32.646  27.470  25.967  1.00  0.00     0.001 A 
ATOM     87  C   UNL A   1      30.776  26.276  24.908  1.00  0.00     0.028 A 
ATOM     88  C   UNL A   1      31.331  27.418  25.350  1.00  0.00     0.002 A 
BRANCH  78  89
ATOM     89  C   UNL A   1      32.660  20.543  24.078  1.00  0.00     0.048 A 
ATOM     90  C   UNL A   1      32.816  20.057  25.393  1.00  0.00     0.013 A 
ATOM     91  C   UNL A   1      32.343  19.593  23.092  1.00  0.00     0.132 A 
ATOM     92  C   UNL A   1      32.769  18.687  25.677  1.00  0.00     0.001 A 
ATOM     93  C   UNL A   1      32.301  18.226  23.369  1.00  0.00     0.040 A 
ATOM     94  F   UNL A   1      32.068  19.953  21.830  1.00  0.00    -0.206 F 
ATOM     95  C   UNL A   1      32.531  17.769  24.661  1.00  0.00     0.003 A 
ENDBRANCH  78  89
ENDBRANCH  71  74
ENDBRANCH  69  70
ENDBRANCH  68  69
ENDBRANCH   1  68
TORSDOF 14
ENDMDL
MODEL 3
REMARK VINA RESULT:     -13.0      6.666     11.628
REMARK SMILES O=C(NCCCNC(=O)[C@H]1CC2=c3ccccc3=N[C@H]2[C@H](c2ccccc2F)[NH2+]1)c1ccc(-c2c3nc(c(-c4ccc(S(=O)(=O)[O-])cc4)c4ccc([nH]4)c(-c4ccc(S(=O)(=O)[O-])cc4)c4nc(c(-c5ccc(S(=O)(=O)[O-])cc5)c5ccc2[nH]5)C=C4)C=C3)cc1
REMARK SMILES IDX 4 1 3 2 1 3 2 4 30 6 31 7 89 8 32 9 88 10 33 11 34 12 35 13
REMARK SMILES IDX 82 14 36 15 87 16 81 17 83 18 37 19 86 20 80 21 79 22 38 24
REMARK SMILES IDX 68 25 49 26 67 27 50 28 53 29 66 30 84 31 51 32 52 33 65 35
REMARK SMILES IDX 85 36 54 37 39 38 40 39 48 40 41 41 47 42 42 43 43 44 44 45
REMARK SMILES IDX 45 46 46 47 69 48 70 49 78 50 71 51 77 52 72 53 73 54 74 55
REMARK SMILES IDX 75 56 76 57 55 58 56 59 64 60 57 61 63 62 58 63 59 64 60 65
REMARK SMILES IDX 61 66 62 67 5 68 6 69 7 70 8 71 9 73 10 74 11 75 29 76 12 77
REMARK SMILES IDX 21 78 13 81 20 82 14 83 18 84 19 85 15 86 17 87 16 88 22 89
REMARK SMILES IDX 23 90 27 91 24 92 26 93 28 94 25 95
REMARK H PARENT 3 5 83 23 53 34 7 72 29 79 29 80
REMARK Flexibility Score: inf
ROOT
ATOM      1  C   UNL A   1      39.688  23.393  26.730  1.00  0.00     0.118 C 
ENDROOT
BRANCH   1   2
ATOM      2  N   UNL A   1      40.780  23.989  25.983  1.00  0.00    -0.352 N 
ATOM      3  O   UNL A   1      41.986  25.627  25.048  1.00  0.00    -0.269 OA
ATOM      4  C   UNL A   1      41.259  25.272  25.984  1.00  0.00     0.251 C 
ATOM      5  H   UNL A   1      41.253  23.373  25.379  1.00  0.00     0.163 HD
BRANCH   4   6
ATOM      6  C   UNL A   1      40.941  26.231  27.068  1.00  0.00     0.039 A 
ATOM      7  C   UNL A   1      41.501  27.513  27.014  1.00  0.00     0.014 A 
ATOM      8  C   UNL A   1      40.209  25.853  28.197  1.00  0.00     0.014 A 
ATOM      9  C   UNL A   1      41.338  28.398  28.083  1.00  0.00     0.010 A 
ATOM     10  C   UNL A   1      39.962  26.769  29.217  1.00  0.00     0.010 A 
ATOM     11  C   UNL A   1      40.572  28.030  29.198  1.00  0.00    -0.014 A 
BRANCH  11  12
ATOM     12  C   UNL A   1      40.518  28.879  30.417  1.00  0.00     0.031 A 
ATOM     13  C   UNL A   1      39.468  29.961  30.513  1.00  0.00     0.074 A 
ATOM     14  C   UNL A   1      41.395  28.698  31.423  1.00  0.00     0.049 A 
ATOM     15  N   UNL A   1      39.300  30.867  31.441  1.00  0.00    -0.248 NA
ATOM     16  C   UNL A   1      38.494  30.051  29.410  1.00  0.00     0.031 C 
ATOM     17  C   UNL A   1      42.452  27.686  31.453  1.00  0.00     0.029 A 
ATOM     18  N   UNL A   1      41.529  29.354  32.621  1.00  0.00    -0.354 N 
ATOM     19  C   UNL A   1      38.227  31.644  31.020  1.00  0.00     0.074 A 
ATOM     20  C   UNL A   1      37.814  31.141  29.731  1.00  0.00     0.031 C 
ATOM     21  C   UNL A   1      43.096  27.760  32.630  1.00  0.00     0.029 A 
ATOM     22  C   UNL A   1      42.530  28.852  33.420  1.00  0.00     0.049 A 
ATOM     23  H   UNL A   1      40.962  30.115  32.885  1.00  0.00     0.167 HD
ATOM     24  C   UNL A   1      37.616  32.666  31.663  1.00  0.00     0.031 A 
ATOM     25  C   UNL A   1      42.940  29.221  34.650  1.00  0.00     0.031 A 
ATOM     26  C   UNL A   1      37.988  33.124  32.973  1.00  0.00     0.049 A 
ATOM     27  C   UNL A   1      42.242  30.356  35.350  1.00  0.00     0.074 A 
ATOM     28  C   UNL A   1      37.410  34.134  33.720  1.00  0.00     0.029 A 
ATOM     29  N   UNL A   1      39.006  32.584  33.741  1.00  0.00    -0.354 N 
ATOM     30  N   UNL A   1      41.233  31.083  34.930  1.00  0.00    -0.248 NA
ATOM     31  C   UNL A   1      42.725  30.717  36.690  1.00  0.00     0.031 C 
ATOM     32  C   UNL A   1      38.101  34.227  34.929  1.00  0.00     0.029 A 
ATOM     33  C   UNL A   1      39.072  33.239  34.956  1.00  0.00     0.049 A 
ATOM     34  H   UNL A   1      39.592  31.843  33.464  1.00  0.00     0.167 HD
ATOM     35  C   UNL A   1      40.945  31.965  35.965  1.00  0.00     0.074 A 
ATOM     36  C   UNL A   1      41.878  31.679  37.034  1.00  0.00     0.031 C 
ATOM     37  C   UNL A   1      39.992  32.926  36.019  1.00  0.00     0.031 A 
BRANCH  24  38
ATOM     38  C   UNL A   1      36.455  33.343  30.988  1.00  0.00    -0.014 A 
ATOM     39  C   UNL A   1      36.606  33.867  29.691  1.00  0.00     0.010 A 
ATOM     40  C   UNL A   1      35.252  33.568  31.681  1.00  0.00     0.010 A 
ATOM     41  C   UNL A   1      35.589  34.631  29.111  1.00  0.00     0.020 A 
ATOM     42  C   UNL A   1      34.223  34.308  31.095  1.00  0.00     0.020 A 
ATOM     43  C   UNL A   1      34.408  34.856  29.824  1.00  0.00     0.054 A 
BRANCH  43  44
ATOM     44  S   UNL A   1      33.111  35.878  29.072  1.00  0.00     0.124 S 
ATOM     45  O   UNL A   1      32.407  36.391  30.243  1.00  0.00    -0.237 OA
ATOM     46  O   UNL A   1      33.878  36.863  28.314  1.00  0.00    -0.237 OA
ATOM     47  O   UNL A   1      32.360  34.926  28.256  1.00  0.00    -0.744 OA
ENDBRANCH  43  44
ENDBRANCH  24  38
BRANCH  25  48
ATOM     48  C   UNL A   1      44.039  28.468  35.314  1.00  0.00    -0.014 A 
ATOM     49  C   UNL A   1      43.758  27.359  36.131  1.00  0.00     0.010 A 
ATOM     50  C   UNL A   1      45.372  28.895  35.174  1.00  0.00     0.010 A 
ATOM     51  C   UNL A   1      44.784  26.712  36.827  1.00  0.00     0.020 A 
ATOM     52  C   UNL A   1      46.404  28.235  35.849  1.00  0.00     0.020 A 
ATOM     53  C   UNL A   1      46.099  27.164  36.691  1.00  0.00     0.054 A 
BRANCH  53  54
ATOM     54  S   UNL A   1      47.413  26.330  37.625  1.00  0.00     0.124 S 
ATOM     55  O   UNL A   1      46.649  25.643  38.663  1.00  0.00    -0.237 OA
ATOM     56  O   UNL A   1      48.025  25.467  36.620  1.00  0.00    -0.237 OA
ATOM     57  O   UNL A   1      48.252  27.433  38.090  1.00  0.00    -0.744 OA
ENDBRANCH  53  54
ENDBRANCH  25  48
BRANCH  37  58
ATOM     58  C   UNL A   1      39.864  33.739  37.279  1.00  0.00    -0.014 A 
ATOM     59  C   UNL A   1      38.872  33.405  38.220  1.00  0.00     0.010 A 
ATOM     60  C   UNL A   1      40.607  34.920  37.451  1.00  0.00     0.010 A 
ATOM     61  C   UNL A   1      38.596  34.257  39.291  1.00  0.00     0.020 A 
ATOM     62  C   UNL A   1      40.350  35.763  38.535  1.00  0.00     0.020 A 
ATOM     63  C   UNL A   1      39.327  35.440  39.432  1.00  0.00     0.054 A 
BRANCH  63  64
ATOM     64  S   UNL A   1      38.923  36.562  40.797  1.00  0.00     0.124 S 
ATOM     65  O   UNL A   1      38.399  37.727  40.092  1.00  0.00    -0.237 OA
ATOM     66  O   UNL A   1      37.944  35.797  41.566  1.00  0.00    -0.237 OA
ATOM     67  O   UNL A   1      40.208  36.761  41.466  1.00  0.00    -0.744 OA
ENDBRANCH  63  64
ENDBRANCH  37  58
ENDBRANCH  11  12
ENDBRANCH   4   6
ENDBRANCH   1   2
BRANCH   1  68
ATOM     68  C   UNL A   1      39.406  21.970  26.271  1.00  0.00     0.042 C 
BRANCH  68  69
ATOM     69  C   UNL A   1      37.996  21.769  25.730  1.00  0.00     0.118 C 
BRANCH  69  70
ATOM     70  N   UNL A   1      37.746  22.607  24.574  1.00  0.00    -0.351 N 
ATOM     71  C   UNL A   1      36.600  22.902  23.898  1.00  0.00     0.278 C 
ATOM     72  H   UNL A   1      38.551  23.044  24.212  1.00  0.00     0.163 HD
ATOM     73  O   UNL A   1      36.726  23.488  22.817  1.00  0.00    -0.268 OA
BRANCH  71  74
ATOM     74  C   UNL A   1      35.207  22.526  24.439  1.00  0.00     0.277 C 
ATOM     75  C   UNL A   1      34.798  23.347  25.683  1.00  0.00     0.109 C 
ATOM     76  N   UNL A   1      34.230  22.492  23.311  1.00  0.00    -0.327 N 
ATOM     77  C   UNL A   1      33.448  23.941  25.485  1.00  0.00    -0.024 C 
ATOM     78  C   UNL A   1      32.863  22.123  23.750  1.00  0.00     0.246 C 
ATOM     79  H   UNL A   1      34.549  21.810  22.623  1.00  0.00     0.347 HD
ATOM     80  H   UNL A   1      34.184  23.432  22.914  1.00  0.00     0.347 HD
ATOM     81  C   UNL A   1      33.020  25.193  25.600  1.00  0.00     0.002 A 
ATOM     82  C   UNL A   1      32.375  23.039  24.940  1.00  0.00     0.196 C 
ATOM     83  C   UNL A   1      33.579  26.420  26.062  1.00  0.00     0.010 A 
ATOM     84  C   UNL A   1      31.699  25.130  24.949  1.00  0.00     0.066 A 
ATOM     85  N   UNL A   1      31.288  23.973  24.517  1.00  0.00    -0.270 NA
ATOM     86  C   UNL A   1      32.875  27.552  25.893  1.00  0.00     0.001 A 
ATOM     87  C   UNL A   1      30.989  26.420  24.795  1.00  0.00     0.028 A 
ATOM     88  C   UNL A   1      31.574  27.544  25.247  1.00  0.00     0.002 A 
BRANCH  78  89
ATOM     89  C   UNL A   1      32.691  20.622  24.025  1.00  0.00     0.048 A 
ATOM     90  C   UNL A   1      32.821  20.132  25.341  1.00  0.00     0.013 A 
ATOM     91  C   UNL A   1      32.342  19.683  23.038  1.00  0.00     0.132 A 
ATOM     92  C   UNL A   1      32.721  18.766  25.627  1.00  0.00     0.001 A 
ATOM     93  C   UNL A   1      32.246  18.319  23.317  1.00  0.00     0.040 A 
ATOM     94  F   UNL A   1      32.086  20.052  21.775  1.00  0.00    -0.206 F 
ATOM     95  C   UNL A   1      32.453  17.856  24.610  1.00  0.00     0.003 A 
ENDBRANCH  78  89
ENDBRANCH  71  74
ENDBRANCH  69  70
ENDBRANCH  68  69
ENDBRANCH   1  68
TORSDOF 14
ENDMDL
