MODEL 1
REMARK VINA RESULT:     -12.7      0.000      0.000
REMARK SMILES C[C@@H](C(=O)NCCCNC(=O)c1ccc(-c2c3nc(c(-c4ccc(S(=O)(=O)[O-])cc4)c4ccc([nH]4)c(-c4ccc(S(=O)(=O)[O-])cc4)c4nc(c(-c5ccc(S(=O)(=O)[O-])cc5)c5ccc2[nH]5)C=C4)C=C3)cc1)c1ccc2c3cc(Cl)ccc3n(C(=O)c3cocn3)c2c1
REMARK SMILES IDX 7 1 6 2 5 3 3 4 4 5 2 7 1 8 72 9 73 10 92 11 74 12 91 13
REMARK SMILES IDX 75 14 83 15 76 16 82 17 77 18 81 19 78 20 80 21 79 22 84 23
REMARK SMILES IDX 85 24 86 25 87 26 90 27 88 28 89 29 8 30 9 31 10 32 11 34
REMARK SMILES IDX 12 35 13 36 71 37 14 38 70 39 15 40 16 41 17 42 64 43 18 44
REMARK SMILES IDX 69 45 63 46 65 47 19 48 68 49 62 50 61 51 20 53 50 54 31 55
REMARK SMILES IDX 49 56 32 57 35 58 48 59 66 60 33 61 34 62 47 64 67 65 36 66
REMARK SMILES IDX 21 67 22 68 30 69 23 70 29 71 24 72 25 73 26 74 27 75 28 76
REMARK SMILES IDX 51 77 52 78 60 79 53 80 59 81 54 82 55 83 56 84 57 85 58 86
REMARK SMILES IDX 37 87 38 88 46 89 39 90 45 91 40 92 41 93 42 94 43 95 44 96
REMARK H PARENT 5 6 9 33 65 52 35 63
REMARK Flexibility Score: inf
ROOT
ATOM      1  C   UNL A   1      37.364  23.079  26.006  1.00  0.00     0.042 C 
ENDROOT
BRANCH   1   2
ATOM      2  C   UNL A   1      36.397  23.316  24.845  1.00  0.00     0.117 C 
BRANCH   2   3
ATOM      3  N   UNL A   1      35.414  22.253  24.753  1.00  0.00    -0.356 N 
ATOM      4  C   UNL A   1      34.315  22.014  25.526  1.00  0.00     0.227 C 
ATOM      5  O   UNL A   1      33.915  20.849  25.540  1.00  0.00    -0.274 OA
ATOM      6  H   UNL A   1      35.562  21.610  24.024  1.00  0.00     0.163 HD
BRANCH   4   7
ATOM      7  C   UNL A   1      33.679  23.161  26.328  1.00  0.00     0.105 C 
ATOM      8  C   UNL A   1      32.952  22.552  27.537  1.00  0.00     0.023 C 
BRANCH   7   9
ATOM      9  C   UNL A   1      32.728  24.096  25.564  1.00  0.00    -0.034 A 
ATOM     10  C   UNL A   1      31.512  23.685  25.015  1.00  0.00     0.005 A 
ATOM     11  C   UNL A   1      33.093  25.451  25.422  1.00  0.00     0.032 A 
ATOM     12  C   UNL A   1      30.602  24.604  24.482  1.00  0.00     0.011 A 
ATOM     13  C   UNL A   1      32.190  26.377  24.856  1.00  0.00     0.058 A 
ATOM     14  C   UNL A   1      30.926  25.972  24.448  1.00  0.00     0.008 A 
ATOM     15  N   UNL A   1      32.298  27.759  24.645  1.00  0.00    -0.274 N 
ATOM     16  C   UNL A   1      30.202  27.130  24.066  1.00  0.00     0.009 A 
ATOM     17  C   UNL A   1      31.073  28.225  24.136  1.00  0.00     0.057 A 
ATOM     18  C   UNL A   1      28.870  27.315  23.638  1.00  0.00     0.031 A 
ATOM     19  C   UNL A   1      30.657  29.487  23.666  1.00  0.00     0.029 A 
ATOM     20  C   UNL A   1      28.446  28.580  23.244  1.00  0.00     0.041 A 
ATOM     21  C   UNL A   1      29.331  29.649  23.238  1.00  0.00     0.023 A 
ATOM     22  Cl  UNL A   1      26.819  28.808  22.730  1.00  0.00    -0.084 Cl
BRANCH  15  23
ATOM     23  C   UNL A   1      33.481  28.507  24.892  1.00  0.00     0.284 C 
ATOM     24  O   UNL A   1      34.344  28.447  24.006  1.00  0.00    -0.266 OA
BRANCH  23  25
ATOM     25  C   UNL A   1      33.751  29.287  26.093  1.00  0.00     0.167 A 
ATOM     26  C   UNL A   1      34.876  29.294  26.892  1.00  0.00     0.231 A 
ATOM     27  N   UNL A   1      32.891  30.282  26.545  1.00  0.00    -0.211 NA
ATOM     28  O   UNL A   1      34.727  30.261  27.843  1.00  0.00    -0.451 OA
ATOM     29  C   UNL A   1      33.525  30.825  27.555  1.00  0.00     0.308 A 
ENDBRANCH  23  25
ENDBRANCH  15  23
ENDBRANCH   7   9
ENDBRANCH   4   7
ENDBRANCH   2   3
ENDBRANCH   1   2
BRANCH   1  30
ATOM     30  C   UNL A   1      38.267  24.266  26.331  1.00  0.00     0.118 C 
BRANCH  30  31
ATOM     31  N   UNL A   1      39.673  23.979  26.096  1.00  0.00    -0.352 N 
ATOM     32  C   UNL A   1      40.782  24.670  26.518  1.00  0.00     0.251 C 
ATOM     33  H   UNL A   1      39.856  23.177  25.557  1.00  0.00     0.163 HD
ATOM     34  O   UNL A   1      41.886  24.385  26.064  1.00  0.00    -0.269 OA
BRANCH  32  35
ATOM     35  C   UNL A   1      40.642  25.770  27.499  1.00  0.00     0.039 A 
ATOM     36  C   UNL A   1      39.693  25.647  28.517  1.00  0.00     0.014 A 
ATOM     37  C   UNL A   1      41.436  26.916  27.414  1.00  0.00     0.014 A 
ATOM     38  C   UNL A   1      39.589  26.644  29.491  1.00  0.00     0.010 A 
ATOM     39  C   UNL A   1      41.376  27.877  28.421  1.00  0.00     0.010 A 
ATOM     40  C   UNL A   1      40.454  27.748  29.471  1.00  0.00    -0.014 A 
BRANCH  40  41
ATOM     41  C   UNL A   1      40.426  28.772  30.548  1.00  0.00     0.031 A 
ATOM     42  C   UNL A   1      41.333  28.639  31.742  1.00  0.00     0.074 A 
ATOM     43  C   UNL A   1      39.526  29.774  30.491  1.00  0.00     0.049 A 
ATOM     44  N   UNL A   1      41.387  29.380  32.820  1.00  0.00    -0.248 NA
ATOM     45  C   UNL A   1      42.285  27.518  31.735  1.00  0.00     0.031 C 
ATOM     46  C   UNL A   1      38.563  29.988  29.405  1.00  0.00     0.029 A 
ATOM     47  N   UNL A   1      39.259  30.791  31.373  1.00  0.00    -0.354 N 
ATOM     48  C   UNL A   1      42.357  28.800  33.629  1.00  0.00     0.074 A 
ATOM     49  C   UNL A   1      42.843  27.628  32.933  1.00  0.00     0.031 C 
ATOM     50  C   UNL A   1      37.823  31.075  29.681  1.00  0.00     0.029 A 
ATOM     51  C   UNL A   1      38.226  31.610  30.978  1.00  0.00     0.049 A 
ATOM     52  H   UNL A   1      39.760  30.923  32.210  1.00  0.00     0.167 HD
ATOM     53  C   UNL A   1      42.808  29.211  34.838  1.00  0.00     0.031 A 
ATOM     54  C   UNL A   1      37.653  32.660  31.596  1.00  0.00     0.031 A 
ATOM     55  C   UNL A   1      42.339  30.391  35.515  1.00  0.00     0.049 A 
ATOM     56  C   UNL A   1      38.169  33.092  32.942  1.00  0.00     0.074 A 
ATOM     57  C   UNL A   1      42.796  30.937  36.703  1.00  0.00     0.029 A 
ATOM     58  N   UNL A   1      41.304  31.201  35.075  1.00  0.00    -0.354 N 
ATOM     59  N   UNL A   1      39.146  32.580  33.651  1.00  0.00    -0.248 NA
ATOM     60  C   UNL A   1      37.507  34.245  33.570  1.00  0.00     0.031 C 
ATOM     61  C   UNL A   1      42.001  32.046  37.007  1.00  0.00     0.029 A 
ATOM     62  C   UNL A   1      41.085  32.222  35.983  1.00  0.00     0.049 A 
ATOM     63  H   UNL A   1      40.800  31.068  34.239  1.00  0.00     0.167 HD
ATOM     64  C   UNL A   1      39.231  33.363  34.797  1.00  0.00     0.074 A 
ATOM     65  C   UNL A   1      38.218  34.391  34.680  1.00  0.00     0.031 C 
ATOM     66  C   UNL A   1      40.073  33.240  35.851  1.00  0.00     0.031 A 
BRANCH  53  67
ATOM     67  C   UNL A   1      43.860  28.377  35.517  1.00  0.00    -0.014 A 
ATOM     68  C   UNL A   1      43.511  27.333  36.392  1.00  0.00     0.010 A 
ATOM     69  C   UNL A   1      45.219  28.599  35.225  1.00  0.00     0.010 A 
ATOM     70  C   UNL A   1      44.502  26.549  36.989  1.00  0.00     0.020 A 
ATOM     71  C   UNL A   1      46.212  27.801  35.801  1.00  0.00     0.020 A 
ATOM     72  C   UNL A   1      45.846  26.789  36.691  1.00  0.00     0.054 A 
BRANCH  72  73
ATOM     73  S   UNL A   1      47.109  25.733  37.452  1.00  0.00     0.124 S 
ATOM     74  O   UNL A   1      48.193  25.807  36.474  1.00  0.00    -0.237 OA
ATOM     75  O   UNL A   1      47.365  26.404  38.724  1.00  0.00    -0.237 OA
ATOM     76  O   UNL A   1      46.454  24.431  37.558  1.00  0.00    -0.744 OA
ENDBRANCH  72  73
ENDBRANCH  53  67
BRANCH  54  77
ATOM     77  C   UNL A   1      36.516  33.375  30.954  1.00  0.00    -0.014 A 
ATOM     78  C   UNL A   1      35.316  33.582  31.654  1.00  0.00     0.010 A 
ATOM     79  C   UNL A   1      36.630  33.850  29.634  1.00  0.00     0.010 A 
ATOM     80  C   UNL A   1      34.239  34.230  31.038  1.00  0.00     0.020 A 
ATOM     81  C   UNL A   1      35.566  34.521  29.025  1.00  0.00     0.020 A 
ATOM     82  C   UNL A   1      34.372  34.694  29.726  1.00  0.00     0.054 A 
BRANCH  82  83
ATOM     83  S   UNL A   1      32.977  35.565  28.958  1.00  0.00     0.124 S 
ATOM     84  O   UNL A   1      33.642  36.695  28.318  1.00  0.00    -0.237 OA
ATOM     85  O   UNL A   1      32.432  34.555  28.055  1.00  0.00    -0.237 OA
ATOM     86  O   UNL A   1      32.120  35.902  30.093  1.00  0.00    -0.744 OA
ENDBRANCH  82  83
ENDBRANCH  54  77
BRANCH  66  87
ATOM     87  C   UNL A   1      39.959  34.255  36.956  1.00  0.00    -0.014 A 
ATOM     88  C   UNL A   1      40.567  35.518  36.845  1.00  0.00     0.010 A 
ATOM     89  C   UNL A   1      39.171  33.967  38.086  1.00  0.00     0.010 A 
ATOM     90  C   UNL A   1      40.404  36.469  37.856  1.00  0.00     0.020 A 
ATOM     91  C   UNL A   1      38.987  34.925  39.085  1.00  0.00     0.020 A 
ATOM     92  C   UNL A   1      39.612  36.168  38.968  1.00  0.00     0.054 A 
BRANCH  92  93
ATOM     93  S   UNL A   1      39.362  37.443  40.233  1.00  0.00     0.124 S 
ATOM     94  O   UNL A   1      38.499  38.395  39.539  1.00  0.00    -0.237 OA
ATOM     95  O   UNL A   1      38.731  36.699  41.320  1.00  0.00    -0.237 OA
ATOM     96  O   UNL A   1      40.715  37.920  40.516  1.00  0.00    -0.744 OA
ENDBRANCH  92  93
ENDBRANCH  66  87
ENDBRANCH  40  41
ENDBRANCH  32  35
ENDBRANCH  30  31
ENDBRANCH   1  30
TORSDOF 16
ENDMDL
MODEL 2
REMARK VINA RESULT:     -12.5      6.349     11.983
REMARK SMILES C[C@@H](C(=O)NCCCNC(=O)c1ccc(-c2c3nc(c(-c4ccc(S(=O)(=O)[O-])cc4)c4ccc([nH]4)c(-c4ccc(S(=O)(=O)[O-])cc4)c4nc(c(-c5ccc(S(=O)(=O)[O-])cc5)c5ccc2[nH]5)C=C4)C=C3)cc1)c1ccc2c3cc(Cl)ccc3n(C(=O)c3cocn3)c2c1
REMARK SMILES IDX 7 1 6 2 5 3 3 4 4 5 2 7 1 8 72 9 73 10 92 11 74 12 91 13
REMARK SMILES IDX 75 14 83 15 76 16 82 17 77 18 81 19 78 20 80 21 79 22 84 23
REMARK SMILES IDX 85 24 86 25 87 26 90 27 88 28 89 29 8 30 9 31 10 32 11 34
REMARK SMILES IDX 12 35 13 36 71 37 14 38 70 39 15 40 16 41 17 42 64 43 18 44
REMARK SMILES IDX 69 45 63 46 65 47 19 48 68 49 62 50 61 51 20 53 50 54 31 55
REMARK SMILES IDX 49 56 32 57 35 58 48 59 66 60 33 61 34 62 47 64 67 65 36 66
REMARK SMILES IDX 21 67 22 68 30 69 23 70 29 71 24 72 25 73 26 74 27 75 28 76
REMARK SMILES IDX 51 77 52 78 60 79 53 80 59 81 54 82 55 83 56 84 57 85 58 86
REMARK SMILES IDX 37 87 38 88 46 89 39 90 45 91 40 92 41 93 42 94 43 95 44 96
REMARK H PARENT 5 6 9 33 65 52 35 63
REMARK Flexibility Score: inf
ROOT
ATOM      1  C   UNL A   1      33.710  28.672  27.251  1.00  0.00     0.042 C 
ENDROOT
BRANCH   1   2
ATOM      2  C   UNL A   1      33.106  29.320  26.004  1.00  0.00     0.117 C 
BRANCH   2   3
ATOM      3  N   UNL A   1      31.882  28.652  25.604  1.00  0.00    -0.356 N 
ATOM      4  C   UNL A   1      31.671  27.745  24.606  1.00  0.00     0.227 C 
ATOM      5  O   UNL A   1      30.516  27.672  24.185  1.00  0.00    -0.274 OA
ATOM      6  H   UNL A   1      31.086  28.888  26.131  1.00  0.00     0.163 HD
BRANCH   4   7
ATOM      7  C   UNL A   1      32.847  26.915  24.065  1.00  0.00     0.105 C 
ATOM      8  C   UNL A   1      32.895  27.094  22.540  1.00  0.00     0.023 C 
BRANCH   7   9
ATOM      9  C   UNL A   1      32.858  25.418  24.416  1.00  0.00    -0.034 A 
ATOM     10  C   UNL A   1      31.724  24.705  24.807  1.00  0.00     0.005 A 
ATOM     11  C   UNL A   1      34.079  24.717  24.321  1.00  0.00     0.032 A 
ATOM     12  C   UNL A   1      31.746  23.314  24.947  1.00  0.00     0.011 A 
ATOM     13  C   UNL A   1      34.111  23.317  24.493  1.00  0.00     0.058 A 
ATOM     14  C   UNL A   1      32.943  22.607  24.739  1.00  0.00     0.008 A 
ATOM     15  N   UNL A   1      35.172  22.403  24.410  1.00  0.00    -0.274 N 
ATOM     16  C   UNL A   1      33.263  21.226  24.716  1.00  0.00     0.009 A 
ATOM     17  C   UNL A   1      34.651  21.107  24.569  1.00  0.00     0.057 A 
ATOM     18  C   UNL A   1      32.465  20.068  24.839  1.00  0.00     0.031 A 
ATOM     19  C   UNL A   1      35.264  19.841  24.665  1.00  0.00     0.029 A 
ATOM     20  C   UNL A   1      33.072  18.817  24.859  1.00  0.00     0.041 A 
ATOM     21  C   UNL A   1      34.453  18.703  24.794  1.00  0.00     0.023 A 
ATOM     22  Cl  UNL A   1      32.099  17.404  25.000  1.00  0.00    -0.084 Cl
BRANCH  15  23
ATOM     23  C   UNL A   1      36.530  22.781  24.228  1.00  0.00     0.284 C 
ATOM     24  O   UNL A   1      36.798  23.300  23.136  1.00  0.00    -0.266 OA
BRANCH  23  25
ATOM     25  C   UNL A   1      37.599  22.577  25.198  1.00  0.00     0.167 A 
ATOM     26  C   UNL A   1      38.326  21.435  25.463  1.00  0.00     0.231 A 
ATOM     27  N   UNL A   1      38.139  23.619  25.944  1.00  0.00    -0.211 NA
ATOM     28  O   UNL A   1      39.297  21.740  26.373  1.00  0.00    -0.451 OA
ATOM     29  C   UNL A   1      39.136  23.071  26.594  1.00  0.00     0.308 A 
ENDBRANCH  23  25
ENDBRANCH  15  23
ENDBRANCH   7   9
ENDBRANCH   4   7
ENDBRANCH   2   3
ENDBRANCH   1   2
BRANCH   1  30
ATOM     30  C   UNL A   1      35.130  29.127  27.575  1.00  0.00     0.118 C 
BRANCH  30  31
ATOM     31  N   UNL A   1      35.175  30.079  28.674  1.00  0.00    -0.352 N 
ATOM     32  C   UNL A   1      36.214  30.380  29.520  1.00  0.00     0.251 C 
ATOM     33  H   UNL A   1      34.342  30.578  28.835  1.00  0.00     0.163 HD
ATOM     34  O   UNL A   1      36.010  31.075  30.511  1.00  0.00    -0.269 OA
BRANCH  32  35
ATOM     35  C   UNL A   1      37.568  29.847  29.251  1.00  0.00     0.039 A 
ATOM     36  C   UNL A   1      38.022  29.798  27.930  1.00  0.00     0.014 A 
ATOM     37  C   UNL A   1      38.384  29.394  30.290  1.00  0.00     0.014 A 
ATOM     38  C   UNL A   1      39.320  29.360  27.659  1.00  0.00     0.010 A 
ATOM     39  C   UNL A   1      39.699  29.019  30.026  1.00  0.00     0.010 A 
ATOM     40  C   UNL A   1      40.181  29.001  28.708  1.00  0.00    -0.014 A 
BRANCH  40  41
ATOM     41  C   UNL A   1      41.595  28.623  28.453  1.00  0.00     0.031 A 
ATOM     42  C   UNL A   1      42.670  29.676  28.437  1.00  0.00     0.074 A 
ATOM     43  C   UNL A   1      41.898  27.344  28.152  1.00  0.00     0.049 A 
ATOM     44  N   UNL A   1      43.940  29.552  28.144  1.00  0.00    -0.248 NA
ATOM     45  C   UNL A   1      42.262  31.050  28.771  1.00  0.00     0.031 C 
ATOM     46  C   UNL A   1      40.939  26.236  28.094  1.00  0.00     0.029 A 
ATOM     47  N   UNL A   1      43.096  26.760  27.821  1.00  0.00    -0.354 N 
ATOM     48  C   UNL A   1      44.475  30.832  28.232  1.00  0.00     0.074 A 
ATOM     49  C   UNL A   1      43.388  31.724  28.573  1.00  0.00     0.031 C 
ATOM     50  C   UNL A   1      41.589  25.108  27.762  1.00  0.00     0.029 A 
ATOM     51  C   UNL A   1      42.998  25.417  27.541  1.00  0.00     0.049 A 
ATOM     52  H   UNL A   1      43.945  27.256  27.787  1.00  0.00     0.167 HD
ATOM     53  C   UNL A   1      45.758  31.228  28.053  1.00  0.00     0.031 A 
ATOM     54  C   UNL A   1      43.931  24.534  27.134  1.00  0.00     0.031 A 
ATOM     55  C   UNL A   1      46.841  30.334  27.737  1.00  0.00     0.049 A 
ATOM     56  C   UNL A   1      45.347  25.002  26.937  1.00  0.00     0.074 A 
ATOM     57  C   UNL A   1      48.189  30.628  27.622  1.00  0.00     0.029 A 
ATOM     58  N   UNL A   1      46.703  28.980  27.479  1.00  0.00    -0.354 N 
ATOM     59  N   UNL A   1      45.849  26.201  27.108  1.00  0.00    -0.248 NA
ATOM     60  C   UNL A   1      46.324  23.997  26.493  1.00  0.00     0.031 C 
ATOM     61  C   UNL A   1      48.858  29.461  27.240  1.00  0.00     0.029 A 
ATOM     62  C   UNL A   1      47.935  28.430  27.170  1.00  0.00     0.049 A 
ATOM     63  H   UNL A   1      45.853  28.483  27.509  1.00  0.00     0.167 HD
ATOM     64  C   UNL A   1      47.204  26.088  26.816  1.00  0.00     0.074 A 
ATOM     65  C   UNL A   1      47.447  24.703  26.472  1.00  0.00     0.031 C 
ATOM     66  C   UNL A   1      48.161  27.048  26.832  1.00  0.00     0.031 A 
BRANCH  53  67
ATOM     67  C   UNL A   1      46.066  32.694  28.185  1.00  0.00    -0.014 A 
ATOM     68  C   UNL A   1      46.443  33.251  29.421  1.00  0.00     0.010 A 
ATOM     69  C   UNL A   1      46.040  33.517  27.044  1.00  0.00     0.010 A 
ATOM     70  C   UNL A   1      46.756  34.610  29.518  1.00  0.00     0.020 A 
ATOM     71  C   UNL A   1      46.375  34.871  27.133  1.00  0.00     0.020 A 
ATOM     72  C   UNL A   1      46.718  35.412  28.373  1.00  0.00     0.054 A 
BRANCH  72  73
ATOM     73  S   UNL A   1      47.163  37.164  28.522  1.00  0.00     0.124 S 
ATOM     74  O   UNL A   1      47.170  37.349  29.972  1.00  0.00    -0.237 OA
ATOM     75  O   UNL A   1      48.471  37.219  27.876  1.00  0.00    -0.237 OA
ATOM     76  O   UNL A   1      46.090  37.856  27.812  1.00  0.00    -0.744 OA
ENDBRANCH  72  73
ENDBRANCH  53  67
BRANCH  54  77
ATOM     77  C   UNL A   1      43.556  23.117  26.876  1.00  0.00    -0.014 A 
ATOM     78  C   UNL A   1      43.843  22.517  25.638  1.00  0.00     0.010 A 
ATOM     79  C   UNL A   1      42.906  22.362  27.870  1.00  0.00     0.010 A 
ATOM     80  C   UNL A   1      43.464  21.194  25.389  1.00  0.00     0.020 A 
ATOM     81  C   UNL A   1      42.550  21.031  27.633  1.00  0.00     0.020 A 
ATOM     82  C   UNL A   1      42.819  20.459  26.388  1.00  0.00     0.054 A 
BRANCH  82  83
ATOM     83  S   UNL A   1      42.370  18.733  26.058  1.00  0.00     0.124 S 
ATOM     84  O   UNL A   1      40.960  18.850  25.701  1.00  0.00    -0.237 OA
ATOM     85  O   UNL A   1      43.272  18.374  24.967  1.00  0.00    -0.237 OA
ATOM     86  O   UNL A   1      42.642  18.062  27.327  1.00  0.00    -0.744 OA
ENDBRANCH  82  83
ENDBRANCH  54  77
BRANCH  66  87
ATOM     87  C   UNL A   1      49.567  26.635  26.493  1.00  0.00    -0.014 A 
ATOM     88  C   UNL A   1      50.378  25.982  27.438  1.00  0.00     0.010 A 
ATOM     89  C   UNL A   1      50.056  26.836  25.189  1.00  0.00     0.010 A 
ATOM     90  C   UNL A   1      51.662  25.555  27.089  1.00  0.00     0.020 A 
ATOM     91  C   UNL A   1      51.328  26.387  24.830  1.00  0.00     0.020 A 
ATOM     92  C   UNL A   1      52.128  25.757  25.786  1.00  0.00     0.054 A 
BRANCH  92  93
ATOM     93  S   UNL A   1      53.772  25.134  25.340  1.00  0.00     0.124 S 
ATOM     94  O   UNL A   1      53.919  25.618  23.970  1.00  0.00    -0.237 OA
ATOM     95  O   UNL A   1      54.637  25.772  26.328  1.00  0.00    -0.237 OA
ATOM     96  O   UNL A   1      53.642  23.684  25.478  1.00  0.00    -0.744 OA
ENDBRANCH  92  93
ENDBRANCH  66  87
ENDBRANCH  40  41
ENDBRANCH  32  35
ENDBRANCH  30  31
ENDBRANCH   1  30
TORSDOF 16
ENDMDL
MODEL 3
REMARK VINA RESULT:     -12.4      0.681      7.933
REMARK SMILES C[C@@H](C(=O)NCCCNC(=O)c1ccc(-c2c3nc(c(-c4ccc(S(=O)(=O)[O-])cc4)c4ccc([nH]4)c(-c4ccc(S(=O)(=O)[O-])cc4)c4nc(c(-c5ccc(S(=O)(=O)[O-])cc5)c5ccc2[nH]5)C=C4)C=C3)cc1)c1ccc2c3cc(Cl)ccc3n(C(=O)c3cocn3)c2c1
REMARK SMILES IDX 7 1 6 2 5 3 3 4 4 5 2 7 1 8 72 9 73 10 92 11 74 12 91 13
REMARK SMILES IDX 75 14 83 15 76 16 82 17 77 18 81 19 78 20 80 21 79 22 84 23
REMARK SMILES IDX 85 24 86 25 87 26 90 27 88 28 89 29 8 30 9 31 10 32 11 34
REMARK SMILES IDX 12 35 13 36 71 37 14 38 70 39 15 40 16 41 17 42 64 43 18 44
REMARK SMILES IDX 69 45 63 46 65 47 19 48 68 49 62 50 61 51 20 53 50 54 31 55
REMARK SMILES IDX 49 56 32 57 35 58 48 59 66 60 33 61 34 62 47 64 67 65 36 66
REMARK SMILES IDX 21 67 22 68 30 69 23 70 29 71 24 72 25 73 26 74 27 75 28 76
REMARK SMILES IDX 51 77 52 78 60 79 53 80 59 81 54 82 55 83 56 84 57 85 58 86
REMARK SMILES IDX 37 87 38 88 46 89 39 90 45 91 40 92 41 93 42 94 43 95 44 96
REMARK H PARENT 5 6 9 33 65 52 35 63
REMARK Flexibility Score: inf
ROOT
ATOM      1  C   UNL A   1      38.093  23.253  25.879  1.00  0.00     0.042 C 
ENDROOT
BRANCH   1   2
ATOM      2  C   UNL A   1      36.633  23.679  25.715  1.00  0.00     0.117 C 
BRANCH   2   3
ATOM      3  N   UNL A   1      35.784  22.542  25.413  1.00  0.00    -0.356 N 
ATOM      4  C   UNL A   1      34.622  22.141  26.007  1.00  0.00     0.227 C 
ATOM      5  O   UNL A   1      34.343  20.948  25.884  1.00  0.00    -0.274 OA
ATOM      6  H   UNL A   1      36.092  21.976  24.670  1.00  0.00     0.163 HD
BRANCH   4   7
ATOM      7  C   UNL A   1      33.772  23.157  26.788  1.00  0.00     0.105 C 
ATOM      8  C   UNL A   1      32.988  22.392  27.866  1.00  0.00     0.023 C 
BRANCH   7   9
ATOM      9  C   UNL A   1      32.812  24.033  25.968  1.00  0.00    -0.034 A 
ATOM     10  C   UNL A   1      31.590  23.585  25.465  1.00  0.00     0.005 A 
ATOM     11  C   UNL A   1      33.176  25.374  25.722  1.00  0.00     0.032 A 
ATOM     12  C   UNL A   1      30.674  24.463  24.877  1.00  0.00     0.011 A 
ATOM     13  C   UNL A   1      32.267  26.256  25.099  1.00  0.00     0.058 A 
ATOM     14  C   UNL A   1      30.998  25.824  24.737  1.00  0.00     0.008 A 
ATOM     15  N   UNL A   1      32.373  27.619  24.785  1.00  0.00    -0.274 N 
ATOM     16  C   UNL A   1      30.271  26.952  24.278  1.00  0.00     0.009 A 
ATOM     17  C   UNL A   1      31.143  28.048  24.257  1.00  0.00     0.057 A 
ATOM     18  C   UNL A   1      28.933  27.107  23.854  1.00  0.00     0.031 A 
ATOM     19  C   UNL A   1      30.722  29.272  23.699  1.00  0.00     0.029 A 
ATOM     20  C   UNL A   1      28.506  28.339  23.372  1.00  0.00     0.041 A 
ATOM     21  C   UNL A   1      29.391  29.403  23.277  1.00  0.00     0.023 A 
ATOM     22  Cl  UNL A   1      26.873  28.531  22.862  1.00  0.00    -0.084 Cl
BRANCH  15  23
ATOM     23  C   UNL A   1      33.560  28.381  24.962  1.00  0.00     0.284 C 
ATOM     24  O   UNL A   1      34.348  28.370  24.006  1.00  0.00    -0.266 OA
BRANCH  23  25
ATOM     25  C   UNL A   1      33.915  29.123  26.165  1.00  0.00     0.167 A 
ATOM     26  C   UNL A   1      34.866  28.829  27.120  1.00  0.00     0.231 A 
ATOM     27  N   UNL A   1      33.381  30.374  26.454  1.00  0.00    -0.211 NA
ATOM     28  O   UNL A   1      34.923  29.863  28.008  1.00  0.00    -0.451 OA
ATOM     29  C   UNL A   1      34.022  30.761  27.529  1.00  0.00     0.308 A 
ENDBRANCH  23  25
ENDBRANCH  15  23
ENDBRANCH   7   9
ENDBRANCH   4   7
ENDBRANCH   2   3
ENDBRANCH   1   2
BRANCH   1  30
ATOM     30  C   UNL A   1      38.971  24.268  26.605  1.00  0.00     0.118 C 
BRANCH  30  31
ATOM     31  N   UNL A   1      40.072  24.745  25.783  1.00  0.00    -0.352 N 
ATOM     32  C   UNL A   1      40.899  25.824  25.980  1.00  0.00     0.251 C 
ATOM     33  H   UNL A   1      40.249  24.222  24.969  1.00  0.00     0.163 HD
ATOM     34  O   UNL A   1      41.652  26.185  25.081  1.00  0.00    -0.269 OA
BRANCH  32  35
ATOM     35  C   UNL A   1      40.862  26.561  27.262  1.00  0.00     0.039 A 
ATOM     36  C   UNL A   1      41.594  27.746  27.380  1.00  0.00     0.014 A 
ATOM     37  C   UNL A   1      40.114  26.089  28.344  1.00  0.00     0.014 A 
ATOM     38  C   UNL A   1      41.522  28.491  28.559  1.00  0.00     0.010 A 
ATOM     39  C   UNL A   1      39.991  26.865  29.493  1.00  0.00     0.010 A 
ATOM     40  C   UNL A   1      40.691  28.076  29.611  1.00  0.00    -0.014 A 
BRANCH  40  41
ATOM     41  C   UNL A   1      40.524  28.900  30.836  1.00  0.00     0.031 A 
ATOM     42  C   UNL A   1      39.460  29.963  30.895  1.00  0.00     0.074 A 
ATOM     43  C   UNL A   1      41.385  28.748  31.863  1.00  0.00     0.049 A 
ATOM     44  N   UNL A   1      39.222  30.838  31.838  1.00  0.00    -0.248 NA
ATOM     45  C   UNL A   1      38.561  30.071  29.734  1.00  0.00     0.031 C 
ATOM     46  C   UNL A   1      42.485  27.781  31.911  1.00  0.00     0.029 A 
ATOM     47  N   UNL A   1      41.482  29.418  33.058  1.00  0.00    -0.354 N 
ATOM     48  C   UNL A   1      38.168  31.616  31.375  1.00  0.00     0.074 A 
ATOM     49  C   UNL A   1      37.832  31.132  30.054  1.00  0.00     0.031 C 
ATOM     50  C   UNL A   1      43.136  27.912  33.079  1.00  0.00     0.029 A 
ATOM     51  C   UNL A   1      42.529  28.997  33.844  1.00  0.00     0.049 A 
ATOM     52  H   UNL A   1      40.860  30.132  33.327  1.00  0.00     0.167 HD
ATOM     53  C   UNL A   1      37.531  32.637  31.998  1.00  0.00     0.031 A 
ATOM     54  C   UNL A   1      42.967  29.444  35.037  1.00  0.00     0.031 A 
ATOM     55  C   UNL A   1      37.852  33.100  33.321  1.00  0.00     0.049 A 
ATOM     56  C   UNL A   1      42.245  30.584  35.703  1.00  0.00     0.074 A 
ATOM     57  C   UNL A   1      37.207  34.070  34.071  1.00  0.00     0.029 A 
ATOM     58  N   UNL A   1      38.908  32.637  34.090  1.00  0.00    -0.354 N 
ATOM     59  N   UNL A   1      41.196  31.250  35.286  1.00  0.00    -0.248 NA
ATOM     60  C   UNL A   1      42.765  31.031  37.004  1.00  0.00     0.031 C 
ATOM     61  C   UNL A   1      37.907  34.231  35.270  1.00  0.00     0.029 A 
ATOM     62  C   UNL A   1      38.955  33.324  35.291  1.00  0.00     0.049 A 
ATOM     63  H   UNL A   1      39.533  31.925  33.821  1.00  0.00     0.167 HD
ATOM     64  C   UNL A   1      40.916  32.178  36.283  1.00  0.00     0.074 A 
ATOM     65  C   UNL A   1      41.896  31.978  37.330  1.00  0.00     0.031 C 
ATOM     66  C   UNL A   1      39.935  33.112  36.325  1.00  0.00     0.031 A 
BRANCH  53  67
ATOM     67  C   UNL A   1      36.424  33.333  31.254  1.00  0.00    -0.014 A 
ATOM     68  C   UNL A   1      35.178  33.576  31.860  1.00  0.00     0.010 A 
ATOM     69  C   UNL A   1      36.653  33.807  29.948  1.00  0.00     0.010 A 
ATOM     70  C   UNL A   1      34.173  34.252  31.164  1.00  0.00     0.020 A 
ATOM     71  C   UNL A   1      35.658  34.504  29.258  1.00  0.00     0.020 A 
ATOM     72  C   UNL A   1      34.419  34.710  29.865  1.00  0.00     0.054 A 
BRANCH  72  73
ATOM     73  S   UNL A   1      33.107  35.615  28.999  1.00  0.00     0.124 S 
ATOM     74  O   UNL A   1      33.873  36.597  28.236  1.00  0.00    -0.237 OA
ATOM     75  O   UNL A   1      32.464  34.568  28.208  1.00  0.00    -0.237 OA
ATOM     76  O   UNL A   1      32.292  36.164  30.080  1.00  0.00    -0.744 OA
ENDBRANCH  72  73
ENDBRANCH  53  67
BRANCH  54  77
ATOM     77  C   UNL A   1      44.157  28.820  35.678  1.00  0.00    -0.014 A 
ATOM     78  C   UNL A   1      45.449  29.302  35.407  1.00  0.00     0.010 A 
ATOM     79  C   UNL A   1      44.001  27.736  36.561  1.00  0.00     0.010 A 
ATOM     80  C   UNL A   1      46.567  28.696  35.989  1.00  0.00     0.020 A 
ATOM     81  C   UNL A   1      45.114  27.144  37.165  1.00  0.00     0.020 A 
ATOM     82  C   UNL A   1      46.392  27.619  36.864  1.00  0.00     0.054 A 
BRANCH  82  83
ATOM     83  S   UNL A   1      47.853  26.870  37.638  1.00  0.00     0.124 S 
ATOM     84  O   UNL A   1      47.768  27.381  39.002  1.00  0.00    -0.237 OA
ATOM     85  O   UNL A   1      47.597  25.441  37.478  1.00  0.00    -0.237 OA
ATOM     86  O   UNL A   1      48.963  27.389  36.842  1.00  0.00    -0.744 OA
ENDBRANCH  82  83
ENDBRANCH  54  77
BRANCH  66  87
ATOM     87  C   UNL A   1      39.850  33.976  37.553  1.00  0.00    -0.014 A 
ATOM     88  C   UNL A   1      40.490  35.227  37.604  1.00  0.00     0.010 A 
ATOM     89  C   UNL A   1      39.059  33.564  38.641  1.00  0.00     0.010 A 
ATOM     90  C   UNL A   1      40.355  36.042  38.731  1.00  0.00     0.020 A 
ATOM     91  C   UNL A   1      38.902  34.387  39.757  1.00  0.00     0.020 A 
ATOM     92  C   UNL A   1      39.558  35.619  39.800  1.00  0.00     0.054 A 
BRANCH  92  93
ATOM     93  S   UNL A   1      39.345  36.724  41.222  1.00  0.00     0.124 S 
ATOM     94  O   UNL A   1      38.768  37.913  40.599  1.00  0.00    -0.237 OA
ATOM     95  O   UNL A   1      38.443  35.967  42.085  1.00  0.00    -0.237 OA
ATOM     96  O   UNL A   1      40.702  36.889  41.739  1.00  0.00    -0.744 OA
ENDBRANCH  92  93
ENDBRANCH  66  87
ENDBRANCH  40  41
ENDBRANCH  32  35
ENDBRANCH  30  31
ENDBRANCH   1  30
TORSDOF 16
ENDMDL
