MODEL 1
REMARK VINA RESULT:     -10.7      0.000      0.000
REMARK SMILES Cc1ncccc1NS(=O)(=O)[C@@H](C)C(=O)NCCCNC(=O)c1ccc(-c2c3nc(c(-c4ccc(S(=O)(=O)[O-])cc4)c4ccc([nH]4)c(-c4ccc(S(=O)(=O)[O-])cc4)c4nc(c(-c5ccc(S(=O)(=O)[O-])cc5)c5ccc2[nH]5)C=C4)C=C3)cc1
REMARK SMILES IDX 18 1 17 2 16 3 14 4 15 5 12 7 13 8 9 9 10 10 11 11 8 12 7 14
REMARK SMILES IDX 1 15 2 16 3 17 4 18 6 19 5 20 19 21 20 22 21 23 22 25 23 26
REMARK SMILES IDX 24 27 82 28 25 29 81 30 26 31 27 32 28 33 75 34 29 35 80 36
REMARK SMILES IDX 74 37 76 38 30 39 79 40 73 41 72 42 31 44 61 45 42 46 60 47
REMARK SMILES IDX 43 48 46 49 59 50 77 51 44 52 45 53 58 55 78 56 47 57 32 58
REMARK SMILES IDX 33 59 41 60 34 61 40 62 35 63 36 64 37 65 38 66 39 67 62 68
REMARK SMILES IDX 63 69 71 70 64 71 70 72 65 73 66 74 67 75 68 76 69 77 48 78
REMARK SMILES IDX 49 79 57 80 50 81 56 82 51 83 52 84 53 85 54 86 55 87
REMARK H PARENT 16 6 8 13 20 24 76 43 46 54
REMARK Flexibility Score: inf
ROOT
ATOM      1  C   UNL A   1      32.643  27.830  27.289  1.00  0.00     0.042 C 
ENDROOT
BRANCH   1   2
ATOM      2  C   UNL A   1      31.532  27.443  26.332  1.00  0.00     0.117 C 
BRANCH   2   3
ATOM      3  N   UNL A   1      30.953  26.142  26.549  1.00  0.00    -0.355 N 
ATOM      4  C   UNL A   1      31.491  24.911  26.420  1.00  0.00     0.239 C 
ATOM      5  O   UNL A   1      31.008  24.074  27.206  1.00  0.00    -0.274 OA
ATOM      6  H   UNL A   1      30.013  26.154  26.839  1.00  0.00     0.163 HD
BRANCH   4   7
ATOM      7  C   UNL A   1      32.582  24.437  25.483  1.00  0.00     0.215 C 
ATOM      8  C   UNL A   1      33.971  24.963  25.828  1.00  0.00     0.037 C 
BRANCH   7   9
ATOM      9  S   UNL A   1      32.276  24.150  23.754  1.00  0.00     0.244 S 
ATOM     10  O   UNL A   1      32.712  25.264  22.947  1.00  0.00    -0.206 OA
ATOM     11  O   UNL A   1      30.880  23.759  23.666  1.00  0.00    -0.206 OA
BRANCH   9  12
ATOM     12  N   UNL A   1      33.070  22.755  23.237  1.00  0.00    -0.281 N 
ATOM     13  H   UNL A   1      32.616  22.190  22.571  1.00  0.00     0.180 HD
BRANCH  12  14
ATOM     14  C   UNL A   1      34.361  22.337  23.702  1.00  0.00     0.070 A 
ATOM     15  C   UNL A   1      33.533  20.514  25.315  1.00  0.00     0.069 C 
ATOM     16  C   UNL A   1      34.596  21.320  24.637  1.00  0.00     0.061 A 
ATOM     17  N   UNL A   1      35.855  21.001  25.048  1.00  0.00    -0.259 NA
ATOM     18  C   UNL A   1      36.907  21.653  24.514  1.00  0.00     0.111 A 
ATOM     19  C   UNL A   1      35.481  23.001  23.184  1.00  0.00     0.030 A 
ATOM     20  C   UNL A   1      36.770  22.646  23.571  1.00  0.00     0.022 A 
ENDBRANCH  12  14
ENDBRANCH   9  12
ENDBRANCH   7   9
ENDBRANCH   4   7
ENDBRANCH   2   3
ENDBRANCH   1   2
BRANCH   1  21
ATOM     21  C   UNL A   1      33.546  28.931  26.767  1.00  0.00     0.118 C 
BRANCH  21  22
ATOM     22  N   UNL A   1      33.506  30.179  27.522  1.00  0.00    -0.352 N 
ATOM     23  C   UNL A   1      34.491  30.830  28.230  1.00  0.00     0.251 C 
ATOM     24  H   UNL A   1      32.631  30.629  27.525  1.00  0.00     0.163 HD
ATOM     25  O   UNL A   1      34.258  31.927  28.732  1.00  0.00    -0.269 OA
BRANCH  23  26
ATOM     26  C   UNL A   1      35.809  30.190  28.419  1.00  0.00     0.039 A 
ATOM     27  C   UNL A   1      36.735  30.211  27.370  1.00  0.00     0.014 A 
ATOM     28  C   UNL A   1      36.159  29.628  29.643  1.00  0.00     0.014 A 
ATOM     29  C   UNL A   1      38.036  29.748  27.589  1.00  0.00     0.010 A 
ATOM     30  C   UNL A   1      37.484  29.313  29.900  1.00  0.00     0.010 A 
ATOM     31  C   UNL A   1      38.436  29.348  28.873  1.00  0.00    -0.014 A 
BRANCH  31  32
ATOM     32  C   UNL A   1      39.827  28.931  29.188  1.00  0.00     0.031 A 
ATOM     33  C   UNL A   1      40.772  29.928  29.812  1.00  0.00     0.074 A 
ATOM     34  C   UNL A   1      40.270  27.710  28.822  1.00  0.00     0.049 A 
ATOM     35  N   UNL A   1      42.062  29.835  30.007  1.00  0.00    -0.248 NA
ATOM     36  C   UNL A   1      40.199  31.222  30.230  1.00  0.00     0.031 C 
ATOM     37  C   UNL A   1      39.470  26.672  28.164  1.00  0.00     0.029 A 
ATOM     38  N   UNL A   1      41.513  27.139  28.938  1.00  0.00    -0.354 N 
ATOM     39  C   UNL A   1      42.452  31.061  30.535  1.00  0.00     0.074 A 
ATOM     40  C   UNL A   1      41.282  31.907  30.562  1.00  0.00     0.031 C 
ATOM     41  C   UNL A   1      40.232  25.583  27.969  1.00  0.00     0.029 A 
ATOM     42  C   UNL A   1      41.587  25.861  28.433  1.00  0.00     0.049 A 
ATOM     43  H   UNL A   1      42.281  27.601  29.345  1.00  0.00     0.167 HD
ATOM     44  C   UNL A   1      43.668  31.441  30.991  1.00  0.00     0.031 A 
ATOM     45  C   UNL A   1      42.631  25.015  28.342  1.00  0.00     0.031 A 
ATOM     46  C   UNL A   1      44.819  30.580  31.004  1.00  0.00     0.049 A 
ATOM     47  C   UNL A   1      43.973  25.462  28.856  1.00  0.00     0.074 A 
ATOM     48  C   UNL A   1      46.084  30.845  31.498  1.00  0.00     0.029 A 
ATOM     49  N   UNL A   1      44.839  29.283  30.516  1.00  0.00    -0.354 N 
ATOM     50  N   UNL A   1      44.310  26.609  29.399  1.00  0.00    -0.248 NA
ATOM     51  C   UNL A   1      45.078  24.498  28.754  1.00  0.00     0.031 C 
ATOM     52  C   UNL A   1      46.883  29.721  31.267  1.00  0.00     0.029 A 
ATOM     53  C   UNL A   1      46.098  28.736  30.687  1.00  0.00     0.049 A 
ATOM     54  H   UNL A   1      44.072  28.820  30.109  1.00  0.00     0.167 HD
ATOM     55  C   UNL A   1      45.652  26.487  29.739  1.00  0.00     0.074 A 
ATOM     56  C   UNL A   1      46.061  25.153  29.355  1.00  0.00     0.031 C 
ATOM     57  C   UNL A   1      46.477  27.397  30.314  1.00  0.00     0.031 A 
BRANCH  44  58
ATOM     58  C   UNL A   1      43.809  32.836  31.541  1.00  0.00    -0.014 A 
ATOM     59  C   UNL A   1      43.577  33.101  32.904  1.00  0.00     0.010 A 
ATOM     60  C   UNL A   1      44.238  33.882  30.705  1.00  0.00     0.010 A 
ATOM     61  C   UNL A   1      43.744  34.390  33.414  1.00  0.00     0.020 A 
ATOM     62  C   UNL A   1      44.437  35.167  31.218  1.00  0.00     0.020 A 
ATOM     63  C   UNL A   1      44.179  35.415  32.568  1.00  0.00     0.054 A 
BRANCH  63  64
ATOM     64  S   UNL A   1      44.444  37.064  33.275  1.00  0.00     0.124 S 
ATOM     65  O   UNL A   1      43.833  36.927  34.596  1.00  0.00    -0.237 OA
ATOM     66  O   UNL A   1      45.898  37.184  33.266  1.00  0.00    -0.237 OA
ATOM     67  O   UNL A   1      43.740  37.954  32.354  1.00  0.00    -0.744 OA
ENDBRANCH  63  64
ENDBRANCH  44  58
BRANCH  45  68
ATOM     68  C   UNL A   1      42.458  23.657  27.752  1.00  0.00    -0.014 A 
ATOM     69  C   UNL A   1      42.018  22.585  28.549  1.00  0.00     0.010 A 
ATOM     70  C   UNL A   1      42.760  23.417  26.399  1.00  0.00     0.010 A 
ATOM     71  C   UNL A   1      41.926  21.294  28.019  1.00  0.00     0.020 A 
ATOM     72  C   UNL A   1      42.637  22.135  25.855  1.00  0.00     0.020 A 
ATOM     73  C   UNL A   1      42.241  21.077  26.675  1.00  0.00     0.054 A 
BRANCH  73  74
ATOM     74  S   UNL A   1      42.110  19.395  26.007  1.00  0.00     0.124 S 
ATOM     75  O   UNL A   1      42.939  19.480  24.808  1.00  0.00    -0.237 OA
ATOM     76  O   UNL A   1      42.650  18.581  27.094  1.00  0.00    -0.237 OA
ATOM     77  O   UNL A   1      40.677  19.233  25.768  1.00  0.00    -0.744 OA
ENDBRANCH  73  74
ENDBRANCH  45  68
BRANCH  57  78
ATOM     78  C   UNL A   1      47.886  26.965  30.617  1.00  0.00    -0.014 A 
ATOM     79  C   UNL A   1      48.945  27.257  29.740  1.00  0.00     0.010 A 
ATOM     80  C   UNL A   1      48.158  26.309  31.831  1.00  0.00     0.010 A 
ATOM     81  C   UNL A   1      50.249  26.870  30.059  1.00  0.00     0.020 A 
ATOM     82  C   UNL A   1      49.465  25.951  32.169  1.00  0.00     0.020 A 
ATOM     83  C   UNL A   1      50.500  26.222  31.272  1.00  0.00     0.054 A 
BRANCH  83  84
ATOM     84  S   UNL A   1      52.208  25.773  31.682  1.00  0.00     0.124 S 
ATOM     85  O   UNL A   1      52.063  24.386  32.112  1.00  0.00    -0.237 OA
ATOM     86  O   UNL A   1      52.902  25.968  30.412  1.00  0.00    -0.237 OA
ATOM     87  O   UNL A   1      52.573  26.717  32.736  1.00  0.00    -0.744 OA
ENDBRANCH  83  84
ENDBRANCH  57  78
ENDBRANCH  31  32
ENDBRANCH  23  26
ENDBRANCH  21  22
ENDBRANCH   1  21
TORSDOF 16
ENDMDL
MODEL 2
REMARK VINA RESULT:     -10.4      3.412      6.372
REMARK SMILES Cc1ncccc1NS(=O)(=O)[C@@H](C)C(=O)NCCCNC(=O)c1ccc(-c2c3nc(c(-c4ccc(S(=O)(=O)[O-])cc4)c4ccc([nH]4)c(-c4ccc(S(=O)(=O)[O-])cc4)c4nc(c(-c5ccc(S(=O)(=O)[O-])cc5)c5ccc2[nH]5)C=C4)C=C3)cc1
REMARK SMILES IDX 18 1 17 2 16 3 14 4 15 5 12 7 13 8 9 9 10 10 11 11 8 12 7 14
REMARK SMILES IDX 1 15 2 16 3 17 4 18 6 19 5 20 19 21 20 22 21 23 22 25 23 26
REMARK SMILES IDX 24 27 82 28 25 29 81 30 26 31 27 32 28 33 75 34 29 35 80 36
REMARK SMILES IDX 74 37 76 38 30 39 79 40 73 41 72 42 31 44 61 45 42 46 60 47
REMARK SMILES IDX 43 48 46 49 59 50 77 51 44 52 45 53 58 55 78 56 47 57 32 58
REMARK SMILES IDX 33 59 41 60 34 61 40 62 35 63 36 64 37 65 38 66 39 67 62 68
REMARK SMILES IDX 63 69 71 70 64 71 70 72 65 73 66 74 67 75 68 76 69 77 48 78
REMARK SMILES IDX 49 79 57 80 50 81 56 82 51 83 52 84 53 85 54 86 55 87
REMARK H PARENT 16 6 8 13 20 24 76 43 46 54
REMARK Flexibility Score: inf
ROOT
ATOM      1  C   UNL A   1      34.316  33.633  28.003  1.00  0.00     0.042 C 
ENDROOT
BRANCH   1   2
ATOM      2  C   UNL A   1      34.421  34.858  28.891  1.00  0.00     0.117 C 
BRANCH   2   3
ATOM      3  N   UNL A   1      33.226  35.200  29.618  1.00  0.00    -0.355 N 
ATOM      4  C   UNL A   1      33.063  35.609  30.894  1.00  0.00     0.239 C 
ATOM      5  O   UNL A   1      32.088  36.367  31.052  1.00  0.00    -0.274 OA
ATOM      6  H   UNL A   1      32.392  35.122  29.100  1.00  0.00     0.163 HD
BRANCH   4   7
ATOM      7  C   UNL A   1      33.899  35.286  32.115  1.00  0.00     0.215 C 
ATOM      8  C   UNL A   1      34.439  36.512  32.842  1.00  0.00     0.037 C 
BRANCH   7   9
ATOM      9  S   UNL A   1      34.918  33.831  32.198  1.00  0.00     0.244 S 
ATOM     10  O   UNL A   1      35.904  33.814  31.144  1.00  0.00    -0.206 OA
ATOM     11  O   UNL A   1      33.995  32.713  32.277  1.00  0.00    -0.206 OA
BRANCH   9  12
ATOM     12  N   UNL A   1      35.707  33.746  33.686  1.00  0.00    -0.281 N 
ATOM     13  H   UNL A   1      35.175  33.915  34.497  1.00  0.00     0.180 HD
BRANCH  12  14
ATOM     14  C   UNL A   1      37.100  33.445  33.850  1.00  0.00     0.070 A 
ATOM     15  C   UNL A   1      36.978  30.994  33.081  1.00  0.00     0.069 C 
ATOM     16  C   UNL A   1      37.699  32.208  33.577  1.00  0.00     0.061 A 
ATOM     17  N   UNL A   1      39.029  31.993  33.786  1.00  0.00    -0.259 NA
ATOM     18  C   UNL A   1      39.797  33.007  34.232  1.00  0.00     0.111 A 
ATOM     19  C   UNL A   1      37.931  34.467  34.328  1.00  0.00     0.030 A 
ATOM     20  C   UNL A   1      39.297  34.261  34.501  1.00  0.00     0.022 A 
ENDBRANCH  12  14
ENDBRANCH   9  12
ENDBRANCH   7   9
ENDBRANCH   4   7
ENDBRANCH   2   3
ENDBRANCH   1   2
BRANCH   1  21
ATOM     21  C   UNL A   1      34.024  32.351  28.759  1.00  0.00     0.118 C 
BRANCH  21  22
ATOM     22  N   UNL A   1      33.695  31.199  27.927  1.00  0.00    -0.352 N 
ATOM     23  C   UNL A   1      34.416  30.059  27.649  1.00  0.00     0.251 C 
ATOM     24  H   UNL A   1      32.813  31.243  27.493  1.00  0.00     0.163 HD
ATOM     25  O   UNL A   1      33.909  29.164  26.976  1.00  0.00    -0.269 OA
BRANCH  23  26
ATOM     26  C   UNL A   1      35.809  29.933  28.126  1.00  0.00     0.039 A 
ATOM     27  C   UNL A   1      36.047  29.479  29.427  1.00  0.00     0.014 A 
ATOM     28  C   UNL A   1      36.879  30.199  27.277  1.00  0.00     0.014 A 
ATOM     29  C   UNL A   1      37.356  29.208  29.835  1.00  0.00     0.010 A 
ATOM     30  C   UNL A   1      38.154  29.788  27.630  1.00  0.00     0.010 A 
ATOM     31  C   UNL A   1      38.416  29.307  28.919  1.00  0.00    -0.014 A 
BRANCH  31  32
ATOM     32  C   UNL A   1      39.815  28.948  29.267  1.00  0.00     0.031 A 
ATOM     33  C   UNL A   1      40.703  29.986  29.911  1.00  0.00     0.074 A 
ATOM     34  C   UNL A   1      40.317  27.747  28.915  1.00  0.00     0.049 A 
ATOM     35  N   UNL A   1      41.990  29.947  30.136  1.00  0.00    -0.248 NA
ATOM     36  C   UNL A   1      40.066  31.255  30.311  1.00  0.00     0.031 C 
ATOM     37  C   UNL A   1      39.577  26.674  28.243  1.00  0.00     0.029 A 
ATOM     38  N   UNL A   1      41.580  27.228  29.062  1.00  0.00    -0.354 N 
ATOM     39  C   UNL A   1      42.317  31.189  30.669  1.00  0.00     0.074 A 
ATOM     40  C   UNL A   1      41.112  31.986  30.666  1.00  0.00     0.031 C 
ATOM     41  C   UNL A   1      40.387  25.618  28.068  1.00  0.00     0.029 A 
ATOM     42  C   UNL A   1      41.718  25.953  28.563  1.00  0.00     0.049 A 
ATOM     43  H   UNL A   1      42.318  27.723  29.486  1.00  0.00     0.167 HD
ATOM     44  C   UNL A   1      43.505  31.620  31.153  1.00  0.00     0.031 A 
ATOM     45  C   UNL A   1      42.799  25.151  28.499  1.00  0.00     0.031 A 
ATOM     46  C   UNL A   1      44.689  30.809  31.195  1.00  0.00     0.049 A 
ATOM     47  C   UNL A   1      44.109  25.656  29.043  1.00  0.00     0.074 A 
ATOM     48  C   UNL A   1      45.930  31.127  31.717  1.00  0.00     0.029 A 
ATOM     49  N   UNL A   1      44.775  29.512  30.711  1.00  0.00    -0.354 N 
ATOM     50  N   UNL A   1      44.385  26.817  29.591  1.00  0.00    -0.248 NA
ATOM     51  C   UNL A   1      45.255  24.739  28.970  1.00  0.00     0.031 C 
ATOM     52  C   UNL A   1      46.781  30.037  31.508  1.00  0.00     0.029 A 
ATOM     53  C   UNL A   1      46.052  29.019  30.913  1.00  0.00     0.049 A 
ATOM     54  H   UNL A   1      44.038  29.017  30.288  1.00  0.00     0.167 HD
ATOM     55  C   UNL A   1      45.722  26.752  29.962  1.00  0.00     0.074 A 
ATOM     56  C   UNL A   1      46.196  25.435  29.592  1.00  0.00     0.031 C 
ATOM     57  C   UNL A   1      46.494  27.696  30.553  1.00  0.00     0.031 A 
BRANCH  44  58
ATOM     58  C   UNL A   1      43.574  33.021  31.702  1.00  0.00    -0.014 A 
ATOM     59  C   UNL A   1      43.367  33.270  33.071  1.00  0.00     0.010 A 
ATOM     60  C   UNL A   1      43.911  34.093  30.856  1.00  0.00     0.010 A 
ATOM     61  C   UNL A   1      43.468  34.567  33.579  1.00  0.00     0.020 A 
ATOM     62  C   UNL A   1      44.045  35.388  31.366  1.00  0.00     0.020 A 
ATOM     63  C   UNL A   1      43.812  35.618  32.724  1.00  0.00     0.054 A 
BRANCH  63  64
ATOM     64  S   UNL A   1      43.994  37.280  33.426  1.00  0.00     0.124 S 
ATOM     65  O   UNL A   1      44.209  38.091  32.230  1.00  0.00    -0.237 OA
ATOM     66  O   UNL A   1      42.714  37.482  34.100  1.00  0.00    -0.237 OA
ATOM     67  O   UNL A   1      45.150  37.158  34.311  1.00  0.00    -0.744 OA
ENDBRANCH  63  64
ENDBRANCH  44  58
BRANCH  45  68
ATOM     68  C   UNL A   1      42.697  23.786  27.909  1.00  0.00    -0.014 A 
ATOM     69  C   UNL A   1      42.846  23.596  26.523  1.00  0.00     0.010 A 
ATOM     70  C   UNL A   1      42.419  22.672  28.721  1.00  0.00     0.010 A 
ATOM     71  C   UNL A   1      42.677  22.329  25.956  1.00  0.00     0.020 A 
ATOM     72  C   UNL A   1      42.283  21.397  28.163  1.00  0.00     0.020 A 
ATOM     73  C   UNL A   1      42.391  21.238  26.781  1.00  0.00     0.054 A 
BRANCH  73  74
ATOM     74  S   UNL A   1      42.181  19.601  26.024  1.00  0.00     0.124 S 
ATOM     75  O   UNL A   1      40.761  19.606  25.683  1.00  0.00    -0.237 OA
ATOM     76  O   UNL A   1      43.104  19.656  24.893  1.00  0.00    -0.237 OA
ATOM     77  O   UNL A   1      42.567  18.680  27.090  1.00  0.00    -0.744 OA
ENDBRANCH  73  74
ENDBRANCH  45  68
BRANCH  57  78
ATOM     78  C   UNL A   1      47.913  27.325  30.890  1.00  0.00    -0.014 A 
ATOM     79  C   UNL A   1      48.225  26.620  32.066  1.00  0.00     0.010 A 
ATOM     80  C   UNL A   1      48.941  27.635  29.980  1.00  0.00     0.010 A 
ATOM     81  C   UNL A   1      49.547  26.262  32.341  1.00  0.00     0.020 A 
ATOM     82  C   UNL A   1      50.258  27.249  30.236  1.00  0.00     0.020 A 
ATOM     83  C   UNL A   1      50.554  26.577  31.423  1.00  0.00     0.054 A 
BRANCH  83  84
ATOM     84  S   UNL A   1      52.253  26.058  31.784  1.00  0.00     0.124 S 
ATOM     85  O   UNL A   1      52.728  27.142  32.638  1.00  0.00    -0.237 OA
ATOM     86  O   UNL A   1      52.060  24.772  32.448  1.00  0.00    -0.237 OA
ATOM     87  O   UNL A   1      52.881  25.984  30.466  1.00  0.00    -0.744 OA
ENDBRANCH  83  84
ENDBRANCH  57  78
ENDBRANCH  31  32
ENDBRANCH  23  26
ENDBRANCH  21  22
ENDBRANCH   1  21
TORSDOF 16
ENDMDL
MODEL 3
REMARK VINA RESULT:     -10.2      2.542      9.467
REMARK SMILES Cc1ncccc1NS(=O)(=O)[C@@H](C)C(=O)NCCCNC(=O)c1ccc(-c2c3nc(c(-c4ccc(S(=O)(=O)[O-])cc4)c4ccc([nH]4)c(-c4ccc(S(=O)(=O)[O-])cc4)c4nc(c(-c5ccc(S(=O)(=O)[O-])cc5)c5ccc2[nH]5)C=C4)C=C3)cc1
REMARK SMILES IDX 18 1 17 2 16 3 14 4 15 5 12 7 13 8 9 9 10 10 11 11 8 12 7 14
REMARK SMILES IDX 1 15 2 16 3 17 4 18 6 19 5 20 19 21 20 22 21 23 22 25 23 26
REMARK SMILES IDX 24 27 82 28 25 29 81 30 26 31 27 32 28 33 75 34 29 35 80 36
REMARK SMILES IDX 74 37 76 38 30 39 79 40 73 41 72 42 31 44 61 45 42 46 60 47
REMARK SMILES IDX 43 48 46 49 59 50 77 51 44 52 45 53 58 55 78 56 47 57 32 58
REMARK SMILES IDX 33 59 41 60 34 61 40 62 35 63 36 64 37 65 38 66 39 67 62 68
REMARK SMILES IDX 63 69 71 70 64 71 70 72 65 73 66 74 67 75 68 76 69 77 48 78
REMARK SMILES IDX 49 79 57 80 50 81 56 82 51 83 52 84 53 85 54 86 55 87
REMARK H PARENT 16 6 8 13 20 24 76 43 46 54
REMARK Flexibility Score: inf
ROOT
ATOM      1  C   UNL A   1      35.647  22.493  25.369  1.00  0.00     0.042 C 
ENDROOT
BRANCH   1   2
ATOM      2  C   UNL A   1      35.118  22.238  23.970  1.00  0.00     0.117 C 
BRANCH   2   3
ATOM      3  N   UNL A   1      33.712  21.940  23.884  1.00  0.00    -0.355 N 
ATOM      4  C   UNL A   1      32.691  22.667  23.382  1.00  0.00     0.239 C 
ATOM      5  O   UNL A   1      31.773  21.972  22.908  1.00  0.00    -0.274 OA
ATOM      6  H   UNL A   1      33.453  21.064  24.251  1.00  0.00     0.163 HD
BRANCH   4   7
ATOM      7  C   UNL A   1      32.534  24.172  23.310  1.00  0.00     0.215 C 
ATOM      8  C   UNL A   1      32.948  24.777  21.974  1.00  0.00     0.037 C 
BRANCH   7   9
ATOM      9  S   UNL A   1      32.774  25.211  24.733  1.00  0.00     0.244 S 
ATOM     10  O   UNL A   1      34.010  25.951  24.646  1.00  0.00    -0.206 OA
ATOM     11  O   UNL A   1      32.587  24.344  25.884  1.00  0.00    -0.206 OA
BRANCH   9  12
ATOM     12  N   UNL A   1      31.495  26.297  24.895  1.00  0.00    -0.281 N 
ATOM     13  H   UNL A   1      30.607  26.010  24.580  1.00  0.00     0.180 HD
BRANCH  12  14
ATOM     14  C   UNL A   1      31.612  27.611  25.459  1.00  0.00     0.070 A 
ATOM     15  C   UNL A   1      31.131  28.919  23.298  1.00  0.00     0.069 C 
ATOM     16  C   UNL A   1      31.445  28.812  24.758  1.00  0.00     0.061 A 
ATOM     17  N   UNL A   1      31.602  30.024  25.363  1.00  0.00    -0.259 NA
ATOM     18  C   UNL A   1      31.886  30.070  26.679  1.00  0.00     0.111 A 
ATOM     19  C   UNL A   1      31.924  27.703  26.822  1.00  0.00     0.030 A 
ATOM     20  C   UNL A   1      32.041  28.940  27.450  1.00  0.00     0.022 A 
ENDBRANCH  12  14
ENDBRANCH   9  12
ENDBRANCH   7   9
ENDBRANCH   4   7
ENDBRANCH   2   3
ENDBRANCH   1   2
BRANCH   1  21
ATOM     21  C   UNL A   1      36.924  23.309  25.402  1.00  0.00     0.118 C 
BRANCH  21  22
ATOM     22  N   UNL A   1      38.147  22.543  25.620  1.00  0.00    -0.352 N 
ATOM     23  C   UNL A   1      39.294  22.864  26.310  1.00  0.00     0.251 C 
ATOM     24  H   UNL A   1      38.152  21.650  25.207  1.00  0.00     0.163 HD
ATOM     25  O   UNL A   1      40.185  22.028  26.438  1.00  0.00    -0.269 OA
BRANCH  23  26
ATOM     26  C   UNL A   1      39.469  24.225  26.859  1.00  0.00     0.039 A 
ATOM     27  C   UNL A   1      39.033  24.498  28.159  1.00  0.00     0.014 A 
ATOM     28  C   UNL A   1      40.114  25.213  26.121  1.00  0.00     0.014 A 
ATOM     29  C   UNL A   1      39.332  25.733  28.743  1.00  0.00     0.010 A 
ATOM     30  C   UNL A   1      40.540  26.372  26.750  1.00  0.00     0.010 A 
ATOM     31  C   UNL A   1      40.138  26.659  28.061  1.00  0.00    -0.014 A 
BRANCH  31  32
ATOM     32  C   UNL A   1      40.563  27.949  28.662  1.00  0.00     0.031 A 
ATOM     33  C   UNL A   1      41.956  28.074  29.231  1.00  0.00     0.074 A 
ATOM     34  C   UNL A   1      39.681  28.961  28.794  1.00  0.00     0.049 A 
ATOM     35  N   UNL A   1      42.472  29.037  29.950  1.00  0.00    -0.248 NA
ATOM     36  C   UNL A   1      42.876  26.944  29.002  1.00  0.00     0.031 C 
ATOM     37  C   UNL A   1      38.289  28.948  28.332  1.00  0.00     0.029 A 
ATOM     38  N   UNL A   1      39.821  30.199  29.372  1.00  0.00    -0.354 N 
ATOM     39  C   UNL A   1      43.755  28.613  30.280  1.00  0.00     0.074 A 
ATOM     40  C   UNL A   1      43.915  27.280  29.750  1.00  0.00     0.031 C 
ATOM     41  C   UNL A   1      37.718  30.131  28.613  1.00  0.00     0.029 A 
ATOM     42  C   UNL A   1      38.680  30.966  29.324  1.00  0.00     0.049 A 
ATOM     43  H   UNL A   1      40.660  30.508  29.783  1.00  0.00     0.167 HD
ATOM     44  C   UNL A   1      44.728  29.286  30.936  1.00  0.00     0.031 A 
ATOM     45  C   UNL A   1      38.432  32.198  29.811  1.00  0.00     0.031 A 
ATOM     46  C   UNL A   1      44.580  30.630  31.422  1.00  0.00     0.049 A 
ATOM     47  C   UNL A   1      39.533  32.924  30.538  1.00  0.00     0.074 A 
ATOM     48  C   UNL A   1      45.522  31.426  32.049  1.00  0.00     0.029 A 
ATOM     49  N   UNL A   1      43.420  31.382  31.321  1.00  0.00    -0.354 N 
ATOM     50  N   UNL A   1      40.757  32.526  30.795  1.00  0.00    -0.248 NA
ATOM     51  C   UNL A   1      39.223  34.273  31.033  1.00  0.00     0.031 C 
ATOM     52  C   UNL A   1      44.917  32.645  32.368  1.00  0.00     0.029 A 
ATOM     53  C   UNL A   1      43.618  32.630  31.883  1.00  0.00     0.049 A 
ATOM     54  H   UNL A   1      42.580  31.073  30.909  1.00  0.00     0.167 HD
ATOM     55  C   UNL A   1      41.372  33.589  31.446  1.00  0.00     0.074 A 
ATOM     56  C   UNL A   1      40.393  34.652  31.528  1.00  0.00     0.031 C 
ATOM     57  C   UNL A   1      42.633  33.680  31.936  1.00  0.00     0.031 A 
BRANCH  44  58
ATOM     58  C   UNL A   1      46.049  28.591  31.140  1.00  0.00    -0.014 A 
ATOM     59  C   UNL A   1      47.102  28.760  30.221  1.00  0.00     0.010 A 
ATOM     60  C   UNL A   1      46.265  27.812  32.290  1.00  0.00     0.010 A 
ATOM     61  C   UNL A   1      48.336  28.141  30.435  1.00  0.00     0.020 A 
ATOM     62  C   UNL A   1      47.508  27.216  32.524  1.00  0.00     0.020 A 
ATOM     63  C   UNL A   1      48.533  27.376  31.589  1.00  0.00     0.054 A 
BRANCH  63  64
ATOM     64  S   UNL A   1      50.164  26.636  31.866  1.00  0.00     0.124 S 
ATOM     65  O   UNL A   1      50.810  27.637  32.713  1.00  0.00    -0.237 OA
ATOM     66  O   UNL A   1      49.833  25.376  32.526  1.00  0.00    -0.237 OA
ATOM     67  O   UNL A   1      50.720  26.506  30.522  1.00  0.00    -0.744 OA
ENDBRANCH  63  64
ENDBRANCH  44  58
BRANCH  45  68
ATOM     68  C   UNL A   1      37.097  32.834  29.624  1.00  0.00    -0.014 A 
ATOM     69  C   UNL A   1      36.715  33.332  28.365  1.00  0.00     0.010 A 
ATOM     70  C   UNL A   1      36.210  32.974  30.707  1.00  0.00     0.010 A 
ATOM     71  C   UNL A   1      35.496  33.997  28.203  1.00  0.00     0.020 A 
ATOM     72  C   UNL A   1      34.975  33.606  30.542  1.00  0.00     0.020 A 
ATOM     73  C   UNL A   1      34.635  34.133  29.294  1.00  0.00     0.054 A 
BRANCH  73  74
ATOM     74  S   UNL A   1      33.054  34.994  29.059  1.00  0.00     0.124 S 
ATOM     75  O   UNL A   1      33.491  36.317  28.623  1.00  0.00    -0.237 OA
ATOM     76  O   UNL A   1      32.398  34.176  28.041  1.00  0.00    -0.237 OA
ATOM     77  O   UNL A   1      32.437  34.942  30.383  1.00  0.00    -0.744 OA
ENDBRANCH  73  74
ENDBRANCH  45  68
BRANCH  57  78
ATOM     78  C   UNL A   1      43.047  34.989  32.551  1.00  0.00    -0.014 A 
ATOM     79  C   UNL A   1      43.598  36.022  31.773  1.00  0.00     0.010 A 
ATOM     80  C   UNL A   1      42.822  35.205  33.924  1.00  0.00     0.010 A 
ATOM     81  C   UNL A   1      43.948  37.238  32.365  1.00  0.00     0.020 A 
ATOM     82  C   UNL A   1      43.140  36.431  34.511  1.00  0.00     0.020 A 
ATOM     83  C   UNL A   1      43.714  37.435  33.730  1.00  0.00     0.054 A 
BRANCH  83  84
ATOM     84  S   UNL A   1      44.133  39.040  34.462  1.00  0.00     0.124 S 
ATOM     85  O   UNL A   1      43.083  39.901  33.928  1.00  0.00    -0.237 OA
ATOM     86  O   UNL A   1      44.055  38.767  35.894  1.00  0.00    -0.237 OA
ATOM     87  O   UNL A   1      45.478  39.312  33.957  1.00  0.00    -0.744 OA
ENDBRANCH  83  84
ENDBRANCH  57  78
ENDBRANCH  31  32
ENDBRANCH  23  26
ENDBRANCH  21  22
ENDBRANCH   1  21
TORSDOF 16
ENDMDL
