MODEL 1
REMARK VINA RESULT:     -11.1      0.000      0.000
REMARK SMILES CS(=O)(=O)c1ccc(/C=C(/C(=O)NCCCNC(=O)c2ccc(-c3c4nc(c(-c5ccc(S(=O)(=O)[O-])cc5)c5ccc([nH]5)c(-c5ccc(S(=O)(=O)[O-])cc5)c5nc(c(-c6ccc(S(=O)(=O)[O-])cc6)c6ccc3[nH]6)C=C5)C=C4)cc2)c2cccc(Br)c2)cc1
REMARK SMILES IDX 15 1 14 2 13 3 11 4 12 5 10 7 9 8 8 9 5 10 6 11 88 12 7 13
REMARK SMILES IDX 87 14 2 15 1 16 3 17 4 18 80 19 81 20 86 21 82 22 84 23
REMARK SMILES IDX 83 24 85 25 16 26 17 27 18 28 19 30 20 31 21 32 79 33 22 34
REMARK SMILES IDX 78 35 23 36 24 37 25 38 72 39 26 40 77 41 71 42 73 43 27 44
REMARK SMILES IDX 76 45 70 46 69 47 28 49 58 50 39 51 57 52 40 53 43 54 56 55
REMARK SMILES IDX 74 56 41 57 42 58 55 60 75 61 44 62 29 63 30 64 38 65 31 66
REMARK SMILES IDX 37 67 32 68 33 69 34 70 35 71 36 72 59 73 60 74 68 75 61 76
REMARK SMILES IDX 67 77 62 78 63 79 64 80 65 81 66 82 45 83 46 84 54 85 47 86
REMARK SMILES IDX 53 87 48 88 49 89 50 90 51 91 52 92
REMARK H PARENT 13 6 17 29 73 48 43 59
REMARK Flexibility Score: inf
ROOT
ATOM      1  C   UNL A   1      32.430  27.415  26.305  1.00  0.00     0.042 C 
ENDROOT
BRANCH   1   2
ATOM      2  C   UNL A   1      32.597  25.979  25.808  1.00  0.00     0.118 C 
BRANCH   2   3
ATOM      3  N   UNL A   1      32.231  25.878  24.408  1.00  0.00    -0.352 N 
ATOM      4  C   UNL A   1      32.339  24.903  23.469  1.00  0.00     0.251 C 
ATOM      5  O   UNL A   1      31.928  25.197  22.343  1.00  0.00    -0.269 OA
ATOM      6  H   UNL A   1      31.813  26.699  24.061  1.00  0.00     0.163 HD
BRANCH   4   7
ATOM      7  C   UNL A   1      32.831  23.503  23.765  1.00  0.00     0.047 C 
ATOM      8  C   UNL A   1      31.980  22.491  24.057  1.00  0.00     0.022 C 
BRANCH   8   9
ATOM      9  C   UNL A   1      32.269  21.048  24.241  1.00  0.00    -0.025 A 
ATOM     10  C   UNL A   1      33.049  18.348  24.360  1.00  0.00     0.067 A 
ATOM     11  C   UNL A   1      33.104  19.146  25.506  1.00  0.00     0.021 A 
ATOM     12  C   UNL A   1      32.533  18.864  23.172  1.00  0.00     0.021 A 
ATOM     13  C   UNL A   1      32.687  20.479  25.449  1.00  0.00     0.009 A 
ATOM     14  C   UNL A   1      32.148  20.210  23.119  1.00  0.00     0.009 A 
BRANCH  10  15
ATOM     15  S   UNL A   1      33.674  16.688  24.471  1.00  0.00     0.175 S 
ATOM     16  C   UNL A   1      32.466  15.733  25.344  1.00  0.00     0.163 C 
ATOM     17  O   UNL A   1      34.860  16.738  25.304  1.00  0.00    -0.224 OA
ATOM     18  O   UNL A   1      33.738  16.184  23.111  1.00  0.00    -0.224 OA
ENDBRANCH  10  15
ENDBRANCH   8   9
BRANCH   7  19
ATOM     19  C   UNL A   1      34.303  23.332  23.895  1.00  0.00    -0.012 A 
ATOM     20  C   UNL A   1      35.044  23.006  22.744  1.00  0.00     0.009 A 
ATOM     21  C   UNL A   1      34.986  23.579  25.092  1.00  0.00     0.024 A 
ATOM     22  C   UNL A   1      36.437  22.959  22.774  1.00  0.00     0.002 A 
ATOM     23  C   UNL A   1      36.384  23.562  25.106  1.00  0.00     0.018 A 
ATOM     24  C   UNL A   1      37.111  23.256  23.955  1.00  0.00     0.016 A 
ATOM     25  Br  UNL A   1      37.309  24.023  26.690  1.00  0.00    -0.051 Br
ENDBRANCH   7  19
ENDBRANCH   4   7
ENDBRANCH   2   3
ENDBRANCH   1   2
BRANCH   1  26
ATOM     26  C   UNL A   1      33.725  28.030  26.840  1.00  0.00     0.118 C 
BRANCH  26  27
ATOM     27  N   UNL A   1      33.578  29.451  27.126  1.00  0.00    -0.352 N 
ATOM     28  C   UNL A   1      34.407  30.303  27.811  1.00  0.00     0.251 C 
ATOM     29  H   UNL A   1      32.757  29.864  26.773  1.00  0.00     0.163 HD
ATOM     30  O   UNL A   1      33.985  31.403  28.157  1.00  0.00    -0.269 OA
BRANCH  28  31
ATOM     31  C   UNL A   1      35.793  29.905  28.140  1.00  0.00     0.039 A 
ATOM     32  C   UNL A   1      36.788  30.055  27.170  1.00  0.00     0.014 A 
ATOM     33  C   UNL A   1      36.108  29.345  29.382  1.00  0.00     0.014 A 
ATOM     34  C   UNL A   1      38.105  29.696  27.464  1.00  0.00     0.010 A 
ATOM     35  C   UNL A   1      37.434  29.058  29.700  1.00  0.00     0.010 A 
ATOM     36  C   UNL A   1      38.446  29.226  28.743  1.00  0.00    -0.014 A 
BRANCH  36  37
ATOM     37  C   UNL A   1      39.853  28.908  29.097  1.00  0.00     0.031 A 
ATOM     38  C   UNL A   1      40.726  29.947  29.751  1.00  0.00     0.074 A 
ATOM     39  C   UNL A   1      40.363  27.702  28.776  1.00  0.00     0.049 A 
ATOM     40  N   UNL A   1      41.993  29.875  30.071  1.00  0.00    -0.248 NA
ATOM     41  C   UNL A   1      40.102  31.242  30.064  1.00  0.00     0.031 C 
ATOM     42  C   UNL A   1      39.631  26.626  28.104  1.00  0.00     0.029 A 
ATOM     43  N   UNL A   1      41.619  27.181  28.961  1.00  0.00    -0.354 N 
ATOM     44  C   UNL A   1      42.319  31.113  30.613  1.00  0.00     0.074 A 
ATOM     45  C   UNL A   1      41.131  31.936  30.526  1.00  0.00     0.031 C 
ATOM     46  C   UNL A   1      40.444  25.568  27.953  1.00  0.00     0.029 A 
ATOM     47  C   UNL A   1      41.765  25.904  28.474  1.00  0.00     0.049 A 
ATOM     48  H   UNL A   1      42.348  27.675  29.401  1.00  0.00     0.167 HD
ATOM     49  C   UNL A   1      43.490  31.522  31.156  1.00  0.00     0.031 A 
ATOM     50  C   UNL A   1      42.842  25.096  28.435  1.00  0.00     0.031 A 
ATOM     51  C   UNL A   1      44.669  30.699  31.241  1.00  0.00     0.049 A 
ATOM     52  C   UNL A   1      44.140  25.579  29.023  1.00  0.00     0.074 A 
ATOM     53  C   UNL A   1      45.894  31.007  31.805  1.00  0.00     0.029 A 
ATOM     54  N   UNL A   1      44.770  29.407  30.747  1.00  0.00    -0.354 N 
ATOM     55  N   UNL A   1      44.409  26.734  29.583  1.00  0.00    -0.248 NA
ATOM     56  C   UNL A   1      45.274  24.646  28.987  1.00  0.00     0.031 C 
ATOM     57  C   UNL A   1      46.753  29.922  31.605  1.00  0.00     0.029 A 
ATOM     58  C   UNL A   1      46.043  28.911  30.975  1.00  0.00     0.049 A 
ATOM     59  H   UNL A   1      44.045  28.915  30.300  1.00  0.00     0.167 HD
ATOM     60  C   UNL A   1      45.737  26.656  29.991  1.00  0.00     0.074 A 
ATOM     61  C   UNL A   1      46.207  25.334  29.630  1.00  0.00     0.031 C 
ATOM     62  C   UNL A   1      46.497  27.593  30.609  1.00  0.00     0.031 A 
BRANCH  49  63
ATOM     63  C   UNL A   1      43.555  32.925  31.704  1.00  0.00    -0.014 A 
ATOM     64  C   UNL A   1      43.279  33.188  33.059  1.00  0.00     0.010 A 
ATOM     65  C   UNL A   1      43.940  33.990  30.869  1.00  0.00     0.010 A 
ATOM     66  C   UNL A   1      43.346  34.490  33.557  1.00  0.00     0.020 A 
ATOM     67  C   UNL A   1      44.039  35.292  31.371  1.00  0.00     0.020 A 
ATOM     68  C   UNL A   1      43.724  35.535  32.710  1.00  0.00     0.054 A 
BRANCH  68  69
ATOM     69  S   UNL A   1      43.829  37.211  33.393  1.00  0.00     0.124 S 
ATOM     70  O   UNL A   1      42.609  37.286  34.195  1.00  0.00    -0.237 OA
ATOM     71  O   UNL A   1      45.076  37.170  34.152  1.00  0.00    -0.237 OA
ATOM     72  O   UNL A   1      43.850  38.069  32.211  1.00  0.00    -0.744 OA
ENDBRANCH  68  69
ENDBRANCH  49  63
BRANCH  50  73
ATOM     73  C   UNL A   1      42.738  23.747  27.811  1.00  0.00    -0.014 A 
ATOM     74  C   UNL A   1      43.090  23.547  26.465  1.00  0.00     0.010 A 
ATOM     75  C   UNL A   1      42.292  22.649  28.569  1.00  0.00     0.010 A 
ATOM     76  C   UNL A   1      42.979  22.280  25.884  1.00  0.00     0.020 A 
ATOM     77  C   UNL A   1      42.209  21.375  28.002  1.00  0.00     0.020 A 
ATOM     78  C   UNL A   1      42.541  21.201  26.657  1.00  0.00     0.054 A 
BRANCH  78  79
ATOM     79  S   UNL A   1      42.451  19.556  25.897  1.00  0.00     0.124 S 
ATOM     80  O   UNL A   1      42.800  18.686  27.014  1.00  0.00    -0.237 OA
ATOM     81  O   UNL A   1      41.061  19.492  25.452  1.00  0.00    -0.237 OA
ATOM     82  O   UNL A   1      43.437  19.622  24.821  1.00  0.00    -0.744 OA
ENDBRANCH  78  79
ENDBRANCH  50  73
BRANCH  62  83
ATOM     83  C   UNL A   1      47.909  27.213  30.971  1.00  0.00    -0.014 A 
ATOM     84  C   UNL A   1      48.201  26.539  32.170  1.00  0.00     0.010 A 
ATOM     85  C   UNL A   1      48.953  27.488  30.068  1.00  0.00     0.010 A 
ATOM     86  C   UNL A   1      49.516  26.178  32.474  1.00  0.00     0.020 A 
ATOM     87  C   UNL A   1      50.264  27.099  30.354  1.00  0.00     0.020 A 
ATOM     88  C   UNL A   1      50.539  26.459  31.563  1.00  0.00     0.054 A 
BRANCH  88  89
ATOM     89  S   UNL A   1      52.230  25.937  31.961  1.00  0.00     0.124 S 
ATOM     90  O   UNL A   1      52.610  26.903  32.989  1.00  0.00    -0.237 OA
ATOM     91  O   UNL A   1      52.040  24.566  32.426  1.00  0.00    -0.237 OA
ATOM     92  O   UNL A   1      52.942  26.067  30.691  1.00  0.00    -0.744 OA
ENDBRANCH  88  89
ENDBRANCH  62  83
ENDBRANCH  36  37
ENDBRANCH  28  31
ENDBRANCH  26  27
ENDBRANCH   1  26
TORSDOF 16
ENDMDL
MODEL 2
REMARK VINA RESULT:     -11.1      4.771     11.454
REMARK SMILES CS(=O)(=O)c1ccc(/C=C(/C(=O)NCCCNC(=O)c2ccc(-c3c4nc(c(-c5ccc(S(=O)(=O)[O-])cc5)c5ccc([nH]5)c(-c5ccc(S(=O)(=O)[O-])cc5)c5nc(c(-c6ccc(S(=O)(=O)[O-])cc6)c6ccc3[nH]6)C=C5)C=C4)cc2)c2cccc(Br)c2)cc1
REMARK SMILES IDX 15 1 14 2 13 3 11 4 12 5 10 7 9 8 8 9 5 10 6 11 88 12 7 13
REMARK SMILES IDX 87 14 2 15 1 16 3 17 4 18 80 19 81 20 86 21 82 22 84 23
REMARK SMILES IDX 83 24 85 25 16 26 17 27 18 28 19 30 20 31 21 32 79 33 22 34
REMARK SMILES IDX 78 35 23 36 24 37 25 38 72 39 26 40 77 41 71 42 73 43 27 44
REMARK SMILES IDX 76 45 70 46 69 47 28 49 58 50 39 51 57 52 40 53 43 54 56 55
REMARK SMILES IDX 74 56 41 57 42 58 55 60 75 61 44 62 29 63 30 64 38 65 31 66
REMARK SMILES IDX 37 67 32 68 33 69 34 70 35 71 36 72 59 73 60 74 68 75 61 76
REMARK SMILES IDX 67 77 62 78 63 79 64 80 65 81 66 82 45 83 46 84 54 85 47 86
REMARK SMILES IDX 53 87 48 88 49 89 50 90 51 91 52 92
REMARK H PARENT 13 6 17 29 73 48 43 59
REMARK Flexibility Score: inf
ROOT
ATOM      1  C   UNL A   1      42.141  21.551  25.982  1.00  0.00     0.042 C 
ENDROOT
BRANCH   1   2
ATOM      2  C   UNL A   1      43.214  22.588  26.311  1.00  0.00     0.118 C 
BRANCH   2   3
ATOM      3  N   UNL A   1      44.125  22.754  25.194  1.00  0.00    -0.352 N 
ATOM      4  C   UNL A   1      44.908  23.771  24.753  1.00  0.00     0.251 C 
ATOM      5  O   UNL A   1      45.546  23.547  23.721  1.00  0.00    -0.269 OA
ATOM      6  H   UNL A   1      44.188  21.950  24.630  1.00  0.00     0.163 HD
BRANCH   4   7
ATOM      7  C   UNL A   1      45.093  25.074  25.501  1.00  0.00     0.047 C 
ATOM      8  C   UNL A   1      44.243  26.117  25.346  1.00  0.00     0.022 C 
BRANCH   8   9
ATOM      9  C   UNL A   1      44.194  27.402  26.084  1.00  0.00    -0.025 A 
ATOM     10  C   UNL A   1      44.358  29.934  27.299  1.00  0.00     0.067 A 
ATOM     11  C   UNL A   1      43.182  29.538  26.657  1.00  0.00     0.021 A 
ATOM     12  C   UNL A   1      45.428  29.047  27.408  1.00  0.00     0.021 A 
ATOM     13  C   UNL A   1      43.094  28.267  26.081  1.00  0.00     0.009 A 
ATOM     14  C   UNL A   1      45.341  27.788  26.799  1.00  0.00     0.009 A 
BRANCH  10  15
ATOM     15  S   UNL A   1      44.441  31.590  27.936  1.00  0.00     0.175 S 
ATOM     16  C   UNL A   1      44.313  32.689  26.554  1.00  0.00     0.163 C 
ATOM     17  O   UNL A   1      45.769  31.763  28.493  1.00  0.00    -0.224 OA
ATOM     18  O   UNL A   1      43.258  31.773  28.758  1.00  0.00    -0.224 OA
ENDBRANCH  10  15
ENDBRANCH   8   9
BRANCH   7  19
ATOM     19  C   UNL A   1      46.352  25.218  26.279  1.00  0.00    -0.012 A 
ATOM     20  C   UNL A   1      46.353  24.827  27.631  1.00  0.00     0.009 A 
ATOM     21  C   UNL A   1      47.556  25.630  25.694  1.00  0.00     0.024 A 
ATOM     22  C   UNL A   1      47.531  24.816  28.377  1.00  0.00     0.002 A 
ATOM     23  C   UNL A   1      48.738  25.585  26.439  1.00  0.00     0.018 A 
ATOM     24  C   UNL A   1      48.731  25.179  27.774  1.00  0.00     0.016 A 
ATOM     25  Br  UNL A   1      50.382  26.018  25.611  1.00  0.00    -0.051 Br
ENDBRANCH   7  19
ENDBRANCH   4   7
ENDBRANCH   2   3
ENDBRANCH   1   2
BRANCH   1  26
ATOM     26  C   UNL A   1      40.896  21.660  26.864  1.00  0.00     0.118 C 
BRANCH  26  27
ATOM     27  N   UNL A   1      39.697  21.944  26.086  1.00  0.00    -0.352 N 
ATOM     28  C   UNL A   1      38.872  23.040  26.105  1.00  0.00     0.251 C 
ATOM     29  H   UNL A   1      39.440  21.242  25.447  1.00  0.00     0.163 HD
ATOM     30  O   UNL A   1      37.776  22.977  25.554  1.00  0.00    -0.269 OA
BRANCH  28  31
ATOM     31  C   UNL A   1      39.286  24.285  26.788  1.00  0.00     0.039 A 
ATOM     32  C   UNL A   1      38.872  24.504  28.105  1.00  0.00     0.014 A 
ATOM     33  C   UNL A   1      40.043  25.255  26.124  1.00  0.00     0.014 A 
ATOM     34  C   UNL A   1      39.263  25.668  28.772  1.00  0.00     0.010 A 
ATOM     35  C   UNL A   1      40.495  26.378  26.814  1.00  0.00     0.010 A 
ATOM     36  C   UNL A   1      40.106  26.599  28.144  1.00  0.00    -0.014 A 
BRANCH  36  37
ATOM     37  C   UNL A   1      40.591  27.805  28.862  1.00  0.00     0.031 A 
ATOM     38  C   UNL A   1      41.954  27.813  29.503  1.00  0.00     0.074 A 
ATOM     39  C   UNL A   1      39.780  28.875  28.987  1.00  0.00     0.049 A 
ATOM     40  N   UNL A   1      42.519  28.746  30.226  1.00  0.00    -0.248 NA
ATOM     41  C   UNL A   1      42.778  26.606  29.331  1.00  0.00     0.031 C 
ATOM     42  C   UNL A   1      38.423  28.975  28.445  1.00  0.00     0.029 A 
ATOM     43  N   UNL A   1      39.973  30.079  29.617  1.00  0.00    -0.354 N 
ATOM     44  C   UNL A   1      43.758  28.237  30.601  1.00  0.00     0.074 A 
ATOM     45  C   UNL A   1      43.838  26.892  30.073  1.00  0.00     0.031 C 
ATOM     46  C   UNL A   1      37.915  30.180  28.749  1.00  0.00     0.029 A 
ATOM     47  C   UNL A   1      38.890  30.921  29.544  1.00  0.00     0.049 A 
ATOM     48  H   UNL A   1      40.810  30.317  30.079  1.00  0.00     0.167 HD
ATOM     49  C   UNL A   1      44.748  28.841  31.299  1.00  0.00     0.031 A 
ATOM     50  C   UNL A   1      38.692  32.147  30.068  1.00  0.00     0.031 A 
ATOM     51  C   UNL A   1      44.664  30.181  31.821  1.00  0.00     0.049 A 
ATOM     52  C   UNL A   1      39.798  32.790  30.860  1.00  0.00     0.074 A 
ATOM     53  C   UNL A   1      45.627  30.898  32.510  1.00  0.00     0.029 A 
ATOM     54  N   UNL A   1      43.554  31.004  31.714  1.00  0.00    -0.354 N 
ATOM     55  N   UNL A   1      40.985  32.313  31.153  1.00  0.00    -0.248 NA
ATOM     56  C   UNL A   1      39.545  34.141  31.378  1.00  0.00     0.031 C 
ATOM     57  C   UNL A   1      45.080  32.134  32.867  1.00  0.00     0.029 A 
ATOM     58  C   UNL A   1      43.799  32.215  32.341  1.00  0.00     0.049 A 
ATOM     59  H   UNL A   1      42.715  30.765  31.259  1.00  0.00     0.167 HD
ATOM     60  C   UNL A   1      41.629  33.317  31.868  1.00  0.00     0.074 A 
ATOM     61  C   UNL A   1      40.707  34.432  31.944  1.00  0.00     0.031 C 
ATOM     62  C   UNL A   1      42.872  33.316  32.410  1.00  0.00     0.031 A 
BRANCH  49  63
ATOM     63  C   UNL A   1      46.014  28.057  31.538  1.00  0.00    -0.014 A 
ATOM     64  C   UNL A   1      46.126  27.177  32.631  1.00  0.00     0.010 A 
ATOM     65  C   UNL A   1      47.089  28.164  30.637  1.00  0.00     0.010 A 
ATOM     66  C   UNL A   1      47.300  26.452  32.841  1.00  0.00     0.020 A 
ATOM     67  C   UNL A   1      48.256  27.416  30.826  1.00  0.00     0.020 A 
ATOM     68  C   UNL A   1      48.359  26.578  31.938  1.00  0.00     0.054 A 
BRANCH  68  69
ATOM     69  S   UNL A   1      49.862  25.602  32.222  1.00  0.00     0.124 S 
ATOM     70  O   UNL A   1      50.077  24.993  30.911  1.00  0.00    -0.237 OA
ATOM     71  O   UNL A   1      50.835  26.619  32.608  1.00  0.00    -0.237 OA
ATOM     72  O   UNL A   1      49.478  24.674  33.283  1.00  0.00    -0.744 OA
ENDBRANCH  68  69
ENDBRANCH  49  63
BRANCH  50  73
ATOM     73  C   UNL A   1      37.391  32.842  29.862  1.00  0.00    -0.014 A 
ATOM     74  C   UNL A   1      37.017  33.309  28.589  1.00  0.00     0.010 A 
ATOM     75  C   UNL A   1      36.511  33.033  30.943  1.00  0.00     0.010 A 
ATOM     76  C   UNL A   1      35.799  33.970  28.406  1.00  0.00     0.020 A 
ATOM     77  C   UNL A   1      35.278  33.665  30.759  1.00  0.00     0.020 A 
ATOM     78  C   UNL A   1      34.936  34.142  29.493  1.00  0.00     0.054 A 
BRANCH  78  79
ATOM     79  S   UNL A   1      33.339  34.960  29.223  1.00  0.00     0.124 S 
ATOM     80  O   UNL A   1      32.745  34.128  28.182  1.00  0.00    -0.237 OA
ATOM     81  O   UNL A   1      32.714  34.870  30.540  1.00  0.00    -0.237 OA
ATOM     82  O   UNL A   1      33.712  36.311  28.811  1.00  0.00    -0.744 OA
ENDBRANCH  78  79
ENDBRANCH  50  73
BRANCH  62  83
ATOM     83  C   UNL A   1      43.327  34.573  33.105  1.00  0.00    -0.014 A 
ATOM     84  C   UNL A   1      43.230  34.714  34.501  1.00  0.00     0.010 A 
ATOM     85  C   UNL A   1      43.915  35.606  32.351  1.00  0.00     0.010 A 
ATOM     86  C   UNL A   1      43.680  35.880  35.125  1.00  0.00     0.020 A 
ATOM     87  C   UNL A   1      44.394  36.759  32.976  1.00  0.00     0.020 A 
ATOM     88  C   UNL A   1      44.260  36.895  34.358  1.00  0.00     0.054 A 
BRANCH  88  89
ATOM     89  S   UNL A   1      44.878  38.379  35.199  1.00  0.00     0.124 S 
ATOM     90  O   UNL A   1      46.292  38.059  35.377  1.00  0.00    -0.237 OA
ATOM     91  O   UNL A   1      44.589  39.436  34.235  1.00  0.00    -0.237 OA
ATOM     92  O   UNL A   1      44.092  38.432  36.430  1.00  0.00    -0.744 OA
ENDBRANCH  88  89
ENDBRANCH  62  83
ENDBRANCH  36  37
ENDBRANCH  28  31
ENDBRANCH  26  27
ENDBRANCH   1  26
TORSDOF 16
ENDMDL
MODEL 3
REMARK VINA RESULT:     -11.1      2.334      2.911
REMARK SMILES CS(=O)(=O)c1ccc(/C=C(/C(=O)NCCCNC(=O)c2ccc(-c3c4nc(c(-c5ccc(S(=O)(=O)[O-])cc5)c5ccc([nH]5)c(-c5ccc(S(=O)(=O)[O-])cc5)c5nc(c(-c6ccc(S(=O)(=O)[O-])cc6)c6ccc3[nH]6)C=C5)C=C4)cc2)c2cccc(Br)c2)cc1
REMARK SMILES IDX 15 1 14 2 13 3 11 4 12 5 10 7 9 8 8 9 5 10 6 11 88 12 7 13
REMARK SMILES IDX 87 14 2 15 1 16 3 17 4 18 80 19 81 20 86 21 82 22 84 23
REMARK SMILES IDX 83 24 85 25 16 26 17 27 18 28 19 30 20 31 21 32 79 33 22 34
REMARK SMILES IDX 78 35 23 36 24 37 25 38 72 39 26 40 77 41 71 42 73 43 27 44
REMARK SMILES IDX 76 45 70 46 69 47 28 49 58 50 39 51 57 52 40 53 43 54 56 55
REMARK SMILES IDX 74 56 41 57 42 58 55 60 75 61 44 62 29 63 30 64 38 65 31 66
REMARK SMILES IDX 37 67 32 68 33 69 34 70 35 71 36 72 59 73 60 74 68 75 61 76
REMARK SMILES IDX 67 77 62 78 63 79 64 80 65 81 66 82 45 83 46 84 54 85 47 86
REMARK SMILES IDX 53 87 48 88 49 89 50 90 51 91 52 92
REMARK H PARENT 13 6 17 29 73 48 43 59
REMARK Flexibility Score: inf
ROOT
ATOM      1  C   UNL A   1      32.702  27.552  26.844  1.00  0.00     0.042 C 
ENDROOT
BRANCH   1   2
ATOM      2  C   UNL A   1      32.562  26.171  26.203  1.00  0.00     0.118 C 
BRANCH   2   3
ATOM      3  N   UNL A   1      32.571  26.277  24.756  1.00  0.00    -0.352 N 
ATOM      4  C   UNL A   1      32.868  25.419  23.746  1.00  0.00     0.251 C 
ATOM      5  O   UNL A   1      32.783  25.885  22.607  1.00  0.00    -0.269 OA
ATOM      6  H   UNL A   1      32.303  27.167  24.436  1.00  0.00     0.163 HD
BRANCH   4   7
ATOM      7  C   UNL A   1      33.189  23.955  23.954  1.00  0.00     0.047 C 
ATOM      8  C   UNL A   1      32.222  23.032  24.166  1.00  0.00     0.022 C 
BRANCH   8   9
ATOM      9  C   UNL A   1      32.339  21.556  24.258  1.00  0.00    -0.025 A 
ATOM     10  C   UNL A   1      32.805  18.783  24.210  1.00  0.00     0.067 A 
ATOM     11  C   UNL A   1      32.904  19.491  25.410  1.00  0.00     0.021 A 
ATOM     12  C   UNL A   1      32.396  19.432  23.046  1.00  0.00     0.021 A 
ATOM     13  C   UNL A   1      32.643  20.864  25.435  1.00  0.00     0.009 A 
ATOM     14  C   UNL A   1      32.168  20.814  23.076  1.00  0.00     0.009 A 
BRANCH  10  15
ATOM     15  S   UNL A   1      33.233  17.059  24.223  1.00  0.00     0.175 S 
ATOM     16  C   UNL A   1      34.877  16.933  24.867  1.00  0.00     0.163 C 
ATOM     17  O   UNL A   1      33.284  16.625  22.840  1.00  0.00    -0.224 OA
ATOM     18  O   UNL A   1      32.337  16.421  25.172  1.00  0.00    -0.224 OA
ENDBRANCH  10  15
ENDBRANCH   8   9
BRANCH   7  19
ATOM     19  C   UNL A   1      34.628  23.606  24.092  1.00  0.00    -0.012 A 
ATOM     20  C   UNL A   1      35.284  23.017  22.995  1.00  0.00     0.009 A 
ATOM     21  C   UNL A   1      35.376  23.931  25.231  1.00  0.00     0.024 A 
ATOM     22  C   UNL A   1      36.658  22.784  23.016  1.00  0.00     0.002 A 
ATOM     23  C   UNL A   1      36.759  23.727  25.231  1.00  0.00     0.018 A 
ATOM     24  C   UNL A   1      37.402  23.158  24.131  1.00  0.00     0.016 A 
ATOM     25  Br  UNL A   1      37.786  24.285  26.718  1.00  0.00    -0.051 Br
ENDBRANCH   7  19
ENDBRANCH   4   7
ENDBRANCH   2   3
ENDBRANCH   1   2
BRANCH   1  26
ATOM     26  C   UNL A   1      33.902  28.346  26.326  1.00  0.00     0.118 C 
BRANCH  26  27
ATOM     27  N   UNL A   1      33.743  29.779  26.536  1.00  0.00    -0.352 N 
ATOM     28  C   UNL A   1      34.408  30.626  27.386  1.00  0.00     0.251 C 
ATOM     29  H   UNL A   1      33.050  30.206  25.983  1.00  0.00     0.163 HD
ATOM     30  O   UNL A   1      33.955  31.748  27.594  1.00  0.00    -0.269 OA
BRANCH  28  31
ATOM     31  C   UNL A   1      35.655  30.195  28.056  1.00  0.00     0.039 A 
ATOM     32  C   UNL A   1      36.867  30.315  27.370  1.00  0.00     0.014 A 
ATOM     33  C   UNL A   1      35.630  29.635  29.337  1.00  0.00     0.014 A 
ATOM     34  C   UNL A   1      38.057  29.925  27.989  1.00  0.00     0.010 A 
ATOM     35  C   UNL A   1      36.824  29.317  29.980  1.00  0.00     0.010 A 
ATOM     36  C   UNL A   1      38.050  29.455  29.312  1.00  0.00    -0.014 A 
BRANCH  36  37
ATOM     37  C   UNL A   1      39.313  29.105  30.012  1.00  0.00     0.031 A 
ATOM     38  C   UNL A   1      39.757  29.888  31.219  1.00  0.00     0.074 A 
ATOM     39  C   UNL A   1      40.091  28.117  29.524  1.00  0.00     0.049 A 
ATOM     40  N   UNL A   1      40.858  29.773  31.917  1.00  0.00    -0.248 NA
ATOM     41  C   UNL A   1      38.859  30.956  31.688  1.00  0.00     0.031 C 
ATOM     42  C   UNL A   1      39.791  27.312  28.338  1.00  0.00     0.029 A 
ATOM     43  N   UNL A   1      41.298  27.629  29.957  1.00  0.00    -0.354 N 
ATOM     44  C   UNL A   1      40.789  30.754  32.899  1.00  0.00     0.074 A 
ATOM     45  C   UNL A   1      39.566  31.494  32.671  1.00  0.00     0.031 C 
ATOM     46  C   UNL A   1      40.776  26.419  28.152  1.00  0.00     0.029 A 
ATOM     47  C   UNL A   1      41.798  26.615  29.174  1.00  0.00     0.049 A 
ATOM     48  H   UNL A   1      41.763  27.972  30.754  1.00  0.00     0.167 HD
ATOM     49  C   UNL A   1      41.652  31.004  33.912  1.00  0.00     0.031 A 
ATOM     50  C   UNL A   1      42.954  25.929  29.258  1.00  0.00     0.031 A 
ATOM     51  C   UNL A   1      42.868  30.265  34.135  1.00  0.00     0.049 A 
ATOM     52  C   UNL A   1      43.909  26.239  30.378  1.00  0.00     0.074 A 
ATOM     53  C   UNL A   1      43.791  30.416  35.155  1.00  0.00     0.029 A 
ATOM     54  N   UNL A   1      43.330  29.239  33.327  1.00  0.00    -0.354 N 
ATOM     55  N   UNL A   1      43.796  27.134  31.331  1.00  0.00    -0.248 NA
ATOM     56  C   UNL A   1      45.138  25.438  30.445  1.00  0.00     0.031 C 
ATOM     57  C   UNL A   1      44.839  29.517  34.933  1.00  0.00     0.029 A 
ATOM     58  C   UNL A   1      44.535  28.760  33.812  1.00  0.00     0.049 A 
ATOM     59  H   UNL A   1      42.870  28.899  32.526  1.00  0.00     0.167 HD
ATOM     60  C   UNL A   1      44.928  26.985  32.126  1.00  0.00     0.074 A 
ATOM     61  C   UNL A   1      45.700  25.901  31.552  1.00  0.00     0.031 C 
ATOM     62  C   UNL A   1      45.294  27.681  33.230  1.00  0.00     0.031 A 
BRANCH  49  63
ATOM     63  C   UNL A   1      41.310  32.125  34.861  1.00  0.00    -0.014 A 
ATOM     64  C   UNL A   1      40.610  31.874  36.057  1.00  0.00     0.010 A 
ATOM     65  C   UNL A   1      41.731  33.438  34.581  1.00  0.00     0.010 A 
ATOM     66  C   UNL A   1      40.302  32.919  36.931  1.00  0.00     0.020 A 
ATOM     67  C   UNL A   1      41.452  34.482  35.469  1.00  0.00     0.020 A 
ATOM     68  C   UNL A   1      40.724  34.217  36.631  1.00  0.00     0.054 A 
BRANCH  68  69
ATOM     69  S   UNL A   1      40.332  35.547  37.800  1.00  0.00     0.124 S 
ATOM     70  O   UNL A   1      40.132  36.685  36.904  1.00  0.00    -0.237 OA
ATOM     71  O   UNL A   1      39.129  35.049  38.460  1.00  0.00    -0.237 OA
ATOM     72  O   UNL A   1      41.519  35.626  38.648  1.00  0.00    -0.744 OA
ENDBRANCH  68  69
ENDBRANCH  49  63
BRANCH  50  73
ATOM     73  C   UNL A   1      43.273  24.884  28.245  1.00  0.00    -0.014 A 
ATOM     74  C   UNL A   1      42.825  23.561  28.411  1.00  0.00     0.010 A 
ATOM     75  C   UNL A   1      44.021  25.212  27.099  1.00  0.00     0.010 A 
ATOM     76  C   UNL A   1      43.137  22.583  27.462  1.00  0.00     0.020 A 
ATOM     77  C   UNL A   1      44.308  24.245  26.133  1.00  0.00     0.020 A 
ATOM     78  C   UNL A   1      43.875  22.932  26.327  1.00  0.00     0.054 A 
BRANCH  78  79
ATOM     79  S   UNL A   1      44.227  21.658  25.084  1.00  0.00     0.124 S 
ATOM     80  O   UNL A   1      43.207  20.658  25.378  1.00  0.00    -0.237 OA
ATOM     81  O   UNL A   1      44.058  22.388  23.830  1.00  0.00    -0.237 OA
ATOM     82  O   UNL A   1      45.601  21.261  25.382  1.00  0.00    -0.744 OA
ENDBRANCH  78  79
ENDBRANCH  50  73
BRANCH  62  83
ATOM     83  C   UNL A   1      46.569  27.270  33.919  1.00  0.00    -0.014 A 
ATOM     84  C   UNL A   1      47.800  27.867  33.596  1.00  0.00     0.010 A 
ATOM     85  C   UNL A   1      46.522  26.309  34.947  1.00  0.00     0.010 A 
ATOM     86  C   UNL A   1      48.966  27.485  34.264  1.00  0.00     0.020 A 
ATOM     87  C   UNL A   1      47.681  25.949  35.638  1.00  0.00     0.020 A 
ATOM     88  C   UNL A   1      48.899  26.529  35.282  1.00  0.00     0.054 A 
BRANCH  88  89
ATOM     89  S   UNL A   1      50.421  26.086  36.165  1.00  0.00     0.124 S 
ATOM     90  O   UNL A   1      50.266  24.642  36.327  1.00  0.00    -0.237 OA
ATOM     91  O   UNL A   1      51.464  26.506  35.233  1.00  0.00    -0.237 OA
ATOM     92  O   UNL A   1      50.345  26.864  37.400  1.00  0.00    -0.744 OA
ENDBRANCH  88  89
ENDBRANCH  62  83
ENDBRANCH  36  37
ENDBRANCH  28  31
ENDBRANCH  26  27
ENDBRANCH   1  26
TORSDOF 16
ENDMDL
