MODEL 1
REMARK VINA RESULT:     -11.9      0.000      0.000
REMARK SMILES Cc1cc(Cl)cc2c1O[C@H](C(F)(F)F)C(C(=O)NCCCNC(=O)c1ccc(-c3c4nc(c(-c5ccc(S(=O)(=O)[O-])cc5)c5ccc([nH]5)c(-c5ccc(S(=O)(=O)[O-])cc5)c5nc(c(-c6ccc(S(=O)(=O)[O-])cc6)c6ccc3[nH]6)C=C5)C=C4)cc1)=C2
REMARK SMILES IDX 21 1 20 2 19 3 18 4 16 5 17 6 15 8 1 9 2 10 3 11 8 12 4 13
REMARK SMILES IDX 7 14 9 15 5 16 6 17 85 18 10 19 11 20 12 21 13 22 14 23
REMARK SMILES IDX 22 24 23 25 24 27 25 28 26 29 84 30 27 31 83 32 28 33 29 34
REMARK SMILES IDX 30 35 77 36 31 37 82 38 76 39 78 40 32 41 81 42 75 43 74 44
REMARK SMILES IDX 33 46 63 47 44 48 62 49 45 50 48 51 61 52 79 53 46 54 47 55
REMARK SMILES IDX 60 57 80 58 49 59 34 60 35 61 43 62 36 63 42 64 37 65 38 66
REMARK SMILES IDX 39 67 40 68 41 69 64 70 65 71 73 72 66 73 72 74 67 75 68 76
REMARK SMILES IDX 69 77 70 78 71 79 50 80 51 81 59 82 52 83 58 84 53 85 54 86
REMARK SMILES IDX 55 87 56 88 57 89
REMARK H PARENT 18 7 22 26 78 45 48 56
REMARK Flexibility Score: inf
ROOT
ATOM      1  C   UNL A   1      33.401  28.389  27.044  1.00  0.00     0.118 C 
ENDROOT
BRANCH   1   2
ATOM      2  C   UNL A   1      33.887  27.960  25.666  1.00  0.00     0.042 C 
BRANCH   2   3
ATOM      3  C   UNL A   1      32.772  27.352  24.830  1.00  0.00     0.118 C 
BRANCH   3   4
ATOM      4  N   UNL A   1      31.788  26.663  25.652  1.00  0.00    -0.352 N 
ATOM      5  C   UNL A   1      31.572  25.402  26.095  1.00  0.00     0.251 C 
ATOM      6  O   UNL A   1      30.581  25.258  26.817  1.00  0.00    -0.270 OA
ATOM      7  H   UNL A   1      31.090  27.279  25.971  1.00  0.00     0.163 HD
BRANCH   5   8
ATOM      8  C   UNL A   1      32.433  24.226  25.781  1.00  0.00     0.067 C 
ATOM      9  C   UNL A   1      34.330  19.589  24.687  1.00  0.00     0.048 C 
ATOM     10  C   UNL A   1      34.916  20.902  25.120  1.00  0.00    -0.007 A 
ATOM     11  C   UNL A   1      36.299  21.041  25.289  1.00  0.00     0.027 A 
ATOM     12  C   UNL A   1      34.093  21.999  25.407  1.00  0.00     0.131 A 
ATOM     13  C   UNL A   1      36.835  22.256  25.718  1.00  0.00     0.042 A 
ATOM     14  C   UNL A   1      34.626  23.218  25.836  1.00  0.00     0.019 A 
ATOM     15  O   UNL A   1      32.744  21.807  25.295  1.00  0.00    -0.475 OA
ATOM     16  Cl  UNL A   1      38.539  22.409  25.918  1.00  0.00    -0.084 Cl
ATOM     17  C   UNL A   1      36.008  23.345  25.993  1.00  0.00     0.032 A 
ATOM     18  C   UNL A   1      33.726  24.324  26.144  1.00  0.00     0.025 C 
ATOM     19  C   UNL A   1      31.944  22.996  25.075  1.00  0.00     0.314 C 
BRANCH  19  20
ATOM     20  C   UNL A   1      31.762  23.215  23.560  1.00  0.00     0.429 C 
ATOM     21  F   UNL A   1      31.974  22.059  22.884  1.00  0.00    -0.167 F 
ATOM     22  F   UNL A   1      30.512  23.624  23.238  1.00  0.00    -0.167 F 
ATOM     23  F   UNL A   1      32.613  24.138  23.058  1.00  0.00    -0.167 F 
ENDBRANCH  19  20
ENDBRANCH   5   8
ENDBRANCH   3   4
ENDBRANCH   2   3
ENDBRANCH   1   2
BRANCH   1  24
ATOM     24  N   UNL A   1      33.410  29.843  27.191  1.00  0.00    -0.352 N 
ATOM     25  C   UNL A   1      34.318  30.664  27.809  1.00  0.00     0.251 C 
ATOM     26  H   UNL A   1      32.643  30.306  26.783  1.00  0.00     0.163 HD
ATOM     27  O   UNL A   1      34.006  31.820  28.082  1.00  0.00    -0.269 OA
BRANCH  25  28
ATOM     28  C   UNL A   1      35.663  30.155  28.143  1.00  0.00     0.039 A 
ATOM     29  C   UNL A   1      36.663  30.162  27.168  1.00  0.00     0.014 A 
ATOM     30  C   UNL A   1      35.925  29.648  29.418  1.00  0.00     0.014 A 
ATOM     31  C   UNL A   1      37.945  29.720  27.498  1.00  0.00     0.010 A 
ATOM     32  C   UNL A   1      37.221  29.304  29.772  1.00  0.00     0.010 A 
ATOM     33  C   UNL A   1      38.241  29.321  28.812  1.00  0.00    -0.014 A 
BRANCH  33  34
ATOM     34  C   UNL A   1      39.600  28.874  29.201  1.00  0.00     0.031 A 
ATOM     35  C   UNL A   1      40.483  29.796  30.001  1.00  0.00     0.074 A 
ATOM     36  C   UNL A   1      40.049  27.668  28.800  1.00  0.00     0.049 A 
ATOM     37  N   UNL A   1      41.725  29.626  30.373  1.00  0.00    -0.248 NA
ATOM     38  C   UNL A   1      39.903  31.086  30.420  1.00  0.00     0.031 C 
ATOM     39  C   UNL A   1      39.289  26.699  28.006  1.00  0.00     0.029 A 
ATOM     40  N   UNL A   1      41.253  27.047  29.013  1.00  0.00    -0.354 N 
ATOM     41  C   UNL A   1      42.070  30.781  31.066  1.00  0.00     0.074 A 
ATOM     42  C   UNL A   1      40.937  31.674  31.004  1.00  0.00     0.031 C 
ATOM     43  C   UNL A   1      40.028  25.589  27.841  1.00  0.00     0.029 A 
ATOM     44  C   UNL A   1      41.328  25.785  28.473  1.00  0.00     0.049 A 
ATOM     45  H   UNL A   1      41.995  27.466  29.506  1.00  0.00     0.167 HD
ATOM     46  C   UNL A   1      43.216  31.058  31.728  1.00  0.00     0.031 A 
ATOM     47  C   UNL A   1      42.334  24.889  28.487  1.00  0.00     0.031 A 
ATOM     48  C   UNL A   1      44.333  30.157  31.810  1.00  0.00     0.049 A 
ATOM     49  C   UNL A   1      43.619  25.250  29.183  1.00  0.00     0.074 A 
ATOM     50  C   UNL A   1      45.534  30.336  32.473  1.00  0.00     0.029 A 
ATOM     51  N   UNL A   1      44.378  28.901  31.224  1.00  0.00    -0.354 N 
ATOM     52  N   UNL A   1      43.916  26.339  29.853  1.00  0.00    -0.248 NA
ATOM     53  C   UNL A   1      44.704  24.260  29.130  1.00  0.00     0.031 C 
ATOM     54  C   UNL A   1      46.323  29.205  32.253  1.00  0.00     0.029 A 
ATOM     55  C   UNL A   1      45.592  28.300  31.500  1.00  0.00     0.049 A 
ATOM     56  H   UNL A   1      43.655  28.499  30.692  1.00  0.00     0.167 HD
ATOM     57  C   UNL A   1      45.209  26.149  30.327  1.00  0.00     0.074 A 
ATOM     58  C   UNL A   1      45.630  24.837  29.883  1.00  0.00     0.031 C 
ATOM     59  C   UNL A   1      45.982  26.986  31.061  1.00  0.00     0.031 A 
BRANCH  46  60
ATOM     60  C   UNL A   1      43.310  32.370  32.457  1.00  0.00    -0.014 A 
ATOM     61  C   UNL A   1      43.819  33.509  31.808  1.00  0.00     0.010 A 
ATOM     62  C   UNL A   1      42.799  32.493  33.762  1.00  0.00     0.010 A 
ATOM     63  C   UNL A   1      43.821  34.748  32.452  1.00  0.00     0.020 A 
ATOM     64  C   UNL A   1      42.776  33.737  34.400  1.00  0.00     0.020 A 
ATOM     65  C   UNL A   1      43.291  34.856  33.741  1.00  0.00     0.054 A 
BRANCH  65  66
ATOM     66  S   UNL A   1      43.236  36.495  34.515  1.00  0.00     0.124 S 
ATOM     67  O   UNL A   1      43.255  37.379  33.354  1.00  0.00    -0.237 OA
ATOM     68  O   UNL A   1      41.976  36.454  35.252  1.00  0.00    -0.237 OA
ATOM     69  O   UNL A   1      44.439  36.529  35.343  1.00  0.00    -0.744 OA
ENDBRANCH  65  66
ENDBRANCH  46  60
BRANCH  47  70
ATOM     70  C   UNL A   1      42.174  23.555  27.844  1.00  0.00    -0.014 A 
ATOM     71  C   UNL A   1      41.555  22.501  28.542  1.00  0.00     0.010 A 
ATOM     72  C   UNL A   1      42.668  23.316  26.548  1.00  0.00     0.010 A 
ATOM     73  C   UNL A   1      41.470  21.227  27.976  1.00  0.00     0.020 A 
ATOM     74  C   UNL A   1      42.557  22.049  25.966  1.00  0.00     0.020 A 
ATOM     75  C   UNL A   1      41.977  21.007  26.692  1.00  0.00     0.054 A 
BRANCH  75  76
ATOM     76  S   UNL A   1      41.857  19.344  25.979  1.00  0.00     0.124 S 
ATOM     77  O   UNL A   1      40.427  19.235  25.705  1.00  0.00    -0.237 OA
ATOM     78  O   UNL A   1      42.722  19.441  24.807  1.00  0.00    -0.237 OA
ATOM     79  O   UNL A   1      42.358  18.477  27.044  1.00  0.00    -0.744 OA
ENDBRANCH  75  76
ENDBRANCH  47  70
BRANCH  59  80
ATOM     80  C   UNL A   1      47.348  26.500  31.463  1.00  0.00    -0.014 A 
ATOM     81  C   UNL A   1      47.550  25.841  32.687  1.00  0.00     0.010 A 
ATOM     82  C   UNL A   1      48.424  26.630  30.564  1.00  0.00     0.010 A 
ATOM     83  C   UNL A   1      48.812  25.341  33.018  1.00  0.00     0.020 A 
ATOM     84  C   UNL A   1      49.679  26.105  30.878  1.00  0.00     0.020 A 
ATOM     85  C   UNL A   1      49.866  25.472  32.108  1.00  0.00     0.054 A 
BRANCH  85  86
ATOM     86  S   UNL A   1      51.476  24.758  32.539  1.00  0.00     0.124 S 
ATOM     87  O   UNL A   1      51.557  25.032  33.972  1.00  0.00    -0.237 OA
ATOM     88  O   UNL A   1      51.308  23.353  32.178  1.00  0.00    -0.237 OA
ATOM     89  O   UNL A   1      52.421  25.502  31.709  1.00  0.00    -0.744 OA
ENDBRANCH  85  86
ENDBRANCH  59  80
ENDBRANCH  33  34
ENDBRANCH  25  28
ENDBRANCH   1  24
TORSDOF 14
ENDMDL
MODEL 2
REMARK VINA RESULT:     -11.7      2.939      9.364
REMARK SMILES Cc1cc(Cl)cc2c1O[C@H](C(F)(F)F)C(C(=O)NCCCNC(=O)c1ccc(-c3c4nc(c(-c5ccc(S(=O)(=O)[O-])cc5)c5ccc([nH]5)c(-c5ccc(S(=O)(=O)[O-])cc5)c5nc(c(-c6ccc(S(=O)(=O)[O-])cc6)c6ccc3[nH]6)C=C5)C=C4)cc1)=C2
REMARK SMILES IDX 21 1 20 2 19 3 18 4 16 5 17 6 15 8 1 9 2 10 3 11 8 12 4 13
REMARK SMILES IDX 7 14 9 15 5 16 6 17 85 18 10 19 11 20 12 21 13 22 14 23
REMARK SMILES IDX 22 24 23 25 24 27 25 28 26 29 84 30 27 31 83 32 28 33 29 34
REMARK SMILES IDX 30 35 77 36 31 37 82 38 76 39 78 40 32 41 81 42 75 43 74 44
REMARK SMILES IDX 33 46 63 47 44 48 62 49 45 50 48 51 61 52 79 53 46 54 47 55
REMARK SMILES IDX 60 57 80 58 49 59 34 60 35 61 43 62 36 63 42 64 37 65 38 66
REMARK SMILES IDX 39 67 40 68 41 69 64 70 65 71 73 72 66 73 72 74 67 75 68 76
REMARK SMILES IDX 69 77 70 78 71 79 50 80 51 81 59 82 52 83 58 84 53 85 54 86
REMARK SMILES IDX 55 87 56 88 57 89
REMARK H PARENT 18 7 22 26 78 45 48 56
REMARK Flexibility Score: inf
ROOT
ATOM      1  C   UNL A   1      36.555  23.479  25.647  1.00  0.00     0.118 C 
ENDROOT
BRANCH   1   2
ATOM      2  C   UNL A   1      35.390  23.180  26.580  1.00  0.00     0.042 C 
BRANCH   2   3
ATOM      3  C   UNL A   1      34.069  23.082  25.833  1.00  0.00     0.118 C 
BRANCH   3   4
ATOM      4  N   UNL A   1      34.231  23.314  24.405  1.00  0.00    -0.352 N 
ATOM      5  C   UNL A   1      33.944  24.297  23.520  1.00  0.00     0.251 C 
ATOM      6  O   UNL A   1      34.288  24.077  22.355  1.00  0.00    -0.270 OA
ATOM      7  H   UNL A   1      34.667  22.550  23.963  1.00  0.00     0.163 HD
BRANCH   5   8
ATOM      8  C   UNL A   1      33.269  25.582  23.860  1.00  0.00     0.067 C 
ATOM      9  C   UNL A   1      30.319  29.775  24.009  1.00  0.00     0.048 C 
ATOM     10  C   UNL A   1      31.553  29.316  24.733  1.00  0.00    -0.007 A 
ATOM     11  C   UNL A   1      32.134  30.119  25.723  1.00  0.00     0.027 A 
ATOM     12  C   UNL A   1      32.172  28.103  24.405  1.00  0.00     0.131 A 
ATOM     13  C   UNL A   1      33.296  29.699  26.374  1.00  0.00     0.042 A 
ATOM     14  C   UNL A   1      33.335  27.679  25.055  1.00  0.00     0.019 A 
ATOM     15  O   UNL A   1      31.614  27.378  23.389  1.00  0.00    -0.475 OA
ATOM     16  Cl  UNL A   1      33.995  30.697  27.590  1.00  0.00    -0.084 Cl
ATOM     17  C   UNL A   1      33.900  28.485  26.046  1.00  0.00     0.032 A 
ATOM     18  C   UNL A   1      33.955  26.418  24.662  1.00  0.00     0.025 C 
ATOM     19  C   UNL A   1      31.894  25.956  23.388  1.00  0.00     0.314 C 
BRANCH  19  20
ATOM     20  C   UNL A   1      30.782  25.217  24.158  1.00  0.00     0.429 C 
ATOM     21  F   UNL A   1      31.219  24.846  25.387  1.00  0.00    -0.167 F 
ATOM     22  F   UNL A   1      29.684  25.986  24.357  1.00  0.00    -0.167 F 
ATOM     23  F   UNL A   1      30.362  24.099  23.524  1.00  0.00    -0.167 F 
ENDBRANCH  19  20
ENDBRANCH   5   8
ENDBRANCH   3   4
ENDBRANCH   2   3
ENDBRANCH   1   2
BRANCH   1  24
ATOM     24  N   UNL A   1      37.670  22.559  25.863  1.00  0.00    -0.352 N 
ATOM     25  C   UNL A   1      38.960  22.810  26.255  1.00  0.00     0.251 C 
ATOM     26  H   UNL A   1      37.463  21.611  25.701  1.00  0.00     0.163 HD
ATOM     27  O   UNL A   1      39.822  21.948  26.098  1.00  0.00    -0.269 OA
BRANCH  25  28
ATOM     28  C   UNL A   1      39.306  24.109  26.863  1.00  0.00     0.039 A 
ATOM     29  C   UNL A   1      38.924  24.377  28.180  1.00  0.00     0.014 A 
ATOM     30  C   UNL A   1      39.988  25.074  26.118  1.00  0.00     0.014 A 
ATOM     31  C   UNL A   1      39.289  25.589  28.767  1.00  0.00     0.010 A 
ATOM     32  C   UNL A   1      40.435  26.234  26.733  1.00  0.00     0.010 A 
ATOM     33  C   UNL A   1      40.077  26.511  28.058  1.00  0.00    -0.014 A 
BRANCH  33  34
ATOM     34  C   UNL A   1      40.505  27.795  28.664  1.00  0.00     0.031 A 
ATOM     35  C   UNL A   1      41.922  27.948  29.152  1.00  0.00     0.074 A 
ATOM     36  C   UNL A   1      39.614  28.796  28.812  1.00  0.00     0.049 A 
ATOM     37  N   UNL A   1      42.470  28.956  29.777  1.00  0.00    -0.248 NA
ATOM     38  C   UNL A   1      42.836  26.813  28.927  1.00  0.00     0.031 C 
ATOM     39  C   UNL A   1      38.211  28.754  28.393  1.00  0.00     0.029 A 
ATOM     40  N   UNL A   1      39.761  30.049  29.348  1.00  0.00    -0.354 N 
ATOM     41  C   UNL A   1      43.787  28.578  30.017  1.00  0.00     0.074 A 
ATOM     42  C   UNL A   1      43.939  27.224  29.538  1.00  0.00     0.031 C 
ATOM     43  C   UNL A   1      37.640  29.943  28.646  1.00  0.00     0.029 A 
ATOM     44  C   UNL A   1      38.619  30.814  29.287  1.00  0.00     0.049 A 
ATOM     45  H   UNL A   1      40.604  30.371  29.742  1.00  0.00     0.167 HD
ATOM     46  C   UNL A   1      44.790  29.307  30.556  1.00  0.00     0.031 A 
ATOM     47  C   UNL A   1      38.391  32.075  29.702  1.00  0.00     0.031 A 
ATOM     48  C   UNL A   1      44.643  30.662  31.011  1.00  0.00     0.049 A 
ATOM     49  C   UNL A   1      39.514  32.840  30.351  1.00  0.00     0.074 A 
ATOM     50  C   UNL A   1      45.604  31.494  31.555  1.00  0.00     0.029 A 
ATOM     51  N   UNL A   1      43.464  31.388  30.957  1.00  0.00    -0.354 N 
ATOM     52  N   UNL A   1      40.759  32.471  30.547  1.00  0.00    -0.248 NA
ATOM     53  C   UNL A   1      39.204  34.194  30.831  1.00  0.00     0.031 C 
ATOM     54  C   UNL A   1      44.996  32.711  31.870  1.00  0.00     0.029 A 
ATOM     55  C   UNL A   1      43.671  32.655  31.470  1.00  0.00     0.049 A 
ATOM     56  H   UNL A   1      42.608  31.053  30.606  1.00  0.00     0.167 HD
ATOM     57  C   UNL A   1      41.385  33.560  31.143  1.00  0.00     0.074 A 
ATOM     58  C   UNL A   1      40.390  34.605  31.259  1.00  0.00     0.031 C 
ATOM     59  C   UNL A   1      42.668  33.684  31.561  1.00  0.00     0.031 A 
BRANCH  46  60
ATOM     60  C   UNL A   1      46.151  28.673  30.646  1.00  0.00    -0.014 A 
ATOM     61  C   UNL A   1      47.020  28.694  29.540  1.00  0.00     0.010 A 
ATOM     62  C   UNL A   1      46.606  28.141  31.866  1.00  0.00     0.010 A 
ATOM     63  C   UNL A   1      48.317  28.188  29.649  1.00  0.00     0.020 A 
ATOM     64  C   UNL A   1      47.913  27.658  31.986  1.00  0.00     0.020 A 
ATOM     65  C   UNL A   1      48.758  27.683  30.875  1.00  0.00     0.054 A 
BRANCH  65  66
ATOM     66  S   UNL A   1      50.474  27.109  31.003  1.00  0.00     0.124 S 
ATOM     67  O   UNL A   1      50.297  25.692  31.309  1.00  0.00    -0.237 OA
ATOM     68  O   UNL A   1      51.005  27.403  29.674  1.00  0.00    -0.237 OA
ATOM     69  O   UNL A   1      51.031  27.915  32.086  1.00  0.00    -0.744 OA
ENDBRANCH  65  66
ENDBRANCH  46  60
BRANCH  47  70
ATOM     70  C   UNL A   1      37.059  32.712  29.505  1.00  0.00    -0.014 A 
ATOM     71  C   UNL A   1      36.787  33.437  28.331  1.00  0.00     0.010 A 
ATOM     72  C   UNL A   1      36.068  32.631  30.501  1.00  0.00     0.010 A 
ATOM     73  C   UNL A   1      35.569  34.103  28.172  1.00  0.00     0.020 A 
ATOM     74  C   UNL A   1      34.836  33.270  30.333  1.00  0.00     0.020 A 
ATOM     75  C   UNL A   1      34.602  34.019  29.177  1.00  0.00     0.054 A 
BRANCH  75  76
ATOM     76  S   UNL A   1      33.029  34.892  28.950  1.00  0.00     0.124 S 
ATOM     77  O   UNL A   1      33.472  36.185  28.438  1.00  0.00    -0.237 OA
ATOM     78  O   UNL A   1      32.330  34.038  27.994  1.00  0.00    -0.237 OA
ATOM     79  O   UNL A   1      32.452  34.914  30.293  1.00  0.00    -0.744 OA
ENDBRANCH  75  76
ENDBRANCH  47  70
BRANCH  59  80
ATOM     80  C   UNL A   1      43.084  35.004  32.150  1.00  0.00    -0.014 A 
ATOM     81  C   UNL A   1      43.678  35.997  31.353  1.00  0.00     0.010 A 
ATOM     82  C   UNL A   1      42.798  35.283  33.500  1.00  0.00     0.010 A 
ATOM     83  C   UNL A   1      44.001  37.240  31.902  1.00  0.00     0.020 A 
ATOM     84  C   UNL A   1      43.092  36.535  34.044  1.00  0.00     0.020 A 
ATOM     85  C   UNL A   1      43.701  37.502  33.243  1.00  0.00     0.054 A 
BRANCH  85  86
ATOM     86  S   UNL A   1      44.076  39.146  33.909  1.00  0.00     0.124 S 
ATOM     87  O   UNL A   1      45.212  39.556  33.087  1.00  0.00    -0.237 OA
ATOM     88  O   UNL A   1      42.834  39.877  33.672  1.00  0.00    -0.237 OA
ATOM     89  O   UNL A   1      44.385  38.890  35.315  1.00  0.00    -0.744 OA
ENDBRANCH  85  86
ENDBRANCH  59  80
ENDBRANCH  33  34
ENDBRANCH  25  28
ENDBRANCH   1  24
TORSDOF 14
ENDMDL
MODEL 3
REMARK VINA RESULT:     -11.4      2.507      3.904
REMARK SMILES Cc1cc(Cl)cc2c1O[C@H](C(F)(F)F)C(C(=O)NCCCNC(=O)c1ccc(-c3c4nc(c(-c5ccc(S(=O)(=O)[O-])cc5)c5ccc([nH]5)c(-c5ccc(S(=O)(=O)[O-])cc5)c5nc(c(-c6ccc(S(=O)(=O)[O-])cc6)c6ccc3[nH]6)C=C5)C=C4)cc1)=C2
REMARK SMILES IDX 21 1 20 2 19 3 18 4 16 5 17 6 15 8 1 9 2 10 3 11 8 12 4 13
REMARK SMILES IDX 7 14 9 15 5 16 6 17 85 18 10 19 11 20 12 21 13 22 14 23
REMARK SMILES IDX 22 24 23 25 24 27 25 28 26 29 84 30 27 31 83 32 28 33 29 34
REMARK SMILES IDX 30 35 77 36 31 37 82 38 76 39 78 40 32 41 81 42 75 43 74 44
REMARK SMILES IDX 33 46 63 47 44 48 62 49 45 50 48 51 61 52 79 53 46 54 47 55
REMARK SMILES IDX 60 57 80 58 49 59 34 60 35 61 43 62 36 63 42 64 37 65 38 66
REMARK SMILES IDX 39 67 40 68 41 69 64 70 65 71 73 72 66 73 72 74 67 75 68 76
REMARK SMILES IDX 69 77 70 78 71 79 50 80 51 81 59 82 52 83 58 84 53 85 54 86
REMARK SMILES IDX 55 87 56 88 57 89
REMARK H PARENT 18 7 22 26 78 45 48 56
REMARK Flexibility Score: inf
ROOT
ATOM      1  C   UNL A   1      33.600  28.414  26.981  1.00  0.00     0.118 C 
ENDROOT
BRANCH   1   2
ATOM      2  C   UNL A   1      33.882  28.002  25.542  1.00  0.00     0.042 C 
BRANCH   2   3
ATOM      3  C   UNL A   1      33.777  26.497  25.347  1.00  0.00     0.118 C 
BRANCH   3   4
ATOM      4  N   UNL A   1      33.655  26.136  23.943  1.00  0.00    -0.352 N 
ATOM      5  C   UNL A   1      32.731  26.264  22.962  1.00  0.00     0.251 C 
ATOM      6  O   UNL A   1      33.063  25.810  21.862  1.00  0.00    -0.270 OA
ATOM      7  H   UNL A   1      34.461  25.673  23.619  1.00  0.00     0.163 HD
BRANCH   5   8
ATOM      8  C   UNL A   1      31.394  26.903  23.124  1.00  0.00     0.067 C 
ATOM      9  C   UNL A   1      26.399  27.948  23.634  1.00  0.00     0.048 C 
ATOM     10  C   UNL A   1      27.633  28.759  23.356  1.00  0.00    -0.007 A 
ATOM     11  C   UNL A   1      27.546  30.147  23.192  1.00  0.00     0.027 A 
ATOM     12  C   UNL A   1      28.882  28.143  23.211  1.00  0.00     0.131 A 
ATOM     13  C   UNL A   1      28.692  30.892  22.906  1.00  0.00     0.042 A 
ATOM     14  C   UNL A   1      30.033  28.886  22.926  1.00  0.00     0.019 A 
ATOM     15  O   UNL A   1      28.917  26.780  23.313  1.00  0.00    -0.475 OA
ATOM     16  Cl  UNL A   1      28.567  32.598  22.709  1.00  0.00    -0.084 Cl
ATOM     17  C   UNL A   1      29.934  30.271  22.773  1.00  0.00     0.032 A 
ATOM     18  C   UNL A   1      31.308  28.197  22.762  1.00  0.00     0.025 C 
ATOM     19  C   UNL A   1      30.192  26.199  23.682  1.00  0.00     0.314 C 
BRANCH  19  20
ATOM     20  C   UNL A   1      30.256  26.040  25.214  1.00  0.00     0.429 C 
ATOM     21  F   UNL A   1      31.071  25.011  25.552  1.00  0.00    -0.167 F 
ATOM     22  F   UNL A   1      30.750  27.139  25.833  1.00  0.00    -0.167 F 
ATOM     23  F   UNL A   1      29.046  25.796  25.766  1.00  0.00    -0.167 F 
ENDBRANCH  19  20
ENDBRANCH   5   8
ENDBRANCH   3   4
ENDBRANCH   2   3
ENDBRANCH   1   2
BRANCH   1  24
ATOM     24  N   UNL A   1      33.619  29.867  27.140  1.00  0.00    -0.352 N 
ATOM     25  C   UNL A   1      34.527  30.675  27.774  1.00  0.00     0.251 C 
ATOM     26  H   UNL A   1      32.860  30.339  26.728  1.00  0.00     0.163 HD
ATOM     27  O   UNL A   1      34.221  31.832  28.053  1.00  0.00    -0.269 OA
BRANCH  25  28
ATOM     28  C   UNL A   1      35.863  30.153  28.118  1.00  0.00     0.039 A 
ATOM     29  C   UNL A   1      36.866  30.133  27.146  1.00  0.00     0.014 A 
ATOM     30  C   UNL A   1      36.116  29.659  29.401  1.00  0.00     0.014 A 
ATOM     31  C   UNL A   1      38.142  29.678  27.485  1.00  0.00     0.010 A 
ATOM     32  C   UNL A   1      37.407  29.303  29.762  1.00  0.00     0.010 A 
ATOM     33  C   UNL A   1      38.429  29.293  28.805  1.00  0.00    -0.014 A 
BRANCH  33  34
ATOM     34  C   UNL A   1      39.781  28.832  29.203  1.00  0.00     0.031 A 
ATOM     35  C   UNL A   1      40.664  29.743  30.016  1.00  0.00     0.074 A 
ATOM     36  C   UNL A   1      40.224  27.625  28.799  1.00  0.00     0.049 A 
ATOM     37  N   UNL A   1      41.901  29.561  30.398  1.00  0.00    -0.248 NA
ATOM     38  C   UNL A   1      40.091  31.035  30.437  1.00  0.00     0.031 C 
ATOM     39  C   UNL A   1      39.463  26.667  27.993  1.00  0.00     0.029 A 
ATOM     40  N   UNL A   1      41.421  26.994  29.020  1.00  0.00    -0.354 N 
ATOM     41  C   UNL A   1      42.249  30.709  31.101  1.00  0.00     0.074 A 
ATOM     42  C   UNL A   1      41.124  31.612  31.033  1.00  0.00     0.031 C 
ATOM     43  C   UNL A   1      40.194  25.552  27.828  1.00  0.00     0.029 A 
ATOM     44  C   UNL A   1      41.490  25.734  28.472  1.00  0.00     0.049 A 
ATOM     45  H   UNL A   1      42.162  27.404  29.521  1.00  0.00     0.167 HD
ATOM     46  C   UNL A   1      43.392  30.973  31.774  1.00  0.00     0.031 A 
ATOM     47  C   UNL A   1      42.489  24.830  28.490  1.00  0.00     0.031 A 
ATOM     48  C   UNL A   1      44.501  30.063  31.860  1.00  0.00     0.049 A 
ATOM     49  C   UNL A   1      43.770  25.177  29.200  1.00  0.00     0.074 A 
ATOM     50  C   UNL A   1      45.697  30.228  32.535  1.00  0.00     0.029 A 
ATOM     51  N   UNL A   1      44.541  28.810  31.268  1.00  0.00    -0.354 N 
ATOM     52  N   UNL A   1      44.071  26.260  29.879  1.00  0.00    -0.248 NA
ATOM     53  C   UNL A   1      44.848  24.179  29.150  1.00  0.00     0.031 C 
ATOM     54  C   UNL A   1      46.479  29.093  32.315  1.00  0.00     0.029 A 
ATOM     55  C   UNL A   1      45.748  28.198  31.551  1.00  0.00     0.049 A 
ATOM     56  H   UNL A   1      43.820  28.417  30.727  1.00  0.00     0.167 HD
ATOM     57  C   UNL A   1      45.358  26.056  30.362  1.00  0.00     0.074 A 
ATOM     58  C   UNL A   1      45.773  24.743  29.915  1.00  0.00     0.031 C 
ATOM     59  C   UNL A   1      46.131  26.883  31.108  1.00  0.00     0.031 A 
BRANCH  46  60
ATOM     60  C   UNL A   1      43.490  32.280  32.511  1.00  0.00    -0.014 A 
ATOM     61  C   UNL A   1      43.915  33.443  31.844  1.00  0.00     0.010 A 
ATOM     62  C   UNL A   1      43.064  32.373  33.848  1.00  0.00     0.010 A 
ATOM     63  C   UNL A   1      43.918  34.675  32.502  1.00  0.00     0.020 A 
ATOM     64  C   UNL A   1      43.042  33.609  34.502  1.00  0.00     0.020 A 
ATOM     65  C   UNL A   1      43.472  34.751  33.824  1.00  0.00     0.054 A 
BRANCH  65  66
ATOM     66  S   UNL A   1      43.414  36.379  34.620  1.00  0.00     0.124 S 
ATOM     67  O   UNL A   1      44.144  36.135  35.861  1.00  0.00    -0.237 OA
ATOM     68  O   UNL A   1      44.095  37.231  33.648  1.00  0.00    -0.237 OA
ATOM     69  O   UNL A   1      41.985  36.638  34.780  1.00  0.00    -0.744 OA
ENDBRANCH  65  66
ENDBRANCH  46  60
BRANCH  47  70
ATOM     70  C   UNL A   1      42.324  23.500  27.838  1.00  0.00    -0.014 A 
ATOM     71  C   UNL A   1      41.760  22.427  28.552  1.00  0.00     0.010 A 
ATOM     72  C   UNL A   1      42.759  23.288  26.517  1.00  0.00     0.010 A 
ATOM     73  C   UNL A   1      41.673  21.157  27.974  1.00  0.00     0.020 A 
ATOM     74  C   UNL A   1      42.645  22.026  25.924  1.00  0.00     0.020 A 
ATOM     75  C   UNL A   1      42.121  20.964  26.665  1.00  0.00     0.054 A 
BRANCH  75  76
ATOM     76  S   UNL A   1      41.999  19.307  25.936  1.00  0.00     0.124 S 
ATOM     77  O   UNL A   1      42.834  19.437  24.747  1.00  0.00    -0.237 OA
ATOM     78  O   UNL A   1      42.533  18.457  26.996  1.00  0.00    -0.237 OA
ATOM     79  O   UNL A   1      40.568  19.149  25.683  1.00  0.00    -0.744 OA
ENDBRANCH  75  76
ENDBRANCH  47  70
BRANCH  59  80
ATOM     80  C   UNL A   1      47.489  26.384  31.519  1.00  0.00    -0.014 A 
ATOM     81  C   UNL A   1      47.670  25.690  32.727  1.00  0.00     0.010 A 
ATOM     82  C   UNL A   1      48.581  26.539  30.643  1.00  0.00     0.010 A 
ATOM     83  C   UNL A   1      48.925  25.179  33.065  1.00  0.00     0.020 A 
ATOM     84  C   UNL A   1      49.830  26.003  30.963  1.00  0.00     0.020 A 
ATOM     85  C   UNL A   1      49.995  25.334  32.177  1.00  0.00     0.054 A 
BRANCH  85  86
ATOM     86  S   UNL A   1      51.597  24.606  32.615  1.00  0.00     0.124 S 
ATOM     87  O   UNL A   1      52.514  25.344  31.750  1.00  0.00    -0.237 OA
ATOM     88  O   UNL A   1      51.703  24.905  34.041  1.00  0.00    -0.237 OA
ATOM     89  O   UNL A   1      51.437  23.191  32.290  1.00  0.00    -0.744 OA
ENDBRANCH  85  86
ENDBRANCH  59  80
ENDBRANCH  33  34
ENDBRANCH  25  28
ENDBRANCH   1  24
TORSDOF 14
ENDMDL
