MODEL 1
REMARK VINA RESULT:     -11.0      0.000      0.000
REMARK SMILES C[C@@H]1[C@@H](C(=O)NCCCNC(=O)c2ccc(-c3c4nc(c(-c5ccc(S(=O)(=O)[O-])cc5)c5ccc([nH]5)c(-c5ccc(S(=O)(=O)[O-])cc5)c5nc(c(-c6ccc(S(=O)(=O)[O-])cc6)c6ccc3[nH]6)C=C5)C=C4)cc2)CCN1C(=O)N[C@@H](C)Cc1ccco1
REMARK SMILES IDX 7 1 6 2 4 3 5 4 3 6 1 7 2 8 75 9 73 10 74 11 76 12 77 13
REMARK SMILES IDX 78 14 79 16 80 17 81 18 82 19 83 20 86 21 84 22 85 23 8 24
REMARK SMILES IDX 9 25 10 26 11 27 12 29 13 30 14 31 72 32 15 33 71 34 16 35
REMARK SMILES IDX 17 36 18 37 65 38 19 39 70 40 64 41 66 42 20 43 69 44 63 45
REMARK SMILES IDX 62 46 21 48 51 49 32 50 50 51 33 52 36 53 49 54 67 55 34 56
REMARK SMILES IDX 35 57 48 59 68 60 37 61 22 62 23 63 31 64 24 65 30 66 25 67
REMARK SMILES IDX 26 68 27 69 28 70 29 71 52 72 53 73 61 74 54 75 60 76 55 77
REMARK SMILES IDX 56 78 57 79 58 80 59 81 38 82 39 83 47 84 40 85 46 86 41 87
REMARK SMILES IDX 42 88 43 89 44 90 45 91
REMARK H PARENT 6 5 78 15 10 28 66 47 36 58
REMARK Flexibility Score: inf
ROOT
ATOM      1  C   UNL A   1      37.119  21.211  25.327  1.00  0.00     0.117 C 
ENDROOT
BRANCH   1   2
ATOM      2  N   UNL A   1      37.208  22.163  24.240  1.00  0.00    -0.356 N 
ATOM      3  C   UNL A   1      36.232  22.755  23.510  1.00  0.00     0.225 C 
ATOM      4  O   UNL A   1      36.598  23.337  22.490  1.00  0.00    -0.275 OA
ATOM      5  H   UNL A   1      38.125  22.421  23.991  1.00  0.00     0.163 HD
BRANCH   3   6
ATOM      6  C   UNL A   1      34.769  22.602  23.907  1.00  0.00     0.102 C 
ATOM      7  C   UNL A   1      32.526  22.478  22.750  1.00  0.00     0.032 C 
ATOM      8  C   UNL A   1      33.852  23.242  22.835  1.00  0.00     0.096 C 
ATOM      9  N   UNL A   1      33.645  24.625  23.295  1.00  0.00    -0.321 N 
ATOM     10  C   UNL A   1      34.366  23.373  25.165  1.00  0.00     0.037 C 
ATOM     11  C   UNL A   1      34.131  24.778  24.654  1.00  0.00     0.122 C 
BRANCH   9  12
ATOM     12  C   UNL A   1      33.218  25.749  22.667  1.00  0.00     0.317 C 
ATOM     13  O   UNL A   1      33.876  26.256  21.747  1.00  0.00    -0.249 OA
ATOM     14  N   UNL A   1      32.091  26.404  22.977  1.00  0.00    -0.335 N 
ATOM     15  H   UNL A   1      32.010  27.248  22.476  1.00  0.00     0.165 HD
BRANCH  14  16
ATOM     16  C   UNL A   1      30.950  26.191  23.865  1.00  0.00     0.088 C 
ATOM     17  C   UNL A   1      30.338  24.827  23.540  1.00  0.00     0.031 C 
BRANCH  16  18
ATOM     18  C   UNL A   1      31.355  26.254  25.352  1.00  0.00     0.100 C 
BRANCH  18  19
ATOM     19  C   UNL A   1      31.525  27.643  25.852  1.00  0.00     0.105 A 
ATOM     20  C   UNL A   1      31.710  28.175  27.112  1.00  0.00     0.045 A 
ATOM     21  O   UNL A   1      31.515  28.635  24.922  1.00  0.00    -0.469 OA
ATOM     22  C   UNL A   1      31.852  29.570  26.937  1.00  0.00     0.042 A 
ATOM     23  C   UNL A   1      31.734  29.799  25.587  1.00  0.00     0.195 A 
ENDBRANCH  18  19
ENDBRANCH  16  18
ENDBRANCH  14  16
ENDBRANCH   9  12
ENDBRANCH   3   6
ENDBRANCH   1   2
BRANCH   1  24
ATOM     24  C   UNL A   1      38.216  20.166  25.252  1.00  0.00     0.042 C 
BRANCH  24  25
ATOM     25  C   UNL A   1      39.439  20.490  26.096  1.00  0.00     0.118 C 
BRANCH  25  26
ATOM     26  N   UNL A   1      40.424  19.415  26.108  1.00  0.00    -0.352 N 
ATOM     27  C   UNL A   1      41.798  19.476  26.148  1.00  0.00     0.251 C 
ATOM     28  H   UNL A   1      40.048  18.505  26.085  1.00  0.00     0.163 HD
ATOM     29  O   UNL A   1      42.460  18.464  25.964  1.00  0.00    -0.269 OA
BRANCH  27  30
ATOM     30  C   UNL A   1      42.466  20.776  26.377  1.00  0.00     0.039 A 
ATOM     31  C   UNL A   1      42.849  21.548  25.279  1.00  0.00     0.014 A 
ATOM     32  C   UNL A   1      42.686  21.243  27.674  1.00  0.00     0.014 A 
ATOM     33  C   UNL A   1      43.370  22.827  25.487  1.00  0.00     0.010 A 
ATOM     34  C   UNL A   1      43.087  22.558  27.874  1.00  0.00     0.010 A 
ATOM     35  C   UNL A   1      43.445  23.362  26.784  1.00  0.00    -0.014 A 
BRANCH  35  36
ATOM     36  C   UNL A   1      43.906  24.753  27.030  1.00  0.00     0.031 A 
ATOM     37  C   UNL A   1      45.360  25.106  26.849  1.00  0.00     0.074 A 
ATOM     38  C   UNL A   1      43.036  25.679  27.481  1.00  0.00     0.049 A 
ATOM     39  N   UNL A   1      45.968  26.241  27.083  1.00  0.00    -0.248 NA
ATOM     40  C   UNL A   1      46.254  24.036  26.373  1.00  0.00     0.031 C 
ATOM     41  C   UNL A   1      41.611  25.453  27.743  1.00  0.00     0.029 A 
ATOM     42  N   UNL A   1      43.223  27.000  27.806  1.00  0.00    -0.354 N 
ATOM     43  C   UNL A   1      47.311  26.012  26.804  1.00  0.00     0.074 A 
ATOM     44  C   UNL A   1      47.439  24.618  26.446  1.00  0.00     0.031 C 
ATOM     45  C   UNL A   1      41.049  26.603  28.148  1.00  0.00     0.029 A 
ATOM     46  C   UNL A   1      42.077  27.636  28.224  1.00  0.00     0.049 A 
ATOM     47  H   UNL A   1      44.097  27.451  27.745  1.00  0.00     0.167 HD
ATOM     48  C   UNL A   1      48.342  26.891  26.817  1.00  0.00     0.031 A 
ATOM     49  C   UNL A   1      41.876  28.905  28.630  1.00  0.00     0.031 A 
ATOM     50  C   UNL A   1      48.208  28.281  27.157  1.00  0.00     0.049 A 
ATOM     51  C   UNL A   1      43.039  29.859  28.648  1.00  0.00     0.074 A 
ATOM     52  C   UNL A   1      49.179  29.266  27.146  1.00  0.00     0.029 A 
ATOM     53  N   UNL A   1      47.028  28.884  27.567  1.00  0.00    -0.354 N 
ATOM     54  N   UNL A   1      44.290  29.640  28.318  1.00  0.00    -0.248 NA
ATOM     55  C   UNL A   1      42.762  31.235  29.082  1.00  0.00     0.031 C 
ATOM     56  C   UNL A   1      48.600  30.453  27.604  1.00  0.00     0.029 A 
ATOM     57  C   UNL A   1      47.253  30.224  27.836  1.00  0.00     0.049 A 
ATOM     58  H   UNL A   1      46.160  28.428  27.652  1.00  0.00     0.167 HD
ATOM     59  C   UNL A   1      44.942  30.857  28.475  1.00  0.00     0.074 A 
ATOM     60  C   UNL A   1      43.944  31.811  28.915  1.00  0.00     0.031 C 
ATOM     61  C   UNL A   1      46.247  31.160  28.272  1.00  0.00     0.031 A 
BRANCH  48  62
ATOM     62  C   UNL A   1      49.708  26.366  26.450  1.00  0.00    -0.014 A 
ATOM     63  C   UNL A   1      50.198  26.467  25.135  1.00  0.00     0.010 A 
ATOM     64  C   UNL A   1      50.528  25.799  27.443  1.00  0.00     0.010 A 
ATOM     65  C   UNL A   1      51.462  25.972  24.809  1.00  0.00     0.020 A 
ATOM     66  C   UNL A   1      51.808  25.331  27.128  1.00  0.00     0.020 A 
ATOM     67  C   UNL A   1      52.259  25.405  25.808  1.00  0.00     0.054 A 
BRANCH  67  68
ATOM     68  S   UNL A   1      53.907  24.793  25.361  1.00  0.00     0.124 S 
ATOM     69  O   UNL A   1      53.632  23.394  25.042  1.00  0.00    -0.237 OA
ATOM     70  O   UNL A   1      54.261  25.637  24.223  1.00  0.00    -0.237 OA
ATOM     71  O   UNL A   1      54.699  25.013  26.568  1.00  0.00    -0.744 OA
ENDBRANCH  67  68
ENDBRANCH  48  62
BRANCH  49  72
ATOM     72  C   UNL A   1      40.513  29.352  29.032  1.00  0.00    -0.014 A 
ATOM     73  C   UNL A   1      40.168  29.457  30.392  1.00  0.00     0.010 A 
ATOM     74  C   UNL A   1      39.554  29.685  28.058  1.00  0.00     0.010 A 
ATOM     75  C   UNL A   1      38.885  29.866  30.769  1.00  0.00     0.020 A 
ATOM     76  C   UNL A   1      38.280  30.123  28.431  1.00  0.00     0.020 A 
ATOM     77  C   UNL A   1      37.950  30.199  29.786  1.00  0.00     0.054 A 
BRANCH  77  78
ATOM     78  S   UNL A   1      36.308  30.775  30.299  1.00  0.00     0.124 S 
ATOM     79  O   UNL A   1      36.543  32.196  30.533  1.00  0.00    -0.237 OA
ATOM     80  O   UNL A   1      35.483  30.452  29.137  1.00  0.00    -0.237 OA
ATOM     81  O   UNL A   1      36.025  29.981  31.493  1.00  0.00    -0.744 OA
ENDBRANCH  77  78
ENDBRANCH  49  72
BRANCH  61  82
ATOM     82  C   UNL A   1      46.671  32.590  28.482  1.00  0.00    -0.014 A 
ATOM     83  C   UNL A   1      46.575  33.541  27.451  1.00  0.00     0.010 A 
ATOM     84  C   UNL A   1      47.115  32.999  29.753  1.00  0.00     0.010 A 
ATOM     85  C   UNL A   1      46.946  34.869  27.678  1.00  0.00     0.020 A 
ATOM     86  C   UNL A   1      47.458  34.332  29.994  1.00  0.00     0.020 A 
ATOM     87  C   UNL A   1      47.385  35.256  28.950  1.00  0.00     0.054 A 
BRANCH  87  88
ATOM     88  S   UNL A   1      47.817  36.994  29.230  1.00  0.00     0.124 S 
ATOM     89  O   UNL A   1      49.277  36.948  29.224  1.00  0.00    -0.237 OA
ATOM     90  O   UNL A   1      47.204  37.664  28.087  1.00  0.00    -0.237 OA
ATOM     91  O   UNL A   1      47.209  37.298  30.523  1.00  0.00    -0.744 OA
ENDBRANCH  87  88
ENDBRANCH  61  82
ENDBRANCH  35  36
ENDBRANCH  27  30
ENDBRANCH  25  26
ENDBRANCH  24  25
ENDBRANCH   1  24
TORSDOF 17
ENDMDL
MODEL 2
REMARK VINA RESULT:     -10.9      6.094      8.372
REMARK SMILES C[C@@H]1[C@@H](C(=O)NCCCNC(=O)c2ccc(-c3c4nc(c(-c5ccc(S(=O)(=O)[O-])cc5)c5ccc([nH]5)c(-c5ccc(S(=O)(=O)[O-])cc5)c5nc(c(-c6ccc(S(=O)(=O)[O-])cc6)c6ccc3[nH]6)C=C5)C=C4)cc2)CCN1C(=O)N[C@@H](C)Cc1ccco1
REMARK SMILES IDX 7 1 6 2 4 3 5 4 3 6 1 7 2 8 75 9 73 10 74 11 76 12 77 13
REMARK SMILES IDX 78 14 79 16 80 17 81 18 82 19 83 20 86 21 84 22 85 23 8 24
REMARK SMILES IDX 9 25 10 26 11 27 12 29 13 30 14 31 72 32 15 33 71 34 16 35
REMARK SMILES IDX 17 36 18 37 65 38 19 39 70 40 64 41 66 42 20 43 69 44 63 45
REMARK SMILES IDX 62 46 21 48 51 49 32 50 50 51 33 52 36 53 49 54 67 55 34 56
REMARK SMILES IDX 35 57 48 59 68 60 37 61 22 62 23 63 31 64 24 65 30 66 25 67
REMARK SMILES IDX 26 68 27 69 28 70 29 71 52 72 53 73 61 74 54 75 60 76 55 77
REMARK SMILES IDX 56 78 57 79 58 80 59 81 38 82 39 83 47 84 40 85 46 86 41 87
REMARK SMILES IDX 42 88 43 89 44 90 45 91
REMARK H PARENT 6 5 78 15 10 28 66 47 36 58
REMARK Flexibility Score: inf
ROOT
ATOM      1  C   UNL A   1      37.941  22.600  25.606  1.00  0.00     0.117 C 
ENDROOT
BRANCH   1   2
ATOM      2  N   UNL A   1      37.385  23.112  24.371  1.00  0.00    -0.356 N 
ATOM      3  C   UNL A   1      36.155  22.946  23.828  1.00  0.00     0.225 C 
ATOM      4  O   UNL A   1      36.032  23.293  22.654  1.00  0.00    -0.275 OA
ATOM      5  H   UNL A   1      38.000  23.669  23.841  1.00  0.00     0.163 HD
BRANCH   3   6
ATOM      6  C   UNL A   1      35.043  22.275  24.623  1.00  0.00     0.102 C 
ATOM      7  C   UNL A   1      32.707  21.407  24.196  1.00  0.00     0.032 C 
ATOM      8  C   UNL A   1      33.665  22.586  23.988  1.00  0.00     0.096 C 
ATOM      9  N   UNL A   1      33.192  23.791  24.688  1.00  0.00    -0.321 N 
ATOM     10  C   UNL A   1      34.860  22.811  26.044  1.00  0.00     0.037 C 
ATOM     11  C   UNL A   1      34.030  24.059  25.842  1.00  0.00     0.122 C 
BRANCH   9  12
ATOM     12  C   UNL A   1      32.241  24.713  24.393  1.00  0.00     0.317 C 
ATOM     13  O   UNL A   1      31.204  24.798  25.065  1.00  0.00    -0.249 OA
ATOM     14  N   UNL A   1      32.324  25.581  23.376  1.00  0.00    -0.335 N 
ATOM     15  H   UNL A   1      31.492  26.097  23.268  1.00  0.00     0.165 HD
BRANCH  14  16
ATOM     16  C   UNL A   1      33.328  25.962  22.385  1.00  0.00     0.088 C 
ATOM     17  C   UNL A   1      32.881  25.432  21.021  1.00  0.00     0.031 C 
BRANCH  16  18
ATOM     18  C   UNL A   1      33.530  27.490  22.325  1.00  0.00     0.100 C 
BRANCH  18  19
ATOM     19  C   UNL A   1      32.614  28.236  23.226  1.00  0.00     0.105 A 
ATOM     20  C   UNL A   1      32.810  28.942  24.395  1.00  0.00     0.045 A 
ATOM     21  O   UNL A   1      31.301  28.274  22.870  1.00  0.00    -0.469 OA
ATOM     22  C   UNL A   1      31.549  29.468  24.758  1.00  0.00     0.042 A 
ATOM     23  C   UNL A   1      30.666  29.041  23.795  1.00  0.00     0.195 A 
ENDBRANCH  18  19
ENDBRANCH  16  18
ENDBRANCH  14  16
ENDBRANCH   9  12
ENDBRANCH   3   6
ENDBRANCH   1   2
BRANCH   1  24
ATOM     24  C   UNL A   1      38.349  23.718  26.546  1.00  0.00     0.042 C 
BRANCH  24  25
ATOM     25  C   UNL A   1      39.817  23.688  26.945  1.00  0.00     0.118 C 
BRANCH  25  26
ATOM     26  N   UNL A   1      40.687  24.324  25.964  1.00  0.00    -0.352 N 
ATOM     27  C   UNL A   1      41.306  25.552  25.996  1.00  0.00     0.251 C 
ATOM     28  H   UNL A   1      40.861  23.791  25.154  1.00  0.00     0.163 HD
ATOM     29  O   UNL A   1      41.851  25.988  24.991  1.00  0.00    -0.269 OA
BRANCH  27  30
ATOM     30  C   UNL A   1      41.274  26.355  27.238  1.00  0.00     0.039 A 
ATOM     31  C   UNL A   1      42.122  27.457  27.360  1.00  0.00     0.014 A 
ATOM     32  C   UNL A   1      40.387  26.036  28.268  1.00  0.00     0.014 A 
ATOM     33  C   UNL A   1      42.012  28.289  28.476  1.00  0.00     0.010 A 
ATOM     34  C   UNL A   1      40.195  26.930  29.313  1.00  0.00     0.010 A 
ATOM     35  C   UNL A   1      41.012  28.061  29.437  1.00  0.00    -0.014 A 
BRANCH  35  36
ATOM     36  C   UNL A   1      40.809  28.980  30.587  1.00  0.00     0.031 A 
ATOM     37  C   UNL A   1      41.661  28.838  31.822  1.00  0.00     0.074 A 
ATOM     38  C   UNL A   1      39.818  29.893  30.550  1.00  0.00     0.049 A 
ATOM     39  N   UNL A   1      41.589  29.493  32.952  1.00  0.00    -0.248 NA
ATOM     40  C   UNL A   1      42.710  27.805  31.796  1.00  0.00     0.031 C 
ATOM     41  C   UNL A   1      38.892  30.100  29.432  1.00  0.00     0.029 A 
ATOM     42  N   UNL A   1      39.417  30.818  31.482  1.00  0.00    -0.354 N 
ATOM     43  C   UNL A   1      42.564  28.936  33.773  1.00  0.00     0.074 A 
ATOM     44  C   UNL A   1      43.170  27.851  33.035  1.00  0.00     0.031 C 
ATOM     45  C   UNL A   1      38.062  31.112  29.728  1.00  0.00     0.029 A 
ATOM     46  C   UNL A   1      38.359  31.596  31.073  1.00  0.00     0.049 A 
ATOM     47  H   UNL A   1      39.848  30.917  32.362  1.00  0.00     0.167 HD
ATOM     48  C   UNL A   1      42.943  29.312  35.018  1.00  0.00     0.031 A 
ATOM     49  C   UNL A   1      37.696  32.581  31.709  1.00  0.00     0.031 A 
ATOM     50  C   UNL A   1      42.350  30.403  35.741  1.00  0.00     0.049 A 
ATOM     51  C   UNL A   1      38.127  32.973  33.096  1.00  0.00     0.074 A 
ATOM     52  C   UNL A   1      42.697  30.900  36.985  1.00  0.00     0.029 A 
ATOM     53  N   UNL A   1      41.285  31.169  35.286  1.00  0.00    -0.354 N 
ATOM     54  N   UNL A   1      39.095  32.476  33.830  1.00  0.00    -0.248 NA
ATOM     55  C   UNL A   1      37.382  34.065  33.738  1.00  0.00     0.031 C 
ATOM     56  C   UNL A   1      41.807  31.929  37.307  1.00  0.00     0.029 A 
ATOM     57  C   UNL A   1      40.948  32.118  36.235  1.00  0.00     0.049 A 
ATOM     58  H   UNL A   1      40.838  31.054  34.417  1.00  0.00     0.167 HD
ATOM     59  C   UNL A   1      39.095  33.217  35.006  1.00  0.00     0.074 A 
ATOM     60  C   UNL A   1      38.041  34.203  34.880  1.00  0.00     0.031 C 
ATOM     61  C   UNL A   1      39.897  33.093  36.093  1.00  0.00     0.031 A 
BRANCH  48  62
ATOM     62  C   UNL A   1      44.054  28.532  35.673  1.00  0.00    -0.014 A 
ATOM     63  C   UNL A   1      45.401  28.905  35.510  1.00  0.00     0.010 A 
ATOM     64  C   UNL A   1      43.745  27.432  36.495  1.00  0.00     0.010 A 
ATOM     65  C   UNL A   1      46.419  28.169  36.118  1.00  0.00     0.020 A 
ATOM     66  C   UNL A   1      44.760  26.711  37.132  1.00  0.00     0.020 A 
ATOM     67  C   UNL A   1      46.093  27.075  36.925  1.00  0.00     0.054 A 
BRANCH  67  68
ATOM     68  S   UNL A   1      47.435  26.153  37.723  1.00  0.00     0.124 S 
ATOM     69  O   UNL A   1      48.618  26.761  37.118  1.00  0.00    -0.237 OA
ATOM     70  O   UNL A   1      47.230  26.454  39.137  1.00  0.00    -0.237 OA
ATOM     71  O   UNL A   1      47.182  24.767  37.340  1.00  0.00    -0.744 OA
ENDBRANCH  67  68
ENDBRANCH  48  62
BRANCH  49  72
ATOM     72  C   UNL A   1      36.570  33.282  31.030  1.00  0.00    -0.014 A 
ATOM     73  C   UNL A   1      36.806  34.090  29.904  1.00  0.00     0.010 A 
ATOM     74  C   UNL A   1      35.252  33.137  31.502  1.00  0.00     0.010 A 
ATOM     75  C   UNL A   1      35.750  34.756  29.274  1.00  0.00     0.020 A 
ATOM     76  C   UNL A   1      34.189  33.777  30.857  1.00  0.00     0.020 A 
ATOM     77  C   UNL A   1      34.447  34.593  29.754  1.00  0.00     0.054 A 
BRANCH  77  78
ATOM     78  S   UNL A   1      33.087  35.427  28.891  1.00  0.00     0.124 S 
ATOM     79  O   UNL A   1      32.464  34.323  28.167  1.00  0.00    -0.237 OA
ATOM     80  O   UNL A   1      32.306  35.980  29.996  1.00  0.00    -0.237 OA
ATOM     81  O   UNL A   1      33.765  36.419  28.060  1.00  0.00    -0.744 OA
ENDBRANCH  77  78
ENDBRANCH  49  72
BRANCH  61  82
ATOM     82  C   UNL A   1      39.697  34.073  37.219  1.00  0.00    -0.014 A 
ATOM     83  C   UNL A   1      38.978  33.723  38.376  1.00  0.00     0.010 A 
ATOM     84  C   UNL A   1      40.291  35.346  37.140  1.00  0.00     0.010 A 
ATOM     85  C   UNL A   1      38.830  34.640  39.420  1.00  0.00     0.020 A 
ATOM     86  C   UNL A   1      40.173  36.255  38.195  1.00  0.00     0.020 A 
ATOM     87  C   UNL A   1      39.430  35.900  39.323  1.00  0.00     0.054 A 
BRANCH  87  88
ATOM     88  S   UNL A   1      39.261  37.054  40.711  1.00  0.00     0.124 S 
ATOM     89  O   UNL A   1      38.632  36.216  41.727  1.00  0.00    -0.237 OA
ATOM     90  O   UNL A   1      40.645  37.437  40.978  1.00  0.00    -0.237 OA
ATOM     91  O   UNL A   1      38.419  38.121  40.175  1.00  0.00    -0.744 OA
ENDBRANCH  87  88
ENDBRANCH  61  82
ENDBRANCH  35  36
ENDBRANCH  27  30
ENDBRANCH  25  26
ENDBRANCH  24  25
ENDBRANCH   1  24
TORSDOF 17
ENDMDL
MODEL 3
REMARK VINA RESULT:     -10.8      3.886      5.315
REMARK SMILES C[C@@H]1[C@@H](C(=O)NCCCNC(=O)c2ccc(-c3c4nc(c(-c5ccc(S(=O)(=O)[O-])cc5)c5ccc([nH]5)c(-c5ccc(S(=O)(=O)[O-])cc5)c5nc(c(-c6ccc(S(=O)(=O)[O-])cc6)c6ccc3[nH]6)C=C5)C=C4)cc2)CCN1C(=O)N[C@@H](C)Cc1ccco1
REMARK SMILES IDX 7 1 6 2 4 3 5 4 3 6 1 7 2 8 75 9 73 10 74 11 76 12 77 13
REMARK SMILES IDX 78 14 79 16 80 17 81 18 82 19 83 20 86 21 84 22 85 23 8 24
REMARK SMILES IDX 9 25 10 26 11 27 12 29 13 30 14 31 72 32 15 33 71 34 16 35
REMARK SMILES IDX 17 36 18 37 65 38 19 39 70 40 64 41 66 42 20 43 69 44 63 45
REMARK SMILES IDX 62 46 21 48 51 49 32 50 50 51 33 52 36 53 49 54 67 55 34 56
REMARK SMILES IDX 35 57 48 59 68 60 37 61 22 62 23 63 31 64 24 65 30 66 25 67
REMARK SMILES IDX 26 68 27 69 28 70 29 71 52 72 53 73 61 74 54 75 60 76 55 77
REMARK SMILES IDX 56 78 57 79 58 80 59 81 38 82 39 83 47 84 40 85 46 86 41 87
REMARK SMILES IDX 42 88 43 89 44 90 45 91
REMARK H PARENT 6 5 78 15 10 28 66 47 36 58
REMARK Flexibility Score: inf
ROOT
ATOM      1  C   UNL A   1      35.018  24.047  23.846  1.00  0.00     0.117 C 
ENDROOT
BRANCH   1   2
ATOM      2  N   UNL A   1      33.956  24.176  24.822  1.00  0.00    -0.356 N 
ATOM      3  C   UNL A   1      32.630  24.394  24.651  1.00  0.00     0.225 C 
ATOM      4  O   UNL A   1      31.999  24.701  25.661  1.00  0.00    -0.275 OA
ATOM      5  H   UNL A   1      34.245  24.092  25.759  1.00  0.00     0.163 HD
BRANCH   3   6
ATOM      6  C   UNL A   1      32.012  24.351  23.259  1.00  0.00     0.102 C 
ATOM      7  C   UNL A   1      32.281  25.567  21.060  1.00  0.00     0.032 C 
ATOM      8  C   UNL A   1      32.129  25.736  22.576  1.00  0.00     0.096 C 
ATOM      9  N   UNL A   1      30.875  26.429  22.915  1.00  0.00    -0.321 N 
ATOM     10  C   UNL A   1      30.500  24.119  23.239  1.00  0.00     0.037 C 
ATOM     11  C   UNL A   1      29.932  25.496  23.503  1.00  0.00     0.122 C 
BRANCH   9  12
ATOM     12  C   UNL A   1      30.510  27.735  22.890  1.00  0.00     0.317 C 
ATOM     13  O   UNL A   1      29.479  28.100  22.309  1.00  0.00    -0.249 OA
ATOM     14  N   UNL A   1      31.212  28.725  23.460  1.00  0.00    -0.335 N 
ATOM     15  H   UNL A   1      30.836  29.609  23.245  1.00  0.00     0.165 HD
BRANCH  14  16
ATOM     16  C   UNL A   1      32.390  28.832  24.318  1.00  0.00     0.088 C 
ATOM     17  C   UNL A   1      33.608  29.096  23.430  1.00  0.00     0.031 C 
BRANCH  16  18
ATOM     18  C   UNL A   1      32.241  29.952  25.368  1.00  0.00     0.100 C 
BRANCH  18  19
ATOM     19  C   UNL A   1      33.268  29.889  26.439  1.00  0.00     0.105 A 
ATOM     20  C   UNL A   1      34.015  28.856  26.969  1.00  0.00     0.045 A 
ATOM     21  O   UNL A   1      33.588  31.060  27.052  1.00  0.00    -0.469 OA
ATOM     22  C   UNL A   1      34.862  29.436  27.941  1.00  0.00     0.042 A 
ATOM     23  C   UNL A   1      34.570  30.780  27.948  1.00  0.00     0.195 A 
ENDBRANCH  18  19
ENDBRANCH  16  18
ENDBRANCH  14  16
ENDBRANCH   9  12
ENDBRANCH   3   6
ENDBRANCH   1   2
BRANCH   1  24
ATOM     24  C   UNL A   1      36.075  23.055  24.292  1.00  0.00     0.042 C 
BRANCH  24  25
ATOM     25  C   UNL A   1      37.024  23.594  25.352  1.00  0.00     0.118 C 
BRANCH  25  26
ATOM     26  N   UNL A   1      38.142  22.700  25.626  1.00  0.00    -0.352 N 
ATOM     27  C   UNL A   1      39.359  22.960  26.212  1.00  0.00     0.251 C 
ATOM     28  H   UNL A   1      38.004  21.765  25.349  1.00  0.00     0.163 HD
ATOM     29  O   UNL A   1      40.243  22.115  26.187  1.00  0.00    -0.269 OA
BRANCH  27  30
ATOM     30  C   UNL A   1      39.602  24.278  26.838  1.00  0.00     0.039 A 
ATOM     31  C   UNL A   1      39.183  24.497  28.151  1.00  0.00     0.014 A 
ATOM     32  C   UNL A   1      40.268  25.285  26.138  1.00  0.00     0.014 A 
ATOM     33  C   UNL A   1      39.515  25.695  28.788  1.00  0.00     0.010 A 
ATOM     34  C   UNL A   1      40.703  26.420  26.810  1.00  0.00     0.010 A 
ATOM     35  C   UNL A   1      40.322  26.645  28.140  1.00  0.00    -0.014 A 
BRANCH  35  36
ATOM     36  C   UNL A   1      40.771  27.886  28.823  1.00  0.00     0.031 A 
ATOM     37  C   UNL A   1      42.159  27.963  29.406  1.00  0.00     0.074 A 
ATOM     38  C   UNL A   1      39.913  28.914  28.980  1.00  0.00     0.049 A 
ATOM     39  N   UNL A   1      42.709  28.926  30.100  1.00  0.00    -0.248 NA
ATOM     40  C   UNL A   1      43.031  26.792  29.213  1.00  0.00     0.031 C 
ATOM     41  C   UNL A   1      38.527  28.946  28.503  1.00  0.00     0.029 A 
ATOM     42  N   UNL A   1      40.077  30.132  29.591  1.00  0.00    -0.354 N 
ATOM     43  C   UNL A   1      43.976  28.468  30.441  1.00  0.00     0.074 A 
ATOM     44  C   UNL A   1      44.091  27.120  29.934  1.00  0.00     0.031 C 
ATOM     45  C   UNL A   1      37.984  30.136  28.804  1.00  0.00     0.029 A 
ATOM     46  C   UNL A   1      38.961  30.935  29.537  1.00  0.00     0.049 A 
ATOM     47  H   UNL A   1      40.917  30.407  30.027  1.00  0.00     0.167 HD
ATOM     48  C   UNL A   1      44.968  29.121  31.092  1.00  0.00     0.031 A 
ATOM     49  C   UNL A   1      38.745  32.171  30.029  1.00  0.00     0.031 A 
ATOM     50  C   UNL A   1      44.857  30.469  31.580  1.00  0.00     0.049 A 
ATOM     51  C   UNL A   1      39.858  32.871  30.760  1.00  0.00     0.074 A 
ATOM     52  C   UNL A   1      45.822  31.240  32.203  1.00  0.00     0.029 A 
ATOM     53  N   UNL A   1      43.711  31.247  31.497  1.00  0.00    -0.354 N 
ATOM     54  N   UNL A   1      41.072  32.445  31.015  1.00  0.00    -0.248 NA
ATOM     55  C   UNL A   1      39.575  34.223  31.261  1.00  0.00     0.031 C 
ATOM     56  C   UNL A   1      45.243  32.465  32.549  1.00  0.00     0.029 A 
ATOM     57  C   UNL A   1      43.938  32.482  32.081  1.00  0.00     0.049 A 
ATOM     58  H   UNL A   1      42.864  30.964  31.085  1.00  0.00     0.167 HD
ATOM     59  C   UNL A   1      41.708  33.489  31.678  1.00  0.00     0.074 A 
ATOM     60  C   UNL A   1      40.748  34.570  31.771  1.00  0.00     0.031 C 
ATOM     61  C   UNL A   1      42.972  33.548  32.164  1.00  0.00     0.031 A 
BRANCH  48  62
ATOM     62  C   UNL A   1      46.263  28.379  31.313  1.00  0.00    -0.014 A 
ATOM     63  C   UNL A   1      46.394  27.438  32.350  1.00  0.00     0.010 A 
ATOM     64  C   UNL A   1      47.350  28.599  30.447  1.00  0.00     0.010 A 
ATOM     65  C   UNL A   1      47.601  26.763  32.546  1.00  0.00     0.020 A 
ATOM     66  C   UNL A   1      48.550  27.901  30.619  1.00  0.00     0.020 A 
ATOM     67  C   UNL A   1      48.673  27.000  31.680  1.00  0.00     0.054 A 
BRANCH  67  68
ATOM     68  S   UNL A   1      50.219  26.089  31.943  1.00  0.00     0.124 S 
ATOM     69  O   UNL A   1      49.736  24.839  32.525  1.00  0.00    -0.237 OA
ATOM     70  O   UNL A   1      50.759  25.983  30.591  1.00  0.00    -0.237 OA
ATOM     71  O   UNL A   1      50.978  26.946  32.850  1.00  0.00    -0.744 OA
ENDBRANCH  67  68
ENDBRANCH  48  62
BRANCH  49  72
ATOM     72  C   UNL A   1      37.426  32.833  29.826  1.00  0.00    -0.014 A 
ATOM     73  C   UNL A   1      36.418  32.730  30.802  1.00  0.00     0.010 A 
ATOM     74  C   UNL A   1      37.174  33.579  28.661  1.00  0.00     0.010 A 
ATOM     75  C   UNL A   1      35.176  33.343  30.606  1.00  0.00     0.020 A 
ATOM     76  C   UNL A   1      35.945  34.219  28.475  1.00  0.00     0.020 A 
ATOM     77  C   UNL A   1      34.948  34.086  29.445  1.00  0.00     0.054 A 
BRANCH  77  78
ATOM     78  S   UNL A   1      33.347  34.913  29.236  1.00  0.00     0.124 S 
ATOM     79  O   UNL A   1      32.803  34.868  30.589  1.00  0.00    -0.237 OA
ATOM     80  O   UNL A   1      33.737  36.236  28.753  1.00  0.00    -0.237 OA
ATOM     81  O   UNL A   1      32.657  34.079  28.254  1.00  0.00    -0.744 OA
ENDBRANCH  77  78
ENDBRANCH  49  72
BRANCH  61  82
ATOM     82  C   UNL A   1      43.410  34.838  32.806  1.00  0.00    -0.014 A 
ATOM     83  C   UNL A   1      44.060  35.841  32.064  1.00  0.00     0.010 A 
ATOM     84  C   UNL A   1      43.111  35.072  34.161  1.00  0.00     0.010 A 
ATOM     85  C   UNL A   1      44.431  37.042  32.675  1.00  0.00     0.020 A 
ATOM     86  C   UNL A   1      43.452  36.284  34.768  1.00  0.00     0.020 A 
ATOM     87  C   UNL A   1      44.123  37.255  34.023  1.00  0.00     0.054 A 
BRANCH  87  88
ATOM     88  S   UNL A   1      44.575  38.840  34.779  1.00  0.00     0.124 S 
ATOM     89  O   UNL A   1      44.634  38.495  36.196  1.00  0.00    -0.237 OA
ATOM     90  O   UNL A   1      45.859  39.140  34.150  1.00  0.00    -0.237 OA
ATOM     91  O   UNL A   1      43.480  39.730  34.400  1.00  0.00    -0.744 OA
ENDBRANCH  87  88
ENDBRANCH  61  82
ENDBRANCH  35  36
ENDBRANCH  27  30
ENDBRANCH  25  26
ENDBRANCH  24  25
ENDBRANCH   1  24
TORSDOF 17
ENDMDL
