MODEL 1
REMARK VINA RESULT:     -11.5      0.000      0.000
REMARK SMILES O=C(NCCCNC(=O)C1CN(S(=O)(=O)c2ccc(F)cc2)C1)c1ccc(-c2c3nc(c(-c4ccc(S(=O)(=O)[O-])cc4)c4ccc([nH]4)c(-c4ccc(S(=O)(=O)[O-])cc4)c4nc(c(-c5ccc(S(=O)(=O)[O-])cc5)c5ccc2[nH]5)C=C4)C=C3)cc1
REMARK SMILES IDX 4 1 3 2 1 3 2 4 24 6 25 7 83 8 26 9 82 10 27 11 28 12 29 13
REMARK SMILES IDX 76 14 30 15 81 16 75 17 77 18 31 19 80 20 74 21 73 22 32 24
REMARK SMILES IDX 62 25 43 26 61 27 44 28 47 29 60 30 78 31 45 32 46 33 59 35
REMARK SMILES IDX 79 36 48 37 33 38 34 39 42 40 35 41 41 42 36 43 37 44 38 45
REMARK SMILES IDX 39 46 40 47 63 48 64 49 72 50 65 51 71 52 66 53 67 54 68 55
REMARK SMILES IDX 69 56 70 57 49 58 50 59 58 60 51 61 57 62 52 63 53 64 54 65
REMARK SMILES IDX 55 66 56 67 5 68 6 69 7 70 8 71 9 73 10 74 11 75 23 76 12 77
REMARK SMILES IDX 13 78 14 79 15 80 16 81 17 82 22 83 18 84 21 85 19 86 20 87
REMARK H PARENT 3 5 77 23 47 34 7 72
REMARK Flexibility Score: inf
ROOT
ATOM      1  C   UNL A   1      33.565  28.296  27.031  1.00  0.00     0.118 C 
ENDROOT
BRANCH   1   2
ATOM      2  N   UNL A   1      33.498  29.715  27.356  1.00  0.00    -0.352 N 
ATOM      3  O   UNL A   1      34.067  31.663  28.321  1.00  0.00    -0.269 OA
ATOM      4  C   UNL A   1      34.408  30.532  27.982  1.00  0.00     0.251 C 
ATOM      5  H   UNL A   1      32.665  30.162  27.082  1.00  0.00     0.163 HD
BRANCH   4   6
ATOM      6  C   UNL A   1      35.778  30.054  28.266  1.00  0.00     0.039 A 
ATOM      7  C   UNL A   1      36.111  29.540  29.520  1.00  0.00     0.014 A 
ATOM      8  C   UNL A   1      36.742  30.097  27.254  1.00  0.00     0.014 A 
ATOM      9  C   UNL A   1      37.435  29.237  29.815  1.00  0.00     0.010 A 
ATOM     10  C   UNL A   1      38.053  29.694  27.522  1.00  0.00     0.010 A 
ATOM     11  C   UNL A   1      38.420  29.299  28.817  1.00  0.00    -0.014 A 
BRANCH  11  12
ATOM     12  C   UNL A   1      39.814  28.904  29.149  1.00  0.00     0.031 A 
ATOM     13  C   UNL A   1      40.709  29.806  29.953  1.00  0.00     0.074 A 
ATOM     14  C   UNL A   1      40.256  27.694  28.751  1.00  0.00     0.049 A 
ATOM     15  N   UNL A   1      41.931  29.590  30.370  1.00  0.00    -0.248 NA
ATOM     16  C   UNL A   1      40.170  31.122  30.332  1.00  0.00     0.031 C 
ATOM     17  C   UNL A   1      39.480  26.730  27.966  1.00  0.00     0.029 A 
ATOM     18  N   UNL A   1      41.447  27.055  28.978  1.00  0.00    -0.354 N 
ATOM     19  C   UNL A   1      42.319  30.750  31.033  1.00  0.00     0.074 A 
ATOM     20  C   UNL A   1      41.208  31.674  30.946  1.00  0.00     0.031 C 
ATOM     21  C   UNL A   1      40.188  25.599  27.834  1.00  0.00     0.029 A 
ATOM     22  C   UNL A   1      41.489  25.780  28.466  1.00  0.00     0.049 A 
ATOM     23  H   UNL A   1      42.199  27.468  29.461  1.00  0.00     0.167 HD
ATOM     24  C   UNL A   1      43.490  31.019  31.658  1.00  0.00     0.031 A 
ATOM     25  C   UNL A   1      42.467  24.855  28.492  1.00  0.00     0.031 A 
ATOM     26  C   UNL A   1      44.592  30.095  31.746  1.00  0.00     0.049 A 
ATOM     27  C   UNL A   1      43.760  25.182  29.179  1.00  0.00     0.074 A 
ATOM     28  C   UNL A   1      45.809  30.263  32.383  1.00  0.00     0.029 A 
ATOM     29  N   UNL A   1      44.612  28.830  31.176  1.00  0.00    -0.354 N 
ATOM     30  N   UNL A   1      44.098  26.275  29.818  1.00  0.00    -0.248 NA
ATOM     31  C   UNL A   1      44.804  24.150  29.146  1.00  0.00     0.031 C 
ATOM     32  C   UNL A   1      46.582  29.117  32.161  1.00  0.00     0.029 A 
ATOM     33  C   UNL A   1      45.827  28.214  31.428  1.00  0.00     0.049 A 
ATOM     34  H   UNL A   1      43.870  28.428  30.667  1.00  0.00     0.167 HD
ATOM     35  C   UNL A   1      45.390  26.059  30.281  1.00  0.00     0.074 A 
ATOM     36  C   UNL A   1      45.765  24.723  29.858  1.00  0.00     0.031 C 
ATOM     37  C   UNL A   1      46.190  26.890  30.992  1.00  0.00     0.031 A 
BRANCH  24  38
ATOM     38  C   UNL A   1      43.654  32.391  32.259  1.00  0.00    -0.014 A 
ATOM     39  C   UNL A   1      44.208  33.455  31.523  1.00  0.00     0.010 A 
ATOM     40  C   UNL A   1      43.238  32.621  33.584  1.00  0.00     0.010 A 
ATOM     41  C   UNL A   1      44.393  34.706  32.118  1.00  0.00     0.020 A 
ATOM     42  C   UNL A   1      43.399  33.879  34.174  1.00  0.00     0.020 A 
ATOM     43  C   UNL A   1      43.998  34.907  33.444  1.00  0.00     0.054 A 
BRANCH  43  44
ATOM     44  S   UNL A   1      44.262  36.535  34.201  1.00  0.00     0.124 S 
ATOM     45  O   UNL A   1      42.991  37.201  33.926  1.00  0.00    -0.237 OA
ATOM     46  O   UNL A   1      44.507  36.204  35.602  1.00  0.00    -0.237 OA
ATOM     47  O   UNL A   1      45.414  37.069  33.479  1.00  0.00    -0.744 OA
ENDBRANCH  43  44
ENDBRANCH  24  38
BRANCH  25  48
ATOM     48  C   UNL A   1      42.239  23.532  27.854  1.00  0.00    -0.014 A 
ATOM     49  C   UNL A   1      42.729  23.271  26.563  1.00  0.00     0.010 A 
ATOM     50  C   UNL A   1      41.586  22.507  28.562  1.00  0.00     0.010 A 
ATOM     51  C   UNL A   1      42.572  22.006  25.991  1.00  0.00     0.020 A 
ATOM     52  C   UNL A   1      41.451  21.234  28.004  1.00  0.00     0.020 A 
ATOM     53  C   UNL A   1      41.940  20.993  26.719  1.00  0.00     0.054 A 
BRANCH  53  54
ATOM     54  S   UNL A   1      41.828  19.334  25.993  1.00  0.00     0.124 S 
ATOM     55  O   UNL A   1      42.686  19.457  24.820  1.00  0.00    -0.237 OA
ATOM     56  O   UNL A   1      42.339  18.483  27.065  1.00  0.00    -0.237 OA
ATOM     57  O   UNL A   1      40.401  19.180  25.715  1.00  0.00    -0.744 OA
ENDBRANCH  53  54
ENDBRANCH  25  48
BRANCH  37  58
ATOM     58  C   UNL A   1      47.544  26.365  31.382  1.00  0.00    -0.014 A 
ATOM     59  C   UNL A   1      47.785  25.862  32.674  1.00  0.00     0.010 A 
ATOM     60  C   UNL A   1      48.579  26.345  30.432  1.00  0.00     0.010 A 
ATOM     61  C   UNL A   1      49.051  25.378  33.017  1.00  0.00     0.020 A 
ATOM     62  C   UNL A   1      49.839  25.841  30.764  1.00  0.00     0.020 A 
ATOM     63  C   UNL A   1      50.071  25.376  32.060  1.00  0.00     0.054 A 
BRANCH  63  64
ATOM     64  S   UNL A   1      51.697  24.715  32.517  1.00  0.00     0.124 S 
ATOM     65  O   UNL A   1      51.737  24.974  33.953  1.00  0.00    -0.237 OA
ATOM     66  O   UNL A   1      51.594  23.309  32.134  1.00  0.00    -0.237 OA
ATOM     67  O   UNL A   1      52.628  25.506  31.715  1.00  0.00    -0.744 OA
ENDBRANCH  63  64
ENDBRANCH  37  58
ENDBRANCH  11  12
ENDBRANCH   4   6
ENDBRANCH   1   2
BRANCH   1  68
ATOM     68  C   UNL A   1      33.933  28.040  25.576  1.00  0.00     0.042 C 
BRANCH  68  69
ATOM     69  C   UNL A   1      32.953  27.141  24.840  1.00  0.00     0.117 C 
BRANCH  69  70
ATOM     70  N   UNL A   1      33.302  26.952  23.443  1.00  0.00    -0.356 N 
ATOM     71  C   UNL A   1      33.457  25.773  22.756  1.00  0.00     0.225 C 
ATOM     72  H   UNL A   1      33.447  27.775  22.921  1.00  0.00     0.163 HD
ATOM     73  O   UNL A   1      33.750  25.839  21.559  1.00  0.00    -0.275 OA
BRANCH  71  74
ATOM     74  C   UNL A   1      33.261  24.462  23.518  1.00  0.00     0.109 C 
ATOM     75  C   UNL A   1      31.954  23.670  23.296  1.00  0.00     0.117 C 
ATOM     76  C   UNL A   1      33.930  23.192  22.943  1.00  0.00     0.117 C 
ATOM     77  N   UNL A   1      32.731  22.383  23.385  1.00  0.00    -0.196 NA
BRANCH  77  78
ATOM     78  S   UNL A   1      32.732  21.482  24.848  1.00  0.00     0.243 S 
ATOM     79  O   UNL A   1      33.797  21.985  25.689  1.00  0.00    -0.207 OA
ATOM     80  O   UNL A   1      31.362  21.419  25.313  1.00  0.00    -0.207 OA
BRANCH  78  81
ATOM     81  C   UNL A   1      33.202  19.865  24.294  1.00  0.00     0.082 A 
ATOM     82  C   UNL A   1      34.379  19.283  24.780  1.00  0.00     0.025 A 
ATOM     83  C   UNL A   1      32.373  19.172  23.403  1.00  0.00     0.025 A 
ATOM     84  C   UNL A   1      34.734  18.003  24.355  1.00  0.00     0.040 A 
ATOM     85  C   UNL A   1      32.731  17.889  22.992  1.00  0.00     0.040 A 
ATOM     86  C   UNL A   1      33.909  17.319  23.469  1.00  0.00     0.123 A 
ATOM     87  F   UNL A   1      34.250  16.087  23.071  1.00  0.00    -0.207 F 
ENDBRANCH  78  81
ENDBRANCH  77  78
ENDBRANCH  71  74
ENDBRANCH  69  70
ENDBRANCH  68  69
ENDBRANCH   1  68
TORSDOF 15
ENDMDL
MODEL 2
REMARK VINA RESULT:     -11.3      1.096      1.658
REMARK SMILES O=C(NCCCNC(=O)C1CN(S(=O)(=O)c2ccc(F)cc2)C1)c1ccc(-c2c3nc(c(-c4ccc(S(=O)(=O)[O-])cc4)c4ccc([nH]4)c(-c4ccc(S(=O)(=O)[O-])cc4)c4nc(c(-c5ccc(S(=O)(=O)[O-])cc5)c5ccc2[nH]5)C=C4)C=C3)cc1
REMARK SMILES IDX 4 1 3 2 1 3 2 4 24 6 25 7 83 8 26 9 82 10 27 11 28 12 29 13
REMARK SMILES IDX 76 14 30 15 81 16 75 17 77 18 31 19 80 20 74 21 73 22 32 24
REMARK SMILES IDX 62 25 43 26 61 27 44 28 47 29 60 30 78 31 45 32 46 33 59 35
REMARK SMILES IDX 79 36 48 37 33 38 34 39 42 40 35 41 41 42 36 43 37 44 38 45
REMARK SMILES IDX 39 46 40 47 63 48 64 49 72 50 65 51 71 52 66 53 67 54 68 55
REMARK SMILES IDX 69 56 70 57 49 58 50 59 58 60 51 61 57 62 52 63 53 64 54 65
REMARK SMILES IDX 55 66 56 67 5 68 6 69 7 70 8 71 9 73 10 74 11 75 23 76 12 77
REMARK SMILES IDX 13 78 14 79 15 80 16 81 17 82 22 83 18 84 21 85 19 86 20 87
REMARK H PARENT 3 5 77 23 47 34 7 72
REMARK Flexibility Score: inf
ROOT
ATOM      1  C   UNL A   1      33.987  27.950  26.530  1.00  0.00     0.118 C 
ENDROOT
BRANCH   1   2
ATOM      2  N   UNL A   1      33.666  29.319  26.916  1.00  0.00    -0.352 N 
ATOM      3  O   UNL A   1      33.836  31.270  28.018  1.00  0.00    -0.269 OA
ATOM      4  C   UNL A   1      34.381  30.230  27.654  1.00  0.00     0.251 C 
ATOM      5  H   UNL A   1      32.793  29.643  26.596  1.00  0.00     0.163 HD
BRANCH   4   6
ATOM      6  C   UNL A   1      35.786  29.959  28.028  1.00  0.00     0.039 A 
ATOM      7  C   UNL A   1      36.829  30.229  27.140  1.00  0.00     0.014 A 
ATOM      8  C   UNL A   1      36.069  29.447  29.298  1.00  0.00     0.014 A 
ATOM      9  C   UNL A   1      38.123  29.829  27.450  1.00  0.00     0.010 A 
ATOM     10  C   UNL A   1      37.388  29.140  29.648  1.00  0.00     0.010 A 
ATOM     11  C   UNL A   1      38.421  29.290  28.711  1.00  0.00    -0.014 A 
BRANCH  11  12
ATOM     12  C   UNL A   1      39.827  28.935  29.034  1.00  0.00     0.031 A 
ATOM     13  C   UNL A   1      40.708  29.872  29.813  1.00  0.00     0.074 A 
ATOM     14  C   UNL A   1      40.294  27.729  28.651  1.00  0.00     0.049 A 
ATOM     15  N   UNL A   1      41.939  29.692  30.221  1.00  0.00    -0.248 NA
ATOM     16  C   UNL A   1      40.141  31.180  30.176  1.00  0.00     0.031 C 
ATOM     17  C   UNL A   1      39.534  26.733  27.891  1.00  0.00     0.029 A 
ATOM     18  N   UNL A   1      41.503  27.123  28.875  1.00  0.00    -0.354 N 
ATOM     19  C   UNL A   1      42.306  30.872  30.860  1.00  0.00     0.074 A 
ATOM     20  C   UNL A   1      41.172  31.767  30.770  1.00  0.00     0.031 C 
ATOM     21  C   UNL A   1      40.268  25.618  27.770  1.00  0.00     0.029 A 
ATOM     22  C   UNL A   1      41.571  25.841  28.384  1.00  0.00     0.049 A 
ATOM     23  H   UNL A   1      42.249  27.562  29.343  1.00  0.00     0.167 HD
ATOM     24  C   UNL A   1      43.477  31.180  31.467  1.00  0.00     0.031 A 
ATOM     25  C   UNL A   1      42.571  24.941  28.415  1.00  0.00     0.031 A 
ATOM     26  C   UNL A   1      44.602  30.284  31.558  1.00  0.00     0.049 A 
ATOM     27  C   UNL A   1      43.863  25.310  29.082  1.00  0.00     0.074 A 
ATOM     28  C   UNL A   1      45.821  30.492  32.180  1.00  0.00     0.029 A 
ATOM     29  N   UNL A   1      44.646  29.011  31.009  1.00  0.00    -0.354 N 
ATOM     30  N   UNL A   1      44.180  26.422  29.699  1.00  0.00    -0.248 NA
ATOM     31  C   UNL A   1      44.931  24.303  29.054  1.00  0.00     0.031 C 
ATOM     32  C   UNL A   1      46.619  29.362  31.968  1.00  0.00     0.029 A 
ATOM     33  C   UNL A   1      45.879  28.429  31.258  1.00  0.00     0.049 A 
ATOM     34  H   UNL A   1      43.910  28.583  30.515  1.00  0.00     0.167 HD
ATOM     35  C   UNL A   1      45.482  26.244  30.151  1.00  0.00     0.074 A 
ATOM     36  C   UNL A   1      45.885  24.912  29.747  1.00  0.00     0.031 C 
ATOM     37  C   UNL A   1      46.269  27.107  30.840  1.00  0.00     0.031 A 
BRANCH  24  38
ATOM     38  C   UNL A   1      43.614  32.565  32.045  1.00  0.00    -0.014 A 
ATOM     39  C   UNL A   1      43.348  32.824  33.402  1.00  0.00     0.010 A 
ATOM     40  C   UNL A   1      44.026  33.624  31.215  1.00  0.00     0.010 A 
ATOM     41  C   UNL A   1      43.437  34.126  33.904  1.00  0.00     0.020 A 
ATOM     42  C   UNL A   1      44.141  34.923  31.721  1.00  0.00     0.020 A 
ATOM     43  C   UNL A   1      43.822  35.170  33.057  1.00  0.00     0.054 A 
BRANCH  43  44
ATOM     44  S   UNL A   1      43.915  36.853  33.727  1.00  0.00     0.124 S 
ATOM     45  O   UNL A   1      44.348  37.615  32.558  1.00  0.00    -0.237 OA
ATOM     46  O   UNL A   1      42.544  37.103  34.165  1.00  0.00    -0.237 OA
ATOM     47  O   UNL A   1      44.899  36.745  34.800  1.00  0.00    -0.744 OA
ENDBRANCH  43  44
ENDBRANCH  24  38
BRANCH  25  48
ATOM     48  C   UNL A   1      42.368  23.603  27.801  1.00  0.00    -0.014 A 
ATOM     49  C   UNL A   1      42.821  23.342  26.497  1.00  0.00     0.010 A 
ATOM     50  C   UNL A   1      41.779  22.564  28.544  1.00  0.00     0.010 A 
ATOM     51  C   UNL A   1      42.690  22.065  25.946  1.00  0.00     0.020 A 
ATOM     52  C   UNL A   1      41.670  21.279  28.006  1.00  0.00     0.020 A 
ATOM     53  C   UNL A   1      42.122  21.040  26.707  1.00  0.00     0.054 A 
BRANCH  53  54
ATOM     54  S   UNL A   1      42.044  19.368  26.006  1.00  0.00     0.124 S 
ATOM     55  O   UNL A   1      42.564  18.555  27.100  1.00  0.00    -0.237 OA
ATOM     56  O   UNL A   1      40.620  19.209  25.720  1.00  0.00    -0.237 OA
ATOM     57  O   UNL A   1      42.901  19.454  24.825  1.00  0.00    -0.744 OA
ENDBRANCH  53  54
ENDBRANCH  25  48
BRANCH  37  58
ATOM     58  C   UNL A   1      47.640  26.621  31.224  1.00  0.00    -0.014 A 
ATOM     59  C   UNL A   1      47.839  25.845  32.381  1.00  0.00     0.010 A 
ATOM     60  C   UNL A   1      48.737  26.918  30.397  1.00  0.00     0.010 A 
ATOM     61  C   UNL A   1      49.121  25.404  32.720  1.00  0.00     0.020 A 
ATOM     62  C   UNL A   1      50.016  26.458  30.721  1.00  0.00     0.020 A 
ATOM     63  C   UNL A   1      50.202  25.718  31.890  1.00  0.00     0.054 A 
BRANCH  63  64
ATOM     64  S   UNL A   1      51.852  25.109  32.333  1.00  0.00     0.124 S 
ATOM     65  O   UNL A   1      51.642  23.665  32.368  1.00  0.00    -0.237 OA
ATOM     66  O   UNL A   1      52.683  25.597  31.234  1.00  0.00    -0.237 OA
ATOM     67  O   UNL A   1      52.114  25.734  33.628  1.00  0.00    -0.744 OA
ENDBRANCH  63  64
ENDBRANCH  37  58
ENDBRANCH  11  12
ENDBRANCH   4   6
ENDBRANCH   1   2
BRANCH   1  68
ATOM     68  C   UNL A   1      32.804  27.218  25.913  1.00  0.00     0.042 C 
BRANCH  68  69
ATOM     69  C   UNL A   1      33.070  25.749  25.625  1.00  0.00     0.117 C 
BRANCH  69  70
ATOM     70  N   UNL A   1      34.474  25.399  25.739  1.00  0.00    -0.356 N 
ATOM     71  C   UNL A   1      35.065  24.175  25.539  1.00  0.00     0.225 C 
ATOM     72  H   UNL A   1      35.081  26.132  25.992  1.00  0.00     0.163 HD
ATOM     73  O   UNL A   1      36.290  24.097  25.681  1.00  0.00    -0.275 OA
BRANCH  71  74
ATOM     74  C   UNL A   1      34.172  22.994  25.160  1.00  0.00     0.109 C 
ATOM     75  C   UNL A   1      34.276  22.423  23.729  1.00  0.00     0.117 C 
ATOM     76  C   UNL A   1      34.637  21.580  25.577  1.00  0.00     0.117 C 
ATOM     77  N   UNL A   1      34.082  21.034  24.281  1.00  0.00    -0.196 NA
BRANCH  77  78
ATOM     78  S   UNL A   1      32.537  20.287  24.197  1.00  0.00     0.243 S 
ATOM     79  O   UNL A   1      31.744  20.761  25.310  1.00  0.00    -0.207 OA
ATOM     80  O   UNL A   1      32.077  20.409  22.829  1.00  0.00    -0.207 OA
BRANCH  78  81
ATOM     81  C   UNL A   1      32.926  18.584  24.499  1.00  0.00     0.082 A 
ATOM     82  C   UNL A   1      32.585  18.005  25.726  1.00  0.00     0.025 A 
ATOM     83  C   UNL A   1      33.539  17.827  23.493  1.00  0.00     0.025 A 
ATOM     84  C   UNL A   1      32.876  16.660  25.951  1.00  0.00     0.040 A 
ATOM     85  C   UNL A   1      33.817  16.480  23.724  1.00  0.00     0.040 A 
ATOM     86  C   UNL A   1      33.487  15.911  24.950  1.00  0.00     0.123 A 
ATOM     87  F   UNL A   1      33.757  14.618  25.169  1.00  0.00    -0.207 F 
ENDBRANCH  78  81
ENDBRANCH  77  78
ENDBRANCH  71  74
ENDBRANCH  69  70
ENDBRANCH  68  69
ENDBRANCH   1  68
TORSDOF 15
ENDMDL
MODEL 3
REMARK VINA RESULT:     -11.2      1.502      1.994
REMARK SMILES O=C(NCCCNC(=O)C1CN(S(=O)(=O)c2ccc(F)cc2)C1)c1ccc(-c2c3nc(c(-c4ccc(S(=O)(=O)[O-])cc4)c4ccc([nH]4)c(-c4ccc(S(=O)(=O)[O-])cc4)c4nc(c(-c5ccc(S(=O)(=O)[O-])cc5)c5ccc2[nH]5)C=C4)C=C3)cc1
REMARK SMILES IDX 4 1 3 2 1 3 2 4 24 6 25 7 83 8 26 9 82 10 27 11 28 12 29 13
REMARK SMILES IDX 76 14 30 15 81 16 75 17 77 18 31 19 80 20 74 21 73 22 32 24
REMARK SMILES IDX 62 25 43 26 61 27 44 28 47 29 60 30 78 31 45 32 46 33 59 35
REMARK SMILES IDX 79 36 48 37 33 38 34 39 42 40 35 41 41 42 36 43 37 44 38 45
REMARK SMILES IDX 39 46 40 47 63 48 64 49 72 50 65 51 71 52 66 53 67 54 68 55
REMARK SMILES IDX 69 56 70 57 49 58 50 59 58 60 51 61 57 62 52 63 53 64 54 65
REMARK SMILES IDX 55 66 56 67 5 68 6 69 7 70 8 71 9 73 10 74 11 75 23 76 12 77
REMARK SMILES IDX 13 78 14 79 15 80 16 81 17 82 22 83 18 84 21 85 19 86 20 87
REMARK H PARENT 3 5 77 23 47 34 7 72
REMARK Flexibility Score: inf
ROOT
ATOM      1  C   UNL A   1      33.473  28.229  27.251  1.00  0.00     0.118 C 
ENDROOT
BRANCH   1   2
ATOM      2  N   UNL A   1      33.411  29.668  27.479  1.00  0.00    -0.352 N 
ATOM      3  O   UNL A   1      34.007  31.680  28.281  1.00  0.00    -0.269 OA
ATOM      4  C   UNL A   1      34.341  30.530  28.007  1.00  0.00     0.251 C 
ATOM      5  H   UNL A   1      32.564  30.091  27.210  1.00  0.00     0.163 HD
BRANCH   4   6
ATOM      6  C   UNL A   1      35.725  30.077  28.266  1.00  0.00     0.039 A 
ATOM      7  C   UNL A   1      36.096  29.584  29.517  1.00  0.00     0.014 A 
ATOM      8  C   UNL A   1      36.665  30.125  27.231  1.00  0.00     0.014 A 
ATOM      9  C   UNL A   1      37.430  29.306  29.785  1.00  0.00     0.010 A 
ATOM     10  C   UNL A   1      37.989  29.746  27.473  1.00  0.00     0.010 A 
ATOM     11  C   UNL A   1      38.392  29.372  28.764  1.00  0.00    -0.014 A 
BRANCH  11  12
ATOM     12  C   UNL A   1      39.799  29.004  29.067  1.00  0.00     0.031 A 
ATOM     13  C   UNL A   1      40.699  29.934  29.834  1.00  0.00     0.074 A 
ATOM     14  C   UNL A   1      40.250  27.795  28.680  1.00  0.00     0.049 A 
ATOM     15  N   UNL A   1      41.934  29.743  30.225  1.00  0.00    -0.248 NA
ATOM     16  C   UNL A   1      40.149  31.247  30.204  1.00  0.00     0.031 C 
ATOM     17  C   UNL A   1      39.470  26.805  27.930  1.00  0.00     0.029 A 
ATOM     18  N   UNL A   1      41.456  27.177  28.887  1.00  0.00    -0.354 N 
ATOM     19  C   UNL A   1      42.320  30.920  30.859  1.00  0.00     0.074 A 
ATOM     20  C   UNL A   1      41.193  31.825  30.783  1.00  0.00     0.031 C 
ATOM     21  C   UNL A   1      40.192  25.684  27.799  1.00  0.00     0.029 A 
ATOM     22  C   UNL A   1      41.506  25.895  28.395  1.00  0.00     0.049 A 
ATOM     23  H   UNL A   1      42.213  27.610  29.345  1.00  0.00     0.167 HD
ATOM     24  C   UNL A   1      43.502  31.218  31.449  1.00  0.00     0.031 A 
ATOM     25  C   UNL A   1      42.498  24.986  28.413  1.00  0.00     0.031 A 
ATOM     26  C   UNL A   1      44.620  30.312  31.526  1.00  0.00     0.049 A 
ATOM     27  C   UNL A   1      43.802  25.344  29.062  1.00  0.00     0.074 A 
ATOM     28  C   UNL A   1      45.849  30.509  32.131  1.00  0.00     0.029 A 
ATOM     29  N   UNL A   1      44.645  29.038  30.977  1.00  0.00    -0.354 N 
ATOM     30  N   UNL A   1      44.138  26.453  29.675  1.00  0.00    -0.248 NA
ATOM     31  C   UNL A   1      44.861  24.327  29.021  1.00  0.00     0.031 C 
ATOM     32  C   UNL A   1      46.634  29.371  31.908  1.00  0.00     0.029 A 
ATOM     33  C   UNL A   1      45.875  28.445  31.209  1.00  0.00     0.049 A 
ATOM     34  H   UNL A   1      43.898  28.616  30.493  1.00  0.00     0.167 HD
ATOM     35  C   UNL A   1      45.444  26.264  30.109  1.00  0.00     0.074 A 
ATOM     36  C   UNL A   1      45.830  24.927  29.700  1.00  0.00     0.031 C 
ATOM     37  C   UNL A   1      46.248  27.119  30.786  1.00  0.00     0.031 A 
BRANCH  24  38
ATOM     38  C   UNL A   1      43.659  32.601  32.024  1.00  0.00    -0.014 A 
ATOM     39  C   UNL A   1      44.152  33.667  31.249  1.00  0.00     0.010 A 
ATOM     40  C   UNL A   1      43.298  32.841  33.363  1.00  0.00     0.010 A 
ATOM     41  C   UNL A   1      44.333  34.931  31.817  1.00  0.00     0.020 A 
ATOM     42  C   UNL A   1      43.454  34.111  33.927  1.00  0.00     0.020 A 
ATOM     43  C   UNL A   1      43.994  35.143  33.157  1.00  0.00     0.054 A 
BRANCH  43  44
ATOM     44  S   UNL A   1      44.252  36.787  33.878  1.00  0.00     0.124 S 
ATOM     45  O   UNL A   1      43.010  37.468  33.519  1.00  0.00    -0.237 OA
ATOM     46  O   UNL A   1      44.419  36.495  35.299  1.00  0.00    -0.237 OA
ATOM     47  O   UNL A   1      45.450  37.279  33.202  1.00  0.00    -0.744 OA
ENDBRANCH  43  44
ENDBRANCH  24  38
BRANCH  25  48
ATOM     48  C   UNL A   1      42.275  23.649  27.803  1.00  0.00    -0.014 A 
ATOM     49  C   UNL A   1      42.799  23.350  26.535  1.00  0.00     0.010 A 
ATOM     50  C   UNL A   1      41.592  22.648  28.518  1.00  0.00     0.010 A 
ATOM     51  C   UNL A   1      42.646  22.071  25.991  1.00  0.00     0.020 A 
ATOM     52  C   UNL A   1      41.460  21.362  27.989  1.00  0.00     0.020 A 
ATOM     53  C   UNL A   1      41.984  21.084  26.725  1.00  0.00     0.054 A 
BRANCH  53  54
ATOM     54  S   UNL A   1      41.875  19.408  26.040  1.00  0.00     0.124 S 
ATOM     55  O   UNL A   1      42.750  19.499  24.876  1.00  0.00    -0.237 OA
ATOM     56  O   UNL A   1      42.369  18.582  27.140  1.00  0.00    -0.237 OA
ATOM     57  O   UNL A   1      40.452  19.251  25.746  1.00  0.00    -0.744 OA
ENDBRANCH  53  54
ENDBRANCH  25  48
BRANCH  37  58
ATOM     58  C   UNL A   1      47.619  26.621  31.152  1.00  0.00    -0.014 A 
ATOM     59  C   UNL A   1      48.722  26.837  30.306  1.00  0.00     0.010 A 
ATOM     60  C   UNL A   1      47.811  25.957  32.376  1.00  0.00     0.010 A 
ATOM     61  C   UNL A   1      49.988  26.365  30.664  1.00  0.00     0.020 A 
ATOM     62  C   UNL A   1      49.080  25.506  32.748  1.00  0.00     0.020 A 
ATOM     63  C   UNL A   1      50.157  25.698  31.882  1.00  0.00     0.054 A 
BRANCH  63  64
ATOM     64  S   UNL A   1      51.815  25.122  32.341  1.00  0.00     0.124 S 
ATOM     65  O   UNL A   1      52.005  25.754  33.643  1.00  0.00    -0.237 OA
ATOM     66  O   UNL A   1      51.658  23.670  32.364  1.00  0.00    -0.237 OA
ATOM     67  O   UNL A   1      52.667  25.633  31.269  1.00  0.00    -0.744 OA
ENDBRANCH  63  64
ENDBRANCH  37  58
ENDBRANCH  11  12
ENDBRANCH   4   6
ENDBRANCH   1   2
BRANCH   1  68
ATOM     68  C   UNL A   1      33.661  27.872  25.783  1.00  0.00     0.042 C 
BRANCH  68  69
ATOM     69  C   UNL A   1      32.369  27.848  24.984  1.00  0.00     0.117 C 
BRANCH  69  70
ATOM     70  N   UNL A   1      31.244  27.335  25.747  1.00  0.00    -0.356 N 
ATOM     71  C   UNL A   1      30.766  26.049  25.798  1.00  0.00     0.225 C 
ATOM     72  H   UNL A   1      30.763  27.994  26.298  1.00  0.00     0.163 HD
ATOM     73  O   UNL A   1      29.795  25.824  26.526  1.00  0.00    -0.275 OA
BRANCH  71  74
ATOM     74  C   UNL A   1      31.463  24.985  24.950  1.00  0.00     0.109 C 
ATOM     75  C   UNL A   1      32.647  24.209  25.569  1.00  0.00     0.117 C 
ATOM     76  C   UNL A   1      30.807  23.587  24.871  1.00  0.00     0.117 C 
ATOM     77  N   UNL A   1      32.183  22.961  24.864  1.00  0.00    -0.196 NA
BRANCH  77  78
ATOM     78  S   UNL A   1      32.949  22.466  23.408  1.00  0.00     0.243 S 
ATOM     79  O   UNL A   1      32.416  21.174  23.032  1.00  0.00    -0.207 OA
ATOM     80  O   UNL A   1      32.915  23.595  22.501  1.00  0.00    -0.207 OA
BRANCH  78  81
ATOM     81  C   UNL A   1      34.626  22.225  23.927  1.00  0.00     0.082 A 
ATOM     82  C   UNL A   1      34.928  21.205  24.836  1.00  0.00     0.025 A 
ATOM     83  C   UNL A   1      35.637  23.036  23.396  1.00  0.00     0.025 A 
ATOM     84  C   UNL A   1      36.253  21.008  25.227  1.00  0.00     0.040 A 
ATOM     85  C   UNL A   1      36.959  22.825  23.785  1.00  0.00     0.040 A 
ATOM     86  C   UNL A   1      37.254  21.816  24.698  1.00  0.00     0.123 A 
ATOM     87  F   UNL A   1      38.524  21.618  25.071  1.00  0.00    -0.207 F 
ENDBRANCH  78  81
ENDBRANCH  77  78
ENDBRANCH  71  74
ENDBRANCH  69  70
ENDBRANCH  68  69
ENDBRANCH   1  68
TORSDOF 15
ENDMDL
