MODEL 1
REMARK VINA RESULT:     -12.5      0.000      0.000
REMARK SMILES O=C(CCC(=O)Nc1cccc2c1C(=O)c1ccccc1C2=O)NCCCNC(=O)c1ccc(-c2c3nc(c(-c4ccc(S(=O)(=O)[O-])cc4)c4ccc([nH]4)c(-c4ccc(S(=O)(=O)[O-])cc4)c4nc(c(-c5ccc(S(=O)(=O)[O-])cc5)c5ccc2[nH]5)C=C4)C=C3)cc1
REMARK SMILES IDX 26 1 25 2 24 3 1 4 2 5 3 7 4 8 5 9 6 10 7 11 8 13 9 14 13 15
REMARK SMILES IDX 10 16 12 17 14 18 11 19 22 20 15 21 16 22 21 23 23 24 17 25
REMARK SMILES IDX 20 26 18 27 19 28 27 29 28 30 29 31 30 33 31 34 32 35 90 36
REMARK SMILES IDX 33 37 89 38 34 39 35 40 36 41 83 42 37 43 88 44 82 45 84 46
REMARK SMILES IDX 38 47 87 48 81 49 80 50 39 52 69 53 50 54 68 55 51 56 54 57
REMARK SMILES IDX 67 58 85 59 52 60 53 61 66 63 86 64 55 65 40 66 41 67 49 68
REMARK SMILES IDX 42 69 48 70 43 71 44 72 45 73 46 74 47 75 70 76 71 77 79 78
REMARK SMILES IDX 72 79 78 80 73 81 74 82 75 83 76 84 77 85 56 86 57 87 65 88
REMARK SMILES IDX 58 89 64 90 59 91 60 92 61 93 62 94 63 95
REMARK H PARENT 24 6 7 12 28 32 84 51 54 62
REMARK Flexibility Score: inf
ROOT
ATOM      1  C   UNL A   1      33.741  28.314  25.586  1.00  0.00     0.042 C 
ENDROOT
BRANCH   1   2
ATOM      2  C   UNL A   1      32.625  29.129  24.971  1.00  0.00     0.117 C 
BRANCH   2   3
ATOM      3  N   UNL A   1      31.271  28.639  25.100  1.00  0.00    -0.356 N 
ATOM      4  O   UNL A   1      31.119  26.880  23.617  1.00  0.00    -0.275 OA
ATOM      5  C   UNL A   1      31.029  27.327  24.753  1.00  0.00     0.220 C 
ATOM      6  H   UNL A   1      30.547  29.223  25.424  1.00  0.00     0.163 HD
BRANCH   5   7
ATOM      7  C   UNL A   1      30.892  26.389  25.922  1.00  0.00     0.110 C 
BRANCH   7   8
ATOM      8  C   UNL A   1      30.565  24.993  25.363  1.00  0.00     0.110 C 
BRANCH   8   9
ATOM      9  C   UNL A   1      30.659  23.974  26.462  1.00  0.00     0.224 C 
ATOM     10  O   UNL A   1      29.707  23.861  27.250  1.00  0.00    -0.275 OA
ATOM     11  N   UNL A   1      31.682  23.113  26.674  1.00  0.00    -0.325 N 
ATOM     12  H   UNL A   1      31.454  22.526  27.431  1.00  0.00     0.169 HD
BRANCH  11  13
ATOM     13  C   UNL A   1      32.969  22.757  26.189  1.00  0.00     0.053 A 
ATOM     14  C   UNL A   1      33.873  23.829  26.373  1.00  0.00     0.027 A 
ATOM     15  C   UNL A   1      33.492  21.581  25.599  1.00  0.00     0.057 A 
ATOM     16  C   UNL A   1      35.236  23.721  26.108  1.00  0.00     0.003 A 
ATOM     17  C   UNL A   1      34.892  21.430  25.474  1.00  0.00     0.036 A 
ATOM     18  C   UNL A   1      32.836  20.782  24.527  1.00  0.00     0.196 C 
ATOM     19  C   UNL A   1      35.756  22.501  25.712  1.00  0.00     0.013 A 
ATOM     20  C   UNL A   1      35.475  20.143  25.007  1.00  0.00     0.194 C 
ATOM     21  O   UNL A   1      32.276  21.349  23.598  1.00  0.00    -0.288 OA
ATOM     22  C   UNL A   1      33.244  19.391  24.299  1.00  0.00     0.034 A 
ATOM     23  C   UNL A   1      34.568  19.069  24.557  1.00  0.00     0.034 A 
ATOM     24  O   UNL A   1      36.688  19.966  25.012  1.00  0.00    -0.289 OA
ATOM     25  C   UNL A   1      32.407  18.462  23.675  1.00  0.00     0.013 A 
ATOM     26  C   UNL A   1      35.042  17.782  24.281  1.00  0.00     0.013 A 
ATOM     27  C   UNL A   1      32.865  17.169  23.424  1.00  0.00     0.001 A 
ATOM     28  C   UNL A   1      34.179  16.825  23.739  1.00  0.00     0.001 A 
ENDBRANCH  11  13
ENDBRANCH   8   9
ENDBRANCH   7   8
ENDBRANCH   5   7
ENDBRANCH   2   3
ENDBRANCH   1   2
BRANCH   1  29
ATOM     29  C   UNL A   1      33.689  28.407  27.084  1.00  0.00     0.118 C 
BRANCH  29  30
ATOM     30  N   UNL A   1      33.550  29.778  27.579  1.00  0.00    -0.352 N 
ATOM     31  C   UNL A   1      34.508  30.585  28.156  1.00  0.00     0.251 C 
ATOM     32  H   UNL A   1      32.653  30.176  27.487  1.00  0.00     0.163 HD
ATOM     33  O   UNL A   1      34.225  31.688  28.568  1.00  0.00    -0.269 OA
BRANCH  31  34
ATOM     34  C   UNL A   1      35.865  30.018  28.330  1.00  0.00     0.039 A 
ATOM     35  C   UNL A   1      36.781  30.130  27.286  1.00  0.00     0.014 A 
ATOM     36  C   UNL A   1      36.255  29.495  29.560  1.00  0.00     0.014 A 
ATOM     37  C   UNL A   1      38.109  29.774  27.511  1.00  0.00     0.010 A 
ATOM     38  C   UNL A   1      37.596  29.324  29.835  1.00  0.00     0.010 A 
ATOM     39  C   UNL A   1      38.531  29.406  28.800  1.00  0.00    -0.014 A 
BRANCH  39  40
ATOM     40  C   UNL A   1      39.929  29.011  29.083  1.00  0.00     0.031 A 
ATOM     41  C   UNL A   1      40.844  29.997  29.765  1.00  0.00     0.074 A 
ATOM     42  C   UNL A   1      40.381  27.812  28.674  1.00  0.00     0.049 A 
ATOM     43  N   UNL A   1      42.114  29.880  30.054  1.00  0.00    -0.248 NA
ATOM     44  C   UNL A   1      40.276  31.311  30.120  1.00  0.00     0.031 C 
ATOM     45  C   UNL A   1      39.606  26.815  27.926  1.00  0.00     0.029 A 
ATOM     46  N   UNL A   1      41.605  27.221  28.839  1.00  0.00    -0.354 N 
ATOM     47  C   UNL A   1      42.493  31.111  30.579  1.00  0.00     0.074 A 
ATOM     48  C   UNL A   1      41.352  31.987  30.488  1.00  0.00     0.031 C 
ATOM     49  C   UNL A   1      40.355  25.713  27.754  1.00  0.00     0.029 A 
ATOM     50  C   UNL A   1      41.668  25.938  28.348  1.00  0.00     0.049 A 
ATOM     51  H   UNL A   1      42.367  27.671  29.270  1.00  0.00     0.167 HD
ATOM     52  C   UNL A   1      43.673  31.469  31.134  1.00  0.00     0.031 A 
ATOM     53  C   UNL A   1      42.670  25.042  28.394  1.00  0.00     0.031 A 
ATOM     54  C   UNL A   1      44.778  30.565  31.281  1.00  0.00     0.049 A 
ATOM     55  C   UNL A   1      43.943  25.429  29.096  1.00  0.00     0.074 A 
ATOM     56  C   UNL A   1      45.997  30.781  31.894  1.00  0.00     0.029 A 
ATOM     57  N   UNL A   1      44.780  29.254  30.826  1.00  0.00    -0.354 N 
ATOM     58  N   UNL A   1      44.265  26.577  29.645  1.00  0.00    -0.248 NA
ATOM     59  C   UNL A   1      44.975  24.393  29.209  1.00  0.00     0.031 C 
ATOM     60  C   UNL A   1      46.750  29.606  31.785  1.00  0.00     0.029 A 
ATOM     61  C   UNL A   1      45.979  28.646  31.147  1.00  0.00     0.049 A 
ATOM     62  H   UNL A   1      44.038  28.820  30.346  1.00  0.00     0.167 HD
ATOM     63  C   UNL A   1      45.527  26.391  30.198  1.00  0.00     0.074 A 
ATOM     64  C   UNL A   1      45.897  25.015  29.929  1.00  0.00     0.031 C 
ATOM     65  C   UNL A   1      46.311  27.273  30.866  1.00  0.00     0.031 A 
BRANCH  52  66
ATOM     66  C   UNL A   1      43.802  32.882  31.638  1.00  0.00    -0.014 A 
ATOM     67  C   UNL A   1      44.247  33.918  30.794  1.00  0.00     0.010 A 
ATOM     68  C   UNL A   1      43.481  33.181  32.974  1.00  0.00     0.010 A 
ATOM     69  C   UNL A   1      44.421  35.213  31.289  1.00  0.00     0.020 A 
ATOM     70  C   UNL A   1      43.621  34.483  33.464  1.00  0.00     0.020 A 
ATOM     71  C   UNL A   1      44.110  35.486  32.624  1.00  0.00     0.054 A 
BRANCH  71  72
ATOM     72  S   UNL A   1      44.330  37.179  33.238  1.00  0.00     0.124 S 
ATOM     73  O   UNL A   1      45.297  36.984  34.316  1.00  0.00    -0.237 OA
ATOM     74  O   UNL A   1      44.834  37.884  32.063  1.00  0.00    -0.237 OA
ATOM     75  O   UNL A   1      42.990  37.568  33.666  1.00  0.00    -0.744 OA
ENDBRANCH  71  72
ENDBRANCH  52  66
BRANCH  53  76
ATOM     76  C   UNL A   1      42.481  23.680  27.826  1.00  0.00    -0.014 A 
ATOM     77  C   UNL A   1      42.948  23.378  26.534  1.00  0.00     0.010 A 
ATOM     78  C   UNL A   1      41.855  22.670  28.580  1.00  0.00     0.010 A 
ATOM     79  C   UNL A   1      42.768  22.100  25.995  1.00  0.00     0.020 A 
ATOM     80  C   UNL A   1      41.699  21.383  28.054  1.00  0.00     0.020 A 
ATOM     81  C   UNL A   1      42.143  21.110  26.759  1.00  0.00     0.054 A 
BRANCH  81  82
ATOM     82  S   UNL A   1      41.960  19.448  26.055  1.00  0.00     0.124 S 
ATOM     83  O   UNL A   1      42.467  18.605  27.132  1.00  0.00    -0.237 OA
ATOM     84  O   UNL A   1      40.522  19.364  25.809  1.00  0.00    -0.237 OA
ATOM     85  O   UNL A   1      42.787  19.494  24.851  1.00  0.00    -0.744 OA
ENDBRANCH  81  82
ENDBRANCH  53  76
BRANCH  65  86
ATOM     86  C   UNL A   1      47.623  26.757  31.387  1.00  0.00    -0.014 A 
ATOM     87  C   UNL A   1      48.797  26.844  30.620  1.00  0.00     0.010 A 
ATOM     88  C   UNL A   1      47.680  26.204  32.679  1.00  0.00     0.010 A 
ATOM     89  C   UNL A   1      49.999  26.337  31.117  1.00  0.00     0.020 A 
ATOM     90  C   UNL A   1      48.886  25.723  33.191  1.00  0.00     0.020 A 
ATOM     91  C   UNL A   1      50.032  25.773  32.397  1.00  0.00     0.054 A 
BRANCH  91  92
ATOM     92  S   UNL A   1      51.606  25.130  33.027  1.00  0.00     0.124 S 
ATOM     93  O   UNL A   1      52.442  25.152  31.829  1.00  0.00    -0.237 OA
ATOM     94  O   UNL A   1      51.961  26.100  34.060  1.00  0.00    -0.237 OA
ATOM     95  O   UNL A   1      51.261  23.799  33.523  1.00  0.00    -0.744 OA
ENDBRANCH  91  92
ENDBRANCH  65  86
ENDBRANCH  39  40
ENDBRANCH  31  34
ENDBRANCH  29  30
ENDBRANCH   1  29
TORSDOF 16
ENDMDL
MODEL 2
REMARK VINA RESULT:     -12.3      4.198     11.764
REMARK SMILES O=C(CCC(=O)Nc1cccc2c1C(=O)c1ccccc1C2=O)NCCCNC(=O)c1ccc(-c2c3nc(c(-c4ccc(S(=O)(=O)[O-])cc4)c4ccc([nH]4)c(-c4ccc(S(=O)(=O)[O-])cc4)c4nc(c(-c5ccc(S(=O)(=O)[O-])cc5)c5ccc2[nH]5)C=C4)C=C3)cc1
REMARK SMILES IDX 26 1 25 2 24 3 1 4 2 5 3 7 4 8 5 9 6 10 7 11 8 13 9 14 13 15
REMARK SMILES IDX 10 16 12 17 14 18 11 19 22 20 15 21 16 22 21 23 23 24 17 25
REMARK SMILES IDX 20 26 18 27 19 28 27 29 28 30 29 31 30 33 31 34 32 35 90 36
REMARK SMILES IDX 33 37 89 38 34 39 35 40 36 41 83 42 37 43 88 44 82 45 84 46
REMARK SMILES IDX 38 47 87 48 81 49 80 50 39 52 69 53 50 54 68 55 51 56 54 57
REMARK SMILES IDX 67 58 85 59 52 60 53 61 66 63 86 64 55 65 40 66 41 67 49 68
REMARK SMILES IDX 42 69 48 70 43 71 44 72 45 73 46 74 47 75 70 76 71 77 79 78
REMARK SMILES IDX 72 79 78 80 73 81 74 82 75 83 76 84 77 85 56 86 57 87 65 88
REMARK SMILES IDX 58 89 64 90 59 91 60 92 61 93 62 94 63 95
REMARK H PARENT 24 6 7 12 28 32 84 51 54 62
REMARK Flexibility Score: inf
ROOT
ATOM      1  C   UNL A   1      41.583  21.733  26.132  1.00  0.00     0.042 C 
ENDROOT
BRANCH   1   2
ATOM      2  C   UNL A   1      42.424  20.477  26.075  1.00  0.00     0.117 C 
BRANCH   2   3
ATOM      3  N   UNL A   1      43.857  20.619  25.946  1.00  0.00    -0.356 N 
ATOM      4  O   UNL A   1      44.168  21.923  24.069  1.00  0.00    -0.275 OA
ATOM      5  C   UNL A   1      44.331  21.721  25.265  1.00  0.00     0.220 C 
ATOM      6  H   UNL A   1      44.472  19.954  26.330  1.00  0.00     0.163 HD
BRANCH   5   7
ATOM      7  C   UNL A   1      44.856  22.820  26.149  1.00  0.00     0.110 C 
BRANCH   7   8
ATOM      8  C   UNL A   1      44.216  24.139  25.681  1.00  0.00     0.110 C 
BRANCH   8   9
ATOM      9  C   UNL A   1      45.260  25.007  25.039  1.00  0.00     0.224 C 
ATOM     10  O   UNL A   1      46.182  24.461  24.412  1.00  0.00    -0.275 OA
ATOM     11  N   UNL A   1      45.290  26.360  25.035  1.00  0.00    -0.325 N 
ATOM     12  H   UNL A   1      46.057  26.661  24.497  1.00  0.00     0.169 HD
BRANCH  11  13
ATOM     13  C   UNL A   1      44.603  27.499  25.535  1.00  0.00     0.053 A 
ATOM     14  C   UNL A   1      43.245  27.461  25.140  1.00  0.00     0.027 A 
ATOM     15  C   UNL A   1      45.002  28.602  26.328  1.00  0.00     0.057 A 
ATOM     16  C   UNL A   1      42.302  28.381  25.592  1.00  0.00     0.003 A 
ATOM     17  C   UNL A   1      44.016  29.440  26.898  1.00  0.00     0.036 A 
ATOM     18  C   UNL A   1      46.246  29.399  26.143  1.00  0.00     0.196 C 
ATOM     19  C   UNL A   1      42.676  29.339  26.518  1.00  0.00     0.013 A 
ATOM     20  C   UNL A   1      44.397  30.507  27.864  1.00  0.00     0.194 C 
ATOM     21  O   UNL A   1      46.616  29.702  25.017  1.00  0.00    -0.288 OA
ATOM     22  C   UNL A   1      46.760  30.217  27.248  1.00  0.00     0.034 A 
ATOM     23  C   UNL A   1      45.829  30.760  28.121  1.00  0.00     0.034 A 
ATOM     24  O   UNL A   1      43.539  31.154  28.452  1.00  0.00    -0.289 OA
ATOM     25  C   UNL A   1      48.101  30.601  27.329  1.00  0.00     0.013 A 
ATOM     26  C   UNL A   1      46.245  31.617  29.145  1.00  0.00     0.013 A 
ATOM     27  C   UNL A   1      48.527  31.433  28.365  1.00  0.00     0.001 A 
ATOM     28  C   UNL A   1      47.601  31.930  29.280  1.00  0.00     0.001 A 
ENDBRANCH  11  13
ENDBRANCH   8   9
ENDBRANCH   7   8
ENDBRANCH   5   7
ENDBRANCH   2   3
ENDBRANCH   1   2
BRANCH   1  29
ATOM     29  C   UNL A   1      40.299  21.467  26.867  1.00  0.00     0.118 C 
BRANCH  29  30
ATOM     30  N   UNL A   1      39.105  21.862  26.117  1.00  0.00    -0.352 N 
ATOM     31  C   UNL A   1      38.518  23.107  26.030  1.00  0.00     0.251 C 
ATOM     32  H   UNL A   1      38.664  21.143  25.609  1.00  0.00     0.163 HD
ATOM     33  O   UNL A   1      37.492  23.267  25.407  1.00  0.00    -0.269 OA
BRANCH  31  34
ATOM     34  C   UNL A   1      39.140  24.212  26.794  1.00  0.00     0.039 A 
ATOM     35  C   UNL A   1      39.916  25.148  26.114  1.00  0.00     0.014 A 
ATOM     36  C   UNL A   1      38.850  24.380  28.145  1.00  0.00     0.014 A 
ATOM     37  C   UNL A   1      40.342  26.291  26.790  1.00  0.00     0.010 A 
ATOM     38  C   UNL A   1      39.110  25.591  28.754  1.00  0.00     0.010 A 
ATOM     39  C   UNL A   1      39.908  26.536  28.103  1.00  0.00    -0.014 A 
BRANCH  39  40
ATOM     40  C   UNL A   1      40.342  27.730  28.861  1.00  0.00     0.031 A 
ATOM     41  C   UNL A   1      41.724  27.753  29.464  1.00  0.00     0.074 A 
ATOM     42  C   UNL A   1      39.482  28.746  29.058  1.00  0.00     0.049 A 
ATOM     43  N   UNL A   1      42.284  28.668  30.210  1.00  0.00    -0.248 NA
ATOM     44  C   UNL A   1      42.574  26.566  29.248  1.00  0.00     0.031 C 
ATOM     45  C   UNL A   1      38.090  28.791  28.596  1.00  0.00     0.029 A 
ATOM     46  N   UNL A   1      39.657  29.947  29.693  1.00  0.00    -0.354 N 
ATOM     47  C   UNL A   1      43.519  28.145  30.580  1.00  0.00     0.074 A 
ATOM     48  C   UNL A   1      43.593  26.805  30.055  1.00  0.00     0.031 C 
ATOM     49  C   UNL A   1      37.561  29.985  28.908  1.00  0.00     0.029 A 
ATOM     50  C   UNL A   1      38.561  30.773  29.619  1.00  0.00     0.049 A 
ATOM     51  H   UNL A   1      40.489  30.196  30.156  1.00  0.00     0.167 HD
ATOM     52  C   UNL A   1      44.525  28.745  31.256  1.00  0.00     0.031 A 
ATOM     53  C   UNL A   1      38.396  32.034  30.059  1.00  0.00     0.031 A 
ATOM     54  C   UNL A   1      44.464  30.104  31.712  1.00  0.00     0.049 A 
ATOM     55  C   UNL A   1      39.558  32.714  30.728  1.00  0.00     0.074 A 
ATOM     56  C   UNL A   1      45.443  30.851  32.339  1.00  0.00     0.029 A 
ATOM     57  N   UNL A   1      43.359  30.929  31.563  1.00  0.00    -0.354 N 
ATOM     58  N   UNL A   1      40.744  32.230  31.014  1.00  0.00    -0.248 NA
ATOM     59  C   UNL A   1      39.371  34.119  31.108  1.00  0.00     0.031 C 
ATOM     60  C   UNL A   1      44.919  32.124  32.594  1.00  0.00     0.029 A 
ATOM     61  C   UNL A   1      43.630  32.180  32.082  1.00  0.00     0.049 A 
ATOM     62  H   UNL A   1      42.506  30.663  31.147  1.00  0.00     0.167 HD
ATOM     63  C   UNL A   1      41.456  33.281  31.581  1.00  0.00     0.074 A 
ATOM     64  C   UNL A   1      40.570  34.428  31.579  1.00  0.00     0.031 C 
ATOM     65  C   UNL A   1      42.725  33.300  32.060  1.00  0.00     0.031 A 
BRANCH  52  66
ATOM     66  C   UNL A   1      45.771  27.936  31.507  1.00  0.00    -0.014 A 
ATOM     67  C   UNL A   1      45.928  27.192  32.692  1.00  0.00     0.010 A 
ATOM     68  C   UNL A   1      46.802  27.922  30.552  1.00  0.00     0.010 A 
ATOM     69  C   UNL A   1      47.112  26.494  32.942  1.00  0.00     0.020 A 
ATOM     70  C   UNL A   1      47.975  27.197  30.782  1.00  0.00     0.020 A 
ATOM     71  C   UNL A   1      48.131  26.506  31.986  1.00  0.00     0.054 A 
BRANCH  71  72
ATOM     72  S   UNL A   1      49.653  25.580  32.326  1.00  0.00     0.124 S 
ATOM     73  O   UNL A   1      49.167  24.513  33.199  1.00  0.00    -0.237 OA
ATOM     74  O   UNL A   1      50.077  25.156  30.994  1.00  0.00    -0.237 OA
ATOM     75  O   UNL A   1      50.520  26.563  32.969  1.00  0.00    -0.744 OA
ENDBRANCH  71  72
ENDBRANCH  52  66
BRANCH  53  76
ATOM     76  C   UNL A   1      37.114  32.749  29.816  1.00  0.00    -0.014 A 
ATOM     77  C   UNL A   1      36.174  32.895  30.852  1.00  0.00     0.010 A 
ATOM     78  C   UNL A   1      36.834  33.308  28.556  1.00  0.00     0.010 A 
ATOM     79  C   UNL A   1      34.966  33.562  30.626  1.00  0.00     0.020 A 
ATOM     80  C   UNL A   1      35.638  34.000  28.335  1.00  0.00     0.020 A 
ATOM     81  C   UNL A   1      34.705  34.110  29.367  1.00  0.00     0.054 A 
BRANCH  81  82
ATOM     82  S   UNL A   1      33.150  35.009  29.110  1.00  0.00     0.124 S 
ATOM     83  O   UNL A   1      33.625  36.311  28.654  1.00  0.00    -0.237 OA
ATOM     84  O   UNL A   1      32.475  34.193  28.103  1.00  0.00    -0.237 OA
ATOM     85  O   UNL A   1      32.526  34.996  30.431  1.00  0.00    -0.744 OA
ENDBRANCH  81  82
ENDBRANCH  53  76
BRANCH  65  86
ATOM     86  C   UNL A   1      43.236  34.615  32.577  1.00  0.00    -0.014 A 
ATOM     87  C   UNL A   1      43.127  34.956  33.936  1.00  0.00     0.010 A 
ATOM     88  C   UNL A   1      43.862  35.507  31.688  1.00  0.00     0.010 A 
ATOM     89  C   UNL A   1      43.589  36.193  34.388  1.00  0.00     0.020 A 
ATOM     90  C   UNL A   1      44.352  36.732  32.142  1.00  0.00     0.020 A 
ATOM     91  C   UNL A   1      44.192  37.076  33.485  1.00  0.00     0.054 A 
BRANCH  91  92
ATOM     92  S   UNL A   1      44.794  38.673  34.096  1.00  0.00     0.124 S 
ATOM     93  O   UNL A   1      44.320  38.666  35.477  1.00  0.00    -0.237 OA
ATOM     94  O   UNL A   1      46.241  38.559  33.926  1.00  0.00    -0.237 OA
ATOM     95  O   UNL A   1      44.145  39.645  33.218  1.00  0.00    -0.744 OA
ENDBRANCH  91  92
ENDBRANCH  65  86
ENDBRANCH  39  40
ENDBRANCH  31  34
ENDBRANCH  29  30
ENDBRANCH   1  29
TORSDOF 16
ENDMDL
MODEL 3
REMARK VINA RESULT:     -12.0      2.844      9.610
REMARK SMILES O=C(CCC(=O)Nc1cccc2c1C(=O)c1ccccc1C2=O)NCCCNC(=O)c1ccc(-c2c3nc(c(-c4ccc(S(=O)(=O)[O-])cc4)c4ccc([nH]4)c(-c4ccc(S(=O)(=O)[O-])cc4)c4nc(c(-c5ccc(S(=O)(=O)[O-])cc5)c5ccc2[nH]5)C=C4)C=C3)cc1
REMARK SMILES IDX 26 1 25 2 24 3 1 4 2 5 3 7 4 8 5 9 6 10 7 11 8 13 9 14 13 15
REMARK SMILES IDX 10 16 12 17 14 18 11 19 22 20 15 21 16 22 21 23 23 24 17 25
REMARK SMILES IDX 20 26 18 27 19 28 27 29 28 30 29 31 30 33 31 34 32 35 90 36
REMARK SMILES IDX 33 37 89 38 34 39 35 40 36 41 83 42 37 43 88 44 82 45 84 46
REMARK SMILES IDX 38 47 87 48 81 49 80 50 39 52 69 53 50 54 68 55 51 56 54 57
REMARK SMILES IDX 67 58 85 59 52 60 53 61 66 63 86 64 55 65 40 66 41 67 49 68
REMARK SMILES IDX 42 69 48 70 43 71 44 72 45 73 46 74 47 75 70 76 71 77 79 78
REMARK SMILES IDX 72 79 78 80 73 81 74 82 75 83 76 84 77 85 56 86 57 87 65 88
REMARK SMILES IDX 58 89 64 90 59 91 60 92 61 93 62 94 63 95
REMARK H PARENT 24 6 7 12 28 32 84 51 54 62
REMARK Flexibility Score: inf
ROOT
ATOM      1  C   UNL A   1      35.438  23.407  26.296  1.00  0.00     0.042 C 
ENDROOT
BRANCH   1   2
ATOM      2  C   UNL A   1      34.154  23.352  25.498  1.00  0.00     0.117 C 
BRANCH   2   3
ATOM      3  N   UNL A   1      33.160  22.370  25.869  1.00  0.00    -0.356 N 
ATOM      4  O   UNL A   1      32.500  22.952  28.001  1.00  0.00    -0.275 OA
ATOM      5  C   UNL A   1      32.235  22.726  26.828  1.00  0.00     0.220 C 
ATOM      6  H   UNL A   1      33.144  21.478  25.453  1.00  0.00     0.163 HD
BRANCH   5   7
ATOM      7  C   UNL A   1      30.878  23.082  26.281  1.00  0.00     0.110 C 
BRANCH   7   8
ATOM      8  C   UNL A   1      30.936  24.548  25.813  1.00  0.00     0.110 C 
BRANCH   8   9
ATOM      9  C   UNL A   1      30.853  24.602  24.315  1.00  0.00     0.224 C 
ATOM     10  O   UNL A   1      30.881  23.536  23.680  1.00  0.00    -0.275 OA
ATOM     11  N   UNL A   1      30.710  25.715  23.557  1.00  0.00    -0.325 N 
ATOM     12  H   UNL A   1      30.632  25.450  22.612  1.00  0.00     0.169 HD
BRANCH  11  13
ATOM     13  C   UNL A   1      30.633  27.131  23.646  1.00  0.00     0.053 A 
ATOM     14  C   UNL A   1      29.653  27.622  22.751  1.00  0.00     0.027 A 
ATOM     15  C   UNL A   1      31.308  28.092  24.436  1.00  0.00     0.057 A 
ATOM     16  C   UNL A   1      29.269  28.960  22.713  1.00  0.00     0.003 A 
ATOM     17  C   UNL A   1      30.811  29.414  24.497  1.00  0.00     0.036 A 
ATOM     18  C   UNL A   1      32.774  28.129  24.693  1.00  0.00     0.196 C 
ATOM     19  C   UNL A   1      29.808  29.848  23.627  1.00  0.00     0.013 A 
ATOM     20  C   UNL A   1      31.403  30.402  25.441  1.00  0.00     0.194 C 
ATOM     21  O   UNL A   1      33.560  27.896  23.784  1.00  0.00    -0.288 OA
ATOM     22  C   UNL A   1      33.297  28.884  25.838  1.00  0.00     0.034 A 
ATOM     23  C   UNL A   1      32.595  30.018  26.222  1.00  0.00     0.034 A 
ATOM     24  O   UNL A   1      30.899  31.509  25.585  1.00  0.00    -0.289 OA
ATOM     25  C   UNL A   1      34.540  28.604  26.410  1.00  0.00     0.013 A 
ATOM     26  C   UNL A   1      33.085  30.829  27.251  1.00  0.00     0.013 A 
ATOM     27  C   UNL A   1      35.019  29.392  27.456  1.00  0.00     0.001 A 
ATOM     28  C   UNL A   1      34.286  30.497  27.885  1.00  0.00     0.001 A 
ENDBRANCH  11  13
ENDBRANCH   8   9
ENDBRANCH   7   8
ENDBRANCH   5   7
ENDBRANCH   2   3
ENDBRANCH   1   2
BRANCH   1  29
ATOM     29  C   UNL A   1      36.599  23.711  25.393  1.00  0.00     0.118 C 
BRANCH  29  30
ATOM     30  N   UNL A   1      37.699  22.752  25.513  1.00  0.00    -0.352 N 
ATOM     31  C   UNL A   1      38.917  22.916  26.138  1.00  0.00     0.251 C 
ATOM     32  H   UNL A   1      37.548  21.875  25.091  1.00  0.00     0.163 HD
ATOM     33  O   UNL A   1      39.754  22.041  26.107  1.00  0.00    -0.269 OA
BRANCH  31  34
ATOM     34  C   UNL A   1      39.192  24.227  26.768  1.00  0.00     0.039 A 
ATOM     35  C   UNL A   1      38.839  24.422  28.102  1.00  0.00     0.014 A 
ATOM     36  C   UNL A   1      39.903  25.204  26.076  1.00  0.00     0.014 A 
ATOM     37  C   UNL A   1      39.266  25.578  28.753  1.00  0.00     0.010 A 
ATOM     38  C   UNL A   1      40.480  26.248  26.768  1.00  0.00     0.010 A 
ATOM     39  C   UNL A   1      40.123  26.478  28.099  1.00  0.00    -0.014 A 
BRANCH  39  40
ATOM     40  C   UNL A   1      40.593  27.722  28.747  1.00  0.00     0.031 A 
ATOM     41  C   UNL A   1      42.018  27.800  29.236  1.00  0.00     0.074 A 
ATOM     42  C   UNL A   1      39.733  28.737  28.950  1.00  0.00     0.049 A 
ATOM     43  N   UNL A   1      42.618  28.767  29.880  1.00  0.00    -0.248 NA
ATOM     44  C   UNL A   1      42.869  26.614  29.025  1.00  0.00     0.031 C 
ATOM     45  C   UNL A   1      38.309  28.735  28.598  1.00  0.00     0.029 A 
ATOM     46  N   UNL A   1      39.936  29.977  29.496  1.00  0.00    -0.354 N 
ATOM     47  C   UNL A   1      43.887  28.285  30.181  1.00  0.00     0.074 A 
ATOM     48  C   UNL A   1      43.944  26.916  29.733  1.00  0.00     0.031 C 
ATOM     49  C   UNL A   1      37.784  29.939  28.879  1.00  0.00     0.029 A 
ATOM     50  C   UNL A   1      38.822  30.783  29.460  1.00  0.00     0.049 A 
ATOM     51  H   UNL A   1      40.797  30.264  29.876  1.00  0.00     0.167 HD
ATOM     52  C   UNL A   1      44.932  28.938  30.738  1.00  0.00     0.031 A 
ATOM     53  C   UNL A   1      38.670  32.066  29.835  1.00  0.00     0.031 A 
ATOM     54  C   UNL A   1      44.882  30.321  31.116  1.00  0.00     0.049 A 
ATOM     55  C   UNL A   1      39.868  32.801  30.368  1.00  0.00     0.074 A 
ATOM     56  C   UNL A   1      45.894  31.118  31.617  1.00  0.00     0.029 A 
ATOM     57  N   UNL A   1      43.754  31.121  31.005  1.00  0.00    -0.354 N 
ATOM     58  N   UNL A   1      41.082  32.350  30.588  1.00  0.00    -0.248 NA
ATOM     59  C   UNL A   1      39.686  34.224  30.677  1.00  0.00     0.031 C 
ATOM     60  C   UNL A   1      45.368  32.397  31.836  1.00  0.00     0.029 A 
ATOM     61  C   UNL A   1      44.043  32.405  31.425  1.00  0.00     0.049 A 
ATOM     62  H   UNL A   1      42.876  30.819  30.675  1.00  0.00     0.167 HD
ATOM     63  C   UNL A   1      41.816  33.444  31.032  1.00  0.00     0.074 A 
ATOM     64  C   UNL A   1      40.913  34.577  31.032  1.00  0.00     0.031 C 
ATOM     65  C   UNL A   1      43.119  33.509  31.407  1.00  0.00     0.031 A 
BRANCH  52  66
ATOM     66  C   UNL A   1      46.208  28.162  30.938  1.00  0.00    -0.014 A 
ATOM     67  C   UNL A   1      46.457  27.469  32.138  1.00  0.00     0.010 A 
ATOM     68  C   UNL A   1      47.175  28.129  29.919  1.00  0.00     0.010 A 
ATOM     69  C   UNL A   1      47.670  26.804  32.337  1.00  0.00     0.020 A 
ATOM     70  C   UNL A   1      48.376  27.435  30.099  1.00  0.00     0.020 A 
ATOM     71  C   UNL A   1      48.624  26.795  31.316  1.00  0.00     0.054 A 
BRANCH  71  72
ATOM     72  S   UNL A   1      50.183  25.912  31.591  1.00  0.00     0.124 S 
ATOM     73  O   UNL A   1      51.097  27.006  31.911  1.00  0.00    -0.237 OA
ATOM     74  O   UNL A   1      49.857  25.022  32.703  1.00  0.00    -0.237 OA
ATOM     75  O   UNL A   1      50.433  25.244  30.317  1.00  0.00    -0.744 OA
ENDBRANCH  71  72
ENDBRANCH  52  66
BRANCH  53  76
ATOM     76  C   UNL A   1      37.360  32.747  29.652  1.00  0.00    -0.014 A 
ATOM     77  C   UNL A   1      36.515  32.972  30.754  1.00  0.00     0.010 A 
ATOM     78  C   UNL A   1      36.958  33.196  28.381  1.00  0.00     0.010 A 
ATOM     79  C   UNL A   1      35.282  33.608  30.585  1.00  0.00     0.020 A 
ATOM     80  C   UNL A   1      35.737  33.857  28.213  1.00  0.00     0.020 A 
ATOM     81  C   UNL A   1      34.900  34.046  29.314  1.00  0.00     0.054 A 
BRANCH  81  82
ATOM     82  S   UNL A   1      33.314  34.908  29.126  1.00  0.00     0.124 S 
ATOM     83  O   UNL A   1      32.621  34.061  28.161  1.00  0.00    -0.237 OA
ATOM     84  O   UNL A   1      32.779  34.888  30.485  1.00  0.00    -0.237 OA
ATOM     85  O   UNL A   1      33.699  36.230  28.637  1.00  0.00    -0.744 OA
ENDBRANCH  81  82
ENDBRANCH  53  76
BRANCH  65  86
ATOM     86  C   UNL A   1      43.644  34.860  31.803  1.00  0.00    -0.014 A 
ATOM     87  C   UNL A   1      44.313  35.681  30.879  1.00  0.00     0.010 A 
ATOM     88  C   UNL A   1      43.437  35.322  33.115  1.00  0.00     0.010 A 
ATOM     89  C   UNL A   1      44.812  36.923  31.276  1.00  0.00     0.020 A 
ATOM     90  C   UNL A   1      43.908  36.575  33.507  1.00  0.00     0.020 A 
ATOM     91  C   UNL A   1      44.612  37.357  32.590  1.00  0.00     0.054 A 
BRANCH  91  92
ATOM     92  S   UNL A   1      45.260  38.978  33.082  1.00  0.00     0.124 S 
ATOM     93  O   UNL A   1      46.550  38.621  33.667  1.00  0.00    -0.237 OA
ATOM     94  O   UNL A   1      45.323  39.699  31.813  1.00  0.00    -0.237 OA
ATOM     95  O   UNL A   1      44.263  39.476  34.027  1.00  0.00    -0.744 OA
ENDBRANCH  91  92
ENDBRANCH  65  86
ENDBRANCH  39  40
ENDBRANCH  31  34
ENDBRANCH  29  30
ENDBRANCH   1  29
TORSDOF 16
ENDMDL
