MODEL 1
REMARK VINA RESULT:     -12.9      0.000      0.000
REMARK SMILES O=C(NCCCNC(=O)c1ccccc1Nc1cccc(S(F)(F)(F)(F)F)c1)c1ccc(-c2c3nc(c(-c4ccc(S(=O)(=O)[O-])cc4)c4ccc([nH]4)c(-c4ccc(S(=O)(=O)[O-])cc4)c4nc(c(-c5ccc(S(=O)(=O)[O-])cc5)c5ccc2[nH]5)C=C4)C=C3)cc1
REMARK SMILES IDX 5 1 4 2 3 3 1 4 2 5 29 7 30 8 88 9 31 10 87 11 32 12 33 13
REMARK SMILES IDX 34 14 81 15 35 16 86 17 80 18 82 19 36 20 85 21 79 22 78 23
REMARK SMILES IDX 37 25 67 26 48 27 66 28 49 29 52 30 65 31 83 32 50 33 51 34
REMARK SMILES IDX 64 36 84 37 53 38 38 39 39 40 47 41 40 42 46 43 41 44 42 45
REMARK SMILES IDX 43 46 44 47 45 48 68 49 69 50 77 51 70 52 76 53 71 54 72 55
REMARK SMILES IDX 73 56 74 57 75 58 54 59 55 60 63 61 56 62 62 63 57 64 58 65
REMARK SMILES IDX 59 66 60 67 61 68 6 69 7 70 8 71 9 73 10 74 11 75 15 76
REMARK SMILES IDX 12 77 14 78 13 79 16 80 17 82 18 83 28 84 19 85 21 86 20 87
REMARK SMILES IDX 22 88 23 89 24 90 25 91 26 92 27 93
REMARK H PARENT 3 6 82 24 52 35 7 72 16 81
REMARK Flexibility Score: inf
ROOT
ATOM      1  C   UNL A   1      34.057  28.316  26.085  1.00  0.00     0.042 C 
ENDROOT
BRANCH   1   2
ATOM      2  C   UNL A   1      33.567  28.646  27.486  1.00  0.00     0.118 C 
BRANCH   2   3
ATOM      3  N   UNL A   1      33.320  30.091  27.592  1.00  0.00    -0.352 N 
ATOM      4  O   UNL A   1      34.172  32.237  28.147  1.00  0.00    -0.269 OA
ATOM      5  C   UNL A   1      34.387  30.988  28.056  1.00  0.00     0.251 C 
ATOM      6  H   UNL A   1      32.438  30.458  27.351  1.00  0.00     0.163 HD
BRANCH   5   7
ATOM      7  C   UNL A   1      35.747  30.421  28.429  1.00  0.00     0.039 A 
ATOM      8  C   UNL A   1      36.732  30.571  27.468  1.00  0.00     0.014 A 
ATOM      9  C   UNL A   1      36.016  29.882  29.613  1.00  0.00     0.014 A 
ATOM     10  C   UNL A   1      37.920  29.854  27.745  1.00  0.00     0.010 A 
ATOM     11  C   UNL A   1      37.244  29.317  29.861  1.00  0.00     0.010 A 
ATOM     12  C   UNL A   1      38.246  29.378  28.933  1.00  0.00    -0.014 A 
BRANCH  12  13
ATOM     13  C   UNL A   1      39.661  28.921  29.252  1.00  0.00     0.031 A 
ATOM     14  C   UNL A   1      40.118  27.659  28.871  1.00  0.00     0.074 A 
ATOM     15  C   UNL A   1      40.403  29.821  29.999  1.00  0.00     0.049 A 
ATOM     16  N   UNL A   1      41.314  27.120  29.113  1.00  0.00    -0.248 NA
ATOM     17  C   UNL A   1      39.320  26.689  28.107  1.00  0.00     0.031 C 
ATOM     18  C   UNL A   1      39.951  31.100  30.380  1.00  0.00     0.029 A 
ATOM     19  N   UNL A   1      41.675  29.657  30.500  1.00  0.00    -0.354 N 
ATOM     20  C   UNL A   1      41.389  25.902  28.573  1.00  0.00     0.074 A 
ATOM     21  C   UNL A   1      40.105  25.605  27.924  1.00  0.00     0.031 C 
ATOM     22  C   UNL A   1      40.932  31.693  31.110  1.00  0.00     0.029 A 
ATOM     23  C   UNL A   1      42.013  30.796  31.195  1.00  0.00     0.049 A 
ATOM     24  H   UNL A   1      42.245  28.863  30.380  1.00  0.00     0.167 HD
ATOM     25  C   UNL A   1      42.478  25.029  28.595  1.00  0.00     0.031 A 
ATOM     26  C   UNL A   1      43.192  31.056  31.876  1.00  0.00     0.031 A 
ATOM     27  C   UNL A   1      43.673  25.307  29.239  1.00  0.00     0.049 A 
ATOM     28  C   UNL A   1      44.261  30.158  31.948  1.00  0.00     0.074 A 
ATOM     29  C   UNL A   1      44.783  24.441  29.264  1.00  0.00     0.029 A 
ATOM     30  N   UNL A   1      44.003  26.435  29.956  1.00  0.00    -0.354 N 
ATOM     31  N   UNL A   1      44.349  28.957  31.374  1.00  0.00    -0.248 NA
ATOM     32  C   UNL A   1      45.501  30.410  32.692  1.00  0.00     0.031 C 
ATOM     33  C   UNL A   1      45.765  25.035  29.995  1.00  0.00     0.029 A 
ATOM     34  C   UNL A   1      45.283  26.281  30.438  1.00  0.00     0.049 A 
ATOM     35  H   UNL A   1      43.421  27.217  30.100  1.00  0.00     0.167 HD
ATOM     36  C   UNL A   1      45.530  28.402  31.653  1.00  0.00     0.074 A 
ATOM     37  C   UNL A   1      46.285  29.325  32.511  1.00  0.00     0.031 C 
ATOM     38  C   UNL A   1      46.010  27.163  31.222  1.00  0.00     0.031 A 
BRANCH  25  39
ATOM     39  C   UNL A   1      42.345  23.698  27.872  1.00  0.00    -0.014 A 
ATOM     40  C   UNL A   1      42.769  23.519  26.566  1.00  0.00     0.010 A 
ATOM     41  C   UNL A   1      41.931  22.673  28.608  1.00  0.00     0.010 A 
ATOM     42  C   UNL A   1      42.445  22.253  26.026  1.00  0.00     0.020 A 
ATOM     43  C   UNL A   1      41.766  21.430  28.047  1.00  0.00     0.020 A 
ATOM     44  C   UNL A   1      42.110  21.196  26.744  1.00  0.00     0.054 A 
BRANCH  44  45
ATOM     45  S   UNL A   1      42.105  19.528  26.042  1.00  0.00     0.124 S 
ATOM     46  O   UNL A   1      42.966  19.505  24.777  1.00  0.00    -0.237 OA
ATOM     47  O   UNL A   1      42.674  18.542  27.065  1.00  0.00    -0.237 OA
ATOM     48  O   UNL A   1      40.503  19.080  25.648  1.00  0.00    -0.744 OA
ENDBRANCH  44  45
ENDBRANCH  25  39
BRANCH  26  49
ATOM     49  C   UNL A   1      43.331  32.393  32.586  1.00  0.00    -0.014 A 
ATOM     50  C   UNL A   1      42.866  32.551  33.881  1.00  0.00     0.010 A 
ATOM     51  C   UNL A   1      43.764  33.430  31.878  1.00  0.00     0.010 A 
ATOM     52  C   UNL A   1      42.624  33.898  34.242  1.00  0.00     0.020 A 
ATOM     53  C   UNL A   1      43.619  34.711  32.353  1.00  0.00     0.020 A 
ATOM     54  C   UNL A   1      43.110  34.945  33.601  1.00  0.00     0.054 A 
BRANCH  54  55
ATOM     55  S   UNL A   1      43.105  36.599  34.333  1.00  0.00     0.124 S 
ATOM     56  O   UNL A   1      41.748  36.862  34.991  1.00  0.00    -0.237 OA
ATOM     57  O   UNL A   1      44.210  36.694  35.388  1.00  0.00    -0.237 OA
ATOM     58  O   UNL A   1      43.382  37.764  33.112  1.00  0.00    -0.744 OA
ENDBRANCH  54  55
ENDBRANCH  26  49
BRANCH  38  59
ATOM     59  C   UNL A   1      47.414  26.757  31.639  1.00  0.00    -0.014 A 
ATOM     60  C   UNL A   1      47.510  26.065  32.835  1.00  0.00     0.010 A 
ATOM     61  C   UNL A   1      48.487  27.000  30.895  1.00  0.00     0.010 A 
ATOM     62  C   UNL A   1      48.836  25.919  33.307  1.00  0.00     0.020 A 
ATOM     63  C   UNL A   1      49.744  26.706  31.365  1.00  0.00     0.020 A 
ATOM     64  C   UNL A   1      49.917  26.075  32.566  1.00  0.00     0.054 A 
BRANCH  64  65
ATOM     65  S   UNL A   1      51.540  25.487  33.109  1.00  0.00     0.124 S 
ATOM     66  O   UNL A   1      52.556  26.627  33.009  1.00  0.00    -0.237 OA
ATOM     67  O   UNL A   1      51.450  25.010  34.561  1.00  0.00    -0.237 OA
ATOM     68  O   UNL A   1      52.039  24.189  32.113  1.00  0.00    -0.744 OA
ENDBRANCH  64  65
ENDBRANCH  38  59
ENDBRANCH  12  13
ENDBRANCH   5   7
ENDBRANCH   2   3
ENDBRANCH   1   2
BRANCH   1  69
ATOM     69  C   UNL A   1      33.059  28.836  25.064  1.00  0.00     0.118 C 
BRANCH  69  70
ATOM     70  N   UNL A   1      33.749  29.092  23.792  1.00  0.00    -0.352 N 
ATOM     71  C   UNL A   1      33.805  28.044  22.762  1.00  0.00     0.253 C 
ATOM     72  H   UNL A   1      34.173  29.965  23.628  1.00  0.00     0.163 HD
ATOM     73  O   UNL A   1      34.402  28.265  21.662  1.00  0.00    -0.269 OA
BRANCH  71  74
ATOM     74  C   UNL A   1      33.149  26.696  23.013  1.00  0.00     0.063 A 
ATOM     75  C   UNL A   1      33.714  25.700  23.792  1.00  0.00     0.016 A 
ATOM     76  C   UNL A   1      31.916  26.579  22.535  1.00  0.00     0.051 A 
ATOM     77  C   UNL A   1      33.000  24.480  23.771  1.00  0.00     0.001 A 
ATOM     78  C   UNL A   1      31.223  25.401  22.668  1.00  0.00     0.027 A 
ATOM     79  C   UNL A   1      31.746  24.354  23.374  1.00  0.00     0.002 A 
BRANCH  76  80
ATOM     80  N   UNL A   1      31.287  27.721  21.855  1.00  0.00    -0.355 N 
ATOM     81  H   UNL A   1      31.666  28.062  21.013  1.00  0.00     0.167 HD
BRANCH  80  82
ATOM     82  C   UNL A   1      30.093  28.353  22.433  1.00  0.00     0.040 A 
ATOM     83  C   UNL A   1      29.117  27.533  22.977  1.00  0.00     0.026 A 
ATOM     84  C   UNL A   1      29.977  29.675  22.464  1.00  0.00     0.050 A 
ATOM     85  C   UNL A   1      27.908  28.203  23.276  1.00  0.00     0.004 A 
ATOM     86  C   UNL A   1      28.814  30.265  22.897  1.00  0.00     0.109 A 
ATOM     87  C   UNL A   1      27.785  29.513  23.392  1.00  0.00     0.024 A 
BRANCH  86  88
ATOM     88  S   UNL A   1      28.641  32.066  22.811  1.00  0.00     0.310 S 
ATOM     89  F   UNL A   1      27.269  32.053  23.608  1.00  0.00    -0.094 F 
ATOM     90  F   UNL A   1      27.797  31.894  21.492  1.00  0.00    -0.094 F 
ATOM     91  F   UNL A   1      28.509  33.612  22.729  1.00  0.00    -0.094 F 
ATOM     92  F   UNL A   1      29.368  32.210  24.206  1.00  0.00    -0.094 F 
ATOM     93  F   UNL A   1      28.687  30.493  22.967  1.00  0.00    -0.094 F 
ENDBRANCH  86  88
ENDBRANCH  80  82
ENDBRANCH  76  80
ENDBRANCH  71  74
ENDBRANCH  69  70
ENDBRANCH   1  69
TORSDOF 16
ENDMDL
MODEL 2
REMARK VINA RESULT:     -12.5      2.428      8.781
REMARK SMILES O=C(NCCCNC(=O)c1ccccc1Nc1cccc(S(F)(F)(F)(F)F)c1)c1ccc(-c2c3nc(c(-c4ccc(S(=O)(=O)[O-])cc4)c4ccc([nH]4)c(-c4ccc(S(=O)(=O)[O-])cc4)c4nc(c(-c5ccc(S(=O)(=O)[O-])cc5)c5ccc2[nH]5)C=C4)C=C3)cc1
REMARK SMILES IDX 5 1 4 2 3 3 1 4 2 5 29 7 30 8 88 9 31 10 87 11 32 12 33 13
REMARK SMILES IDX 34 14 81 15 35 16 86 17 80 18 82 19 36 20 85 21 79 22 78 23
REMARK SMILES IDX 37 25 67 26 48 27 66 28 49 29 52 30 65 31 83 32 50 33 51 34
REMARK SMILES IDX 64 36 84 37 53 38 38 39 39 40 47 41 40 42 46 43 41 44 42 45
REMARK SMILES IDX 43 46 44 47 45 48 68 49 69 50 77 51 70 52 76 53 71 54 72 55
REMARK SMILES IDX 73 56 74 57 75 58 54 59 55 60 63 61 56 62 62 63 57 64 58 65
REMARK SMILES IDX 59 66 60 67 61 68 6 69 7 70 8 71 9 73 10 74 11 75 15 76
REMARK SMILES IDX 12 77 14 78 13 79 16 80 17 82 18 83 28 84 19 85 21 86 20 87
REMARK SMILES IDX 22 88 23 89 24 90 25 91 26 92 27 93
REMARK H PARENT 3 6 82 24 52 35 7 72 16 81
REMARK Flexibility Score: inf
ROOT
ATOM      1  C   UNL A   1      35.802  23.529  24.482  1.00  0.00     0.042 C 
ENDROOT
BRANCH   1   2
ATOM      2  C   UNL A   1      36.868  23.784  25.535  1.00  0.00     0.118 C 
BRANCH   2   3
ATOM      3  N   UNL A   1      37.867  22.706  25.493  1.00  0.00    -0.352 N 
ATOM      4  O   UNL A   1      40.054  21.974  26.062  1.00  0.00    -0.269 OA
ATOM      5  C   UNL A   1      39.191  22.907  26.098  1.00  0.00     0.251 C 
ATOM      6  H   UNL A   1      37.648  21.850  25.059  1.00  0.00     0.163 HD
BRANCH   5   7
ATOM      7  C   UNL A   1      39.528  24.229  26.768  1.00  0.00     0.039 A 
ATOM      8  C   UNL A   1      39.150  24.331  28.096  1.00  0.00     0.014 A 
ATOM      9  C   UNL A   1      40.200  25.203  26.166  1.00  0.00     0.014 A 
ATOM     10  C   UNL A   1      39.280  25.635  28.631  1.00  0.00     0.010 A 
ATOM     11  C   UNL A   1      40.407  26.405  26.799  1.00  0.00     0.010 A 
ATOM     12  C   UNL A   1      40.009  26.596  28.093  1.00  0.00    -0.014 A 
BRANCH  12  13
ATOM     13  C   UNL A   1      40.383  27.848  28.870  1.00  0.00     0.031 A 
ATOM     14  C   UNL A   1      39.494  28.917  28.994  1.00  0.00     0.074 A 
ATOM     15  C   UNL A   1      41.677  27.855  29.361  1.00  0.00     0.049 A 
ATOM     16  N   UNL A   1      39.703  30.080  29.613  1.00  0.00    -0.248 NA
ATOM     17  C   UNL A   1      38.131  28.923  28.444  1.00  0.00     0.031 C 
ATOM     18  C   UNL A   1      42.577  26.777  29.247  1.00  0.00     0.029 A 
ATOM     19  N   UNL A   1      42.321  28.871  30.032  1.00  0.00    -0.354 N 
ATOM     20  C   UNL A   1      38.611  30.843  29.539  1.00  0.00     0.074 A 
ATOM     21  C   UNL A   1      37.587  30.113  28.780  1.00  0.00     0.031 C 
ATOM     22  C   UNL A   1      43.749  27.143  29.829  1.00  0.00     0.029 A 
ATOM     23  C   UNL A   1      43.601  28.454  30.319  1.00  0.00     0.049 A 
ATOM     24  H   UNL A   1      41.932  29.745  30.267  1.00  0.00     0.167 HD
ATOM     25  C   UNL A   1      38.429  32.119  30.076  1.00  0.00     0.031 A 
ATOM     26  C   UNL A   1      44.600  29.164  30.967  1.00  0.00     0.031 A 
ATOM     27  C   UNL A   1      39.414  32.811  30.763  1.00  0.00     0.049 A 
ATOM     28  C   UNL A   1      44.437  30.464  31.453  1.00  0.00     0.074 A 
ATOM     29  C   UNL A   1      39.244  34.095  31.317  1.00  0.00     0.029 A 
ATOM     30  N   UNL A   1      40.702  32.405  31.028  1.00  0.00    -0.354 N 
ATOM     31  N   UNL A   1      43.333  31.211  31.413  1.00  0.00    -0.248 NA
ATOM     32  C   UNL A   1      45.497  31.236  32.113  1.00  0.00     0.031 C 
ATOM     33  C   UNL A   1      40.418  34.461  31.899  1.00  0.00     0.029 A 
ATOM     34  C   UNL A   1      41.339  33.411  31.718  1.00  0.00     0.049 A 
ATOM     35  H   UNL A   1      41.100  31.542  30.767  1.00  0.00     0.167 HD
ATOM     36  C   UNL A   1      43.556  32.391  31.996  1.00  0.00     0.074 A 
ATOM     37  C   UNL A   1      44.954  32.427  32.448  1.00  0.00     0.031 C 
ATOM     38  C   UNL A   1      42.648  33.437  32.173  1.00  0.00     0.031 A 
BRANCH  25  39
ATOM     39  C   UNL A   1      37.074  32.786  29.898  1.00  0.00    -0.014 A 
ATOM     40  C   UNL A   1      36.110  32.780  30.892  1.00  0.00     0.010 A 
ATOM     41  C   UNL A   1      36.918  33.501  28.790  1.00  0.00     0.010 A 
ATOM     42  C   UNL A   1      34.873  33.339  30.494  1.00  0.00     0.020 A 
ATOM     43  C   UNL A   1      35.727  34.133  28.529  1.00  0.00     0.020 A 
ATOM     44  C   UNL A   1      34.708  34.119  29.441  1.00  0.00     0.054 A 
BRANCH  44  45
ATOM     45  S   UNL A   1      33.214  35.117  29.218  1.00  0.00     0.124 S 
ATOM     46  O   UNL A   1      32.330  34.476  28.145  1.00  0.00    -0.237 OA
ATOM     47  O   UNL A   1      32.445  35.187  30.539  1.00  0.00    -0.237 OA
ATOM     48  O   UNL A   1      33.651  36.695  28.727  1.00  0.00    -0.744 OA
ENDBRANCH  44  45
ENDBRANCH  25  39
BRANCH  26  49
ATOM     49  C   UNL A   1      45.949  28.491  31.159  1.00  0.00    -0.014 A 
ATOM     50  C   UNL A   1      46.947  28.636  30.208  1.00  0.00     0.010 A 
ATOM     51  C   UNL A   1      46.083  27.645  32.174  1.00  0.00     0.010 A 
ATOM     52  C   UNL A   1      47.935  27.624  30.255  1.00  0.00     0.020 A 
ATOM     53  C   UNL A   1      47.147  26.778  32.226  1.00  0.00     0.020 A 
ATOM     54  C   UNL A   1      48.140  26.825  31.287  1.00  0.00     0.054 A 
BRANCH  54  55
ATOM     55  S   UNL A   1      49.651  25.844  31.447  1.00  0.00     0.124 S 
ATOM     56  O   UNL A   1      50.828  26.768  31.768  1.00  0.00    -0.237 OA
ATOM     57  O   UNL A   1      49.480  24.824  32.577  1.00  0.00    -0.237 OA
ATOM     58  O   UNL A   1      49.956  25.021  29.979  1.00  0.00    -0.744 OA
ENDBRANCH  54  55
ENDBRANCH  26  49
BRANCH  38  59
ATOM     59  C   UNL A   1      43.125  34.680  32.907  1.00  0.00    -0.014 A 
ATOM     60  C   UNL A   1      42.968  34.663  34.283  1.00  0.00     0.010 A 
ATOM     61  C   UNL A   1      43.702  35.705  32.292  1.00  0.00     0.010 A 
ATOM     62  C   UNL A   1      43.196  35.915  34.901  1.00  0.00     0.020 A 
ATOM     63  C   UNL A   1      44.021  36.847  32.986  1.00  0.00     0.020 A 
ATOM     64  C   UNL A   1      43.838  36.922  34.339  1.00  0.00     0.054 A 
BRANCH  64  65
ATOM     65  S   UNL A   1      44.444  38.326  35.307  1.00  0.00     0.124 S 
ATOM     66  O   UNL A   1      45.972  38.364  35.250  1.00  0.00    -0.237 OA
ATOM     67  O   UNL A   1      43.880  39.626  34.729  1.00  0.00    -0.237 OA
ATOM     68  O   UNL A   1      43.938  38.158  36.932  1.00  0.00    -0.744 OA
ENDBRANCH  64  65
ENDBRANCH  38  59
ENDBRANCH  12  13
ENDBRANCH   5   7
ENDBRANCH   2   3
ENDBRANCH   1   2
BRANCH   1  69
ATOM     69  C   UNL A   1      34.614  24.445  24.731  1.00  0.00     0.118 C 
BRANCH  69  70
ATOM     70  N   UNL A   1      34.275  25.154  23.489  1.00  0.00    -0.352 N 
ATOM     71  C   UNL A   1      33.598  26.458  23.548  1.00  0.00     0.253 C 
ATOM     72  H   UNL A   1      34.502  24.757  22.617  1.00  0.00     0.163 HD
ATOM     73  O   UNL A   1      33.305  27.071  22.474  1.00  0.00    -0.269 OA
BRANCH  71  74
ATOM     74  C   UNL A   1      33.249  27.072  24.894  1.00  0.00     0.063 A 
ATOM     75  C   UNL A   1      34.169  27.710  25.709  1.00  0.00     0.016 A 
ATOM     76  C   UNL A   1      31.954  27.071  25.187  1.00  0.00     0.051 A 
ATOM     77  C   UNL A   1      33.657  28.077  26.975  1.00  0.00     0.001 A 
ATOM     78  C   UNL A   1      31.509  27.570  26.386  1.00  0.00     0.027 A 
ATOM     79  C   UNL A   1      32.371  28.161  27.266  1.00  0.00     0.002 A 
BRANCH  76  80
ATOM     80  N   UNL A   1      30.988  26.531  24.219  1.00  0.00    -0.355 N 
ATOM     81  H   UNL A   1      31.153  25.658  23.794  1.00  0.00     0.167 HD
BRANCH  80  82
ATOM     82  C   UNL A   1      29.777  27.294  23.885  1.00  0.00     0.040 A 
ATOM     83  C   UNL A   1      28.548  26.680  24.064  1.00  0.00     0.026 A 
ATOM     84  C   UNL A   1      29.865  28.549  23.461  1.00  0.00     0.050 A 
ATOM     85  C   UNL A   1      27.466  27.385  23.486  1.00  0.00     0.004 A 
ATOM     86  C   UNL A   1      28.745  29.224  23.039  1.00  0.00     0.109 A 
ATOM     87  C   UNL A   1      27.505  28.657  23.132  1.00  0.00     0.024 A 
BRANCH  86  88
ATOM     88  S   UNL A   1      28.915  30.890  22.351  1.00  0.00     0.310 S 
ATOM     89  F   UNL A   1      27.371  31.209  22.531  1.00  0.00    -0.094 F 
ATOM     90  F   UNL A   1      28.558  30.310  20.930  1.00  0.00    -0.094 F 
ATOM     91  F   UNL A   1      29.078  32.318  21.759  1.00  0.00    -0.094 F 
ATOM     92  F   UNL A   1      29.131  31.476  23.802  1.00  0.00    -0.094 F 
ATOM     93  F   UNL A   1      28.641  29.467  22.983  1.00  0.00    -0.094 F 
ENDBRANCH  86  88
ENDBRANCH  80  82
ENDBRANCH  76  80
ENDBRANCH  71  74
ENDBRANCH  69  70
ENDBRANCH   1  69
TORSDOF 16
ENDMDL
MODEL 3
REMARK VINA RESULT:     -12.4      1.610      2.370
REMARK SMILES O=C(NCCCNC(=O)c1ccccc1Nc1cccc(S(F)(F)(F)(F)F)c1)c1ccc(-c2c3nc(c(-c4ccc(S(=O)(=O)[O-])cc4)c4ccc([nH]4)c(-c4ccc(S(=O)(=O)[O-])cc4)c4nc(c(-c5ccc(S(=O)(=O)[O-])cc5)c5ccc2[nH]5)C=C4)C=C3)cc1
REMARK SMILES IDX 5 1 4 2 3 3 1 4 2 5 29 7 30 8 88 9 31 10 87 11 32 12 33 13
REMARK SMILES IDX 34 14 81 15 35 16 86 17 80 18 82 19 36 20 85 21 79 22 78 23
REMARK SMILES IDX 37 25 67 26 48 27 66 28 49 29 52 30 65 31 83 32 50 33 51 34
REMARK SMILES IDX 64 36 84 37 53 38 38 39 39 40 47 41 40 42 46 43 41 44 42 45
REMARK SMILES IDX 43 46 44 47 45 48 68 49 69 50 77 51 70 52 76 53 71 54 72 55
REMARK SMILES IDX 73 56 74 57 75 58 54 59 55 60 63 61 56 62 62 63 57 64 58 65
REMARK SMILES IDX 59 66 60 67 61 68 6 69 7 70 8 71 9 73 10 74 11 75 15 76
REMARK SMILES IDX 12 77 14 78 13 79 16 80 17 82 18 83 28 84 19 85 21 86 20 87
REMARK SMILES IDX 22 88 23 89 24 90 25 91 26 92 27 93
REMARK H PARENT 3 6 82 24 52 35 7 72 16 81
REMARK Flexibility Score: inf
ROOT
ATOM      1  C   UNL A   1      33.002  27.458  25.838  1.00  0.00     0.042 C 
ENDROOT
BRANCH   1   2
ATOM      2  C   UNL A   1      34.027  28.129  26.738  1.00  0.00     0.118 C 
BRANCH   2   3
ATOM      3  N   UNL A   1      33.503  29.424  27.197  1.00  0.00    -0.352 N 
ATOM      4  O   UNL A   1      33.935  31.490  28.286  1.00  0.00    -0.269 OA
ATOM      5  C   UNL A   1      34.388  30.371  27.889  1.00  0.00     0.251 C 
ATOM      6  H   UNL A   1      32.559  29.655  27.042  1.00  0.00     0.163 HD
BRANCH   5   7
ATOM      7  C   UNL A   1      35.846  30.012  28.130  1.00  0.00     0.039 A 
ATOM      8  C   UNL A   1      36.127  29.496  29.383  1.00  0.00     0.014 A 
ATOM      9  C   UNL A   1      36.787  30.109  27.197  1.00  0.00     0.014 A 
ATOM     10  C   UNL A   1      37.510  29.372  29.656  1.00  0.00     0.010 A 
ATOM     11  C   UNL A   1      38.101  29.842  27.500  1.00  0.00     0.010 A 
ATOM     12  C   UNL A   1      38.458  29.384  28.737  1.00  0.00    -0.014 A 
BRANCH  12  13
ATOM     13  C   UNL A   1      39.872  28.914  29.040  1.00  0.00     0.031 A 
ATOM     14  C   UNL A   1      40.304  27.636  28.681  1.00  0.00     0.074 A 
ATOM     15  C   UNL A   1      40.640  29.821  29.750  1.00  0.00     0.049 A 
ATOM     16  N   UNL A   1      41.497  27.086  28.914  1.00  0.00    -0.248 NA
ATOM     17  C   UNL A   1      39.478  26.661  27.956  1.00  0.00     0.031 C 
ATOM     18  C   UNL A   1      40.215  31.115  30.109  1.00  0.00     0.029 A 
ATOM     19  N   UNL A   1      41.920  29.651  30.231  1.00  0.00    -0.354 N 
ATOM     20  C   UNL A   1      41.544  25.855  28.402  1.00  0.00     0.074 A 
ATOM     21  C   UNL A   1      40.244  25.561  27.784  1.00  0.00     0.031 C 
ATOM     22  C   UNL A   1      41.217  31.711  30.805  1.00  0.00     0.029 A 
ATOM     23  C   UNL A   1      42.287  30.801  30.892  1.00  0.00     0.049 A 
ATOM     24  H   UNL A   1      42.476  28.846  30.120  1.00  0.00     0.167 HD
ATOM     25  C   UNL A   1      42.621  24.967  28.425  1.00  0.00     0.031 A 
ATOM     26  C   UNL A   1      43.483  31.060  31.544  1.00  0.00     0.031 A 
ATOM     27  C   UNL A   1      43.832  25.243  29.039  1.00  0.00     0.049 A 
ATOM     28  C   UNL A   1      44.540  30.149  31.618  1.00  0.00     0.074 A 
ATOM     29  C   UNL A   1      44.930  24.362  29.064  1.00  0.00     0.029 A 
ATOM     30  N   UNL A   1      44.191  26.383  29.722  1.00  0.00    -0.354 N 
ATOM     31  N   UNL A   1      44.600  28.933  31.072  1.00  0.00    -0.248 NA
ATOM     32  C   UNL A   1      45.797  30.401  32.332  1.00  0.00     0.031 C 
ATOM     33  C   UNL A   1      45.934  24.959  29.761  1.00  0.00     0.029 A 
ATOM     34  C   UNL A   1      45.478  26.223  30.183  1.00  0.00     0.049 A 
ATOM     35  H   UNL A   1      43.624  27.177  29.858  1.00  0.00     0.167 HD
ATOM     36  C   UNL A   1      45.778  28.368  31.341  1.00  0.00     0.074 A 
ATOM     37  C   UNL A   1      46.563  29.300  32.163  1.00  0.00     0.031 C 
ATOM     38  C   UNL A   1      46.233  27.112  30.932  1.00  0.00     0.031 A 
BRANCH  25  39
ATOM     39  C   UNL A   1      42.456  23.621  27.736  1.00  0.00    -0.014 A 
ATOM     40  C   UNL A   1      42.853  23.404  26.428  1.00  0.00     0.010 A 
ATOM     41  C   UNL A   1      42.040  22.621  28.505  1.00  0.00     0.010 A 
ATOM     42  C   UNL A   1      42.501  22.130  25.925  1.00  0.00     0.020 A 
ATOM     43  C   UNL A   1      41.847  21.367  27.977  1.00  0.00     0.020 A 
ATOM     44  C   UNL A   1      42.164  21.097  26.674  1.00  0.00     0.054 A 
BRANCH  44  45
ATOM     45  S   UNL A   1      42.122  19.412  26.014  1.00  0.00     0.124 S 
ATOM     46  O   UNL A   1      42.988  19.338  24.754  1.00  0.00    -0.237 OA
ATOM     47  O   UNL A   1      42.663  18.438  27.063  1.00  0.00    -0.237 OA
ATOM     48  O   UNL A   1      40.511  18.992  25.623  1.00  0.00    -0.744 OA
ENDBRANCH  44  45
ENDBRANCH  25  39
BRANCH  26  49
ATOM     49  C   UNL A   1      43.654  32.412  32.218  1.00  0.00    -0.014 A 
ATOM     50  C   UNL A   1      43.215  32.608  33.518  1.00  0.00     0.010 A 
ATOM     51  C   UNL A   1      44.088  33.425  31.478  1.00  0.00     0.010 A 
ATOM     52  C   UNL A   1      42.999  33.966  33.850  1.00  0.00     0.020 A 
ATOM     53  C   UNL A   1      43.970  34.719  31.924  1.00  0.00     0.020 A 
ATOM     54  C   UNL A   1      43.489  34.990  33.175  1.00  0.00     0.054 A 
BRANCH  54  55
ATOM     55  S   UNL A   1      43.520  36.662  33.867  1.00  0.00     0.124 S 
ATOM     56  O   UNL A   1      42.212  36.930  34.614  1.00  0.00    -0.237 OA
ATOM     57  O   UNL A   1      44.697  36.790  34.837  1.00  0.00    -0.237 OA
ATOM     58  O   UNL A   1      43.698  37.799  32.602  1.00  0.00    -0.744 OA
ENDBRANCH  54  55
ENDBRANCH  26  49
BRANCH  38  59
ATOM     59  C   UNL A   1      47.639  26.696  31.332  1.00  0.00    -0.014 A 
ATOM     60  C   UNL A   1      48.642  27.028  30.437  1.00  0.00     0.010 A 
ATOM     61  C   UNL A   1      47.914  26.096  32.484  1.00  0.00     0.010 A 
ATOM     62  C   UNL A   1      49.888  26.420  30.722  1.00  0.00     0.020 A 
ATOM     63  C   UNL A   1      49.185  25.648  32.752  1.00  0.00     0.020 A 
ATOM     64  C   UNL A   1      50.214  25.889  31.885  1.00  0.00     0.054 A 
BRANCH  64  65
ATOM     65  S   UNL A   1      51.929  25.500  32.309  1.00  0.00     0.124 S 
ATOM     66  O   UNL A   1      52.079  23.989  32.495  1.00  0.00    -0.237 OA
ATOM     67  O   UNL A   1      52.852  25.969  31.182  1.00  0.00    -0.237 OA
ATOM     68  O   UNL A   1      52.353  26.298  33.761  1.00  0.00    -0.744 OA
ENDBRANCH  64  65
ENDBRANCH  38  59
ENDBRANCH  12  13
ENDBRANCH   5   7
ENDBRANCH   2   3
ENDBRANCH   1   2
BRANCH   1  69
ATOM     69  C   UNL A   1      32.930  25.976  26.168  1.00  0.00     0.118 C 
BRANCH  69  70
ATOM     70  N   UNL A   1      31.627  25.674  26.778  1.00  0.00    -0.352 N 
ATOM     71  C   UNL A   1      31.019  24.349  26.592  1.00  0.00     0.253 C 
ATOM     72  H   UNL A   1      31.163  26.358  27.312  1.00  0.00     0.163 HD
ATOM     73  O   UNL A   1      29.892  24.087  27.120  1.00  0.00    -0.269 OA
BRANCH  71  74
ATOM     74  C   UNL A   1      31.736  23.291  25.769  1.00  0.00     0.063 A 
ATOM     75  C   UNL A   1      32.597  22.351  26.310  1.00  0.00     0.016 A 
ATOM     76  C   UNL A   1      31.379  23.243  24.491  1.00  0.00     0.051 A 
ATOM     77  C   UNL A   1      33.263  21.560  25.345  1.00  0.00     0.001 A 
ATOM     78  C   UNL A   1      31.974  22.352  23.633  1.00  0.00     0.027 A 
ATOM     79  C   UNL A   1      32.878  21.434  24.088  1.00  0.00     0.002 A 
BRANCH  76  80
ATOM     80  N   UNL A   1      30.337  24.152  23.992  1.00  0.00    -0.355 N 
ATOM     81  H   UNL A   1      29.387  23.916  24.095  1.00  0.00     0.167 HD
BRANCH  80  82
ATOM     82  C   UNL A   1      30.715  25.413  23.337  1.00  0.00     0.040 A 
ATOM     83  C   UNL A   1      31.813  25.409  22.493  1.00  0.00     0.026 A 
ATOM     84  C   UNL A   1      29.995  26.513  23.526  1.00  0.00     0.050 A 
ATOM     85  C   UNL A   1      32.248  26.700  22.113  1.00  0.00     0.004 A 
ATOM     86  C   UNL A   1      30.410  27.717  23.010  1.00  0.00     0.109 A 
ATOM     87  C   UNL A   1      31.520  27.797  22.215  1.00  0.00     0.024 A 
BRANCH  86  88
ATOM     88  S   UNL A   1      29.474  29.220  23.387  1.00  0.00     0.310 S 
ATOM     89  F   UNL A   1      30.199  30.055  22.250  1.00  0.00    -0.094 F 
ATOM     90  F   UNL A   1      30.634  29.666  24.357  1.00  0.00    -0.094 F 
ATOM     91  F   UNL A   1      28.661  30.501  23.725  1.00  0.00    -0.094 F 
ATOM     92  F   UNL A   1      28.390  28.826  22.308  1.00  0.00    -0.094 F 
ATOM     93  F   UNL A   1      30.340  27.972  22.952  1.00  0.00    -0.094 F 
ENDBRANCH  86  88
ENDBRANCH  80  82
ENDBRANCH  76  80
ENDBRANCH  71  74
ENDBRANCH  69  70
ENDBRANCH   1  69
TORSDOF 16
ENDMDL
