MODEL 1
REMARK VINA RESULT:     -10.8      0.000      0.000
REMARK SMILES CC(C)C[C@H](NC(=O)c1cc(Cl)nnc1Cl)C(=O)NCCCNC(=O)c1ccc(-c2c3nc(c(-c4ccc(S(=O)(=O)[O-])cc4)c4ccc([nH]4)c(-c4ccc(S(=O)(=O)[O-])cc4)c4nc(c(-c5ccc(S(=O)(=O)[O-])cc5)c5ccc2[nH]5)C=C4)C=C3)cc1
REMARK SMILES IDX 21 1 20 2 19 3 17 4 18 5 5 7 4 8 2 9 1 10 3 11 6 12 7 13
REMARK SMILES IDX 8 15 9 16 10 17 15 18 11 19 14 20 16 21 12 22 13 23 22 24
REMARK SMILES IDX 23 25 24 26 25 28 26 29 27 30 85 31 28 32 84 33 29 34 30 35
REMARK SMILES IDX 31 36 78 37 32 38 83 39 77 40 79 41 33 42 82 43 76 44 75 45
REMARK SMILES IDX 34 47 64 48 45 49 63 50 46 51 49 52 62 53 80 54 47 55 48 56
REMARK SMILES IDX 61 58 81 59 50 60 35 61 36 62 44 63 37 64 43 65 38 66 39 67
REMARK SMILES IDX 40 68 41 69 42 70 65 71 66 72 74 73 67 74 73 75 68 76 69 77
REMARK SMILES IDX 70 78 71 79 72 80 51 81 52 82 60 83 53 84 59 85 54 86 55 87
REMARK SMILES IDX 56 88 57 89 58 90
REMARK H PARENT 19 6 6 14 23 27 79 46 49 57
REMARK Flexibility Score: inf
ROOT
ATOM      1  C   UNL A   1      33.553  27.346  25.403  1.00  0.00     0.042 C 
ENDROOT
BRANCH   1   2
ATOM      2  C   UNL A   1      34.044  25.955  25.062  1.00  0.00     0.117 C 
BRANCH   2   3
ATOM      3  N   UNL A   1      33.955  25.634  23.653  1.00  0.00    -0.354 N 
ATOM      4  C   UNL A   1      34.100  24.422  23.041  1.00  0.00     0.242 C 
ATOM      5  O   UNL A   1      33.650  24.303  21.897  1.00  0.00    -0.273 OA
ATOM      6  H   UNL A   1      33.764  26.393  23.054  1.00  0.00     0.163 HD
BRANCH   4   7
ATOM      7  C   UNL A   1      34.708  23.207  23.779  1.00  0.00     0.171 C 
BRANCH   7   8
ATOM      8  C   UNL A   1      36.166  22.882  23.402  1.00  0.00     0.038 C 
BRANCH   8   9
ATOM      9  C   UNL A   1      37.212  22.635  24.509  1.00  0.00    -0.015 C 
ATOM     10  C   UNL A   1      36.883  23.363  25.818  1.00  0.00     0.007 C 
ATOM     11  C   UNL A   1      37.299  21.136  24.826  1.00  0.00     0.007 C 
ENDBRANCH   8   9
ENDBRANCH   7   8
BRANCH   7  12
ATOM     12  N   UNL A   1      33.696  22.145  23.954  1.00  0.00    -0.340 N 
ATOM     13  C   UNL A   1      32.494  21.956  24.560  1.00  0.00     0.255 C 
ATOM     14  H   UNL A   1      33.979  21.324  23.491  1.00  0.00     0.164 HD
ATOM     15  O   UNL A   1      31.986  20.838  24.553  1.00  0.00    -0.269 OA
BRANCH  13  16
ATOM     16  C   UNL A   1      31.793  22.995  25.292  1.00  0.00     0.082 A 
ATOM     17  C   UNL A   1      31.005  23.896  24.574  1.00  0.00     0.060 A 
ATOM     18  C   UNL A   1      32.037  23.228  26.630  1.00  0.00     0.164 A 
ATOM     19  C   UNL A   1      30.417  24.923  25.273  1.00  0.00     0.152 A 
ATOM     20  N   UNL A   1      31.435  24.243  27.284  1.00  0.00    -0.136 NA
ATOM     21  Cl  UNL A   1      33.098  22.294  27.600  1.00  0.00    -0.059 Cl
ATOM     22  Cl  UNL A   1      29.380  26.048  24.512  1.00  0.00    -0.060 Cl
ATOM     23  N   UNL A   1      30.598  25.093  26.597  1.00  0.00    -0.137 NA
ENDBRANCH  13  16
ENDBRANCH   7  12
ENDBRANCH   4   7
ENDBRANCH   2   3
ENDBRANCH   1   2
BRANCH   1  24
ATOM     24  C   UNL A   1      34.216  27.890  26.659  1.00  0.00     0.118 C 
BRANCH  24  25
ATOM     25  N   UNL A   1      33.810  29.264  26.947  1.00  0.00    -0.352 N 
ATOM     26  C   UNL A   1      34.440  30.224  27.705  1.00  0.00     0.251 C 
ATOM     27  H   UNL A   1      32.960  29.545  26.537  1.00  0.00     0.163 HD
ATOM     28  O   UNL A   1      33.839  31.243  28.033  1.00  0.00    -0.269 OA
BRANCH  26  29
ATOM     29  C   UNL A   1      35.833  30.002  28.133  1.00  0.00     0.039 A 
ATOM     30  C   UNL A   1      36.097  29.522  29.418  1.00  0.00     0.014 A 
ATOM     31  C   UNL A   1      36.878  30.246  27.240  1.00  0.00     0.014 A 
ATOM     32  C   UNL A   1      37.408  29.203  29.774  1.00  0.00     0.010 A 
ATOM     33  C   UNL A   1      38.163  29.838  27.560  1.00  0.00     0.010 A 
ATOM     34  C   UNL A   1      38.443  29.321  28.833  1.00  0.00    -0.014 A 
BRANCH  34  35
ATOM     35  C   UNL A   1      39.841  28.955  29.154  1.00  0.00     0.031 A 
ATOM     36  C   UNL A   1      40.732  29.971  29.815  1.00  0.00     0.074 A 
ATOM     37  C   UNL A   1      40.329  27.757  28.782  1.00  0.00     0.049 A 
ATOM     38  N   UNL A   1      42.013  29.902  30.068  1.00  0.00    -0.248 NA
ATOM     39  C   UNL A   1      40.109  31.247  30.209  1.00  0.00     0.031 C 
ATOM     40  C   UNL A   1      39.572  26.704  28.099  1.00  0.00     0.029 A 
ATOM     41  N   UNL A   1      41.585  27.223  28.920  1.00  0.00    -0.354 N 
ATOM     42  C   UNL A   1      42.349  31.128  30.626  1.00  0.00     0.074 A 
ATOM     43  C   UNL A   1      41.155  31.942  30.629  1.00  0.00     0.031 C 
ATOM     44  C   UNL A   1      40.371  25.641  27.909  1.00  0.00     0.029 A 
ATOM     45  C   UNL A   1      41.703  25.948  28.422  1.00  0.00     0.049 A 
ATOM     46  H   UNL A   1      42.334  27.709  29.337  1.00  0.00     0.167 HD
ATOM     47  C   UNL A   1      43.543  31.532  31.117  1.00  0.00     0.031 A 
ATOM     48  C   UNL A   1      42.764  25.119  28.384  1.00  0.00     0.031 A 
ATOM     49  C   UNL A   1      44.715  30.706  31.154  1.00  0.00     0.049 A 
ATOM     50  C   UNL A   1      44.075  25.581  28.954  1.00  0.00     0.074 A 
ATOM     51  C   UNL A   1      45.958  31.003  31.684  1.00  0.00     0.029 A 
ATOM     52  N   UNL A   1      44.784  29.414  30.658  1.00  0.00    -0.354 N 
ATOM     53  N   UNL A   1      44.369  26.737  29.500  1.00  0.00    -0.248 NA
ATOM     54  C   UNL A   1      45.195  24.630  28.909  1.00  0.00     0.031 C 
ATOM     55  C   UNL A   1      46.788  29.895  31.485  1.00  0.00     0.029 A 
ATOM     56  C   UNL A   1      46.050  28.899  30.864  1.00  0.00     0.049 A 
ATOM     57  H   UNL A   1      44.043  28.935  30.223  1.00  0.00     0.167 HD
ATOM     58  C   UNL A   1      45.702  26.647  29.880  1.00  0.00     0.074 A 
ATOM     59  C   UNL A   1      46.157  25.323  29.507  1.00  0.00     0.031 C 
ATOM     60  C   UNL A   1      46.478  27.577  30.487  1.00  0.00     0.031 A 
BRANCH  47  61
ATOM     61  C   UNL A   1      43.626  32.923  31.676  1.00  0.00    -0.014 A 
ATOM     62  C   UNL A   1      43.915  34.016  30.839  1.00  0.00     0.010 A 
ATOM     63  C   UNL A   1      43.373  33.149  33.040  1.00  0.00     0.010 A 
ATOM     64  C   UNL A   1      43.977  35.308  31.363  1.00  0.00     0.020 A 
ATOM     65  C   UNL A   1      43.413  34.444  33.564  1.00  0.00     0.020 A 
ATOM     66  C   UNL A   1      43.722  35.514  32.722  1.00  0.00     0.054 A 
BRANCH  66  67
ATOM     67  S   UNL A   1      43.789  37.209  33.363  1.00  0.00     0.124 S 
ATOM     68  O   UNL A   1      45.043  37.200  34.113  1.00  0.00    -0.237 OA
ATOM     69  O   UNL A   1      43.794  38.008  32.141  1.00  0.00    -0.237 OA
ATOM     70  O   UNL A   1      42.581  37.322  34.177  1.00  0.00    -0.744 OA
ENDBRANCH  66  67
ENDBRANCH  47  61
BRANCH  48  71
ATOM     71  C   UNL A   1      42.608  23.753  27.820  1.00  0.00    -0.014 A 
ATOM     72  C   UNL A   1      42.291  22.676  28.665  1.00  0.00     0.010 A 
ATOM     73  C   UNL A   1      42.721  23.530  26.436  1.00  0.00     0.010 A 
ATOM     74  C   UNL A   1      42.082  21.399  28.136  1.00  0.00     0.020 A 
ATOM     75  C   UNL A   1      42.497  22.258  25.901  1.00  0.00     0.020 A 
ATOM     76  C   UNL A   1      42.177  21.201  26.756  1.00  0.00     0.054 A 
BRANCH  76  77
ATOM     77  S   UNL A   1      41.837  19.545  26.094  1.00  0.00     0.124 S 
ATOM     78  O   UNL A   1      42.676  19.512  24.900  1.00  0.00    -0.237 OA
ATOM     79  O   UNL A   1      42.265  18.683  27.193  1.00  0.00    -0.237 OA
ATOM     80  O   UNL A   1      40.398  19.563  25.846  1.00  0.00    -0.744 OA
ENDBRANCH  76  77
ENDBRANCH  48  71
BRANCH  60  81
ATOM     81  C   UNL A   1      47.896  27.206  30.809  1.00  0.00    -0.014 A 
ATOM     82  C   UNL A   1      48.944  27.560  29.944  1.00  0.00     0.010 A 
ATOM     83  C   UNL A   1      48.192  26.612  32.050  1.00  0.00     0.010 A 
ATOM     84  C   UNL A   1      50.269  27.331  30.317  1.00  0.00     0.020 A 
ATOM     85  C   UNL A   1      49.517  26.396  32.433  1.00  0.00     0.020 A 
ATOM     86  C   UNL A   1      50.547  26.761  31.564  1.00  0.00     0.054 A 
BRANCH  86  87
ATOM     87  S   UNL A   1      52.282  26.550  32.050  1.00  0.00     0.124 S 
ATOM     88  O   UNL A   1      52.169  25.694  33.228  1.00  0.00    -0.237 OA
ATOM     89  O   UNL A   1      52.864  25.918  30.868  1.00  0.00    -0.237 OA
ATOM     90  O   UNL A   1      52.740  27.912  32.312  1.00  0.00    -0.744 OA
ENDBRANCH  86  87
ENDBRANCH  60  81
ENDBRANCH  34  35
ENDBRANCH  26  29
ENDBRANCH  24  25
ENDBRANCH   1  24
TORSDOF 17
ENDMDL
MODEL 2
REMARK VINA RESULT:     -10.5      2.680      9.013
REMARK SMILES CC(C)C[C@H](NC(=O)c1cc(Cl)nnc1Cl)C(=O)NCCCNC(=O)c1ccc(-c2c3nc(c(-c4ccc(S(=O)(=O)[O-])cc4)c4ccc([nH]4)c(-c4ccc(S(=O)(=O)[O-])cc4)c4nc(c(-c5ccc(S(=O)(=O)[O-])cc5)c5ccc2[nH]5)C=C4)C=C3)cc1
REMARK SMILES IDX 21 1 20 2 19 3 17 4 18 5 5 7 4 8 2 9 1 10 3 11 6 12 7 13
REMARK SMILES IDX 8 15 9 16 10 17 15 18 11 19 14 20 16 21 12 22 13 23 22 24
REMARK SMILES IDX 23 25 24 26 25 28 26 29 27 30 85 31 28 32 84 33 29 34 30 35
REMARK SMILES IDX 31 36 78 37 32 38 83 39 77 40 79 41 33 42 82 43 76 44 75 45
REMARK SMILES IDX 34 47 64 48 45 49 63 50 46 51 49 52 62 53 80 54 47 55 48 56
REMARK SMILES IDX 61 58 81 59 50 60 35 61 36 62 44 63 37 64 43 65 38 66 39 67
REMARK SMILES IDX 40 68 41 69 42 70 65 71 66 72 74 73 67 74 73 75 68 76 69 77
REMARK SMILES IDX 70 78 71 79 72 80 51 81 52 82 60 83 53 84 59 85 54 86 55 87
REMARK SMILES IDX 56 88 57 89 58 90
REMARK H PARENT 19 6 6 14 23 27 79 46 49 57
REMARK Flexibility Score: inf
ROOT
ATOM      1  C   UNL A   1      35.251  22.608  25.553  1.00  0.00     0.042 C 
ENDROOT
BRANCH   1   2
ATOM      2  C   UNL A   1      35.111  22.468  24.052  1.00  0.00     0.117 C 
BRANCH   2   3
ATOM      3  N   UNL A   1      33.908  21.777  23.640  1.00  0.00    -0.354 N 
ATOM      4  C   UNL A   1      32.698  22.302  23.287  1.00  0.00     0.242 C 
ATOM      5  O   UNL A   1      31.928  21.581  22.645  1.00  0.00    -0.273 OA
ATOM      6  H   UNL A   1      33.971  20.794  23.608  1.00  0.00     0.163 HD
BRANCH   4   7
ATOM      7  C   UNL A   1      32.335  23.776  23.584  1.00  0.00     0.171 C 
BRANCH   7   8
ATOM      8  C   UNL A   1      30.925  23.992  24.164  1.00  0.00     0.038 C 
BRANCH   8   9
ATOM      9  C   UNL A   1      30.754  24.438  25.631  1.00  0.00    -0.015 C 
ATOM     10  C   UNL A   1      32.091  24.715  26.332  1.00  0.00     0.007 C 
ATOM     11  C   UNL A   1      29.925  25.727  25.698  1.00  0.00     0.007 C 
ENDBRANCH   8   9
ENDBRANCH   7   8
BRANCH   7  12
ATOM     12  N   UNL A   1      32.893  24.667  22.546  1.00  0.00    -0.340 N 
ATOM     13  C   UNL A   1      32.845  25.974  22.175  1.00  0.00     0.255 C 
ATOM     14  H   UNL A   1      33.479  24.160  21.939  1.00  0.00     0.164 HD
ATOM     15  O   UNL A   1      33.406  26.328  21.141  1.00  0.00    -0.269 OA
BRANCH  13  16
ATOM     16  C   UNL A   1      32.095  26.985  22.898  1.00  0.00     0.082 A 
ATOM     17  C   UNL A   1      30.901  27.450  22.342  1.00  0.00     0.060 A 
ATOM     18  C   UNL A   1      32.620  27.626  24.001  1.00  0.00     0.164 A 
ATOM     19  C   UNL A   1      30.249  28.467  22.997  1.00  0.00     0.152 A 
ATOM     20  N   UNL A   1      31.946  28.616  24.622  1.00  0.00    -0.136 NA
ATOM     21  Cl  UNL A   1      34.142  27.262  24.700  1.00  0.00    -0.059 Cl
ATOM     22  Cl  UNL A   1      28.749  29.072  22.446  1.00  0.00    -0.060 Cl
ATOM     23  N   UNL A   1      30.733  29.030  24.121  1.00  0.00    -0.137 NA
ENDBRANCH  13  16
ENDBRANCH   7  12
ENDBRANCH   4   7
ENDBRANCH   2   3
ENDBRANCH   1   2
BRANCH   1  24
ATOM     24  C   UNL A   1      36.495  23.395  25.937  1.00  0.00     0.118 C 
BRANCH  24  25
ATOM     25  N   UNL A   1      37.678  22.543  26.033  1.00  0.00    -0.352 N 
ATOM     26  C   UNL A   1      38.971  22.873  26.366  1.00  0.00     0.251 C 
ATOM     27  H   UNL A   1      37.528  21.591  25.828  1.00  0.00     0.163 HD
ATOM     28  O   UNL A   1      39.883  22.076  26.163  1.00  0.00    -0.269 OA
BRANCH  26  29
ATOM     29  C   UNL A   1      39.248  24.199  26.947  1.00  0.00     0.039 A 
ATOM     30  C   UNL A   1      38.880  24.470  28.267  1.00  0.00     0.014 A 
ATOM     31  C   UNL A   1      39.905  25.165  26.182  1.00  0.00     0.014 A 
ATOM     32  C   UNL A   1      39.253  25.685  28.846  1.00  0.00     0.010 A 
ATOM     33  C   UNL A   1      40.359  26.327  26.786  1.00  0.00     0.010 A 
ATOM     34  C   UNL A   1      40.029  26.603  28.121  1.00  0.00    -0.014 A 
BRANCH  34  35
ATOM     35  C   UNL A   1      40.480  27.885  28.709  1.00  0.00     0.031 A 
ATOM     36  C   UNL A   1      41.891  28.002  29.218  1.00  0.00     0.074 A 
ATOM     37  C   UNL A   1      39.611  28.902  28.859  1.00  0.00     0.049 A 
ATOM     38  N   UNL A   1      42.449  28.984  29.875  1.00  0.00    -0.248 NA
ATOM     39  C   UNL A   1      42.779  26.849  28.990  1.00  0.00     0.031 C 
ATOM     40  C   UNL A   1      38.207  28.893  28.441  1.00  0.00     0.029 A 
ATOM     41  N   UNL A   1      39.782  30.145  29.415  1.00  0.00    -0.354 N 
ATOM     42  C   UNL A   1      43.740  28.557  30.158  1.00  0.00     0.074 A 
ATOM     43  C   UNL A   1      43.869  27.211  29.648  1.00  0.00     0.031 C 
ATOM     44  C   UNL A   1      37.656  30.084  28.725  1.00  0.00     0.029 A 
ATOM     45  C   UNL A   1      38.653  30.928  29.376  1.00  0.00     0.049 A 
ATOM     46  H   UNL A   1      40.634  30.448  29.805  1.00  0.00     0.167 HD
ATOM     47  C   UNL A   1      44.739  29.236  30.766  1.00  0.00     0.031 A 
ATOM     48  C   UNL A   1      38.446  32.184  29.815  1.00  0.00     0.031 A 
ATOM     49  C   UNL A   1      44.622  30.588  31.230  1.00  0.00     0.049 A 
ATOM     50  C   UNL A   1      39.576  32.928  30.469  1.00  0.00     0.074 A 
ATOM     51  C   UNL A   1      45.595  31.385  31.807  1.00  0.00     0.029 A 
ATOM     52  N   UNL A   1      43.467  31.351  31.152  1.00  0.00    -0.354 N 
ATOM     53  N   UNL A   1      40.798  32.516  30.707  1.00  0.00    -0.248 NA
ATOM     54  C   UNL A   1      39.304  34.303  30.909  1.00  0.00     0.031 C 
ATOM     55  C   UNL A   1      45.018  32.625  32.102  1.00  0.00     0.029 A 
ATOM     56  C   UNL A   1      43.699  32.608  31.675  1.00  0.00     0.049 A 
ATOM     57  H   UNL A   1      42.610  31.042  30.781  1.00  0.00     0.167 HD
ATOM     58  C   UNL A   1      41.447  33.587  31.308  1.00  0.00     0.074 A 
ATOM     59  C   UNL A   1      40.486  34.667  31.394  1.00  0.00     0.031 C 
ATOM     60  C   UNL A   1      42.727  33.668  31.746  1.00  0.00     0.031 A 
BRANCH  47  61
ATOM     61  C   UNL A   1      46.053  28.529  30.938  1.00  0.00    -0.014 A 
ATOM     62  C   UNL A   1      46.306  27.756  32.086  1.00  0.00     0.010 A 
ATOM     63  C   UNL A   1      47.027  28.600  29.926  1.00  0.00     0.010 A 
ATOM     64  C   UNL A   1      47.523  27.090  32.232  1.00  0.00     0.020 A 
ATOM     65  C   UNL A   1      48.238  27.917  30.060  1.00  0.00     0.020 A 
ATOM     66  C   UNL A   1      48.481  27.172  31.216  1.00  0.00     0.054 A 
BRANCH  66  67
ATOM     67  S   UNL A   1      50.042  26.274  31.431  1.00  0.00     0.124 S 
ATOM     68  O   UNL A   1      49.615  25.100  32.188  1.00  0.00    -0.237 OA
ATOM     69  O   UNL A   1      50.450  26.019  30.052  1.00  0.00    -0.237 OA
ATOM     70  O   UNL A   1      50.886  27.213  32.166  1.00  0.00    -0.744 OA
ENDBRANCH  66  67
ENDBRANCH  47  61
BRANCH  48  71
ATOM     71  C   UNL A   1      37.121  32.825  29.608  1.00  0.00    -0.014 A 
ATOM     72  C   UNL A   1      36.214  32.922  30.678  1.00  0.00     0.010 A 
ATOM     73  C   UNL A   1      36.780  33.386  28.365  1.00  0.00     0.010 A 
ATOM     74  C   UNL A   1      34.990  33.576  30.510  1.00  0.00     0.020 A 
ATOM     75  C   UNL A   1      35.564  34.055  28.197  1.00  0.00     0.020 A 
ATOM     76  C   UNL A   1      34.677  34.147  29.272  1.00  0.00     0.054 A 
BRANCH  76  77
ATOM     77  S   UNL A   1      33.109  35.045  29.106  1.00  0.00     0.124 S 
ATOM     78  O   UNL A   1      32.563  34.966  30.457  1.00  0.00    -0.237 OA
ATOM     79  O   UNL A   1      33.558  36.369  28.682  1.00  0.00    -0.237 OA
ATOM     80  O   UNL A   1      32.382  34.284  28.093  1.00  0.00    -0.744 OA
ENDBRANCH  76  77
ENDBRANCH  48  71
BRANCH  60  81
ATOM     81  C   UNL A   1      43.182  34.967  32.344  1.00  0.00    -0.014 A 
ATOM     82  C   UNL A   1      43.611  36.023  31.525  1.00  0.00     0.010 A 
ATOM     83  C   UNL A   1      43.057  35.172  33.731  1.00  0.00     0.010 A 
ATOM     84  C   UNL A   1      43.903  37.270  32.082  1.00  0.00     0.020 A 
ATOM     85  C   UNL A   1      43.332  36.422  34.289  1.00  0.00     0.020 A 
ATOM     86  C   UNL A   1      43.750  37.464  33.458  1.00  0.00     0.054 A 
BRANCH  86  87
ATOM     87  S   UNL A   1      44.062  39.116  34.138  1.00  0.00     0.124 S 
ATOM     88  O   UNL A   1      44.039  38.866  35.577  1.00  0.00    -0.237 OA
ATOM     89  O   UNL A   1      45.371  39.444  33.577  1.00  0.00    -0.237 OA
ATOM     90  O   UNL A   1      42.951  39.918  33.628  1.00  0.00    -0.744 OA
ENDBRANCH  86  87
ENDBRANCH  60  81
ENDBRANCH  34  35
ENDBRANCH  26  29
ENDBRANCH  24  25
ENDBRANCH   1  24
TORSDOF 17
ENDMDL
MODEL 3
REMARK VINA RESULT:     -10.4      2.035      2.666
REMARK SMILES CC(C)C[C@H](NC(=O)c1cc(Cl)nnc1Cl)C(=O)NCCCNC(=O)c1ccc(-c2c3nc(c(-c4ccc(S(=O)(=O)[O-])cc4)c4ccc([nH]4)c(-c4ccc(S(=O)(=O)[O-])cc4)c4nc(c(-c5ccc(S(=O)(=O)[O-])cc5)c5ccc2[nH]5)C=C4)C=C3)cc1
REMARK SMILES IDX 21 1 20 2 19 3 17 4 18 5 5 7 4 8 2 9 1 10 3 11 6 12 7 13
REMARK SMILES IDX 8 15 9 16 10 17 15 18 11 19 14 20 16 21 12 22 13 23 22 24
REMARK SMILES IDX 23 25 24 26 25 28 26 29 27 30 85 31 28 32 84 33 29 34 30 35
REMARK SMILES IDX 31 36 78 37 32 38 83 39 77 40 79 41 33 42 82 43 76 44 75 45
REMARK SMILES IDX 34 47 64 48 45 49 63 50 46 51 49 52 62 53 80 54 47 55 48 56
REMARK SMILES IDX 61 58 81 59 50 60 35 61 36 62 44 63 37 64 43 65 38 66 39 67
REMARK SMILES IDX 40 68 41 69 42 70 65 71 66 72 74 73 67 74 73 75 68 76 69 77
REMARK SMILES IDX 70 78 71 79 72 80 51 81 52 82 60 83 53 84 59 85 54 86 55 87
REMARK SMILES IDX 56 88 57 89 58 90
REMARK H PARENT 19 6 6 14 23 27 79 46 49 57
REMARK Flexibility Score: inf
ROOT
ATOM      1  C   UNL A   1      33.564  27.685  24.922  1.00  0.00     0.042 C 
ENDROOT
BRANCH   1   2
ATOM      2  C   UNL A   1      33.865  26.214  24.720  1.00  0.00     0.117 C 
BRANCH   2   3
ATOM      3  N   UNL A   1      33.826  25.796  23.334  1.00  0.00    -0.354 N 
ATOM      4  C   UNL A   1      34.013  24.548  22.812  1.00  0.00     0.242 C 
ATOM      5  O   UNL A   1      33.600  24.341  21.667  1.00  0.00    -0.273 OA
ATOM      6  H   UNL A   1      33.636  26.508  22.680  1.00  0.00     0.163 HD
BRANCH   4   7
ATOM      7  C   UNL A   1      34.625  23.401  23.650  1.00  0.00     0.171 C 
BRANCH   7   8
ATOM      8  C   UNL A   1      36.101  23.088  23.341  1.00  0.00     0.038 C 
BRANCH   8   9
ATOM      9  C   UNL A   1      37.113  22.929  24.495  1.00  0.00    -0.015 C 
ATOM     10  C   UNL A   1      36.747  23.761  25.731  1.00  0.00     0.007 C 
ATOM     11  C   UNL A   1      37.186  21.461  24.934  1.00  0.00     0.007 C 
ENDBRANCH   8   9
ENDBRANCH   7   8
BRANCH   7  12
ATOM     12  N   UNL A   1      33.632  22.328  23.864  1.00  0.00    -0.340 N 
ATOM     13  C   UNL A   1      32.446  22.132  24.500  1.00  0.00     0.255 C 
ATOM     14  H   UNL A   1      33.916  21.504  23.407  1.00  0.00     0.164 HD
ATOM     15  O   UNL A   1      31.954  21.007  24.522  1.00  0.00    -0.269 OA
BRANCH  13  16
ATOM     16  C   UNL A   1      31.748  23.173  25.232  1.00  0.00     0.082 A 
ATOM     17  C   UNL A   1      30.919  24.042  24.519  1.00  0.00     0.060 A 
ATOM     18  C   UNL A   1      32.028  23.440  26.556  1.00  0.00     0.164 A 
ATOM     19  C   UNL A   1      30.333  25.073  25.214  1.00  0.00     0.152 A 
ATOM     20  N   UNL A   1      31.426  24.457  27.206  1.00  0.00    -0.136 NA
ATOM     21  Cl  UNL A   1      33.137  22.549  27.512  1.00  0.00    -0.059 Cl
ATOM     22  Cl  UNL A   1      29.251  26.161  24.462  1.00  0.00    -0.060 Cl
ATOM     23  N   UNL A   1      30.552  25.276  26.529  1.00  0.00    -0.137 NA
ENDBRANCH  13  16
ENDBRANCH   7  12
ENDBRANCH   4   7
ENDBRANCH   2   3
ENDBRANCH   1   2
BRANCH   1  24
ATOM     24  C   UNL A   1      33.698  28.095  26.381  1.00  0.00     0.118 C 
BRANCH  24  25
ATOM     25  N   UNL A   1      33.557  29.539  26.562  1.00  0.00    -0.352 N 
ATOM     26  C   UNL A   1      34.318  30.407  27.310  1.00  0.00     0.251 C 
ATOM     27  H   UNL A   1      32.806  29.952  26.077  1.00  0.00     0.163 HD
ATOM     28  O   UNL A   1      33.913  31.543  27.538  1.00  0.00    -0.269 OA
BRANCH  26  29
ATOM     29  C   UNL A   1      35.611  29.948  27.851  1.00  0.00     0.039 A 
ATOM     30  C   UNL A   1      36.777  30.116  27.101  1.00  0.00     0.014 A 
ATOM     31  C   UNL A   1      35.663  29.374  29.123  1.00  0.00     0.014 A 
ATOM     32  C   UNL A   1      38.010  29.789  27.669  1.00  0.00     0.010 A 
ATOM     33  C   UNL A   1      36.892  29.142  29.721  1.00  0.00     0.010 A 
ATOM     34  C   UNL A   1      38.077  29.338  28.996  1.00  0.00    -0.014 A 
BRANCH  34  35
ATOM     35  C   UNL A   1      39.365  29.017  29.652  1.00  0.00     0.031 A 
ATOM     36  C   UNL A   1      39.809  29.834  30.835  1.00  0.00     0.074 A 
ATOM     37  C   UNL A   1      40.164  28.061  29.141  1.00  0.00     0.049 A 
ATOM     38  N   UNL A   1      40.949  29.803  31.474  1.00  0.00    -0.248 NA
ATOM     39  C   UNL A   1      38.863  30.842  31.341  1.00  0.00     0.031 C 
ATOM     40  C   UNL A   1      39.859  27.230  27.974  1.00  0.00     0.029 A 
ATOM     41  N   UNL A   1      41.405  27.631  29.537  1.00  0.00    -0.354 N 
ATOM     42  C   UNL A   1      40.863  30.800  32.437  1.00  0.00     0.074 A 
ATOM     43  C   UNL A   1      39.585  31.451  32.269  1.00  0.00     0.031 C 
ATOM     44  C   UNL A   1      40.870  26.370  27.770  1.00  0.00     0.029 A 
ATOM     45  C   UNL A   1      41.909  26.611  28.767  1.00  0.00     0.049 A 
ATOM     46  H   UNL A   1      41.890  28.018  30.303  1.00  0.00     0.167 HD
ATOM     47  C   UNL A   1      41.760  31.126  33.396  1.00  0.00     0.031 A 
ATOM     48  C   UNL A   1      43.076  25.944  28.856  1.00  0.00     0.031 A 
ATOM     49  C   UNL A   1      43.008  30.446  33.589  1.00  0.00     0.049 A 
ATOM     50  C   UNL A   1      44.048  26.309  29.941  1.00  0.00     0.074 A 
ATOM     51  C   UNL A   1      43.960  30.664  34.569  1.00  0.00     0.029 A 
ATOM     52  N   UNL A   1      43.470  29.405  32.799  1.00  0.00    -0.354 N 
ATOM     53  N   UNL A   1      43.939  27.239  30.859  1.00  0.00    -0.248 NA
ATOM     54  C   UNL A   1      45.296  25.535  30.007  1.00  0.00     0.031 C 
ATOM     55  C   UNL A   1      45.012  29.767  34.355  1.00  0.00     0.029 A 
ATOM     56  C   UNL A   1      44.695  28.971  33.265  1.00  0.00     0.049 A 
ATOM     57  H   UNL A   1      42.995  29.031  32.023  1.00  0.00     0.167 HD
ATOM     58  C   UNL A   1      45.096  27.152  31.624  1.00  0.00     0.074 A 
ATOM     59  C   UNL A   1      45.889  26.076  31.066  1.00  0.00     0.031 C 
ATOM     60  C   UNL A   1      45.464  27.895  32.695  1.00  0.00     0.031 A 
BRANCH  47  61
ATOM     61  C   UNL A   1      41.404  32.253  34.322  1.00  0.00    -0.014 A 
ATOM     62  C   UNL A   1      41.718  33.582  33.987  1.00  0.00     0.010 A 
ATOM     63  C   UNL A   1      40.712  31.989  35.517  1.00  0.00     0.010 A 
ATOM     64  C   UNL A   1      41.371  34.627  34.845  1.00  0.00     0.020 A 
ATOM     65  C   UNL A   1      40.344  33.034  36.369  1.00  0.00     0.020 A 
ATOM     66  C   UNL A   1      40.684  34.346  36.030  1.00  0.00     0.054 A 
BRANCH  66  67
ATOM     67  S   UNL A   1      40.230  35.730  37.110  1.00  0.00     0.124 S 
ATOM     68  O   UNL A   1      39.170  35.142  37.926  1.00  0.00    -0.237 OA
ATOM     69  O   UNL A   1      41.481  36.006  37.810  1.00  0.00    -0.237 OA
ATOM     70  O   UNL A   1      39.793  36.769  36.181  1.00  0.00    -0.744 OA
ENDBRANCH  66  67
ENDBRANCH  47  61
BRANCH  48  71
ATOM     71  C   UNL A   1      43.361  24.835  27.907  1.00  0.00    -0.014 A 
ATOM     72  C   UNL A   1      44.089  25.087  26.732  1.00  0.00     0.010 A 
ATOM     73  C   UNL A   1      42.957  23.521  28.196  1.00  0.00     0.010 A 
ATOM     74  C   UNL A   1      44.415  24.041  25.863  1.00  0.00     0.020 A 
ATOM     75  C   UNL A   1      43.294  22.469  27.339  1.00  0.00     0.020 A 
ATOM     76  C   UNL A   1      44.023  22.737  26.179  1.00  0.00     0.054 A 
BRANCH  76  77
ATOM     77  S   UNL A   1      44.518  21.392  25.064  1.00  0.00     0.124 S 
ATOM     78  O   UNL A   1      45.873  21.098  25.519  1.00  0.00    -0.237 OA
ATOM     79  O   UNL A   1      43.517  20.369  25.355  1.00  0.00    -0.237 OA
ATOM     80  O   UNL A   1      44.421  21.992  23.736  1.00  0.00    -0.744 OA
ENDBRANCH  76  77
ENDBRANCH  48  71
BRANCH  60  81
ATOM     81  C   UNL A   1      46.772  27.571  33.357  1.00  0.00    -0.014 A 
ATOM     82  C   UNL A   1      46.849  26.578  34.346  1.00  0.00     0.010 A 
ATOM     83  C   UNL A   1      47.952  28.178  32.890  1.00  0.00     0.010 A 
ATOM     84  C   UNL A   1      48.089  26.191  34.857  1.00  0.00     0.020 A 
ATOM     85  C   UNL A   1      49.196  27.783  33.387  1.00  0.00     0.020 A 
ATOM     86  C   UNL A   1      49.255  26.788  34.366  1.00  0.00     0.054 A 
BRANCH  86  87
ATOM     87  S   UNL A   1      50.854  26.207  34.994  1.00  0.00     0.124 S 
ATOM     88  O   UNL A   1      51.612  27.450  35.103  1.00  0.00    -0.237 OA
ATOM     89  O   UNL A   1      50.485  25.583  36.262  1.00  0.00    -0.237 OA
ATOM     90  O   UNL A   1      51.320  25.283  33.962  1.00  0.00    -0.744 OA
ENDBRANCH  86  87
ENDBRANCH  60  81
ENDBRANCH  34  35
ENDBRANCH  26  29
ENDBRANCH  24  25
ENDBRANCH   1  24
TORSDOF 17
ENDMDL
