MODEL 1
REMARK VINA RESULT:     -11.2      0.000      0.000
REMARK SMILES CC(C)[C@@H](NC(N)=O)C(=O)Nc1cccc(F)c1C(=O)NCCCNC(=O)c1ccc(-c2c3nc(c(-c4ccc(S(=O)(=O)[O-])cc4)c4ccc([nH]4)c(-c4ccc(S(=O)(=O)[O-])cc4)c4nc(c(-c5ccc(S(=O)(=O)[O-])cc5)c5ccc2[nH]5)C=C4)C=C3)cc1
REMARK SMILES IDX 23 1 22 2 21 3 19 4 20 5 18 7 12 8 13 9 14 10 16 11 15 12
REMARK SMILES IDX 17 13 11 14 9 15 10 16 4 18 2 19 1 20 3 21 5 22 6 23 7 25
REMARK SMILES IDX 8 26 24 29 25 30 26 31 27 33 28 34 29 35 87 36 30 37 86 38
REMARK SMILES IDX 31 39 32 40 33 41 80 42 34 43 85 44 79 45 81 46 35 47 84 48
REMARK SMILES IDX 78 49 77 50 36 52 66 53 47 54 65 55 48 56 51 57 64 58 82 59
REMARK SMILES IDX 49 60 50 61 63 63 83 64 52 65 37 66 38 67 46 68 39 69 45 70
REMARK SMILES IDX 40 71 41 72 42 73 43 74 44 75 67 76 68 77 76 78 69 79 75 80
REMARK SMILES IDX 70 81 71 82 72 83 73 84 74 85 53 86 54 87 62 88 55 89 61 90
REMARK SMILES IDX 56 91 57 92 58 93 59 94 60 95
REMARK H PARENT 21 6 11 17 5 24 7 27 7 28 25 32 81 51 51 62
REMARK Flexibility Score: inf
ROOT
ATOM      1  C   UNL A   1      32.661  28.080  25.973  1.00  0.00     0.042 C 
ENDROOT
BRANCH   1   2
ATOM      2  C   UNL A   1      31.562  27.046  26.150  1.00  0.00     0.118 C 
BRANCH   2   3
ATOM      3  N   UNL A   1      30.571  27.066  25.085  1.00  0.00    -0.352 N 
ATOM      4  C   UNL A   1      30.468  26.426  23.875  1.00  0.00     0.256 C 
ATOM      5  O   UNL A   1      29.553  26.802  23.141  1.00  0.00    -0.269 OA
ATOM      6  H   UNL A   1      29.812  27.665  25.272  1.00  0.00     0.163 HD
BRANCH   4   7
ATOM      7  C   UNL A   1      31.452  25.429  23.370  1.00  0.00     0.099 A 
ATOM      8  C   UNL A   1      31.288  24.066  23.665  1.00  0.00     0.057 A 
ATOM      9  C   UNL A   1      31.959  23.096  22.909  1.00  0.00     0.027 A 
ATOM     10  C   UNL A   1      32.957  23.462  22.016  1.00  0.00     0.005 A 
ATOM     11  C   UNL A   1      32.601  25.757  22.654  1.00  0.00     0.138 A 
ATOM     12  C   UNL A   1      33.332  24.796  21.950  1.00  0.00     0.040 A 
ATOM     13  F   UNL A   1      33.132  26.988  22.719  1.00  0.00    -0.206 F 
BRANCH   8  14
ATOM     14  N   UNL A   1      30.531  23.632  24.767  1.00  0.00    -0.323 N 
ATOM     15  C   UNL A   1      30.941  22.722  25.724  1.00  0.00     0.247 C 
ATOM     16  O   UNL A   1      30.082  22.179  26.429  1.00  0.00    -0.272 OA
ATOM     17  H   UNL A   1      29.628  24.011  24.866  1.00  0.00     0.170 HD
BRANCH  15  18
ATOM     18  C   UNL A   1      32.454  22.311  25.886  1.00  0.00     0.176 C 
BRANCH  18  19
ATOM     19  C   UNL A   1      33.298  23.298  26.734  1.00  0.00     0.015 C 
ATOM     20  C   UNL A   1      34.289  22.587  27.666  1.00  0.00     0.010 C 
ATOM     21  C   UNL A   1      34.054  24.321  25.886  1.00  0.00     0.010 C 
ENDBRANCH  18  19
BRANCH  18  22
ATOM     22  N   UNL A   1      32.590  20.939  26.398  1.00  0.00    -0.326 N 
ATOM     23  C   UNL A   1      32.846  19.893  25.563  1.00  0.00     0.312 C 
ATOM     24  H   UNL A   1      32.494  20.772  27.363  1.00  0.00     0.166 HD
ATOM     25  N   UNL A   1      32.947  18.710  26.216  1.00  0.00    -0.352 N 
ATOM     26  O   UNL A   1      32.944  19.964  24.353  1.00  0.00    -0.249 OA
ATOM     27  H   UNL A   1      32.864  18.681  27.196  1.00  0.00     0.161 HD
ATOM     28  H   UNL A   1      33.102  17.879  25.710  1.00  0.00     0.161 HD
ENDBRANCH  18  22
ENDBRANCH  15  18
ENDBRANCH   8  14
ENDBRANCH   4   7
ENDBRANCH   2   3
ENDBRANCH   1   2
BRANCH   1  29
ATOM     29  C   UNL A   1      33.374  28.457  27.259  1.00  0.00     0.118 C 
BRANCH  29  30
ATOM     30  N   UNL A   1      33.376  29.896  27.500  1.00  0.00    -0.352 N 
ATOM     31  C   UNL A   1      34.326  30.708  28.073  1.00  0.00     0.251 C 
ATOM     32  H   UNL A   1      32.561  30.363  27.204  1.00  0.00     0.163 HD
ATOM     33  O   UNL A   1      34.032  31.860  28.381  1.00  0.00    -0.269 OA
BRANCH  31  34
ATOM     34  C   UNL A   1      35.688  30.194  28.336  1.00  0.00     0.039 A 
ATOM     35  C   UNL A   1      36.625  30.166  27.298  1.00  0.00     0.014 A 
ATOM     36  C   UNL A   1      36.039  29.731  29.603  1.00  0.00     0.014 A 
ATOM     37  C   UNL A   1      37.935  29.757  27.562  1.00  0.00     0.010 A 
ATOM     38  C   UNL A   1      37.366  29.432  29.888  1.00  0.00     0.010 A 
ATOM     39  C   UNL A   1      38.328  29.434  28.870  1.00  0.00    -0.014 A 
BRANCH  39  40
ATOM     40  C   UNL A   1      39.733  29.084  29.207  1.00  0.00     0.031 A 
ATOM     41  C   UNL A   1      40.635  30.121  29.824  1.00  0.00     0.074 A 
ATOM     42  C   UNL A   1      40.219  27.871  28.875  1.00  0.00     0.049 A 
ATOM     43  N   UNL A   1      41.915  30.049  30.086  1.00  0.00    -0.248 NA
ATOM     44  C   UNL A   1      40.026  31.419  30.161  1.00  0.00     0.031 C 
ATOM     45  C   UNL A   1      39.457  26.796  28.235  1.00  0.00     0.029 A 
ATOM     46  N   UNL A   1      41.478  27.343  29.018  1.00  0.00    -0.354 N 
ATOM     47  C   UNL A   1      42.267  31.296  30.591  1.00  0.00     0.074 A 
ATOM     48  C   UNL A   1      41.081  32.121  30.546  1.00  0.00     0.031 C 
ATOM     49  C   UNL A   1      40.254  25.729  28.067  1.00  0.00     0.029 A 
ATOM     50  C   UNL A   1      41.597  26.059  28.537  1.00  0.00     0.049 A 
ATOM     51  H   UNL A   1      42.226  27.836  29.426  1.00  0.00     0.167 HD
ATOM     52  C   UNL A   1      43.463  31.711  31.070  1.00  0.00     0.031 A 
ATOM     53  C   UNL A   1      42.667  25.243  28.467  1.00  0.00     0.031 A 
ATOM     54  C   UNL A   1      44.635  30.879  31.125  1.00  0.00     0.049 A 
ATOM     55  C   UNL A   1      43.990  25.731  28.991  1.00  0.00     0.074 A 
ATOM     56  C   UNL A   1      45.880  31.183  31.646  1.00  0.00     0.029 A 
ATOM     57  N   UNL A   1      44.708  29.580  30.642  1.00  0.00    -0.354 N 
ATOM     58  N   UNL A   1      44.287  26.891  29.526  1.00  0.00    -0.248 NA
ATOM     59  C   UNL A   1      45.122  24.797  28.911  1.00  0.00     0.031 C 
ATOM     60  C   UNL A   1      46.723  30.089  31.422  1.00  0.00     0.029 A 
ATOM     61  C   UNL A   1      45.984  29.078  30.828  1.00  0.00     0.049 A 
ATOM     62  H   UNL A   1      43.962  29.089  30.228  1.00  0.00     0.167 HD
ATOM     63  C   UNL A   1      45.631  26.815  29.875  1.00  0.00     0.074 A 
ATOM     64  C   UNL A   1      46.085  25.491  29.502  1.00  0.00     0.031 C 
ATOM     65  C   UNL A   1      46.417  27.755  30.455  1.00  0.00     0.031 A 
BRANCH  52  66
ATOM     66  C   UNL A   1      43.564  33.129  31.567  1.00  0.00    -0.014 A 
ATOM     67  C   UNL A   1      43.270  33.457  32.904  1.00  0.00     0.010 A 
ATOM     68  C   UNL A   1      43.997  34.147  30.696  1.00  0.00     0.010 A 
ATOM     69  C   UNL A   1      43.364  34.778  33.348  1.00  0.00     0.020 A 
ATOM     70  C   UNL A   1      44.125  35.464  31.146  1.00  0.00     0.020 A 
ATOM     71  C   UNL A   1      43.790  35.774  32.465  1.00  0.00     0.054 A 
BRANCH  71  72
ATOM     72  S   UNL A   1      43.928  37.475  33.079  1.00  0.00     0.124 S 
ATOM     73  O   UNL A   1      42.860  37.523  34.074  1.00  0.00    -0.237 OA
ATOM     74  O   UNL A   1      45.287  37.512  33.614  1.00  0.00    -0.237 OA
ATOM     75  O   UNL A   1      43.707  38.293  31.888  1.00  0.00    -0.744 OA
ENDBRANCH  71  72
ENDBRANCH  52  66
BRANCH  53  76
ATOM     76  C   UNL A   1      42.527  23.877  27.889  1.00  0.00    -0.014 A 
ATOM     77  C   UNL A   1      42.148  22.793  28.701  1.00  0.00     0.010 A 
ATOM     78  C   UNL A   1      42.761  23.654  26.520  1.00  0.00     0.010 A 
ATOM     79  C   UNL A   1      42.024  21.510  28.159  1.00  0.00     0.020 A 
ATOM     80  C   UNL A   1      42.607  22.379  25.967  1.00  0.00     0.020 A 
ATOM     81  C   UNL A   1      42.250  21.312  26.794  1.00  0.00     0.054 A 
BRANCH  81  82
ATOM     82  S   UNL A   1      42.033  19.648  26.104  1.00  0.00     0.124 S 
ATOM     83  O   UNL A   1      42.963  19.662  24.979  1.00  0.00    -0.237 OA
ATOM     84  O   UNL A   1      42.408  18.791  27.226  1.00  0.00    -0.237 OA
ATOM     85  O   UNL A   1      40.616  19.608  25.745  1.00  0.00    -0.744 OA
ENDBRANCH  81  82
ENDBRANCH  53  76
BRANCH  65  86
ATOM     86  C   UNL A   1      47.842  27.379  30.765  1.00  0.00    -0.014 A 
ATOM     87  C   UNL A   1      48.186  26.743  31.970  1.00  0.00     0.010 A 
ATOM     88  C   UNL A   1      48.840  27.604  29.798  1.00  0.00     0.010 A 
ATOM     89  C   UNL A   1      49.509  26.359  32.212  1.00  0.00     0.020 A 
ATOM     90  C   UNL A   1      50.155  27.192  30.022  1.00  0.00     0.020 A 
ATOM     91  C   UNL A   1      50.483  26.582  31.233  1.00  0.00     0.054 A 
BRANCH  91  92
ATOM     92  S   UNL A   1      52.179  26.020  31.548  1.00  0.00     0.124 S 
ATOM     93  O   UNL A   1      52.638  26.983  32.545  1.00  0.00    -0.237 OA
ATOM     94  O   UNL A   1      51.977  24.658  32.037  1.00  0.00    -0.237 OA
ATOM     95  O   UNL A   1      52.826  26.117  30.242  1.00  0.00    -0.744 OA
ENDBRANCH  91  92
ENDBRANCH  65  86
ENDBRANCH  39  40
ENDBRANCH  31  34
ENDBRANCH  29  30
ENDBRANCH   1  29
TORSDOF 17
ENDMDL
MODEL 2
REMARK VINA RESULT:     -11.0      1.433      2.073
REMARK SMILES CC(C)[C@@H](NC(N)=O)C(=O)Nc1cccc(F)c1C(=O)NCCCNC(=O)c1ccc(-c2c3nc(c(-c4ccc(S(=O)(=O)[O-])cc4)c4ccc([nH]4)c(-c4ccc(S(=O)(=O)[O-])cc4)c4nc(c(-c5ccc(S(=O)(=O)[O-])cc5)c5ccc2[nH]5)C=C4)C=C3)cc1
REMARK SMILES IDX 23 1 22 2 21 3 19 4 20 5 18 7 12 8 13 9 14 10 16 11 15 12
REMARK SMILES IDX 17 13 11 14 9 15 10 16 4 18 2 19 1 20 3 21 5 22 6 23 7 25
REMARK SMILES IDX 8 26 24 29 25 30 26 31 27 33 28 34 29 35 87 36 30 37 86 38
REMARK SMILES IDX 31 39 32 40 33 41 80 42 34 43 85 44 79 45 81 46 35 47 84 48
REMARK SMILES IDX 78 49 77 50 36 52 66 53 47 54 65 55 48 56 51 57 64 58 82 59
REMARK SMILES IDX 49 60 50 61 63 63 83 64 52 65 37 66 38 67 46 68 39 69 45 70
REMARK SMILES IDX 40 71 41 72 42 73 43 74 44 75 67 76 68 77 76 78 69 79 75 80
REMARK SMILES IDX 70 81 71 82 72 83 73 84 74 85 53 86 54 87 62 88 55 89 61 90
REMARK SMILES IDX 56 91 57 92 58 93 59 94 60 95
REMARK H PARENT 21 6 11 17 5 24 7 27 7 28 25 32 81 51 51 62
REMARK Flexibility Score: inf
ROOT
ATOM      1  C   UNL A   1      33.843  27.769  25.969  1.00  0.00     0.042 C 
ENDROOT
BRANCH   1   2
ATOM      2  C   UNL A   1      33.688  28.746  24.816  1.00  0.00     0.118 C 
BRANCH   2   3
ATOM      3  N   UNL A   1      33.940  28.149  23.513  1.00  0.00    -0.352 N 
ATOM      4  C   UNL A   1      33.177  27.404  22.649  1.00  0.00     0.256 C 
ATOM      5  O   UNL A   1      33.770  26.922  21.682  1.00  0.00    -0.269 OA
ATOM      6  H   UNL A   1      34.852  28.316  23.180  1.00  0.00     0.163 HD
BRANCH   4   7
ATOM      7  C   UNL A   1      31.750  27.051  22.885  1.00  0.00     0.099 A 
ATOM      8  C   UNL A   1      31.354  25.704  22.915  1.00  0.00     0.057 A 
ATOM      9  C   UNL A   1      30.132  25.341  23.496  1.00  0.00     0.027 A 
ATOM     10  C   UNL A   1      29.201  26.311  23.845  1.00  0.00     0.005 A 
ATOM     11  C   UNL A   1      30.725  27.984  23.021  1.00  0.00     0.138 A 
ATOM     12  C   UNL A   1      29.471  27.635  23.530  1.00  0.00     0.040 A 
ATOM     13  F   UNL A   1      30.853  29.231  22.543  1.00  0.00    -0.206 F 
BRANCH   8  14
ATOM     14  N   UNL A   1      32.110  24.695  22.293  1.00  0.00    -0.323 N 
ATOM     15  C   UNL A   1      33.065  23.904  22.905  1.00  0.00     0.247 C 
ATOM     16  O   UNL A   1      33.881  23.305  22.193  1.00  0.00    -0.272 OA
ATOM     17  H   UNL A   1      31.944  24.537  21.336  1.00  0.00     0.170 HD
BRANCH  15  18
ATOM     18  C   UNL A   1      33.183  23.807  24.474  1.00  0.00     0.176 C 
BRANCH  18  19
ATOM     19  C   UNL A   1      31.891  23.324  25.183  1.00  0.00     0.015 C 
ATOM     20  C   UNL A   1      31.842  21.799  25.358  1.00  0.00     0.010 C 
ATOM     21  C   UNL A   1      31.669  23.990  26.542  1.00  0.00     0.010 C 
ENDBRANCH  18  19
BRANCH  18  22
ATOM     22  N   UNL A   1      34.336  22.989  24.880  1.00  0.00    -0.326 N 
ATOM     23  C   UNL A   1      35.321  23.497  25.674  1.00  0.00     0.312 C 
ATOM     24  H   UNL A   1      34.397  22.056  24.574  1.00  0.00     0.166 HD
ATOM     25  N   UNL A   1      36.293  22.595  25.950  1.00  0.00    -0.352 N 
ATOM     26  O   UNL A   1      35.379  24.642  26.081  1.00  0.00    -0.249 OA
ATOM     27  H   UNL A   1      36.221  21.674  25.608  1.00  0.00     0.161 HD
ATOM     28  H   UNL A   1      37.072  22.859  26.491  1.00  0.00     0.161 HD
ENDBRANCH  18  22
ENDBRANCH  15  18
ENDBRANCH   8  14
ENDBRANCH   4   7
ENDBRANCH   2   3
ENDBRANCH   1   2
BRANCH   1  29
ATOM     29  C   UNL A   1      33.340  28.294  27.302  1.00  0.00     0.118 C 
BRANCH  29  30
ATOM     30  N   UNL A   1      33.390  29.750  27.389  1.00  0.00    -0.352 N 
ATOM     31  C   UNL A   1      34.373  30.586  27.861  1.00  0.00     0.251 C 
ATOM     32  H   UNL A   1      32.586  30.209  27.054  1.00  0.00     0.163 HD
ATOM     33  O   UNL A   1      34.120  31.773  28.049  1.00  0.00    -0.269 OA
BRANCH  31  34
ATOM     34  C   UNL A   1      35.722  30.059  28.163  1.00  0.00     0.039 A 
ATOM     35  C   UNL A   1      36.695  30.046  27.160  1.00  0.00     0.014 A 
ATOM     36  C   UNL A   1      36.025  29.569  29.433  1.00  0.00     0.014 A 
ATOM     37  C   UNL A   1      37.994  29.624  27.462  1.00  0.00     0.010 A 
ATOM     38  C   UNL A   1      37.339  29.257  29.760  1.00  0.00     0.010 A 
ATOM     39  C   UNL A   1      38.337  29.273  28.777  1.00  0.00    -0.014 A 
BRANCH  39  40
ATOM     40  C   UNL A   1      39.727  28.908  29.158  1.00  0.00     0.031 A 
ATOM     41  C   UNL A   1      40.615  29.931  29.818  1.00  0.00     0.074 A 
ATOM     42  C   UNL A   1      40.216  27.696  28.827  1.00  0.00     0.049 A 
ATOM     43  N   UNL A   1      41.885  29.846  30.122  1.00  0.00    -0.248 NA
ATOM     44  C   UNL A   1      40.005  31.230  30.149  1.00  0.00     0.031 C 
ATOM     45  C   UNL A   1      39.468  26.635  28.149  1.00  0.00     0.029 A 
ATOM     46  N   UNL A   1      41.465  27.156  29.007  1.00  0.00    -0.354 N 
ATOM     47  C   UNL A   1      42.228  31.084  30.654  1.00  0.00     0.074 A 
ATOM     48  C   UNL A   1      41.051  31.919  30.579  1.00  0.00     0.031 C 
ATOM     49  C   UNL A   1      40.263  25.563  27.995  1.00  0.00     0.029 A 
ATOM     50  C   UNL A   1      41.591  25.877  28.514  1.00  0.00     0.049 A 
ATOM     51  H   UNL A   1      42.202  27.638  29.446  1.00  0.00     0.167 HD
ATOM     52  C   UNL A   1      43.411  31.484  31.178  1.00  0.00     0.031 A 
ATOM     53  C   UNL A   1      42.656  25.054  28.471  1.00  0.00     0.031 A 
ATOM     54  C   UNL A   1      44.574  30.643  31.263  1.00  0.00     0.049 A 
ATOM     55  C   UNL A   1      43.965  25.525  29.045  1.00  0.00     0.074 A 
ATOM     56  C   UNL A   1      45.802  30.930  31.829  1.00  0.00     0.029 A 
ATOM     57  N   UNL A   1      44.654  29.349  30.767  1.00  0.00    -0.354 N 
ATOM     58  N   UNL A   1      44.252  26.677  29.605  1.00  0.00    -0.248 NA
ATOM     59  C   UNL A   1      45.092  24.584  28.992  1.00  0.00     0.031 C 
ATOM     60  C   UNL A   1      46.644  29.833  31.622  1.00  0.00     0.029 A 
ATOM     61  C   UNL A   1      45.919  28.835  30.990  1.00  0.00     0.049 A 
ATOM     62  H   UNL A   1      43.919  28.869  30.322  1.00  0.00     0.167 HD
ATOM     63  C   UNL A   1      45.582  26.587  29.999  1.00  0.00     0.074 A 
ATOM     64  C   UNL A   1      46.039  25.263  29.625  1.00  0.00     0.031 C 
ATOM     65  C   UNL A   1      46.355  27.514  30.616  1.00  0.00     0.031 A 
BRANCH  52  66
ATOM     66  C   UNL A   1      43.505  32.896  31.696  1.00  0.00    -0.014 A 
ATOM     67  C   UNL A   1      43.244  33.197  33.046  1.00  0.00     0.010 A 
ATOM     68  C   UNL A   1      43.898  33.934  30.830  1.00  0.00     0.010 A 
ATOM     69  C   UNL A   1      43.331  34.512  33.509  1.00  0.00     0.020 A 
ATOM     70  C   UNL A   1      44.019  35.245  31.298  1.00  0.00     0.020 A 
ATOM     71  C   UNL A   1      43.718  35.528  32.631  1.00  0.00     0.054 A 
BRANCH  71  72
ATOM     72  S   UNL A   1      43.848  37.221  33.269  1.00  0.00     0.124 S 
ATOM     73  O   UNL A   1      43.810  38.010  32.040  1.00  0.00    -0.237 OA
ATOM     74  O   UNL A   1      42.667  37.332  34.122  1.00  0.00    -0.237 OA
ATOM     75  O   UNL A   1      45.127  37.229  33.975  1.00  0.00    -0.744 OA
ENDBRANCH  71  72
ENDBRANCH  52  66
BRANCH  53  76
ATOM     76  C   UNL A   1      42.527  23.696  27.872  1.00  0.00    -0.014 A 
ATOM     77  C   UNL A   1      42.140  22.600  28.663  1.00  0.00     0.010 A 
ATOM     78  C   UNL A   1      42.777  23.494  26.503  1.00  0.00     0.010 A 
ATOM     79  C   UNL A   1      42.025  21.325  28.102  1.00  0.00     0.020 A 
ATOM     80  C   UNL A   1      42.633  22.226  25.930  1.00  0.00     0.020 A 
ATOM     81  C   UNL A   1      42.268  21.147  26.737  1.00  0.00     0.054 A 
BRANCH  81  82
ATOM     82  S   UNL A   1      42.063  19.492  26.020  1.00  0.00     0.124 S 
ATOM     83  O   UNL A   1      40.621  19.430  25.805  1.00  0.00    -0.237 OA
ATOM     84  O   UNL A   1      42.882  19.570  24.813  1.00  0.00    -0.237 OA
ATOM     85  O   UNL A   1      42.581  18.603  27.058  1.00  0.00    -0.744 OA
ENDBRANCH  81  82
ENDBRANCH  53  76
BRANCH  65  86
ATOM     86  C   UNL A   1      47.766  27.123  30.970  1.00  0.00    -0.014 A 
ATOM     87  C   UNL A   1      48.055  26.404  32.143  1.00  0.00     0.010 A 
ATOM     88  C   UNL A   1      48.809  27.419  30.072  1.00  0.00     0.010 A 
ATOM     89  C   UNL A   1      49.366  26.010  32.423  1.00  0.00     0.020 A 
ATOM     90  C   UNL A   1      50.114  26.999  30.332  1.00  0.00     0.020 A 
ATOM     91  C   UNL A   1      50.386  26.306  31.513  1.00  0.00     0.054 A 
BRANCH  91  92
ATOM     92  S   UNL A   1      52.069  25.731  31.872  1.00  0.00     0.124 S 
ATOM     93  O   UNL A   1      51.848  24.322  32.186  1.00  0.00    -0.237 OA
ATOM     94  O   UNL A   1      52.769  25.992  30.616  1.00  0.00    -0.237 OA
ATOM     95  O   UNL A   1      52.488  26.562  32.997  1.00  0.00    -0.744 OA
ENDBRANCH  91  92
ENDBRANCH  65  86
ENDBRANCH  39  40
ENDBRANCH  31  34
ENDBRANCH  29  30
ENDBRANCH   1  29
TORSDOF 17
ENDMDL
MODEL 3
REMARK VINA RESULT:     -10.8      2.801      3.390
REMARK SMILES CC(C)[C@@H](NC(N)=O)C(=O)Nc1cccc(F)c1C(=O)NCCCNC(=O)c1ccc(-c2c3nc(c(-c4ccc(S(=O)(=O)[O-])cc4)c4ccc([nH]4)c(-c4ccc(S(=O)(=O)[O-])cc4)c4nc(c(-c5ccc(S(=O)(=O)[O-])cc5)c5ccc2[nH]5)C=C4)C=C3)cc1
REMARK SMILES IDX 23 1 22 2 21 3 19 4 20 5 18 7 12 8 13 9 14 10 16 11 15 12
REMARK SMILES IDX 17 13 11 14 9 15 10 16 4 18 2 19 1 20 3 21 5 22 6 23 7 25
REMARK SMILES IDX 8 26 24 29 25 30 26 31 27 33 28 34 29 35 87 36 30 37 86 38
REMARK SMILES IDX 31 39 32 40 33 41 80 42 34 43 85 44 79 45 81 46 35 47 84 48
REMARK SMILES IDX 78 49 77 50 36 52 66 53 47 54 65 55 48 56 51 57 64 58 82 59
REMARK SMILES IDX 49 60 50 61 63 63 83 64 52 65 37 66 38 67 46 68 39 69 45 70
REMARK SMILES IDX 40 71 41 72 42 73 43 74 44 75 67 76 68 77 76 78 69 79 75 80
REMARK SMILES IDX 70 81 71 82 72 83 73 84 74 85 53 86 54 87 62 88 55 89 61 90
REMARK SMILES IDX 56 91 57 92 58 93 59 94 60 95
REMARK H PARENT 21 6 11 17 5 24 7 27 7 28 25 32 81 51 51 62
REMARK Flexibility Score: inf
ROOT
ATOM      1  C   UNL A   1      33.105  29.342  24.877  1.00  0.00     0.042 C 
ENDROOT
BRANCH   1   2
ATOM      2  C   UNL A   1      31.709  28.751  24.969  1.00  0.00     0.118 C 
BRANCH   2   3
ATOM      3  N   UNL A   1      31.596  27.683  25.951  1.00  0.00    -0.352 N 
ATOM      4  C   UNL A   1      31.784  26.325  25.898  1.00  0.00     0.256 C 
ATOM      5  O   UNL A   1      31.444  25.692  26.899  1.00  0.00    -0.269 OA
ATOM      6  H   UNL A   1      31.327  28.003  26.843  1.00  0.00     0.163 HD
BRANCH   4   7
ATOM      7  C   UNL A   1      32.239  25.590  24.685  1.00  0.00     0.099 A 
ATOM      8  C   UNL A   1      31.520  24.474  24.228  1.00  0.00     0.057 A 
ATOM      9  C   UNL A   1      31.695  24.011  22.917  1.00  0.00     0.027 A 
ATOM     10  C   UNL A   1      32.731  24.497  22.130  1.00  0.00     0.005 A 
ATOM     11  C   UNL A   1      33.399  25.891  23.976  1.00  0.00     0.138 A 
ATOM     12  C   UNL A   1      33.635  25.384  22.696  1.00  0.00     0.040 A 
ATOM     13  F   UNL A   1      34.404  26.573  24.547  1.00  0.00    -0.206 F 
BRANCH   8  14
ATOM     14  N   UNL A   1      30.678  23.735  25.078  1.00  0.00    -0.323 N 
ATOM     15  C   UNL A   1      30.990  22.530  25.679  1.00  0.00     0.247 C 
ATOM     16  O   UNL A   1      30.067  21.830  26.114  1.00  0.00    -0.272 OA
ATOM     17  H   UNL A   1      29.787  24.110  25.261  1.00  0.00     0.170 HD
BRANCH  15  18
ATOM     18  C   UNL A   1      32.471  21.998  25.755  1.00  0.00     0.176 C 
BRANCH  18  19
ATOM     19  C   UNL A   1      33.440  22.916  26.546  1.00  0.00     0.015 C 
ATOM     20  C   UNL A   1      33.633  22.466  28.002  1.00  0.00     0.010 C 
ATOM     21  C   UNL A   1      34.809  23.057  25.881  1.00  0.00     0.010 C 
ENDBRANCH  18  19
BRANCH  18  22
ATOM     22  N   UNL A   1      32.526  20.621  26.269  1.00  0.00    -0.326 N 
ATOM     23  C   UNL A   1      32.903  19.581  25.471  1.00  0.00     0.312 C 
ATOM     24  H   UNL A   1      32.287  20.445  27.207  1.00  0.00     0.166 HD
ATOM     25  N   UNL A   1      32.903  18.392  26.120  1.00  0.00    -0.352 N 
ATOM     26  O   UNL A   1      33.182  19.664  24.290  1.00  0.00    -0.249 OA
ATOM     27  H   UNL A   1      32.673  18.354  27.077  1.00  0.00     0.161 HD
ATOM     28  H   UNL A   1      33.130  17.566  25.635  1.00  0.00     0.161 HD
ENDBRANCH  18  22
ENDBRANCH  15  18
ENDBRANCH   8  14
ENDBRANCH   4   7
ENDBRANCH   2   3
ENDBRANCH   1   2
BRANCH   1  29
ATOM     29  C   UNL A   1      33.790  29.535  26.218  1.00  0.00     0.118 C 
BRANCH  29  30
ATOM     30  N   UNL A   1      33.616  30.883  26.750  1.00  0.00    -0.352 N 
ATOM     31  C   UNL A   1      34.284  31.543  27.753  1.00  0.00     0.251 C 
ATOM     32  H   UNL A   1      32.901  31.405  26.319  1.00  0.00     0.163 HD
ATOM     33  O   UNL A   1      33.829  32.596  28.193  1.00  0.00    -0.269 OA
BRANCH  31  34
ATOM     34  C   UNL A   1      35.531  30.982  28.317  1.00  0.00     0.039 A 
ATOM     35  C   UNL A   1      36.742  31.650  28.109  1.00  0.00     0.014 A 
ATOM     36  C   UNL A   1      35.509  29.792  29.043  1.00  0.00     0.014 A 
ATOM     37  C   UNL A   1      37.910  31.167  28.707  1.00  0.00     0.010 A 
ATOM     38  C   UNL A   1      36.646  29.376  29.726  1.00  0.00     0.010 A 
ATOM     39  C   UNL A   1      37.861  30.053  29.561  1.00  0.00    -0.014 A 
BRANCH  39  40
ATOM     40  C   UNL A   1      39.062  29.565  30.288  1.00  0.00     0.031 A 
ATOM     41  C   UNL A   1      39.507  30.259  31.549  1.00  0.00     0.074 A 
ATOM     42  C   UNL A   1      39.799  28.565  29.766  1.00  0.00     0.049 A 
ATOM     43  N   UNL A   1      40.584  30.059  32.263  1.00  0.00    -0.248 NA
ATOM     44  C   UNL A   1      38.644  31.340  32.055  1.00  0.00     0.031 C 
ATOM     45  C   UNL A   1      39.496  27.841  28.529  1.00  0.00     0.029 A 
ATOM     46  N   UNL A   1      40.966  27.990  30.206  1.00  0.00    -0.354 N 
ATOM     47  C   UNL A   1      40.541  31.004  33.283  1.00  0.00     0.074 A 
ATOM     48  C   UNL A   1      39.363  31.811  33.063  1.00  0.00     0.031 C 
ATOM     49  C   UNL A   1      40.435  26.903  28.325  1.00  0.00     0.029 A 
ATOM     50  C   UNL A   1      41.435  26.991  29.385  1.00  0.00     0.049 A 
ATOM     51  H   UNL A   1      41.424  28.268  31.032  1.00  0.00     0.167 HD
ATOM     52  C   UNL A   1      41.393  31.170  34.322  1.00  0.00     0.031 A 
ATOM     53  C   UNL A   1      42.550  26.239  29.465  1.00  0.00     0.031 A 
ATOM     54  C   UNL A   1      42.555  30.353  34.543  1.00  0.00     0.049 A 
ATOM     55  C   UNL A   1      43.491  26.453  30.620  1.00  0.00     0.074 A 
ATOM     56  C   UNL A   1      43.450  30.400  35.596  1.00  0.00     0.029 A 
ATOM     57  N   UNL A   1      42.985  29.342  33.696  1.00  0.00    -0.354 N 
ATOM     58  N   UNL A   1      43.397  27.307  31.612  1.00  0.00    -0.248 NA
ATOM     59  C   UNL A   1      44.683  25.595  30.674  1.00  0.00     0.031 C 
ATOM     60  C   UNL A   1      44.455  29.458  35.355  1.00  0.00     0.029 A 
ATOM     61  C   UNL A   1      44.148  28.775  34.188  1.00  0.00     0.049 A 
ATOM     62  H   UNL A   1      42.530  29.068  32.866  1.00  0.00     0.167 HD
ATOM     63  C   UNL A   1      44.500  27.068  32.423  1.00  0.00     0.074 A 
ATOM     64  C   UNL A   1      45.240  25.981  31.814  1.00  0.00     0.031 C 
ATOM     65  C   UNL A   1      44.867  27.690  33.571  1.00  0.00     0.031 A 
BRANCH  52  66
ATOM     66  C   UNL A   1      41.100  32.282  35.296  1.00  0.00    -0.014 A 
ATOM     67  C   UNL A   1      41.491  33.608  35.028  1.00  0.00     0.010 A 
ATOM     68  C   UNL A   1      40.390  32.007  36.479  1.00  0.00     0.010 A 
ATOM     69  C   UNL A   1      41.215  34.626  35.944  1.00  0.00     0.020 A 
ATOM     70  C   UNL A   1      40.083  33.030  37.381  1.00  0.00     0.020 A 
ATOM     71  C   UNL A   1      40.513  34.330  37.115  1.00  0.00     0.054 A 
BRANCH  71  72
ATOM     72  S   UNL A   1      40.148  35.680  38.271  1.00  0.00     0.124 S 
ATOM     73  O   UNL A   1      40.031  36.823  37.371  1.00  0.00    -0.237 OA
ATOM     74  O   UNL A   1      38.901  35.239  38.891  1.00  0.00    -0.237 OA
ATOM     75  O   UNL A   1      41.309  35.701  39.158  1.00  0.00    -0.744 OA
ENDBRANCH  71  72
ENDBRANCH  52  66
BRANCH  53  76
ATOM     76  C   UNL A   1      42.832  25.208  28.428  1.00  0.00    -0.014 A 
ATOM     77  C   UNL A   1      42.397  23.882  28.601  1.00  0.00     0.010 A 
ATOM     78  C   UNL A   1      43.526  25.549  27.252  1.00  0.00     0.010 A 
ATOM     79  C   UNL A   1      42.667  22.914  27.630  1.00  0.00     0.020 A 
ATOM     80  C   UNL A   1      43.771  24.591  26.264  1.00  0.00     0.020 A 
ATOM     81  C   UNL A   1      43.349  23.276  26.465  1.00  0.00     0.054 A 
BRANCH  81  82
ATOM     82  S   UNL A   1      43.644  22.013  25.196  1.00  0.00     0.124 S 
ATOM     83  O   UNL A   1      45.032  21.643  25.451  1.00  0.00    -0.237 OA
ATOM     84  O   UNL A   1      42.646  20.998  25.525  1.00  0.00    -0.237 OA
ATOM     85  O   UNL A   1      43.406  22.726  23.942  1.00  0.00    -0.744 OA
ENDBRANCH  81  82
ENDBRANCH  53  76
BRANCH  65  86
ATOM     86  C   UNL A   1      46.101  27.187  34.274  1.00  0.00    -0.014 A 
ATOM     87  C   UNL A   1      47.369  27.733  34.008  1.00  0.00     0.010 A 
ATOM     88  C   UNL A   1      45.973  26.200  35.270  1.00  0.00     0.010 A 
ATOM     89  C   UNL A   1      48.491  27.283  34.710  1.00  0.00     0.020 A 
ATOM     90  C   UNL A   1      47.085  25.772  35.996  1.00  0.00     0.020 A 
ATOM     91  C   UNL A   1      48.340  26.309  35.703  1.00  0.00     0.054 A 
BRANCH  91  92
ATOM     92  S   UNL A   1      49.803  25.787  36.640  1.00  0.00     0.124 S 
ATOM     93  O   UNL A   1      50.879  26.027  35.684  1.00  0.00    -0.237 OA
ATOM     94  O   UNL A   1      49.777  26.681  37.795  1.00  0.00    -0.237 OA
ATOM     95  O   UNL A   1      49.539  24.382  36.942  1.00  0.00    -0.744 OA
ENDBRANCH  91  92
ENDBRANCH  65  86
ENDBRANCH  39  40
ENDBRANCH  31  34
ENDBRANCH  29  30
ENDBRANCH   1  29
TORSDOF 17
ENDMDL
