MODEL 1
REMARK VINA RESULT:     -12.5      0.000      0.000
REMARK SMILES CC(C)c1ccc(NC(=O)C[C@H]2SC[C@@H](C(=O)NCCCNC(=O)c3ccc(-c4c5nc(c(-c6ccc(S(=O)(=O)[O-])cc6)c6ccc([nH]6)c(-c6ccc(S(=O)(=O)[O-])cc6)c6nc(c(-c7ccc(S(=O)(=O)[O-])cc7)c7ccc4[nH]7)C=C6)C=C5)cc3)NC2=O)cc1
REMARK SMILES IDX 19 1 18 2 16 3 17 4 15 6 12 7 13 8 86 9 14 10 85 11 87 12
REMARK SMILES IDX 11 14 9 15 8 16 10 18 7 19 4 20 5 21 89 22 6 23 88 24 2 25
REMARK SMILES IDX 1 26 3 27 20 28 21 29 22 30 23 31 24 33 25 34 26 35 84 36
REMARK SMILES IDX 27 37 83 38 28 39 29 40 30 41 77 42 31 43 82 44 76 45 78 46
REMARK SMILES IDX 32 47 81 48 75 49 74 50 33 52 63 53 44 54 62 55 45 56 48 57
REMARK SMILES IDX 61 58 79 59 46 60 47 61 60 63 80 64 49 65 34 66 35 67 43 68
REMARK SMILES IDX 36 69 42 70 37 71 38 72 39 73 40 74 41 75 64 76 65 77 73 78
REMARK SMILES IDX 66 79 72 80 67 81 68 82 69 83 70 84 71 85 50 86 51 87 59 88
REMARK SMILES IDX 52 89 58 90 53 91 54 92 55 93 56 94 57 95
REMARK H PARENT 18 5 85 13 8 17 22 32 78 51 48 62
REMARK Flexibility Score: inf
ROOT
ATOM      1  C   UNL A   1      37.815  22.664  25.587  1.00  0.00     0.117 C 
ENDROOT
BRANCH   1   2
ATOM      2  N   UNL A   1      36.648  23.063  24.828  1.00  0.00    -0.354 N 
ATOM      3  C   UNL A   1      35.561  22.307  24.483  1.00  0.00     0.243 C 
ATOM      4  O   UNL A   1      34.912  22.664  23.502  1.00  0.00    -0.273 OA
ATOM      5  H   UNL A   1      36.635  23.998  24.520  1.00  0.00     0.163 HD
BRANCH   3   6
ATOM      6  C   UNL A   1      35.068  21.242  25.483  1.00  0.00     0.181 C 
ATOM      7  C   UNL A   1      32.101  21.863  25.933  1.00  0.00     0.145 C 
ATOM      8  S   UNL A   1      32.462  20.817  24.459  1.00  0.00    -0.145 SA
ATOM      9  C   UNL A   1      33.305  22.696  26.391  1.00  0.00     0.234 C 
ATOM     10  C   UNL A   1      34.118  20.209  24.892  1.00  0.00     0.105 C 
ATOM     11  N   UNL A   1      34.500  22.040  26.563  1.00  0.00    -0.343 N 
ATOM     12  O   UNL A   1      33.270  23.869  26.752  1.00  0.00    -0.274 OA
ATOM     13  H   UNL A   1      34.977  22.109  27.422  1.00  0.00     0.164 HD
BRANCH   7  14
ATOM     14  C   UNL A   1      30.775  22.593  25.668  1.00  0.00     0.124 C 
BRANCH  14  15
ATOM     15  C   UNL A   1      30.086  23.360  26.778  1.00  0.00     0.226 C 
ATOM     16  N   UNL A   1      29.885  24.703  26.763  1.00  0.00    -0.326 N 
ATOM     17  H   UNL A   1      29.400  25.039  27.551  1.00  0.00     0.169 HD
ATOM     18  O   UNL A   1      29.694  22.750  27.781  1.00  0.00    -0.275 OA
BRANCH  16  19
ATOM     19  C   UNL A   1      30.230  25.703  25.848  1.00  0.00     0.041 A 
ATOM     20  C   UNL A   1      30.953  27.891  24.226  1.00  0.00    -0.045 A 
ATOM     21  C   UNL A   1      29.945  27.001  23.830  1.00  0.00     0.006 A 
ATOM     22  C   UNL A   1      31.635  27.635  25.422  1.00  0.00     0.006 A 
ATOM     23  C   UNL A   1      29.592  25.911  24.631  1.00  0.00     0.026 A 
ATOM     24  C   UNL A   1      31.284  26.544  26.216  1.00  0.00     0.026 A 
BRANCH  20  25
ATOM     25  C   UNL A   1      31.307  29.073  23.345  1.00  0.00     0.013 C 
ATOM     26  C   UNL A   1      32.685  28.930  22.694  1.00  0.00     0.012 C 
ATOM     27  C   UNL A   1      30.223  29.288  22.288  1.00  0.00     0.012 C 
ENDBRANCH  20  25
ENDBRANCH  16  19
ENDBRANCH  14  15
ENDBRANCH   7  14
ENDBRANCH   3   6
ENDBRANCH   1   2
BRANCH   1  28
ATOM     28  C   UNL A   1      38.170  23.746  26.605  1.00  0.00     0.042 C 
BRANCH  28  29
ATOM     29  C   UNL A   1      39.646  23.739  27.004  1.00  0.00     0.118 C 
BRANCH  29  30
ATOM     30  N   UNL A   1      40.494  24.366  26.000  1.00  0.00    -0.352 N 
ATOM     31  C   UNL A   1      41.047  25.620  25.989  1.00  0.00     0.251 C 
ATOM     32  H   UNL A   1      40.701  23.807  25.215  1.00  0.00     0.163 HD
ATOM     33  O   UNL A   1      41.564  26.048  24.954  1.00  0.00    -0.269 OA
BRANCH  31  34
ATOM     34  C   UNL A   1      41.001  26.461  27.200  1.00  0.00     0.039 A 
ATOM     35  C   UNL A   1      41.870  27.549  27.302  1.00  0.00     0.014 A 
ATOM     36  C   UNL A   1      40.109  26.173  28.238  1.00  0.00     0.014 A 
ATOM     37  C   UNL A   1      41.800  28.390  28.414  1.00  0.00     0.010 A 
ATOM     38  C   UNL A   1      39.993  27.050  29.313  1.00  0.00     0.010 A 
ATOM     39  C   UNL A   1      40.835  28.168  29.412  1.00  0.00    -0.014 A 
BRANCH  39  40
ATOM     40  C   UNL A   1      40.686  29.096  30.560  1.00  0.00     0.031 A 
ATOM     41  C   UNL A   1      41.550  28.936  31.781  1.00  0.00     0.074 A 
ATOM     42  C   UNL A   1      39.727  30.044  30.529  1.00  0.00     0.049 A 
ATOM     43  N   UNL A   1      41.510  29.597  32.910  1.00  0.00    -0.248 NA
ATOM     44  C   UNL A   1      42.576  27.882  31.737  1.00  0.00     0.031 C 
ATOM     45  C   UNL A   1      38.804  30.280  29.416  1.00  0.00     0.029 A 
ATOM     46  N   UNL A   1      39.363  30.979  31.464  1.00  0.00    -0.354 N 
ATOM     47  C   UNL A   1      42.493  29.030  33.715  1.00  0.00     0.074 A 
ATOM     48  C   UNL A   1      43.081  27.944  32.962  1.00  0.00     0.031 C 
ATOM     49  C   UNL A   1      37.996  31.308  29.724  1.00  0.00     0.029 A 
ATOM     50  C   UNL A   1      38.314  31.775  31.070  1.00  0.00     0.049 A 
ATOM     51  H   UNL A   1      39.812  31.074  32.335  1.00  0.00     0.167 HD
ATOM     52  C   UNL A   1      42.882  29.392  34.961  1.00  0.00     0.031 A 
ATOM     53  C   UNL A   1      37.668  32.762  31.722  1.00  0.00     0.031 A 
ATOM     54  C   UNL A   1      42.303  30.480  35.703  1.00  0.00     0.049 A 
ATOM     55  C   UNL A   1      38.109  33.134  33.112  1.00  0.00     0.074 A 
ATOM     56  C   UNL A   1      42.660  30.954  36.954  1.00  0.00     0.029 A 
ATOM     57  N   UNL A   1      41.246  31.265  35.266  1.00  0.00    -0.354 N 
ATOM     58  N   UNL A   1      39.074  32.619  33.834  1.00  0.00    -0.248 NA
ATOM     59  C   UNL A   1      37.377  34.225  33.768  1.00  0.00     0.031 C 
ATOM     60  C   UNL A   1      41.791  31.996  37.292  1.00  0.00     0.029 A 
ATOM     61  C   UNL A   1      40.926  32.206  36.229  1.00  0.00     0.049 A 
ATOM     62  H   UNL A   1      40.791  31.166  34.399  1.00  0.00     0.167 HD
ATOM     63  C   UNL A   1      39.082  33.340  35.023  1.00  0.00     0.074 A 
ATOM     64  C   UNL A   1      38.036  34.337  34.914  1.00  0.00     0.031 C 
ATOM     65  C   UNL A   1      39.882  33.191  36.106  1.00  0.00     0.031 A 
BRANCH  52  66
ATOM     66  C   UNL A   1      43.992  28.602  35.600  1.00  0.00    -0.014 A 
ATOM     67  C   UNL A   1      45.330  29.027  35.505  1.00  0.00     0.010 A 
ATOM     68  C   UNL A   1      43.691  27.447  36.346  1.00  0.00     0.010 A 
ATOM     69  C   UNL A   1      46.350  28.291  36.113  1.00  0.00     0.020 A 
ATOM     70  C   UNL A   1      44.707  26.723  36.977  1.00  0.00     0.020 A 
ATOM     71  C   UNL A   1      46.032  27.142  36.843  1.00  0.00     0.054 A 
BRANCH  71  72
ATOM     72  S   UNL A   1      47.375  26.224  37.647  1.00  0.00     0.124 S 
ATOM     73  O   UNL A   1      46.785  24.894  37.790  1.00  0.00    -0.237 OA
ATOM     74  O   UNL A   1      48.461  26.326  36.675  1.00  0.00    -0.237 OA
ATOM     75  O   UNL A   1      47.590  26.947  38.897  1.00  0.00    -0.744 OA
ENDBRANCH  71  72
ENDBRANCH  52  66
BRANCH  53  76
ATOM     76  C   UNL A   1      36.539  33.476  31.065  1.00  0.00    -0.014 A 
ATOM     77  C   UNL A   1      36.691  34.017  29.777  1.00  0.00     0.010 A 
ATOM     78  C   UNL A   1      35.305  33.615  31.726  1.00  0.00     0.010 A 
ATOM     79  C   UNL A   1      35.637  34.705  29.169  1.00  0.00     0.020 A 
ATOM     80  C   UNL A   1      34.240  34.279  31.111  1.00  0.00     0.020 A 
ATOM     81  C   UNL A   1      34.418  34.832  29.841  1.00  0.00     0.054 A 
BRANCH  81  82
ATOM     82  S   UNL A   1      33.047  35.689  29.017  1.00  0.00     0.124 S 
ATOM     83  O   UNL A   1      33.744  36.740  28.284  1.00  0.00    -0.237 OA
ATOM     84  O   UNL A   1      32.457  34.631  28.202  1.00  0.00    -0.237 OA
ATOM     85  O   UNL A   1      32.214  36.145  30.128  1.00  0.00    -0.744 OA
ENDBRANCH  81  82
ENDBRANCH  53  76
BRANCH  65  86
ATOM     86  C   UNL A   1      39.682  34.148  37.250  1.00  0.00    -0.014 A 
ATOM     87  C   UNL A   1      39.014  33.751  38.422  1.00  0.00     0.010 A 
ATOM     88  C   UNL A   1      40.213  35.448  37.169  1.00  0.00     0.010 A 
ATOM     89  C   UNL A   1      38.854  34.649  39.481  1.00  0.00     0.020 A 
ATOM     90  C   UNL A   1      40.078  36.340  38.235  1.00  0.00     0.020 A 
ATOM     91  C   UNL A   1      39.386  35.939  39.380  1.00  0.00     0.054 A 
BRANCH  91  92
ATOM     92  S   UNL A   1      39.203  37.072  40.784  1.00  0.00     0.124 S 
ATOM     93  O   UNL A   1      38.476  36.248  41.745  1.00  0.00    -0.237 OA
ATOM     94  O   UNL A   1      40.588  37.374  41.137  1.00  0.00    -0.237 OA
ATOM     95  O   UNL A   1      38.450  38.193  40.228  1.00  0.00    -0.744 OA
ENDBRANCH  91  92
ENDBRANCH  65  86
ENDBRANCH  39  40
ENDBRANCH  31  34
ENDBRANCH  29  30
ENDBRANCH  28  29
ENDBRANCH   1  28
TORSDOF 17
ENDMDL
MODEL 2
REMARK VINA RESULT:     -12.2      6.320     12.041
REMARK SMILES CC(C)c1ccc(NC(=O)C[C@H]2SC[C@@H](C(=O)NCCCNC(=O)c3ccc(-c4c5nc(c(-c6ccc(S(=O)(=O)[O-])cc6)c6ccc([nH]6)c(-c6ccc(S(=O)(=O)[O-])cc6)c6nc(c(-c7ccc(S(=O)(=O)[O-])cc7)c7ccc4[nH]7)C=C6)C=C5)cc3)NC2=O)cc1
REMARK SMILES IDX 19 1 18 2 16 3 17 4 15 6 12 7 13 8 86 9 14 10 85 11 87 12
REMARK SMILES IDX 11 14 9 15 8 16 10 18 7 19 4 20 5 21 89 22 6 23 88 24 2 25
REMARK SMILES IDX 1 26 3 27 20 28 21 29 22 30 23 31 24 33 25 34 26 35 84 36
REMARK SMILES IDX 27 37 83 38 28 39 29 40 30 41 77 42 31 43 82 44 76 45 78 46
REMARK SMILES IDX 32 47 81 48 75 49 74 50 33 52 63 53 44 54 62 55 45 56 48 57
REMARK SMILES IDX 61 58 79 59 46 60 47 61 60 63 80 64 49 65 34 66 35 67 43 68
REMARK SMILES IDX 36 69 42 70 37 71 38 72 39 73 40 74 41 75 64 76 65 77 73 78
REMARK SMILES IDX 66 79 72 80 67 81 68 82 69 83 70 84 71 85 50 86 51 87 59 88
REMARK SMILES IDX 52 89 58 90 53 91 54 92 55 93 56 94 57 95
REMARK H PARENT 18 5 85 13 8 17 22 32 78 51 48 62
REMARK Flexibility Score: inf
ROOT
ATOM      1  C   UNL A   1      34.380  32.098  28.032  1.00  0.00     0.117 C 
ENDROOT
BRANCH   1   2
ATOM      2  N   UNL A   1      34.836  30.918  27.326  1.00  0.00    -0.354 N 
ATOM      3  C   UNL A   1      34.157  29.753  27.094  1.00  0.00     0.243 C 
ATOM      4  O   UNL A   1      34.825  28.742  26.885  1.00  0.00    -0.273 OA
ATOM      5  H   UNL A   1      35.752  30.959  26.968  1.00  0.00     0.163 HD
BRANCH   3   6
ATOM      6  C   UNL A   1      32.638  29.833  26.840  1.00  0.00     0.181 C 
ATOM      7  C   UNL A   1      32.069  27.757  24.659  1.00  0.00     0.145 C 
ATOM      8  S   UNL A   1      32.102  27.092  26.378  1.00  0.00    -0.145 SA
ATOM      9  C   UNL A   1      32.838  29.076  24.509  1.00  0.00     0.234 C 
ATOM     10  C   UNL A   1      31.850  28.623  27.322  1.00  0.00     0.105 C 
ATOM     11  N   UNL A   1      32.556  30.079  25.406  1.00  0.00    -0.343 N 
ATOM     12  O   UNL A   1      33.582  29.371  23.579  1.00  0.00    -0.274 OA
ATOM     13  H   UNL A   1      32.296  30.971  25.077  1.00  0.00     0.164 HD
BRANCH   7  14
ATOM     14  C   UNL A   1      32.423  26.602  23.710  1.00  0.00     0.124 C 
BRANCH  14  15
ATOM     15  C   UNL A   1      31.390  26.059  22.745  1.00  0.00     0.226 C 
ATOM     16  N   UNL A   1      31.064  24.744  22.639  1.00  0.00    -0.326 N 
ATOM     17  H   UNL A   1      30.356  24.564  21.980  1.00  0.00     0.169 HD
ATOM     18  O   UNL A   1      30.808  26.839  21.979  1.00  0.00    -0.275 OA
BRANCH  16  19
ATOM     19  C   UNL A   1      31.538  23.596  23.282  1.00  0.00     0.041 A 
ATOM     20  C   UNL A   1      32.432  21.143  24.340  1.00  0.00    -0.045 A 
ATOM     21  C   UNL A   1      31.702  22.045  25.127  1.00  0.00     0.006 A 
ATOM     22  C   UNL A   1      32.758  21.513  23.031  1.00  0.00     0.006 A 
ATOM     23  C   UNL A   1      31.265  23.266  24.604  1.00  0.00     0.026 A 
ATOM     24  C   UNL A   1      32.325  22.734  22.513  1.00  0.00     0.026 A 
BRANCH  20  25
ATOM     25  C   UNL A   1      32.880  19.819  24.928  1.00  0.00     0.013 C 
ATOM     26  C   UNL A   1      32.353  18.616  24.140  1.00  0.00     0.012 C 
ATOM     27  C   UNL A   1      34.406  19.776  25.035  1.00  0.00     0.012 C 
ENDBRANCH  20  25
ENDBRANCH  16  19
ENDBRANCH  14  15
ENDBRANCH   7  14
ENDBRANCH   3   6
ENDBRANCH   1   2
BRANCH   1  28
ATOM     28  C   UNL A   1      35.493  33.143  28.075  1.00  0.00     0.042 C 
BRANCH  28  29
ATOM     29  C   UNL A   1      36.413  32.996  29.287  1.00  0.00     0.118 C 
BRANCH  29  30
ATOM     30  N   UNL A   1      35.948  31.974  30.215  1.00  0.00    -0.352 N 
ATOM     31  C   UNL A   1      36.523  30.775  30.547  1.00  0.00     0.251 C 
ATOM     32  H   UNL A   1      35.097  32.174  30.669  1.00  0.00     0.163 HD
ATOM     33  O   UNL A   1      35.876  29.949  31.194  1.00  0.00    -0.269 OA
BRANCH  31  34
ATOM     34  C   UNL A   1      37.899  30.467  30.112  1.00  0.00     0.039 A 
ATOM     35  C   UNL A   1      38.923  30.463  31.061  1.00  0.00     0.014 A 
ATOM     36  C   UNL A   1      38.181  30.188  28.771  1.00  0.00     0.014 A 
ATOM     37  C   UNL A   1      40.220  30.116  30.678  1.00  0.00     0.010 A 
ATOM     38  C   UNL A   1      39.458  29.775  28.404  1.00  0.00     0.010 A 
ATOM     39  C   UNL A   1      40.490  29.733  29.353  1.00  0.00    -0.014 A 
BRANCH  39  40
ATOM     40  C   UNL A   1      41.842  29.278  28.943  1.00  0.00     0.031 A 
ATOM     41  C   UNL A   1      42.982  30.259  28.870  1.00  0.00     0.074 A 
ATOM     42  C   UNL A   1      42.028  27.995  28.572  1.00  0.00     0.049 A 
ATOM     43  N   UNL A   1      44.209  30.065  28.458  1.00  0.00    -0.248 NA
ATOM     44  C   UNL A   1      42.700  31.639  29.295  1.00  0.00     0.031 C 
ATOM     45  C   UNL A   1      40.996  26.955  28.568  1.00  0.00     0.029 A 
ATOM     46  N   UNL A   1      43.150  27.349  28.119  1.00  0.00    -0.354 N 
ATOM     47  C   UNL A   1      44.840  31.299  28.559  1.00  0.00     0.074 A 
ATOM     48  C   UNL A   1      43.850  32.244  29.028  1.00  0.00     0.031 C 
ATOM     49  C   UNL A   1      41.539  25.799  28.154  1.00  0.00     0.029 A 
ATOM     50  C   UNL A   1      42.943  26.022  27.824  1.00  0.00     0.049 A 
ATOM     51  H   UNL A   1      44.023  27.793  28.015  1.00  0.00     0.167 HD
ATOM     52  C   UNL A   1      46.132  31.615  28.300  1.00  0.00     0.031 A 
ATOM     53  C   UNL A   1      43.782  25.091  27.331  1.00  0.00     0.031 A 
ATOM     54  C   UNL A   1      47.118  30.673  27.843  1.00  0.00     0.049 A 
ATOM     55  C   UNL A   1      45.208  25.471  27.036  1.00  0.00     0.074 A 
ATOM     56  C   UNL A   1      48.464  30.887  27.598  1.00  0.00     0.029 A 
ATOM     57  N   UNL A   1      46.868  29.337  27.563  1.00  0.00    -0.354 N 
ATOM     58  N   UNL A   1      45.797  26.633  27.187  1.00  0.00    -0.248 NA
ATOM     59  C   UNL A   1      46.081  24.413  26.512  1.00  0.00     0.031 C 
ATOM     60  C   UNL A   1      49.017  29.691  27.127  1.00  0.00     0.029 A 
ATOM     61  C   UNL A   1      48.028  28.720  27.130  1.00  0.00     0.049 A 
ATOM     62  H   UNL A   1      45.994  28.895  27.659  1.00  0.00     0.167 HD
ATOM     63  C   UNL A   1      47.119  26.438  26.799  1.00  0.00     0.074 A 
ATOM     64  C   UNL A   1      47.243  25.045  26.423  1.00  0.00     0.031 C 
ATOM     65  C   UNL A   1      48.136  27.332  26.759  1.00  0.00     0.031 A 
BRANCH  52  66
ATOM     66  C   UNL A   1      46.554  33.046  28.508  1.00  0.00    -0.014 A 
ATOM     67  C   UNL A   1      47.073  33.474  29.743  1.00  0.00     0.010 A 
ATOM     68  C   UNL A   1      46.475  33.962  27.443  1.00  0.00     0.010 A 
ATOM     69  C   UNL A   1      47.472  34.801  29.919  1.00  0.00     0.020 A 
ATOM     70  C   UNL A   1      46.897  35.284  27.608  1.00  0.00     0.020 A 
ATOM     71  C   UNL A   1      47.379  35.698  28.852  1.00  0.00     0.054 A 
BRANCH  71  72
ATOM     72  S   UNL A   1      47.934  37.408  29.102  1.00  0.00     0.124 S 
ATOM     73  O   UNL A   1      47.112  37.826  30.235  1.00  0.00    -0.237 OA
ATOM     74  O   UNL A   1      49.358  37.246  29.386  1.00  0.00    -0.237 OA
ATOM     75  O   UNL A   1      47.625  38.063  27.834  1.00  0.00    -0.744 OA
ENDBRANCH  71  72
ENDBRANCH  52  66
BRANCH  53  76
ATOM     76  C   UNL A   1      43.300  23.704  27.091  1.00  0.00    -0.014 A 
ATOM     77  C   UNL A   1      43.161  23.215  25.780  1.00  0.00     0.010 A 
ATOM     78  C   UNL A   1      42.980  22.864  28.173  1.00  0.00     0.010 A 
ATOM     79  C   UNL A   1      42.688  21.918  25.555  1.00  0.00     0.020 A 
ATOM     80  C   UNL A   1      42.534  21.558  27.953  1.00  0.00     0.020 A 
ATOM     81  C   UNL A   1      42.377  21.099  26.643  1.00  0.00     0.054 A 
BRANCH  81  82
ATOM     82  S   UNL A   1      41.809  19.404  26.331  1.00  0.00     0.124 S 
ATOM     83  O   UNL A   1      42.462  19.095  25.063  1.00  0.00    -0.237 OA
ATOM     84  O   UNL A   1      42.311  18.681  27.496  1.00  0.00    -0.237 OA
ATOM     85  O   UNL A   1      40.355  19.538  26.272  1.00  0.00    -0.744 OA
ENDBRANCH  81  82
ENDBRANCH  53  76
BRANCH  65  86
ATOM     86  C   UNL A   1      49.484  26.825  26.322  1.00  0.00    -0.014 A 
ATOM     87  C   UNL A   1      50.259  26.004  27.160  1.00  0.00     0.010 A 
ATOM     88  C   UNL A   1      49.958  27.135  25.035  1.00  0.00     0.010 A 
ATOM     89  C   UNL A   1      51.500  25.527  26.729  1.00  0.00     0.020 A 
ATOM     90  C   UNL A   1      51.186  26.640  24.590  1.00  0.00     0.020 A 
ATOM     91  C   UNL A   1      51.956  25.850  25.447  1.00  0.00     0.054 A 
BRANCH  91  92
ATOM     92  S   UNL A   1      53.551  25.185  24.894  1.00  0.00     0.124 S 
ATOM     93  O   UNL A   1      54.497  26.000  25.650  1.00  0.00    -0.237 OA
ATOM     94  O   UNL A   1      53.471  23.782  25.294  1.00  0.00    -0.237 OA
ATOM     95  O   UNL A   1      53.541  25.416  23.452  1.00  0.00    -0.744 OA
ENDBRANCH  91  92
ENDBRANCH  65  86
ENDBRANCH  39  40
ENDBRANCH  31  34
ENDBRANCH  29  30
ENDBRANCH  28  29
ENDBRANCH   1  28
TORSDOF 17
ENDMDL
MODEL 3
REMARK VINA RESULT:     -12.2      3.125      9.496
REMARK SMILES CC(C)c1ccc(NC(=O)C[C@H]2SC[C@@H](C(=O)NCCCNC(=O)c3ccc(-c4c5nc(c(-c6ccc(S(=O)(=O)[O-])cc6)c6ccc([nH]6)c(-c6ccc(S(=O)(=O)[O-])cc6)c6nc(c(-c7ccc(S(=O)(=O)[O-])cc7)c7ccc4[nH]7)C=C6)C=C5)cc3)NC2=O)cc1
REMARK SMILES IDX 19 1 18 2 16 3 17 4 15 6 12 7 13 8 86 9 14 10 85 11 87 12
REMARK SMILES IDX 11 14 9 15 8 16 10 18 7 19 4 20 5 21 89 22 6 23 88 24 2 25
REMARK SMILES IDX 1 26 3 27 20 28 21 29 22 30 23 31 24 33 25 34 26 35 84 36
REMARK SMILES IDX 27 37 83 38 28 39 29 40 30 41 77 42 31 43 82 44 76 45 78 46
REMARK SMILES IDX 32 47 81 48 75 49 74 50 33 52 63 53 44 54 62 55 45 56 48 57
REMARK SMILES IDX 61 58 79 59 46 60 47 61 60 63 80 64 49 65 34 66 35 67 43 68
REMARK SMILES IDX 36 69 42 70 37 71 38 72 39 73 40 74 41 75 64 76 65 77 73 78
REMARK SMILES IDX 66 79 72 80 67 81 68 82 69 83 70 84 71 85 50 86 51 87 59 88
REMARK SMILES IDX 52 89 58 90 53 91 54 92 55 93 56 94 57 95
REMARK H PARENT 18 5 85 13 8 17 22 32 78 51 48 62
REMARK Flexibility Score: inf
ROOT
ATOM      1  C   UNL A   1      32.930  29.458  24.800  1.00  0.00     0.117 C 
ENDROOT
BRANCH   1   2
ATOM      2  N   UNL A   1      33.413  29.307  23.442  1.00  0.00    -0.354 N 
ATOM      3  C   UNL A   1      33.180  28.280  22.568  1.00  0.00     0.243 C 
ATOM      4  O   UNL A   1      33.997  28.109  21.666  1.00  0.00    -0.273 OA
ATOM      5  H   UNL A   1      33.982  30.036  23.105  1.00  0.00     0.163 HD
BRANCH   3   6
ATOM      6  C   UNL A   1      31.799  27.594  22.602  1.00  0.00     0.181 C 
ATOM      7  C   UNL A   1      32.379  24.592  22.391  1.00  0.00     0.145 C 
ATOM      8  S   UNL A   1      32.468  25.284  24.097  1.00  0.00    -0.145 SA
ATOM      9  C   UNL A   1      32.566  25.654  21.299  1.00  0.00     0.234 C 
ATOM     10  C   UNL A   1      31.511  26.812  23.876  1.00  0.00     0.105 C 
ATOM     11  N   UNL A   1      31.799  26.792  21.385  1.00  0.00    -0.343 N 
ATOM     12  O   UNL A   1      33.236  25.525  20.279  1.00  0.00    -0.274 OA
ATOM     13  H   UNL A   1      31.245  27.067  20.619  1.00  0.00     0.164 HD
BRANCH   7  14
ATOM     14  C   UNL A   1      33.279  23.347  22.349  1.00  0.00     0.124 C 
BRANCH  14  15
ATOM     15  C   UNL A   1      32.996  22.167  23.255  1.00  0.00     0.226 C 
ATOM     16  N   UNL A   1      33.806  21.778  24.274  1.00  0.00    -0.326 N 
ATOM     17  H   UNL A   1      33.463  21.007  24.780  1.00  0.00     0.169 HD
ATOM     18  O   UNL A   1      31.981  21.485  23.062  1.00  0.00    -0.275 OA
BRANCH  16  19
ATOM     19  C   UNL A   1      35.032  22.258  24.746  1.00  0.00     0.041 A 
ATOM     20  C   UNL A   1      37.586  22.957  25.708  1.00  0.00    -0.045 A 
ATOM     21  C   UNL A   1      36.437  23.618  26.166  1.00  0.00     0.006 A 
ATOM     22  C   UNL A   1      37.442  21.979  24.717  1.00  0.00     0.006 A 
ATOM     23  C   UNL A   1      35.171  23.276  25.681  1.00  0.00     0.026 A 
ATOM     24  C   UNL A   1      36.178  21.644  24.233  1.00  0.00     0.026 A 
BRANCH  20  25
ATOM     25  C   UNL A   1      38.946  23.337  26.260  1.00  0.00     0.013 C 
ATOM     26  C   UNL A   1      38.854  24.350  27.405  1.00  0.00     0.012 C 
ATOM     27  C   UNL A   1      39.710  22.086  26.697  1.00  0.00     0.012 C 
ENDBRANCH  20  25
ENDBRANCH  16  19
ENDBRANCH  14  15
ENDBRANCH   7  14
ENDBRANCH   3   6
ENDBRANCH   1   2
BRANCH   1  28
ATOM     28  C   UNL A   1      33.853  28.720  25.767  1.00  0.00     0.042 C 
BRANCH  28  29
ATOM     29  C   UNL A   1      33.664  29.142  27.224  1.00  0.00     0.118 C 
BRANCH  29  30
ATOM     30  N   UNL A   1      33.622  30.589  27.380  1.00  0.00    -0.352 N 
ATOM     31  C   UNL A   1      34.467  31.414  28.075  1.00  0.00     0.251 C 
ATOM     32  H   UNL A   1      32.878  31.041  26.918  1.00  0.00     0.163 HD
ATOM     33  O   UNL A   1      34.150  32.590  28.265  1.00  0.00    -0.269 OA
BRANCH  31  34
ATOM     34  C   UNL A   1      35.738  30.890  28.613  1.00  0.00     0.039 A 
ATOM     35  C   UNL A   1      36.937  31.486  28.217  1.00  0.00     0.014 A 
ATOM     36  C   UNL A   1      35.748  29.809  29.500  1.00  0.00     0.014 A 
ATOM     37  C   UNL A   1      38.143  31.042  28.762  1.00  0.00     0.010 A 
ATOM     38  C   UNL A   1      36.943  29.413  30.094  1.00  0.00     0.010 A 
ATOM     39  C   UNL A   1      38.152  30.026  29.733  1.00  0.00    -0.014 A 
BRANCH  39  40
ATOM     40  C   UNL A   1      39.413  29.597  30.387  1.00  0.00     0.031 A 
ATOM     41  C   UNL A   1      39.916  30.316  31.609  1.00  0.00     0.074 A 
ATOM     42  C   UNL A   1      40.140  28.600  29.841  1.00  0.00     0.049 A 
ATOM     43  N   UNL A   1      41.033  30.138  32.269  1.00  0.00    -0.248 NA
ATOM     44  C   UNL A   1      39.065  31.389  32.147  1.00  0.00     0.031 C 
ATOM     45  C   UNL A   1      39.776  27.845  28.640  1.00  0.00     0.029 A 
ATOM     46  N   UNL A   1      41.340  28.056  30.222  1.00  0.00    -0.354 N 
ATOM     47  C   UNL A   1      41.025  31.084  33.287  1.00  0.00     0.074 A 
ATOM     48  C   UNL A   1      39.816  31.863  33.133  1.00  0.00     0.031 C 
ATOM     49  C   UNL A   1      40.722  26.924  28.396  1.00  0.00     0.029 A 
ATOM     50  C   UNL A   1      41.778  27.049  29.395  1.00  0.00     0.049 A 
ATOM     51  H   UNL A   1      41.842  28.358  31.014  1.00  0.00     0.167 HD
ATOM     52  C   UNL A   1      41.934  31.276  34.273  1.00  0.00     0.031 A 
ATOM     53  C   UNL A   1      42.908  26.315  29.428  1.00  0.00     0.031 A 
ATOM     54  C   UNL A   1      43.131  30.494  34.432  1.00  0.00     0.049 A 
ATOM     55  C   UNL A   1      43.910  26.561  30.523  1.00  0.00     0.074 A 
ATOM     56  C   UNL A   1      44.091  30.582  35.426  1.00  0.00     0.029 A 
ATOM     57  N   UNL A   1      43.534  29.479  33.576  1.00  0.00    -0.354 N 
ATOM     58  N   UNL A   1      43.859  27.426  31.506  1.00  0.00    -0.248 NA
ATOM     59  C   UNL A   1      45.117  25.723  30.516  1.00  0.00     0.031 C 
ATOM     60  C   UNL A   1      45.096  29.650  35.146  1.00  0.00     0.029 A 
ATOM     61  C   UNL A   1      44.736  28.946  34.008  1.00  0.00     0.049 A 
ATOM     62  H   UNL A   1      43.037  29.182  32.780  1.00  0.00     0.167 HD
ATOM     63  C   UNL A   1      45.016  27.221  32.250  1.00  0.00     0.074 A 
ATOM     64  C   UNL A   1      45.737  26.140  31.611  1.00  0.00     0.031 C 
ATOM     65  C   UNL A   1      45.442  27.869  33.361  1.00  0.00     0.031 A 
BRANCH  52  66
ATOM     66  C   UNL A   1      41.666  32.380  35.261  1.00  0.00    -0.014 A 
ATOM     67  C   UNL A   1      42.100  33.695  35.012  1.00  0.00     0.010 A 
ATOM     68  C   UNL A   1      40.930  32.112  36.430  1.00  0.00     0.010 A 
ATOM     69  C   UNL A   1      41.836  34.713  35.931  1.00  0.00     0.020 A 
ATOM     70  C   UNL A   1      40.641  33.133  37.339  1.00  0.00     0.020 A 
ATOM     71  C   UNL A   1      41.110  34.425  37.090  1.00  0.00     0.054 A 
BRANCH  71  72
ATOM     72  S   UNL A   1      40.754  35.774  38.251  1.00  0.00     0.124 S 
ATOM     73  O   UNL A   1      40.002  35.081  39.294  1.00  0.00    -0.237 OA
ATOM     74  O   UNL A   1      42.089  36.226  38.636  1.00  0.00    -0.237 OA
ATOM     75  O   UNL A   1      39.984  36.724  37.454  1.00  0.00    -0.744 OA
ENDBRANCH  71  72
ENDBRANCH  52  66
BRANCH  53  76
ATOM     76  C   UNL A   1      43.151  25.274  28.394  1.00  0.00    -0.014 A 
ATOM     77  C   UNL A   1      42.749  23.944  28.613  1.00  0.00     0.010 A 
ATOM     78  C   UNL A   1      43.785  25.607  27.183  1.00  0.00     0.010 A 
ATOM     79  C   UNL A   1      42.996  22.962  27.650  1.00  0.00     0.020 A 
ATOM     80  C   UNL A   1      44.008  24.633  26.206  1.00  0.00     0.020 A 
ATOM     81  C   UNL A   1      43.625  23.313  26.452  1.00  0.00     0.054 A 
BRANCH  81  82
ATOM     82  S   UNL A   1      43.896  22.032  25.195  1.00  0.00     0.124 S 
ATOM     83  O   UNL A   1      45.301  21.699  25.401  1.00  0.00    -0.237 OA
ATOM     84  O   UNL A   1      42.936  21.001  25.582  1.00  0.00    -0.237 OA
ATOM     85  O   UNL A   1      43.589  22.716  23.941  1.00  0.00    -0.744 OA
ENDBRANCH  81  82
ENDBRANCH  53  76
BRANCH  65  86
ATOM     86  C   UNL A   1      46.734  27.406  33.978  1.00  0.00    -0.014 A 
ATOM     87  C   UNL A   1      47.962  27.990  33.620  1.00  0.00     0.010 A 
ATOM     88  C   UNL A   1      46.711  26.407  34.967  1.00  0.00     0.010 A 
ATOM     89  C   UNL A   1      49.149  27.558  34.219  1.00  0.00     0.020 A 
ATOM     90  C   UNL A   1      47.892  25.991  35.586  1.00  0.00     0.020 A 
ATOM     91  C   UNL A   1      49.106  26.560  35.197  1.00  0.00     0.054 A 
BRANCH  91  92
ATOM     92  S   UNL A   1      50.655  26.047  35.989  1.00  0.00     0.124 S 
ATOM     93  O   UNL A   1      51.259  27.331  36.334  1.00  0.00    -0.237 OA
ATOM     94  O   UNL A   1      50.189  25.248  37.121  1.00  0.00    -0.237 OA
ATOM     95  O   UNL A   1      51.345  25.293  34.946  1.00  0.00    -0.744 OA
ENDBRANCH  91  92
ENDBRANCH  65  86
ENDBRANCH  39  40
ENDBRANCH  31  34
ENDBRANCH  29  30
ENDBRANCH  28  29
ENDBRANCH   1  28
TORSDOF 17
ENDMDL
