MODEL 1
REMARK VINA RESULT:     -11.4      0.000      0.000
REMARK SMILES Cc1cc(C)cc(Nc2nc(C)cc(C(=O)NCCCNC(=O)c3ccc(-c4c5nc(c(-c6ccc(S(=O)(=O)[O-])cc6)c6ccc([nH]6)c(-c6ccc(S(=O)(=O)[O-])cc6)c6nc(c(-c7ccc(S(=O)(=O)[O-])cc7)c7ccc4[nH]7)C=C6)C=C5)cc3)n2)c1
REMARK SMILES IDX 19 1 18 2 17 3 15 4 16 5 14 7 9 8 10 9 84 10 11 11 12 12
REMARK SMILES IDX 13 13 8 14 7 16 1 17 2 18 3 19 85 20 4 21 5 22 6 23 20 24
REMARK SMILES IDX 21 25 22 26 23 28 24 29 25 30 83 31 26 32 82 33 27 34 28 35
REMARK SMILES IDX 29 36 76 37 30 38 81 39 75 40 77 41 31 42 80 43 74 44 73 45
REMARK SMILES IDX 32 47 62 48 43 49 61 50 44 51 47 52 60 53 78 54 45 55 46 56
REMARK SMILES IDX 59 58 79 59 48 60 33 61 34 62 42 63 35 64 41 65 36 66 37 67
REMARK SMILES IDX 38 68 39 69 40 70 63 71 64 72 72 73 65 74 71 75 66 76 67 77
REMARK SMILES IDX 68 78 69 79 70 80 49 81 50 82 58 83 51 84 57 85 52 86 53 87
REMARK SMILES IDX 54 88 55 89 56 90
REMARK H PARENT 17 6 8 15 21 27 77 46 47 57
REMARK Flexibility Score: inf
ROOT
ATOM      1  C   UNL A   1      35.193  23.284  26.517  1.00  0.00     0.042 C 
ENDROOT
BRANCH   1   2
ATOM      2  C   UNL A   1      33.903  23.762  25.853  1.00  0.00     0.118 C 
BRANCH   2   3
ATOM      3  N   UNL A   1      34.075  23.892  24.420  1.00  0.00    -0.351 N 
ATOM      4  C   UNL A   1      34.001  24.953  23.551  1.00  0.00     0.270 C 
ATOM      5  O   UNL A   1      34.200  24.688  22.363  1.00  0.00    -0.268 OA
ATOM      6  H   UNL A   1      34.291  23.039  23.975  1.00  0.00     0.163 HD
BRANCH   4   7
ATOM      7  C   UNL A   1      33.734  26.376  23.964  1.00  0.00     0.134 A 
ATOM      8  C   UNL A   1      32.881  28.391  23.249  1.00  0.00     0.228 A 
ATOM      9  N   UNL A   1      33.213  29.003  24.392  1.00  0.00    -0.218 NA
ATOM     10  N   UNL A   1      33.185  27.120  22.983  1.00  0.00    -0.208 NA
ATOM     11  C   UNL A   1      33.716  28.236  25.378  1.00  0.00     0.044 A 
ATOM     12  C   UNL A   1      33.931  28.904  26.704  1.00  0.00     0.067 C 
ATOM     13  C   UNL A   1      33.947  26.886  25.222  1.00  0.00     0.058 A 
BRANCH   8  14
ATOM     14  N   UNL A   1      32.069  29.112  22.375  1.00  0.00    -0.324 N 
ATOM     15  H   UNL A   1      32.528  29.617  21.665  1.00  0.00     0.170 HD
BRANCH  14  16
ATOM     16  C   UNL A   1      30.662  29.195  22.400  1.00  0.00     0.041 A 
ATOM     17  C   UNL A   1      27.735  27.178  23.792  1.00  0.00     0.044 C 
ATOM     18  C   UNL A   1      28.523  28.239  23.085  1.00  0.00    -0.049 A 
ATOM     19  C   UNL A   1      27.848  29.264  22.407  1.00  0.00     0.007 A 
ATOM     20  C   UNL A   1      29.926  28.216  23.078  1.00  0.00     0.029 A 
ATOM     21  C   UNL A   1      28.560  30.267  21.746  1.00  0.00    -0.049 A 
ATOM     22  C   UNL A   1      27.840  31.359  21.013  1.00  0.00     0.044 C 
ATOM     23  C   UNL A   1      29.959  30.233  21.772  1.00  0.00     0.029 A 
ENDBRANCH  14  16
ENDBRANCH   8  14
ENDBRANCH   4   7
ENDBRANCH   2   3
ENDBRANCH   1   2
BRANCH   1  24
ATOM     24  C   UNL A   1      36.456  23.781  25.809  1.00  0.00     0.118 C 
BRANCH  24  25
ATOM     25  N   UNL A   1      37.541  22.818  25.910  1.00  0.00    -0.352 N 
ATOM     26  C   UNL A   1      38.853  22.992  26.270  1.00  0.00     0.251 C 
ATOM     27  H   UNL A   1      37.294  21.892  25.683  1.00  0.00     0.163 HD
ATOM     28  O   UNL A   1      39.656  22.093  26.035  1.00  0.00    -0.269 OA
BRANCH  26  29
ATOM     29  C   UNL A   1      39.309  24.235  26.931  1.00  0.00     0.039 A 
ATOM     30  C   UNL A   1      38.935  24.461  28.259  1.00  0.00     0.014 A 
ATOM     31  C   UNL A   1      40.032  25.211  26.236  1.00  0.00     0.014 A 
ATOM     32  C   UNL A   1      39.316  25.641  28.901  1.00  0.00     0.010 A 
ATOM     33  C   UNL A   1      40.462  26.362  26.896  1.00  0.00     0.010 A 
ATOM     34  C   UNL A   1      40.102  26.593  28.231  1.00  0.00    -0.014 A 
BRANCH  34  35
ATOM     35  C   UNL A   1      40.553  27.830  28.921  1.00  0.00     0.031 A 
ATOM     36  C   UNL A   1      41.927  27.909  29.529  1.00  0.00     0.074 A 
ATOM     37  C   UNL A   1      39.704  28.870  29.034  1.00  0.00     0.049 A 
ATOM     38  N   UNL A   1      42.478  28.894  30.192  1.00  0.00    -0.248 NA
ATOM     39  C   UNL A   1      42.788  26.723  29.390  1.00  0.00     0.031 C 
ATOM     40  C   UNL A   1      38.332  28.903  28.520  1.00  0.00     0.029 A 
ATOM     41  N   UNL A   1      39.868  30.101  29.618  1.00  0.00    -0.354 N 
ATOM     42  C   UNL A   1      43.743  28.444  30.560  1.00  0.00     0.074 A 
ATOM     43  C   UNL A   1      43.861  27.083  30.081  1.00  0.00     0.031 C 
ATOM     44  C   UNL A   1      37.790  30.102  28.792  1.00  0.00     0.029 A 
ATOM     45  C   UNL A   1      38.759  30.908  29.525  1.00  0.00     0.049 A 
ATOM     46  H   UNL A   1      40.700  30.378  30.063  1.00  0.00     0.167 HD
ATOM     47  C   UNL A   1      44.721  29.109  31.219  1.00  0.00     0.031 A 
ATOM     48  C   UNL A   1      38.544  32.157  29.979  1.00  0.00     0.031 A 
ATOM     49  C   UNL A   1      44.607  30.467  31.684  1.00  0.00     0.049 A 
ATOM     50  C   UNL A   1      39.648  32.874  30.706  1.00  0.00     0.074 A 
ATOM     51  C   UNL A   1      45.561  31.242  32.322  1.00  0.00     0.029 A 
ATOM     52  N   UNL A   1      43.472  31.253  31.558  1.00  0.00    -0.354 N 
ATOM     53  N   UNL A   1      40.854  32.449  30.996  1.00  0.00    -0.248 NA
ATOM     54  C   UNL A   1      39.365  34.245  31.154  1.00  0.00     0.031 C 
ATOM     55  C   UNL A   1      44.989  32.485  32.616  1.00  0.00     0.029 A 
ATOM     56  C   UNL A   1      43.696  32.499  32.120  1.00  0.00     0.049 A 
ATOM     57  H   UNL A   1      42.632  30.968  31.133  1.00  0.00     0.167 HD
ATOM     58  C   UNL A   1      41.482  33.507  31.641  1.00  0.00     0.074 A 
ATOM     59  C   UNL A   1      40.528  34.598  31.683  1.00  0.00     0.031 C 
ATOM     60  C   UNL A   1      42.735  33.572  32.155  1.00  0.00     0.031 A 
BRANCH  47  61
ATOM     61  C   UNL A   1      46.010  28.374  31.479  1.00  0.00    -0.014 A 
ATOM     62  C   UNL A   1      46.146  27.527  32.595  1.00  0.00     0.010 A 
ATOM     63  C   UNL A   1      47.080  28.489  30.573  1.00  0.00     0.010 A 
ATOM     64  C   UNL A   1      47.340  26.837  32.818  1.00  0.00     0.020 A 
ATOM     65  C   UNL A   1      48.269  27.782  30.780  1.00  0.00     0.020 A 
ATOM     66  C   UNL A   1      48.396  26.972  31.910  1.00  0.00     0.054 A 
BRANCH  66  67
ATOM     67  S   UNL A   1      49.925  26.041  32.210  1.00  0.00     0.124 S 
ATOM     68  O   UNL A   1      50.945  27.064  32.000  1.00  0.00    -0.237 OA
ATOM     69  O   UNL A   1      49.762  25.591  33.590  1.00  0.00    -0.237 OA
ATOM     70  O   UNL A   1      49.888  24.983  31.204  1.00  0.00    -0.744 OA
ENDBRANCH  66  67
ENDBRANCH  47  61
BRANCH  48  71
ATOM     71  C   UNL A   1      37.232  32.819  29.748  1.00  0.00    -0.014 A 
ATOM     72  C   UNL A   1      36.971  33.477  28.533  1.00  0.00     0.010 A 
ATOM     73  C   UNL A   1      36.235  32.788  30.740  1.00  0.00     0.010 A 
ATOM     74  C   UNL A   1      35.744  34.114  28.325  1.00  0.00     0.020 A 
ATOM     75  C   UNL A   1      34.998  33.401  30.524  1.00  0.00     0.020 A 
ATOM     76  C   UNL A   1      34.766  34.072  29.322  1.00  0.00     0.054 A 
BRANCH  76  77
ATOM     77  S   UNL A   1      33.163  34.866  29.014  1.00  0.00     0.124 S 
ATOM     78  O   UNL A   1      32.571  33.976  28.021  1.00  0.00    -0.237 OA
ATOM     79  O   UNL A   1      32.540  34.846  30.336  1.00  0.00    -0.237 OA
ATOM     80  O   UNL A   1      33.529  36.195  28.530  1.00  0.00    -0.744 OA
ENDBRANCH  76  77
ENDBRANCH  48  71
BRANCH  60  81
ATOM     81  C   UNL A   1      43.153  34.873  32.782  1.00  0.00    -0.014 A 
ATOM     82  C   UNL A   1      43.747  35.892  32.014  1.00  0.00     0.010 A 
ATOM     83  C   UNL A   1      42.920  35.091  34.151  1.00  0.00     0.010 A 
ATOM     84  C   UNL A   1      44.134  37.092  32.616  1.00  0.00     0.020 A 
ATOM     85  C   UNL A   1      43.284  36.300  34.751  1.00  0.00     0.020 A 
ATOM     86  C   UNL A   1      43.905  37.287  33.981  1.00  0.00     0.054 A 
BRANCH  86  87
ATOM     87  S   UNL A   1      44.391  38.863  34.735  1.00  0.00     0.124 S 
ATOM     88  O   UNL A   1      44.150  38.608  36.153  1.00  0.00    -0.237 OA
ATOM     89  O   UNL A   1      45.794  38.987  34.348  1.00  0.00    -0.237 OA
ATOM     90  O   UNL A   1      43.491  39.834  34.116  1.00  0.00    -0.744 OA
ENDBRANCH  86  87
ENDBRANCH  60  81
ENDBRANCH  34  35
ENDBRANCH  26  29
ENDBRANCH  24  25
ENDBRANCH   1  24
TORSDOF 15
ENDMDL
MODEL 2
REMARK VINA RESULT:     -11.2      3.642      4.630
REMARK SMILES Cc1cc(C)cc(Nc2nc(C)cc(C(=O)NCCCNC(=O)c3ccc(-c4c5nc(c(-c6ccc(S(=O)(=O)[O-])cc6)c6ccc([nH]6)c(-c6ccc(S(=O)(=O)[O-])cc6)c6nc(c(-c7ccc(S(=O)(=O)[O-])cc7)c7ccc4[nH]7)C=C6)C=C5)cc3)n2)c1
REMARK SMILES IDX 19 1 18 2 17 3 15 4 16 5 14 7 9 8 10 9 84 10 11 11 12 12
REMARK SMILES IDX 13 13 8 14 7 16 1 17 2 18 3 19 85 20 4 21 5 22 6 23 20 24
REMARK SMILES IDX 21 25 22 26 23 28 24 29 25 30 83 31 26 32 82 33 27 34 28 35
REMARK SMILES IDX 29 36 76 37 30 38 81 39 75 40 77 41 31 42 80 43 74 44 73 45
REMARK SMILES IDX 32 47 62 48 43 49 61 50 44 51 47 52 60 53 78 54 45 55 46 56
REMARK SMILES IDX 59 58 79 59 48 60 33 61 34 62 42 63 35 64 41 65 36 66 37 67
REMARK SMILES IDX 38 68 39 69 40 70 63 71 64 72 72 73 65 74 71 75 66 76 67 77
REMARK SMILES IDX 68 78 69 79 70 80 49 81 50 82 58 83 51 84 57 85 52 86 53 87
REMARK SMILES IDX 54 88 55 89 56 90
REMARK H PARENT 17 6 8 15 21 27 77 46 47 57
REMARK Flexibility Score: inf
ROOT
ATOM      1  C   UNL A   1      37.687  23.239  25.700  1.00  0.00     0.042 C 
ENDROOT
BRANCH   1   2
ATOM      2  C   UNL A   1      36.195  23.569  25.719  1.00  0.00     0.118 C 
BRANCH   2   3
ATOM      3  N   UNL A   1      35.469  22.634  26.554  1.00  0.00    -0.351 N 
ATOM      4  C   UNL A   1      34.217  22.072  26.477  1.00  0.00     0.270 C 
ATOM      5  O   UNL A   1      33.918  21.304  27.395  1.00  0.00    -0.268 OA
ATOM      6  H   UNL A   1      35.980  22.339  27.343  1.00  0.00     0.163 HD
BRANCH   4   7
ATOM      7  C   UNL A   1      33.244  22.310  25.354  1.00  0.00     0.134 A 
ATOM      8  C   UNL A   1      31.615  23.739  24.576  1.00  0.00     0.228 A 
ATOM      9  N   UNL A   1      31.344  22.952  23.527  1.00  0.00    -0.218 NA
ATOM     10  N   UNL A   1      32.493  23.417  25.527  1.00  0.00    -0.208 NA
ATOM     11  C   UNL A   1      32.134  21.876  23.344  1.00  0.00     0.044 A 
ATOM     12  C   UNL A   1      31.924  21.098  22.079  1.00  0.00     0.067 C 
ATOM     13  C   UNL A   1      33.146  21.543  24.219  1.00  0.00     0.058 A 
BRANCH   8  14
ATOM     14  N   UNL A   1      31.023  25.000  24.571  1.00  0.00    -0.324 N 
ATOM     15  H   UNL A   1      30.050  25.029  24.424  1.00  0.00     0.170 HD
BRANCH  14  16
ATOM     16  C   UNL A   1      31.671  26.239  24.754  1.00  0.00     0.041 A 
ATOM     17  C   UNL A   1      31.792  29.004  27.383  1.00  0.00     0.044 C 
ATOM     18  C   UNL A   1      32.043  28.221  26.130  1.00  0.00    -0.049 A 
ATOM     19  C   UNL A   1      32.868  28.758  25.133  1.00  0.00     0.007 A 
ATOM     20  C   UNL A   1      31.454  26.963  25.933  1.00  0.00     0.029 A 
ATOM     21  C   UNL A   1      33.122  28.044  23.960  1.00  0.00    -0.049 A 
ATOM     22  C   UNL A   1      33.998  28.622  22.888  1.00  0.00     0.044 C 
ATOM     23  C   UNL A   1      32.539  26.783  23.796  1.00  0.00     0.029 A 
ENDBRANCH  14  16
ENDBRANCH   8  14
ENDBRANCH   4   7
ENDBRANCH   2   3
ENDBRANCH   1   2
BRANCH   1  24
ATOM     24  C   UNL A   1      38.536  24.242  26.485  1.00  0.00     0.118 C 
BRANCH  24  25
ATOM     25  N   UNL A   1      39.944  24.145  26.130  1.00  0.00    -0.352 N 
ATOM     26  C   UNL A   1      41.003  24.947  26.469  1.00  0.00     0.251 C 
ATOM     27  H   UNL A   1      40.172  23.381  25.552  1.00  0.00     0.163 HD
ATOM     28  O   UNL A   1      42.056  24.833  25.848  1.00  0.00    -0.269 OA
BRANCH  26  29
ATOM     29  C   UNL A   1      40.895  25.938  27.563  1.00  0.00     0.039 A 
ATOM     30  C   UNL A   1      39.888  25.770  28.519  1.00  0.00     0.014 A 
ATOM     31  C   UNL A   1      41.720  27.067  27.612  1.00  0.00     0.014 A 
ATOM     32  C   UNL A   1      39.735  26.707  29.543  1.00  0.00     0.010 A 
ATOM     33  C   UNL A   1      41.604  27.970  28.669  1.00  0.00     0.010 A 
ATOM     34  C   UNL A   1      40.605  27.805  29.639  1.00  0.00    -0.014 A 
BRANCH  34  35
ATOM     35  C   UNL A   1      40.479  28.781  30.753  1.00  0.00     0.031 A 
ATOM     36  C   UNL A   1      41.354  28.668  31.972  1.00  0.00     0.074 A 
ATOM     37  C   UNL A   1      39.545  29.749  30.679  1.00  0.00     0.049 A 
ATOM     38  N   UNL A   1      41.364  29.411  33.049  1.00  0.00    -0.248 NA
ATOM     39  C   UNL A   1      42.333  27.569  31.992  1.00  0.00     0.031 C 
ATOM     40  C   UNL A   1      38.610  29.942  29.567  1.00  0.00     0.029 A 
ATOM     41  N   UNL A   1      39.225  30.753  31.559  1.00  0.00    -0.354 N 
ATOM     42  C   UNL A   1      42.336  28.863  33.880  1.00  0.00     0.074 A 
ATOM     43  C   UNL A   1      42.867  27.702  33.199  1.00  0.00     0.031 C 
ATOM     44  C   UNL A   1      37.840  31.013  29.822  1.00  0.00     0.029 A 
ATOM     45  C   UNL A   1      38.200  31.561  31.124  1.00  0.00     0.049 A 
ATOM     46  H   UNL A   1      39.684  30.881  32.419  1.00  0.00     0.167 HD
ATOM     47  C   UNL A   1      42.761  29.298  35.091  1.00  0.00     0.031 A 
ATOM     48  C   UNL A   1      37.616  32.624  31.708  1.00  0.00     0.031 A 
ATOM     49  C   UNL A   1      42.242  30.461  35.762  1.00  0.00     0.049 A 
ATOM     50  C   UNL A   1      38.107  33.087  33.051  1.00  0.00     0.074 A 
ATOM     51  C   UNL A   1      42.641  31.006  36.971  1.00  0.00     0.029 A 
ATOM     52  N   UNL A   1      41.215  31.258  35.283  1.00  0.00    -0.354 N 
ATOM     53  N   UNL A   1      39.065  32.586  33.795  1.00  0.00    -0.248 NA
ATOM     54  C   UNL A   1      37.450  34.268  33.627  1.00  0.00     0.031 C 
ATOM     55  C   UNL A   1      41.827  32.113  37.240  1.00  0.00     0.029 A 
ATOM     56  C   UNL A   1      40.955  32.282  36.177  1.00  0.00     0.049 A 
ATOM     57  H   UNL A   1      40.740  31.116  34.433  1.00  0.00     0.167 HD
ATOM     58  C   UNL A   1      39.139  33.404  34.916  1.00  0.00     0.074 A 
ATOM     59  C   UNL A   1      38.141  34.441  34.744  1.00  0.00     0.031 C 
ATOM     60  C   UNL A   1      39.957  33.305  35.992  1.00  0.00     0.031 A 
BRANCH  47  61
ATOM     61  C   UNL A   1      43.849  28.508  35.772  1.00  0.00    -0.014 A 
ATOM     62  C   UNL A   1      45.198  28.892  35.659  1.00  0.00     0.010 A 
ATOM     63  C   UNL A   1      43.516  27.402  36.575  1.00  0.00     0.010 A 
ATOM     64  C   UNL A   1      46.197  28.162  36.308  1.00  0.00     0.020 A 
ATOM     65  C   UNL A   1      44.512  26.684  37.245  1.00  0.00     0.020 A 
ATOM     66  C   UNL A   1      45.848  27.060  37.095  1.00  0.00     0.054 A 
BRANCH  66  67
ATOM     67  S   UNL A   1      47.164  26.149  37.949  1.00  0.00     0.124 S 
ATOM     68  O   UNL A   1      48.189  27.177  38.105  1.00  0.00    -0.237 OA
ATOM     69  O   UNL A   1      46.511  25.723  39.184  1.00  0.00    -0.237 OA
ATOM     70  O   UNL A   1      47.498  25.072  37.021  1.00  0.00    -0.744 OA
ENDBRANCH  66  67
ENDBRANCH  47  61
BRANCH  48  71
ATOM     71  C   UNL A   1      36.504  33.334  31.020  1.00  0.00    -0.014 A 
ATOM     72  C   UNL A   1      35.243  33.445  31.632  1.00  0.00     0.010 A 
ATOM     73  C   UNL A   1      36.703  33.907  29.751  1.00  0.00     0.010 A 
ATOM     74  C   UNL A   1      34.194  34.096  30.976  1.00  0.00     0.020 A 
ATOM     75  C   UNL A   1      35.664  34.580  29.104  1.00  0.00     0.020 A 
ATOM     76  C   UNL A   1      34.412  34.659  29.716  1.00  0.00     0.054 A 
BRANCH  76  77
ATOM     77  S   UNL A   1      33.051  35.539  28.900  1.00  0.00     0.124 S 
ATOM     78  O   UNL A   1      32.490  34.501  28.042  1.00  0.00    -0.237 OA
ATOM     79  O   UNL A   1      32.217  35.950  30.027  1.00  0.00    -0.237 OA
ATOM     80  O   UNL A   1      33.724  36.634  28.204  1.00  0.00    -0.744 OA
ENDBRANCH  76  77
ENDBRANCH  48  71
BRANCH  60  81
ATOM     81  C   UNL A   1      39.825  34.362  37.054  1.00  0.00    -0.014 A 
ATOM     82  C   UNL A   1      40.455  35.612  36.917  1.00  0.00     0.010 A 
ATOM     83  C   UNL A   1      39.033  34.111  38.188  1.00  0.00     0.010 A 
ATOM     84  C   UNL A   1      40.325  36.579  37.917  1.00  0.00     0.020 A 
ATOM     85  C   UNL A   1      38.881  35.086  39.179  1.00  0.00     0.020 A 
ATOM     86  C   UNL A   1      39.543  36.309  39.044  1.00  0.00     0.054 A 
BRANCH  86  87
ATOM     87  S   UNL A   1      39.367  37.589  40.316  1.00  0.00     0.124 S 
ATOM     88  O   UNL A   1      38.379  38.480  39.713  1.00  0.00    -0.237 OA
ATOM     89  O   UNL A   1      38.904  36.831  41.475  1.00  0.00    -0.237 OA
ATOM     90  O   UNL A   1      40.713  38.144  40.438  1.00  0.00    -0.744 OA
ENDBRANCH  86  87
ENDBRANCH  60  81
ENDBRANCH  34  35
ENDBRANCH  26  29
ENDBRANCH  24  25
ENDBRANCH   1  24
TORSDOF 15
ENDMDL
MODEL 3
REMARK VINA RESULT:     -11.2      3.417      9.602
REMARK SMILES Cc1cc(C)cc(Nc2nc(C)cc(C(=O)NCCCNC(=O)c3ccc(-c4c5nc(c(-c6ccc(S(=O)(=O)[O-])cc6)c6ccc([nH]6)c(-c6ccc(S(=O)(=O)[O-])cc6)c6nc(c(-c7ccc(S(=O)(=O)[O-])cc7)c7ccc4[nH]7)C=C6)C=C5)cc3)n2)c1
REMARK SMILES IDX 19 1 18 2 17 3 15 4 16 5 14 7 9 8 10 9 84 10 11 11 12 12
REMARK SMILES IDX 13 13 8 14 7 16 1 17 2 18 3 19 85 20 4 21 5 22 6 23 20 24
REMARK SMILES IDX 21 25 22 26 23 28 24 29 25 30 83 31 26 32 82 33 27 34 28 35
REMARK SMILES IDX 29 36 76 37 30 38 81 39 75 40 77 41 31 42 80 43 74 44 73 45
REMARK SMILES IDX 32 47 62 48 43 49 61 50 44 51 47 52 60 53 78 54 45 55 46 56
REMARK SMILES IDX 59 58 79 59 48 60 33 61 34 62 42 63 35 64 41 65 36 66 37 67
REMARK SMILES IDX 38 68 39 69 40 70 63 71 64 72 72 73 65 74 71 75 66 76 67 77
REMARK SMILES IDX 68 78 69 79 70 80 49 81 50 82 58 83 51 84 57 85 52 86 53 87
REMARK SMILES IDX 54 88 55 89 56 90
REMARK H PARENT 17 6 8 15 21 27 77 46 47 57
REMARK Flexibility Score: inf
ROOT
ATOM      1  C   UNL A   1      33.037  28.069  27.012  1.00  0.00     0.042 C 
ENDROOT
BRANCH   1   2
ATOM      2  C   UNL A   1      31.651  28.007  26.370  1.00  0.00     0.118 C 
BRANCH   2   3
ATOM      3  N   UNL A   1      31.006  26.741  26.653  1.00  0.00    -0.351 N 
ATOM      4  C   UNL A   1      31.062  25.500  26.066  1.00  0.00     0.270 C 
ATOM      5  O   UNL A   1      30.350  24.632  26.579  1.00  0.00    -0.268 OA
ATOM      6  H   UNL A   1      30.400  26.777  27.428  1.00  0.00     0.163 HD
BRANCH   4   7
ATOM      7  C   UNL A   1      31.940  25.150  24.895  1.00  0.00     0.134 A 
ATOM      8  C   UNL A   1      33.607  23.731  24.178  1.00  0.00     0.228 A 
ATOM      9  N   UNL A   1      33.705  24.351  22.996  1.00  0.00    -0.218 NA
ATOM     10  N   UNL A   1      32.799  24.143  25.157  1.00  0.00    -0.208 NA
ATOM     11  C   UNL A   1      32.809  25.321  22.732  1.00  0.00     0.044 A 
ATOM     12  C   UNL A   1      32.828  25.892  21.345  1.00  0.00     0.067 C 
ATOM     13  C   UNL A   1      31.860  25.722  23.649  1.00  0.00     0.058 A 
BRANCH   8  14
ATOM     14  N   UNL A   1      34.304  22.532  24.308  1.00  0.00    -0.324 N 
ATOM     15  H   UNL A   1      33.819  21.713  24.059  1.00  0.00     0.170 HD
BRANCH  14  16
ATOM     16  C   UNL A   1      35.630  22.368  24.758  1.00  0.00     0.041 A 
ATOM     17  C   UNL A   1      38.207  19.561  24.999  1.00  0.00     0.044 C 
ATOM     18  C   UNL A   1      37.552  20.905  25.112  1.00  0.00    -0.049 A 
ATOM     19  C   UNL A   1      38.245  21.962  25.718  1.00  0.00     0.007 A 
ATOM     20  C   UNL A   1      36.251  21.119  24.633  1.00  0.00     0.029 A 
ATOM     21  C   UNL A   1      37.658  23.224  25.829  1.00  0.00    -0.049 A 
ATOM     22  C   UNL A   1      38.395  24.354  26.485  1.00  0.00     0.044 C 
ATOM     23  C   UNL A   1      36.367  23.418  25.325  1.00  0.00     0.029 A 
ENDBRANCH  14  16
ENDBRANCH   8  14
ENDBRANCH   4   7
ENDBRANCH   2   3
ENDBRANCH   1   2
BRANCH   1  24
ATOM     24  C   UNL A   1      34.003  28.997  26.273  1.00  0.00     0.118 C 
BRANCH  24  25
ATOM     25  N   UNL A   1      33.759  30.394  26.600  1.00  0.00    -0.352 N 
ATOM     26  C   UNL A   1      34.347  31.202  27.539  1.00  0.00     0.251 C 
ATOM     27  H   UNL A   1      33.058  30.828  26.061  1.00  0.00     0.163 HD
ATOM     28  O   UNL A   1      33.809  32.269  27.822  1.00  0.00    -0.269 OA
BRANCH  26  29
ATOM     29  C   UNL A   1      35.607  30.810  28.208  1.00  0.00     0.039 A 
ATOM     30  C   UNL A   1      35.578  29.743  29.112  1.00  0.00     0.014 A 
ATOM     31  C   UNL A   1      36.793  31.526  28.014  1.00  0.00     0.014 A 
ATOM     32  C   UNL A   1      36.741  29.370  29.789  1.00  0.00     0.010 A 
ATOM     33  C   UNL A   1      37.967  31.116  28.647  1.00  0.00     0.010 A 
ATOM     34  C   UNL A   1      37.951  30.040  29.546  1.00  0.00    -0.014 A 
BRANCH  34  35
ATOM     35  C   UNL A   1      39.204  29.620  30.226  1.00  0.00     0.031 A 
ATOM     36  C   UNL A   1      39.671  30.323  31.472  1.00  0.00     0.074 A 
ATOM     37  C   UNL A   1      39.942  28.625  29.695  1.00  0.00     0.049 A 
ATOM     38  N   UNL A   1      40.751  30.111  32.180  1.00  0.00    -0.248 NA
ATOM     39  C   UNL A   1      38.827  31.417  31.978  1.00  0.00     0.031 C 
ATOM     40  C   UNL A   1      39.616  27.889  28.470  1.00  0.00     0.029 A 
ATOM     41  N   UNL A   1      41.121  28.061  30.115  1.00  0.00    -0.354 N 
ATOM     42  C   UNL A   1      40.724  31.050  33.206  1.00  0.00     0.074 A 
ATOM     43  C   UNL A   1      39.541  31.860  33.004  1.00  0.00     0.031 C 
ATOM     44  C   UNL A   1      40.559  26.958  28.253  1.00  0.00     0.029 A 
ATOM     45  C   UNL A   1      41.570  27.050  29.299  1.00  0.00     0.049 A 
ATOM     46  H   UNL A   1      41.599  28.355  30.923  1.00  0.00     0.167 HD
ATOM     47  C   UNL A   1      41.594  31.213  34.232  1.00  0.00     0.031 A 
ATOM     48  C   UNL A   1      42.674  26.283  29.383  1.00  0.00     0.031 A 
ATOM     49  C   UNL A   1      42.763  30.399  34.440  1.00  0.00     0.049 A 
ATOM     50  C   UNL A   1      43.621  26.482  30.533  1.00  0.00     0.074 A 
ATOM     51  C   UNL A   1      43.679  30.457  35.476  1.00  0.00     0.029 A 
ATOM     52  N   UNL A   1      43.175  29.377  33.598  1.00  0.00    -0.354 N 
ATOM     53  N   UNL A   1      43.547  27.341  31.521  1.00  0.00    -0.248 NA
ATOM     54  C   UNL A   1      44.793  25.597  30.586  1.00  0.00     0.031 C 
ATOM     55  C   UNL A   1      44.668  29.495  35.239  1.00  0.00     0.029 A 
ATOM     56  C   UNL A   1      44.340  28.808  34.082  1.00  0.00     0.049 A 
ATOM     57  H   UNL A   1      42.708  29.098  32.778  1.00  0.00     0.167 HD
ATOM     58  C   UNL A   1      44.651  27.086  32.326  1.00  0.00     0.074 A 
ATOM     59  C   UNL A   1      45.367  25.982  31.718  1.00  0.00     0.031 C 
ATOM     60  C   UNL A   1      45.040  27.711  33.464  1.00  0.00     0.031 A 
BRANCH  47  61
ATOM     61  C   UNL A   1      41.312  32.318  35.216  1.00  0.00    -0.014 A 
ATOM     62  C   UNL A   1      41.833  33.611  35.019  1.00  0.00     0.010 A 
ATOM     63  C   UNL A   1      40.476  32.078  36.322  1.00  0.00     0.010 A 
ATOM     64  C   UNL A   1      41.552  34.633  35.929  1.00  0.00     0.020 A 
ATOM     65  C   UNL A   1      40.173  33.105  37.222  1.00  0.00     0.020 A 
ATOM     66  C   UNL A   1      40.727  34.372  37.027  1.00  0.00     0.054 A 
BRANCH  66  67
ATOM     67  S   UNL A   1      40.355  35.726  38.177  1.00  0.00     0.124 S 
ATOM     68  O   UNL A   1      41.685  36.075  38.670  1.00  0.00    -0.237 OA
ATOM     69  O   UNL A   1      39.727  36.721  37.311  1.00  0.00    -0.237 OA
ATOM     70  O   UNL A   1      39.468  35.111  39.161  1.00  0.00    -0.744 OA
ENDBRANCH  66  67
ENDBRANCH  47  61
BRANCH  48  71
ATOM     71  C   UNL A   1      42.937  25.243  28.352  1.00  0.00    -0.014 A 
ATOM     72  C   UNL A   1      43.717  25.544  27.221  1.00  0.00     0.010 A 
ATOM     73  C   UNL A   1      42.414  23.946  28.498  1.00  0.00     0.010 A 
ATOM     74  C   UNL A   1      43.949  24.572  26.243  1.00  0.00     0.020 A 
ATOM     75  C   UNL A   1      42.665  22.965  27.536  1.00  0.00     0.020 A 
ATOM     76  C   UNL A   1      43.420  23.289  26.407  1.00  0.00     0.054 A 
BRANCH  76  77
ATOM     77  S   UNL A   1      43.770  22.028  25.150  1.00  0.00     0.124 S 
ATOM     78  O   UNL A   1      45.164  21.701  25.429  1.00  0.00    -0.237 OA
ATOM     79  O   UNL A   1      42.798  20.985  25.467  1.00  0.00    -0.237 OA
ATOM     80  O   UNL A   1      43.529  22.728  23.890  1.00  0.00    -0.744 OA
ENDBRANCH  76  77
ENDBRANCH  48  71
BRANCH  60  81
ATOM     81  C   UNL A   1      46.281  27.195  34.140  1.00  0.00    -0.014 A 
ATOM     82  C   UNL A   1      47.548  27.724  33.835  1.00  0.00     0.010 A 
ATOM     83  C   UNL A   1      46.173  26.189  35.116  1.00  0.00     0.010 A 
ATOM     84  C   UNL A   1      48.690  27.227  34.469  1.00  0.00     0.020 A 
ATOM     85  C   UNL A   1      47.310  25.707  35.770  1.00  0.00     0.020 A 
ATOM     86  C   UNL A   1      48.565  26.219  35.429  1.00  0.00     0.054 A 
BRANCH  86  87
ATOM     87  S   UNL A   1      50.057  25.609  36.259  1.00  0.00     0.124 S 
ATOM     88  O   UNL A   1      50.866  25.154  35.131  1.00  0.00    -0.237 OA
ATOM     89  O   UNL A   1      50.552  26.797  36.948  1.00  0.00    -0.237 OA
ATOM     90  O   UNL A   1      49.558  24.550  37.134  1.00  0.00    -0.744 OA
ENDBRANCH  86  87
ENDBRANCH  60  81
ENDBRANCH  34  35
ENDBRANCH  26  29
ENDBRANCH  24  25
ENDBRANCH   1  24
TORSDOF 15
ENDMDL
