MODEL 1
REMARK VINA RESULT:     -12.0      0.000      0.000
REMARK SMILES Cc1ccc(S(=O)(=O)N[C@@H](C)C(=O)Oc2csc(C(=O)NCCCNC(=O)c3ccc(-c4c5nc(c(-c6ccc(S(=O)(=O)[O-])cc6)c6ccc([nH]6)c(-c6ccc(S(=O)(=O)[O-])cc6)c6nc(c(-c7ccc(S(=O)(=O)[O-])cc7)c7ccc4[nH]7)C=C6)C=C5)cc3)c2C)cc1
REMARK SMILES IDX 19 1 20 2 21 3 18 5 15 6 16 7 88 8 17 9 89 10 14 11 12 12
REMARK SMILES IDX 13 13 10 14 11 15 9 16 6 18 7 19 8 20 5 21 1 22 2 23 3 24
REMARK SMILES IDX 91 25 4 26 90 27 22 28 23 29 24 30 25 31 26 32 27 34 28 35
REMARK SMILES IDX 29 36 87 37 30 38 86 39 31 40 32 41 33 42 80 43 34 44 85 45
REMARK SMILES IDX 79 46 81 47 35 48 84 49 78 50 77 51 36 53 66 54 47 55 65 56
REMARK SMILES IDX 48 57 51 58 64 59 82 60 49 61 50 62 63 64 83 65 52 66 37 67
REMARK SMILES IDX 38 68 46 69 39 70 45 71 40 72 41 73 42 74 43 75 44 76 67 77
REMARK SMILES IDX 68 78 76 79 69 80 75 81 70 82 71 83 72 84 73 85 74 86 53 87
REMARK SMILES IDX 54 88 62 89 55 90 61 91 56 92 57 93 58 94 59 95 60 96
REMARK H PARENT 21 4 9 17 25 33 81 52 51 63
REMARK Flexibility Score: inf
ROOT
ATOM      1  C   UNL A   1      33.963  20.654  25.034  1.00  0.00     0.261 C 
ATOM      2  O   UNL A   1      33.649  19.551  24.579  1.00  0.00    -0.268 OA
ATOM      3  N   UNL A   1      35.206  20.765  25.638  1.00  0.00    -0.351 N 
ATOM      4  H   UNL A   1      35.632  19.897  25.825  1.00  0.00     0.163 HD
ENDROOT
BRANCH   1   5
ATOM      5  C   UNL A   1      33.096  21.823  24.894  1.00  0.00     0.099 A 
ATOM      6  C   UNL A   1      31.969  23.832  25.198  1.00  0.00     0.145 A 
ATOM      7  C   UNL A   1      31.684  23.610  23.877  1.00  0.00     0.113 A 
ATOM      8  C   UNL A   1      32.588  22.712  25.827  1.00  0.00     0.015 A 
ATOM      9  S   UNL A   1      32.424  22.165  23.334  1.00  0.00    -0.134 S 
ATOM     10  C   UNL A   1      32.653  22.602  27.301  1.00  0.00     0.050 C 
BRANCH   6  11
ATOM     11  O   UNL A   1      31.581  24.944  25.867  1.00  0.00    -0.424 OA
BRANCH  11  12
ATOM     12  C   UNL A   1      32.370  26.046  25.638  1.00  0.00     0.329 C 
ATOM     13  O   UNL A   1      33.599  26.042  25.584  1.00  0.00    -0.250 OA
BRANCH  12  14
ATOM     14  C   UNL A   1      31.538  27.288  25.325  1.00  0.00     0.177 C 
ATOM     15  C   UNL A   1      30.814  27.217  23.995  1.00  0.00     0.038 C 
BRANCH  14  16
ATOM     16  N   UNL A   1      32.464  28.418  25.455  1.00  0.00    -0.197 NA
ATOM     17  H   UNL A   1      33.387  28.003  25.579  1.00  0.00     0.142 HD
BRANCH  16  18
ATOM     18  S   UNL A   1      32.344  29.594  26.611  1.00  0.00     0.241 S 
ATOM     19  O   UNL A   1      31.647  29.051  27.738  1.00  0.00    -0.207 OA
ATOM     20  O   UNL A   1      31.826  30.762  25.897  1.00  0.00    -0.207 OA
BRANCH  18  21
ATOM     21  C   UNL A   1      33.985  30.010  27.129  1.00  0.00     0.082 A 
ATOM     22  C   UNL A   1      37.761  31.210  28.799  1.00  0.00     0.044 C 
ATOM     23  C   UNL A   1      36.453  30.783  28.202  1.00  0.00    -0.051 A 
ATOM     24  C   UNL A   1      35.415  31.714  28.082  1.00  0.00     0.005 A 
ATOM     25  C   UNL A   1      36.256  29.472  27.749  1.00  0.00     0.005 A 
ATOM     26  C   UNL A   1      34.181  31.326  27.561  1.00  0.00     0.022 A 
ATOM     27  C   UNL A   1      35.031  29.088  27.191  1.00  0.00     0.022 A 
ENDBRANCH  18  21
ENDBRANCH  16  18
ENDBRANCH  14  16
ENDBRANCH  12  14
ENDBRANCH  11  12
ENDBRANCH   6  11
ENDBRANCH   1   5
BRANCH   3  28
ATOM     28  C   UNL A   1      36.023  21.929  26.058  1.00  0.00     0.118 C 
BRANCH  28  29
ATOM     29  C   UNL A   1      36.832  22.746  24.908  1.00  0.00     0.042 C 
BRANCH  29  30
ATOM     30  C   UNL A   1      37.501  24.058  25.444  1.00  0.00     0.118 C 
BRANCH  30  31
ATOM     31  N   UNL A   1      38.659  24.463  26.668  1.00  0.00    -0.352 N 
ATOM     32  C   UNL A   1      39.342  25.531  27.665  1.00  0.00     0.251 C 
ATOM     33  H   UNL A   1      39.139  23.622  26.843  1.00  0.00     0.163 HD
ATOM     34  O   UNL A   1      39.610  24.960  28.749  1.00  0.00    -0.269 OA
BRANCH  32  35
ATOM     35  C   UNL A   1      39.673  27.272  27.783  1.00  0.00     0.039 A 
ATOM     36  C   UNL A   1      40.074  28.107  26.695  1.00  0.00     0.014 A 
ATOM     37  C   UNL A   1      39.803  28.050  28.915  1.00  0.00     0.014 A 
ATOM     38  C   UNL A   1      41.284  28.914  26.829  1.00  0.00     0.010 A 
ATOM     39  C   UNL A   1      41.010  28.776  29.085  1.00  0.00     0.010 A 
ATOM     40  C   UNL A   1      41.931  28.927  28.061  1.00  0.00    -0.014 A 
BRANCH  40  41
ATOM     41  C   UNL A   1      43.410  29.082  28.391  1.00  0.00     0.031 A 
ATOM     42  C   UNL A   1      44.057  30.255  27.827  1.00  0.00     0.074 A 
ATOM     43  C   UNL A   1      44.237  28.391  29.245  1.00  0.00     0.049 A 
ATOM     44  N   UNL A   1      45.073  30.257  27.035  1.00  0.00    -0.248 NA
ATOM     45  C   UNL A   1      43.491  31.568  28.095  1.00  0.00     0.031 C 
ATOM     46  C   UNL A   1      45.679  28.511  29.579  1.00  0.00     0.029 A 
ATOM     47  N   UNL A   1      43.955  27.254  29.975  1.00  0.00    -0.354 N 
ATOM     48  C   UNL A   1      45.480  31.574  27.014  1.00  0.00     0.074 A 
ATOM     49  C   UNL A   1      44.308  32.328  27.375  1.00  0.00     0.031 C 
ATOM     50  C   UNL A   1      46.147  27.309  30.004  1.00  0.00     0.029 A 
ATOM     51  C   UNL A   1      45.045  26.382  29.916  1.00  0.00     0.049 A 
ATOM     52  H   UNL A   1      43.116  27.083  30.461  1.00  0.00     0.167 HD
ATOM     53  C   UNL A   1      46.807  31.892  27.052  1.00  0.00     0.031 A 
ATOM     54  C   UNL A   1      44.939  25.272  29.120  1.00  0.00     0.031 A 
ATOM     55  C   UNL A   1      47.645  30.679  27.150  1.00  0.00     0.049 A 
ATOM     56  C   UNL A   1      45.812  25.343  27.909  1.00  0.00     0.074 A 
ATOM     57  C   UNL A   1      48.441  30.158  28.160  1.00  0.00     0.029 A 
ATOM     58  N   UNL A   1      47.446  29.626  26.258  1.00  0.00    -0.354 N 
ATOM     59  N   UNL A   1      46.466  26.414  27.579  1.00  0.00    -0.248 NA
ATOM     60  C   UNL A   1      45.981  24.263  26.946  1.00  0.00     0.031 C 
ATOM     61  C   UNL A   1      48.649  28.769  27.896  1.00  0.00     0.029 A 
ATOM     62  C   UNL A   1      48.031  28.450  26.700  1.00  0.00     0.049 A 
ATOM     63  H   UNL A   1      46.948  29.709  25.412  1.00  0.00     0.167 HD
ATOM     64  C   UNL A   1      47.136  26.222  26.413  1.00  0.00     0.074 A 
ATOM     65  C   UNL A   1      46.778  24.858  26.040  1.00  0.00     0.031 C 
ATOM     66  C   UNL A   1      47.909  27.224  25.895  1.00  0.00     0.031 A 
BRANCH  53  67
ATOM     67  C   UNL A   1      47.314  33.307  27.327  1.00  0.00    -0.014 A 
ATOM     68  C   UNL A   1      47.561  34.192  26.262  1.00  0.00     0.010 A 
ATOM     69  C   UNL A   1      47.557  33.843  28.612  1.00  0.00     0.010 A 
ATOM     70  C   UNL A   1      48.051  35.498  26.471  1.00  0.00     0.020 A 
ATOM     71  C   UNL A   1      48.078  35.122  28.840  1.00  0.00     0.020 A 
ATOM     72  C   UNL A   1      48.317  35.952  27.762  1.00  0.00     0.054 A 
BRANCH  72  73
ATOM     73  S   UNL A   1      48.915  37.638  28.032  1.00  0.00     0.124 S 
ATOM     74  O   UNL A   1      50.003  37.440  28.985  1.00  0.00    -0.237 OA
ATOM     75  O   UNL A   1      49.316  38.046  26.688  1.00  0.00    -0.237 OA
ATOM     76  O   UNL A   1      47.750  38.344  28.565  1.00  0.00    -0.744 OA
ENDBRANCH  72  73
ENDBRANCH  53  67
BRANCH  54  77
ATOM     77  C   UNL A   1      43.557  24.695  29.115  1.00  0.00    -0.014 A 
ATOM     78  C   UNL A   1      42.807  25.039  28.005  1.00  0.00     0.010 A 
ATOM     79  C   UNL A   1      43.423  23.362  29.450  1.00  0.00     0.010 A 
ATOM     80  C   UNL A   1      42.578  24.071  27.008  1.00  0.00     0.020 A 
ATOM     81  C   UNL A   1      43.152  22.437  28.402  1.00  0.00     0.020 A 
ATOM     82  C   UNL A   1      43.081  22.766  27.060  1.00  0.00     0.054 A 
BRANCH  82  83
ATOM     83  S   UNL A   1      43.816  21.640  25.338  1.00  0.00     0.124 S 
ATOM     84  O   UNL A   1      45.177  21.216  25.628  1.00  0.00    -0.237 OA
ATOM     85  O   UNL A   1      42.980  20.457  25.288  1.00  0.00    -0.237 OA
ATOM     86  O   UNL A   1      43.815  22.499  24.154  1.00  0.00    -0.744 OA
ENDBRANCH  82  83
ENDBRANCH  54  77
BRANCH  66  87
ATOM     87  C   UNL A   1      48.647  27.166  24.581  1.00  0.00    -0.014 A 
ATOM     88  C   UNL A   1      48.048  27.297  23.323  1.00  0.00     0.010 A 
ATOM     89  C   UNL A   1      50.043  26.929  24.591  1.00  0.00     0.010 A 
ATOM     90  C   UNL A   1      48.805  27.289  22.149  1.00  0.00     0.020 A 
ATOM     91  C   UNL A   1      50.811  26.907  23.430  1.00  0.00     0.020 A 
ATOM     92  C   UNL A   1      50.184  27.105  22.211  1.00  0.00     0.054 A 
BRANCH  92  93
ATOM     93  S   UNL A   1      51.120  27.085  20.674  1.00  0.00     0.124 S 
ATOM     94  O   UNL A   1      50.161  26.495  19.741  1.00  0.00    -0.237 OA
ATOM     95  O   UNL A   1      51.403  28.503  20.470  1.00  0.00    -0.237 OA
ATOM     96  O   UNL A   1      52.281  26.254  20.979  1.00  0.00    -0.744 OA
ENDBRANCH  92  93
ENDBRANCH  66  87
ENDBRANCH  40  41
ENDBRANCH  32  35
ENDBRANCH  30  31
ENDBRANCH  29  30
ENDBRANCH  28  29
ENDBRANCH   3  28
TORSDOF 19
ENDMDL
MODEL 2
REMARK VINA RESULT:     -12.0      1.444      1.676
REMARK SMILES Cc1ccc(S(=O)(=O)N[C@@H](C)C(=O)Oc2csc(C(=O)NCCCNC(=O)c3ccc(-c4c5nc(c(-c6ccc(S(=O)(=O)[O-])cc6)c6ccc([nH]6)c(-c6ccc(S(=O)(=O)[O-])cc6)c6nc(c(-c7ccc(S(=O)(=O)[O-])cc7)c7ccc4[nH]7)C=C6)C=C5)cc3)c2C)cc1
REMARK SMILES IDX 19 1 20 2 21 3 18 5 15 6 16 7 88 8 17 9 89 10 14 11 12 12
REMARK SMILES IDX 13 13 10 14 11 15 9 16 6 18 7 19 8 20 5 21 1 22 2 23 3 24
REMARK SMILES IDX 91 25 4 26 90 27 22 28 23 29 24 30 25 31 26 32 27 34 28 35
REMARK SMILES IDX 29 36 87 37 30 38 86 39 31 40 32 41 33 42 80 43 34 44 85 45
REMARK SMILES IDX 79 46 81 47 35 48 84 49 78 50 77 51 36 53 66 54 47 55 65 56
REMARK SMILES IDX 48 57 51 58 64 59 82 60 49 61 50 62 63 64 83 65 52 66 37 67
REMARK SMILES IDX 38 68 46 69 39 70 45 71 40 72 41 73 42 74 43 75 44 76 67 77
REMARK SMILES IDX 68 78 76 79 69 80 75 81 70 82 71 83 72 84 73 85 74 86 53 87
REMARK SMILES IDX 54 88 62 89 55 90 61 91 56 92 57 93 58 94 59 95 60 96
REMARK H PARENT 21 4 9 17 25 33 81 52 51 63
REMARK Flexibility Score: inf
ROOT
ATOM      1  C   UNL A   1      34.625  21.554  25.943  1.00  0.00     0.261 C 
ATOM      2  O   UNL A   1      33.805  21.164  26.779  1.00  0.00    -0.268 OA
ATOM      3  N   UNL A   1      35.939  21.140  26.098  1.00  0.00    -0.351 N 
ATOM      4  H   UNL A   1      36.126  20.741  26.979  1.00  0.00     0.163 HD
ENDROOT
BRANCH   1   5
ATOM      5  C   UNL A   1      34.229  22.367  24.794  1.00  0.00     0.099 A 
ATOM      6  C   UNL A   1      34.058  24.007  23.157  1.00  0.00     0.145 A 
ATOM      7  C   UNL A   1      33.267  23.041  22.594  1.00  0.00     0.113 A 
ATOM      8  C   UNL A   1      34.428  23.707  24.500  1.00  0.00     0.015 A 
ATOM      9  S   UNL A   1      33.214  21.648  23.589  1.00  0.00    -0.134 S 
ATOM     10  C   UNL A   1      34.966  24.753  25.397  1.00  0.00     0.050 C 
BRANCH   6  11
ATOM     11  O   UNL A   1      34.344  25.182  22.547  1.00  0.00    -0.424 OA
BRANCH  11  12
ATOM     12  C   UNL A   1      33.253  25.818  22.004  1.00  0.00     0.329 C 
ATOM     13  O   UNL A   1      33.078  26.032  20.806  1.00  0.00    -0.250 OA
BRANCH  12  14
ATOM     14  C   UNL A   1      32.191  26.129  23.058  1.00  0.00     0.177 C 
ATOM     15  C   UNL A   1      30.781  26.181  22.505  1.00  0.00     0.038 C 
BRANCH  14  16
ATOM     16  N   UNL A   1      32.638  27.366  23.705  1.00  0.00    -0.197 NA
ATOM     17  H   UNL A   1      33.557  27.156  24.094  1.00  0.00     0.142 HD
BRANCH  16  18
ATOM     18  S   UNL A   1      31.810  28.140  24.910  1.00  0.00     0.241 S 
ATOM     19  O   UNL A   1      31.171  27.152  25.727  1.00  0.00    -0.207 OA
ATOM     20  O   UNL A   1      31.029  29.167  24.220  1.00  0.00    -0.207 OA
BRANCH  18  21
ATOM     21  C   UNL A   1      32.993  28.998  25.911  1.00  0.00     0.082 A 
ATOM     22  C   UNL A   1      35.498  31.129  28.680  1.00  0.00     0.044 C 
ATOM     23  C   UNL A   1      34.639  30.383  27.703  1.00  0.00    -0.051 A 
ATOM     24  C   UNL A   1      33.406  30.922  27.318  1.00  0.00     0.005 A 
ATOM     25  C   UNL A   1      35.055  29.162  27.155  1.00  0.00     0.005 A 
ATOM     26  C   UNL A   1      32.579  30.227  26.438  1.00  0.00     0.022 A 
ATOM     27  C   UNL A   1      34.244  28.478  26.242  1.00  0.00     0.022 A 
ENDBRANCH  18  21
ENDBRANCH  16  18
ENDBRANCH  14  16
ENDBRANCH  12  14
ENDBRANCH  11  12
ENDBRANCH   6  11
ENDBRANCH   1   5
BRANCH   3  28
ATOM     28  C   UNL A   1      37.120  21.179  25.201  1.00  0.00     0.118 C 
BRANCH  28  29
ATOM     29  C   UNL A   1      38.507  21.785  25.796  1.00  0.00     0.042 C 
BRANCH  29  30
ATOM     30  C   UNL A   1      38.369  23.270  26.278  1.00  0.00     0.118 C 
BRANCH  30  31
ATOM     31  N   UNL A   1      39.139  24.280  27.457  1.00  0.00    -0.352 N 
ATOM     32  C   UNL A   1      39.622  25.730  27.973  1.00  0.00     0.251 C 
ATOM     33  H   UNL A   1      39.423  23.660  28.167  1.00  0.00     0.163 HD
ATOM     34  O   UNL A   1      39.463  25.792  29.216  1.00  0.00    -0.269 OA
BRANCH  32  35
ATOM     35  C   UNL A   1      40.134  27.306  27.335  1.00  0.00     0.039 A 
ATOM     36  C   UNL A   1      40.843  27.504  26.110  1.00  0.00     0.014 A 
ATOM     37  C   UNL A   1      40.131  28.534  27.965  1.00  0.00     0.014 A 
ATOM     38  C   UNL A   1      42.091  28.262  26.129  1.00  0.00     0.010 A 
ATOM     39  C   UNL A   1      41.360  29.237  28.052  1.00  0.00     0.010 A 
ATOM     40  C   UNL A   1      42.478  28.862  27.323  1.00  0.00    -0.014 A 
BRANCH  40  41
ATOM     41  C   UNL A   1      43.870  29.140  27.876  1.00  0.00     0.031 A 
ATOM     42  C   UNL A   1      44.550  30.292  27.308  1.00  0.00     0.074 A 
ATOM     43  C   UNL A   1      44.568  28.587  28.925  1.00  0.00     0.049 A 
ATOM     44  N   UNL A   1      45.686  30.281  26.700  1.00  0.00    -0.248 NA
ATOM     45  C   UNL A   1      43.888  31.586  27.338  1.00  0.00     0.031 C 
ATOM     46  C   UNL A   1      45.923  28.829  29.480  1.00  0.00     0.029 A 
ATOM     47  N   UNL A   1      44.216  27.510  29.713  1.00  0.00    -0.354 N 
ATOM     48  C   UNL A   1      46.031  31.612  26.609  1.00  0.00     0.074 A 
ATOM     49  C   UNL A   1      44.781  32.324  26.688  1.00  0.00     0.031 C 
ATOM     50  C   UNL A   1      46.365  27.705  30.101  1.00  0.00     0.029 A 
ATOM     51  C   UNL A   1      45.338  26.707  29.929  1.00  0.00     0.049 A 
ATOM     52  H   UNL A   1      43.315  27.335  30.067  1.00  0.00     0.167 HD
ATOM     53  C   UNL A   1      47.315  32.016  26.834  1.00  0.00     0.031 A 
ATOM     54  C   UNL A   1      45.421  25.520  29.248  1.00  0.00     0.031 A 
ATOM     55  C   UNL A   1      48.178  30.872  27.197  1.00  0.00     0.049 A 
ATOM     56  C   UNL A   1      46.485  25.529  28.198  1.00  0.00     0.074 A 
ATOM     57  C   UNL A   1      48.811  30.501  28.375  1.00  0.00     0.029 A 
ATOM     58  N   UNL A   1      48.184  29.728  26.400  1.00  0.00    -0.354 N 
ATOM     59  N   UNL A   1      47.137  26.602  27.871  1.00  0.00    -0.248 NA
ATOM     60  C   UNL A   1      46.866  24.375  27.396  1.00  0.00     0.031 C 
ATOM     61  C   UNL A   1      49.124  29.109  28.297  1.00  0.00     0.029 A 
ATOM     62  C   UNL A   1      48.736  28.638  27.055  1.00  0.00     0.049 A 
ATOM     63  H   UNL A   1      47.836  29.698  25.479  1.00  0.00     0.167 HD
ATOM     64  C   UNL A   1      48.006  26.341  26.859  1.00  0.00     0.074 A 
ATOM     65  C   UNL A   1      47.779  24.929  26.578  1.00  0.00     0.031 C 
ATOM     66  C   UNL A   1      48.810  27.336  26.375  1.00  0.00     0.031 A 
BRANCH  53  67
ATOM     67  C   UNL A   1      47.703  33.479  27.039  1.00  0.00    -0.014 A 
ATOM     68  C   UNL A   1      48.501  34.142  26.089  1.00  0.00     0.010 A 
ATOM     69  C   UNL A   1      47.306  34.274  28.139  1.00  0.00     0.010 A 
ATOM     70  C   UNL A   1      48.900  35.485  26.251  1.00  0.00     0.020 A 
ATOM     71  C   UNL A   1      47.721  35.595  28.337  1.00  0.00     0.020 A 
ATOM     72  C   UNL A   1      48.514  36.202  27.383  1.00  0.00     0.054 A 
BRANCH  72  73
ATOM     73  S   UNL A   1      48.999  37.934  27.576  1.00  0.00     0.124 S 
ATOM     74  O   UNL A   1      48.749  38.178  28.993  1.00  0.00    -0.237 OA
ATOM     75  O   UNL A   1      50.404  37.911  27.175  1.00  0.00    -0.237 OA
ATOM     76  O   UNL A   1      48.112  38.652  26.660  1.00  0.00    -0.744 OA
ENDBRANCH  72  73
ENDBRANCH  53  67
BRANCH  54  77
ATOM     77  C   UNL A   1      44.088  24.861  29.073  1.00  0.00    -0.014 A 
ATOM     78  C   UNL A   1      43.317  25.408  28.063  1.00  0.00     0.010 A 
ATOM     79  C   UNL A   1      44.057  23.480  29.072  1.00  0.00     0.010 A 
ATOM     80  C   UNL A   1      43.167  24.696  26.856  1.00  0.00     0.020 A 
ATOM     81  C   UNL A   1      43.862  22.820  27.825  1.00  0.00     0.020 A 
ATOM     82  C   UNL A   1      43.769  23.460  26.602  1.00  0.00     0.054 A 
BRANCH  82  83
ATOM     83  S   UNL A   1      44.594  22.844  24.675  1.00  0.00     0.124 S 
ATOM     84  O   UNL A   1      45.255  21.561  24.860  1.00  0.00    -0.237 OA
ATOM     85  O   UNL A   1      43.437  22.632  23.830  1.00  0.00    -0.237 OA
ATOM     86  O   UNL A   1      45.571  23.834  24.221  1.00  0.00    -0.744 OA
ENDBRANCH  82  83
ENDBRANCH  54  77
BRANCH  66  87
ATOM     87  C   UNL A   1      49.765  27.198  25.216  1.00  0.00    -0.014 A 
ATOM     88  C   UNL A   1      49.381  27.002  23.885  1.00  0.00     0.010 A 
ATOM     89  C   UNL A   1      51.158  27.232  25.470  1.00  0.00     0.010 A 
ATOM     90  C   UNL A   1      50.322  26.940  22.854  1.00  0.00     0.020 A 
ATOM     91  C   UNL A   1      52.110  27.160  24.456  1.00  0.00     0.020 A 
ATOM     92  C   UNL A   1      51.681  27.030  23.146  1.00  0.00     0.054 A 
BRANCH  92  93
ATOM     93  S   UNL A   1      52.861  26.928  21.791  1.00  0.00     0.124 S 
ATOM     94  O   UNL A   1      52.152  26.083  20.832  1.00  0.00    -0.237 OA
ATOM     95  O   UNL A   1      53.004  28.330  21.405  1.00  0.00    -0.237 OA
ATOM     96  O   UNL A   1      54.043  26.324  22.397  1.00  0.00    -0.744 OA
ENDBRANCH  92  93
ENDBRANCH  66  87
ENDBRANCH  40  41
ENDBRANCH  32  35
ENDBRANCH  30  31
ENDBRANCH  29  30
ENDBRANCH  28  29
ENDBRANCH   3  28
TORSDOF 19
ENDMDL
MODEL 3
REMARK VINA RESULT:     -11.9      6.750     12.047
REMARK SMILES Cc1ccc(S(=O)(=O)N[C@@H](C)C(=O)Oc2csc(C(=O)NCCCNC(=O)c3ccc(-c4c5nc(c(-c6ccc(S(=O)(=O)[O-])cc6)c6ccc([nH]6)c(-c6ccc(S(=O)(=O)[O-])cc6)c6nc(c(-c7ccc(S(=O)(=O)[O-])cc7)c7ccc4[nH]7)C=C6)C=C5)cc3)c2C)cc1
REMARK SMILES IDX 19 1 20 2 21 3 18 5 15 6 16 7 88 8 17 9 89 10 14 11 12 12
REMARK SMILES IDX 13 13 10 14 11 15 9 16 6 18 7 19 8 20 5 21 1 22 2 23 3 24
REMARK SMILES IDX 91 25 4 26 90 27 22 28 23 29 24 30 25 31 26 32 27 34 28 35
REMARK SMILES IDX 29 36 87 37 30 38 86 39 31 40 32 41 33 42 80 43 34 44 85 45
REMARK SMILES IDX 79 46 81 47 35 48 84 49 78 50 77 51 36 53 66 54 47 55 65 56
REMARK SMILES IDX 48 57 51 58 64 59 82 60 49 61 50 62 63 64 83 65 52 66 37 67
REMARK SMILES IDX 38 68 46 69 39 70 45 71 40 72 41 73 42 74 43 75 44 76 67 77
REMARK SMILES IDX 68 78 76 79 69 80 75 81 70 82 71 83 72 84 73 85 74 86 53 87
REMARK SMILES IDX 54 88 62 89 55 90 61 91 56 92 57 93 58 94 59 95 60 96
REMARK H PARENT 21 4 9 17 25 33 81 52 51 63
REMARK Flexibility Score: inf
ROOT
ATOM      1  C   UNL A   1      31.513  28.336  24.672  1.00  0.00     0.261 C 
ATOM      2  O   UNL A   1      30.938  28.504  23.593  1.00  0.00    -0.268 OA
ATOM      3  N   UNL A   1      31.775  29.462  25.437  1.00  0.00    -0.351 N 
ATOM      4  H   UNL A   1      31.657  30.308  24.947  1.00  0.00     0.163 HD
ENDROOT
BRANCH   1   5
ATOM      5  C   UNL A   1      31.855  27.003  25.166  1.00  0.00     0.099 A 
ATOM      6  C   UNL A   1      32.956  25.061  25.810  1.00  0.00     0.145 A 
ATOM      7  C   UNL A   1      31.742  24.840  26.404  1.00  0.00     0.113 A 
ATOM      8  C   UNL A   1      32.948  26.184  24.932  1.00  0.00     0.015 A 
ATOM      9  S   UNL A   1      30.683  26.155  26.121  1.00  0.00    -0.134 S 
ATOM     10  C   UNL A   1      34.023  26.385  23.936  1.00  0.00     0.050 C 
BRANCH   6  11
ATOM     11  O   UNL A   1      34.012  24.222  25.940  1.00  0.00    -0.424 OA
BRANCH  11  12
ATOM     12  C   UNL A   1      33.813  22.976  25.396  1.00  0.00     0.329 C 
ATOM     13  O   UNL A   1      33.212  22.744  24.349  1.00  0.00    -0.250 OA
BRANCH  12  14
ATOM     14  C   UNL A   1      34.544  21.888  26.182  1.00  0.00     0.177 C 
ATOM     15  C   UNL A   1      33.815  21.449  27.437  1.00  0.00     0.038 C 
BRANCH  14  16
ATOM     16  N   UNL A   1      35.892  22.416  26.414  1.00  0.00    -0.197 NA
ATOM     17  H   UNL A   1      35.772  23.419  26.560  1.00  0.00     0.142 HD
BRANCH  16  18
ATOM     18  S   UNL A   1      37.149  22.268  25.349  1.00  0.00     0.241 S 
ATOM     19  O   UNL A   1      36.909  23.143  24.241  1.00  0.00    -0.207 OA
ATOM     20  O   UNL A   1      37.296  20.825  25.151  1.00  0.00    -0.207 OA
BRANCH  18  21
ATOM     21  C   UNL A   1      38.619  22.813  26.171  1.00  0.00     0.082 A 
ATOM     22  C   UNL A   1      41.887  24.361  28.499  1.00  0.00     0.044 C 
ATOM     23  C   UNL A   1      40.759  23.811  27.676  1.00  0.00    -0.051 A 
ATOM     24  C   UNL A   1      39.756  24.674  27.219  1.00  0.00     0.005 A 
ATOM     25  C   UNL A   1      40.699  22.451  27.343  1.00  0.00     0.005 A 
ATOM     26  C   UNL A   1      38.682  24.176  26.483  1.00  0.00     0.022 A 
ATOM     27  C   UNL A   1      39.642  21.953  26.572  1.00  0.00     0.022 A 
ENDBRANCH  18  21
ENDBRANCH  16  18
ENDBRANCH  14  16
ENDBRANCH  12  14
ENDBRANCH  11  12
ENDBRANCH   6  11
ENDBRANCH   1   5
BRANCH   3  28
ATOM     28  C   UNL A   1      32.197  29.647  26.847  1.00  0.00     0.118 C 
BRANCH  28  29
ATOM     29  C   UNL A   1      33.515  30.555  27.133  1.00  0.00     0.042 C 
BRANCH  29  30
ATOM     30  C   UNL A   1      34.752  29.712  27.595  1.00  0.00     0.118 C 
BRANCH  30  31
ATOM     31  N   UNL A   1      36.477  29.859  27.496  1.00  0.00    -0.352 N 
ATOM     32  C   UNL A   1      37.959  29.289  27.774  1.00  0.00     0.251 C 
ATOM     33  H   UNL A   1      36.626  30.721  27.044  1.00  0.00     0.163 HD
ATOM     34  O   UNL A   1      38.694  29.577  26.799  1.00  0.00    -0.269 OA
BRANCH  32  35
ATOM     35  C   UNL A   1      38.830  28.248  28.920  1.00  0.00     0.039 A 
ATOM     36  C   UNL A   1      38.328  27.825  30.189  1.00  0.00     0.014 A 
ATOM     37  C   UNL A   1      40.152  27.854  28.894  1.00  0.00     0.014 A 
ATOM     38  C   UNL A   1      39.132  28.064  31.384  1.00  0.00     0.010 A 
ATOM     39  C   UNL A   1      40.955  28.153  30.024  1.00  0.00     0.010 A 
ATOM     40  C   UNL A   1      40.411  28.587  31.222  1.00  0.00    -0.014 A 
BRANCH  40  41
ATOM     41  C   UNL A   1      41.220  29.501  32.133  1.00  0.00     0.031 A 
ATOM     42  C   UNL A   1      41.695  28.894  33.365  1.00  0.00     0.074 A 
ATOM     43  C   UNL A   1      41.717  30.771  31.953  1.00  0.00     0.049 A 
ATOM     44  N   UNL A   1      41.432  29.293  34.561  1.00  0.00    -0.248 NA
ATOM     45  C   UNL A   1      42.483  27.673  33.291  1.00  0.00     0.031 C 
ATOM     46  C   UNL A   1      42.497  31.688  32.822  1.00  0.00     0.029 A 
ATOM     47  N   UNL A   1      41.503  31.630  30.894  1.00  0.00    -0.354 N 
ATOM     48  C   UNL A   1      42.318  28.595  35.352  1.00  0.00     0.074 A 
ATOM     49  C   UNL A   1      42.654  27.423  34.584  1.00  0.00     0.031 C 
ATOM     50  C   UNL A   1      42.259  32.973  32.454  1.00  0.00     0.029 A 
ATOM     51  C   UNL A   1      41.297  32.924  31.380  1.00  0.00     0.049 A 
ATOM     52  H   UNL A   1      41.496  31.372  29.945  1.00  0.00     0.167 HD
ATOM     53  C   UNL A   1      42.958  29.208  36.391  1.00  0.00     0.031 A 
ATOM     54  C   UNL A   1      40.020  33.421  31.368  1.00  0.00     0.031 A 
ATOM     55  C   UNL A   1      42.588  30.636  36.477  1.00  0.00     0.049 A 
ATOM     56  C   UNL A   1      39.439  33.556  32.739  1.00  0.00     0.074 A 
ATOM     57  C   UNL A   1      43.289  31.810  36.245  1.00  0.00     0.029 A 
ATOM     58  N   UNL A   1      41.243  31.004  36.478  1.00  0.00    -0.354 N 
ATOM     59  N   UNL A   1      40.031  33.096  33.799  1.00  0.00    -0.248 NA
ATOM     60  C   UNL A   1      38.144  34.153  33.033  1.00  0.00     0.031 C 
ATOM     61  C   UNL A   1      42.345  32.863  36.034  1.00  0.00     0.029 A 
ATOM     62  C   UNL A   1      41.070  32.350  36.192  1.00  0.00     0.049 A 
ATOM     63  H   UNL A   1      40.503  30.381  36.661  1.00  0.00     0.167 HD
ATOM     64  C   UNL A   1      39.264  33.308  34.900  1.00  0.00     0.074 A 
ATOM     65  C   UNL A   1      38.073  33.954  34.362  1.00  0.00     0.031 C 
ATOM     66  C   UNL A   1      39.713  32.916  36.131  1.00  0.00     0.031 A 
BRANCH  53  67
ATOM     67  C   UNL A   1      44.153  28.588  37.112  1.00  0.00    -0.014 A 
ATOM     68  C   UNL A   1      44.067  27.288  37.642  1.00  0.00     0.010 A 
ATOM     69  C   UNL A   1      45.404  29.222  37.295  1.00  0.00     0.010 A 
ATOM     70  C   UNL A   1      45.139  26.689  38.335  1.00  0.00     0.020 A 
ATOM     71  C   UNL A   1      46.467  28.660  38.011  1.00  0.00     0.020 A 
ATOM     72  C   UNL A   1      46.333  27.385  38.524  1.00  0.00     0.054 A 
BRANCH  72  73
ATOM     73  S   UNL A   1      47.719  26.604  39.385  1.00  0.00     0.124 S 
ATOM     74  O   UNL A   1      47.137  25.349  39.849  1.00  0.00    -0.237 OA
ATOM     75  O   UNL A   1      48.717  26.485  38.325  1.00  0.00    -0.237 OA
ATOM     76  O   UNL A   1      48.058  27.555  40.443  1.00  0.00    -0.744 OA
ENDBRANCH  72  73
ENDBRANCH  53  67
BRANCH  54  77
ATOM     77  C   UNL A   1      39.236  32.968  30.175  1.00  0.00    -0.014 A 
ATOM     78  C   UNL A   1      38.458  31.847  30.404  1.00  0.00     0.010 A 
ATOM     79  C   UNL A   1      38.568  33.935  29.449  1.00  0.00     0.010 A 
ATOM     80  C   UNL A   1      37.063  31.997  30.526  1.00  0.00     0.020 A 
ATOM     81  C   UNL A   1      37.153  34.009  29.585  1.00  0.00     0.020 A 
ATOM     82  C   UNL A   1      36.402  33.227  30.446  1.00  0.00     0.054 A 
BRANCH  82  83
ATOM     83  S   UNL A   1      34.679  33.803  31.660  1.00  0.00     0.124 S 
ATOM     84  O   UNL A   1      33.709  34.443  30.784  1.00  0.00    -0.237 OA
ATOM     85  O   UNL A   1      34.112  32.549  32.113  1.00  0.00    -0.237 OA
ATOM     86  O   UNL A   1      35.101  34.749  32.692  1.00  0.00    -0.744 OA
ENDBRANCH  82  83
ENDBRANCH  54  77
BRANCH  66  87
ATOM     87  C   UNL A   1      38.938  33.029  37.419  1.00  0.00    -0.014 A 
ATOM     88  C   UNL A   1      37.725  32.383  37.680  1.00  0.00     0.010 A 
ATOM     89  C   UNL A   1      39.433  33.873  38.444  1.00  0.00     0.010 A 
ATOM     90  C   UNL A   1      37.090  32.490  38.920  1.00  0.00     0.020 A 
ATOM     91  C   UNL A   1      38.808  34.001  39.681  1.00  0.00     0.020 A 
ATOM     92  C   UNL A   1      37.642  33.291  39.916  1.00  0.00     0.054 A 
BRANCH  92  93
ATOM     93  S   UNL A   1      36.784  33.415  41.494  1.00  0.00     0.124 S 
ATOM     94  O   UNL A   1      37.058  34.798  41.882  1.00  0.00    -0.237 OA
ATOM     95  O   UNL A   1      35.403  33.133  41.113  1.00  0.00    -0.237 OA
ATOM     96  O   UNL A   1      37.423  32.398  42.324  1.00  0.00    -0.744 OA
ENDBRANCH  92  93
ENDBRANCH  66  87
ENDBRANCH  40  41
ENDBRANCH  32  35
ENDBRANCH  30  31
ENDBRANCH  29  30
ENDBRANCH  28  29
ENDBRANCH   3  28
TORSDOF 19
ENDMDL
