MODEL 1
REMARK VINA RESULT:     -11.4      0.000      0.000
REMARK SMILES O=C(NCCCNC(=O)c1cccnc1Nc1cccc(C(F)(F)F)c1)c1ccc(-c2c3nc(c(-c4ccc(S(=O)(=O)[O-])cc4)c4ccc([nH]4)c(-c4ccc(S(=O)(=O)[O-])cc4)c4nc(c(-c5ccc(S(=O)(=O)[O-])cc5)c5ccc2[nH]5)C=C4)C=C3)cc1
REMARK SMILES IDX 5 1 4 2 3 3 1 4 2 5 27 7 28 8 86 9 29 10 85 11 30 12 31 13
REMARK SMILES IDX 32 14 79 15 33 16 84 17 78 18 80 19 34 20 83 21 77 22 76 23
REMARK SMILES IDX 35 25 65 26 46 27 64 28 47 29 50 30 63 31 81 32 48 33 49 34
REMARK SMILES IDX 62 36 82 37 51 38 36 39 37 40 45 41 38 42 44 43 39 44 40 45
REMARK SMILES IDX 41 46 42 47 43 48 66 49 67 50 75 51 68 52 74 53 69 54 70 55
REMARK SMILES IDX 71 56 72 57 73 58 52 59 53 60 61 61 54 62 60 63 55 64 56 65
REMARK SMILES IDX 57 66 58 67 59 68 6 69 7 70 8 71 9 73 10 74 11 75 15 76
REMARK SMILES IDX 12 77 14 78 13 79 16 80 17 82 18 83 26 84 19 85 21 86 20 87
REMARK SMILES IDX 22 88 23 89 24 90 25 91
REMARK H PARENT 3 6 80 24 50 35 7 72 16 81
REMARK Flexibility Score: inf
ROOT
ATOM      1  C   UNL A   1      32.934  28.150  25.934  1.00  0.00     0.042 C 
ENDROOT
BRANCH   1   2
ATOM      2  C   UNL A   1      33.669  28.459  27.230  1.00  0.00     0.118 C 
BRANCH   2   3
ATOM      3  N   UNL A   1      33.589  29.868  27.589  1.00  0.00    -0.352 N 
ATOM      4  O   UNL A   1      34.165  31.770  28.642  1.00  0.00    -0.269 OA
ATOM      5  C   UNL A   1      34.507  30.662  28.229  1.00  0.00     0.251 C 
ATOM      6  H   UNL A   1      32.752  30.319  27.333  1.00  0.00     0.163 HD
BRANCH   5   7
ATOM      7  C   UNL A   1      35.892  30.186  28.428  1.00  0.00     0.039 A 
ATOM      8  C   UNL A   1      36.843  30.332  27.415  1.00  0.00     0.014 A 
ATOM      9  C   UNL A   1      36.258  29.628  29.656  1.00  0.00     0.014 A 
ATOM     10  C   UNL A   1      38.115  29.801  27.575  1.00  0.00     0.010 A 
ATOM     11  C   UNL A   1      37.570  29.187  29.853  1.00  0.00     0.010 A 
ATOM     12  C   UNL A   1      38.506  29.261  28.810  1.00  0.00    -0.014 A 
BRANCH  12  13
ATOM     13  C   UNL A   1      39.931  28.918  29.028  1.00  0.00     0.031 A 
ATOM     14  C   UNL A   1      40.495  27.592  28.608  1.00  0.00     0.074 A 
ATOM     15  C   UNL A   1      40.714  29.837  29.630  1.00  0.00     0.049 A 
ATOM     16  N   UNL A   1      41.712  27.139  28.757  1.00  0.00    -0.248 NA
ATOM     17  C   UNL A   1      39.581  26.648  27.943  1.00  0.00     0.031 C 
ATOM     18  C   UNL A   1      40.264  31.157  30.093  1.00  0.00     0.029 A 
ATOM     19  N   UNL A   1      42.045  29.813  29.958  1.00  0.00    -0.354 N 
ATOM     20  C   UNL A   1      41.709  25.852  28.234  1.00  0.00     0.074 A 
ATOM     21  C   UNL A   1      40.365  25.591  27.765  1.00  0.00     0.031 C 
ATOM     22  C   UNL A   1      41.303  31.820  30.617  1.00  0.00     0.029 A 
ATOM     23  C   UNL A   1      42.472  30.951  30.600  1.00  0.00     0.049 A 
ATOM     24  H   UNL A   1      42.638  29.054  29.754  1.00  0.00     0.167 HD
ATOM     25  C   UNL A   1      42.737  24.973  28.160  1.00  0.00     0.031 A 
ATOM     26  C   UNL A   1      43.659  31.253  31.159  1.00  0.00     0.031 A 
ATOM     27  C   UNL A   1      44.072  25.255  28.622  1.00  0.00     0.049 A 
ATOM     28  C   UNL A   1      44.762  30.238  31.097  1.00  0.00     0.074 A 
ATOM     29  C   UNL A   1      45.199  24.456  28.522  1.00  0.00     0.029 A 
ATOM     30  N   UNL A   1      44.458  26.408  29.289  1.00  0.00    -0.354 N 
ATOM     31  N   UNL A   1      44.762  29.061  30.520  1.00  0.00    -0.248 NA
ATOM     32  C   UNL A   1      46.023  30.585  31.767  1.00  0.00     0.031 C 
ATOM     33  C   UNL A   1      46.246  25.093  29.193  1.00  0.00     0.029 A 
ATOM     34  C   UNL A   1      45.791  26.317  29.653  1.00  0.00     0.049 A 
ATOM     35  H   UNL A   1      43.872  27.176  29.475  1.00  0.00     0.167 HD
ATOM     36  C   UNL A   1      46.024  28.528  30.751  1.00  0.00     0.074 A 
ATOM     37  C   UNL A   1      46.771  29.525  31.492  1.00  0.00     0.031 C 
ATOM     38  C   UNL A   1      46.517  27.318  30.393  1.00  0.00     0.031 A 
BRANCH  25  39
ATOM     39  C   UNL A   1      42.474  23.604  27.589  1.00  0.00    -0.014 A 
ATOM     40  C   UNL A   1      42.731  23.309  26.239  1.00  0.00     0.010 A 
ATOM     41  C   UNL A   1      42.074  22.566  28.452  1.00  0.00     0.010 A 
ATOM     42  C   UNL A   1      42.586  22.002  25.763  1.00  0.00     0.020 A 
ATOM     43  C   UNL A   1      41.949  21.255  27.986  1.00  0.00     0.020 A 
ATOM     44  C   UNL A   1      42.201  20.982  26.640  1.00  0.00     0.054 A 
BRANCH  44  45
ATOM     45  S   UNL A   1      42.090  19.285  26.007  1.00  0.00     0.124 S 
ATOM     46  O   UNL A   1      42.597  18.509  27.136  1.00  0.00    -0.237 OA
ATOM     47  O   UNL A   1      40.661  19.139  25.737  1.00  0.00    -0.237 OA
ATOM     48  O   UNL A   1      42.948  19.297  24.825  1.00  0.00    -0.744 OA
ENDBRANCH  44  45
ENDBRANCH  25  39
BRANCH  26  49
ATOM     49  C   UNL A   1      43.835  32.539  31.886  1.00  0.00    -0.014 A 
ATOM     50  C   UNL A   1      43.537  32.644  33.254  1.00  0.00     0.010 A 
ATOM     51  C   UNL A   1      44.299  33.677  31.197  1.00  0.00     0.010 A 
ATOM     52  C   UNL A   1      43.667  33.870  33.913  1.00  0.00     0.020 A 
ATOM     53  C   UNL A   1      44.466  34.894  31.859  1.00  0.00     0.020 A 
ATOM     54  C   UNL A   1      44.128  34.988  33.209  1.00  0.00     0.054 A 
BRANCH  54  55
ATOM     55  S   UNL A   1      44.302  36.566  34.085  1.00  0.00     0.124 S 
ATOM     56  O   UNL A   1      45.490  37.131  33.455  1.00  0.00    -0.237 OA
ATOM     57  O   UNL A   1      43.041  37.238  33.778  1.00  0.00    -0.237 OA
ATOM     58  O   UNL A   1      44.462  36.166  35.481  1.00  0.00    -0.744 OA
ENDBRANCH  54  55
ENDBRANCH  26  49
BRANCH  38  59
ATOM     59  C   UNL A   1      47.933  27.007  30.791  1.00  0.00    -0.014 A 
ATOM     60  C   UNL A   1      48.213  26.323  31.987  1.00  0.00     0.010 A 
ATOM     61  C   UNL A   1      48.991  27.341  29.926  1.00  0.00     0.010 A 
ATOM     62  C   UNL A   1      49.528  25.994  32.320  1.00  0.00     0.020 A 
ATOM     63  C   UNL A   1      50.305  26.988  30.242  1.00  0.00     0.020 A 
ATOM     64  C   UNL A   1      50.565  26.323  31.442  1.00  0.00     0.054 A 
BRANCH  64  65
ATOM     65  S   UNL A   1      52.255  25.821  31.866  1.00  0.00     0.124 S 
ATOM     66  O   UNL A   1      52.970  26.071  30.617  1.00  0.00    -0.237 OA
ATOM     67  O   UNL A   1      52.586  26.717  32.971  1.00  0.00    -0.237 OA
ATOM     68  O   UNL A   1      52.117  24.414  32.234  1.00  0.00    -0.744 OA
ENDBRANCH  64  65
ENDBRANCH  38  59
ENDBRANCH  12  13
ENDBRANCH   5   7
ENDBRANCH   2   3
ENDBRANCH   1   2
BRANCH   1  69
ATOM     69  C   UNL A   1      31.554  27.549  26.147  1.00  0.00     0.118 C 
BRANCH  69  70
ATOM     70  N   UNL A   1      31.618  26.120  26.427  1.00  0.00    -0.352 N 
ATOM     71  C   UNL A   1      31.736  25.069  25.552  1.00  0.00     0.255 C 
ATOM     72  H   UNL A   1      31.568  25.873  27.379  1.00  0.00     0.163 HD
ATOM     73  O   UNL A   1      31.487  23.926  25.928  1.00  0.00    -0.269 OA
BRANCH  71  74
ATOM     74  C   UNL A   1      32.151  25.306  24.157  1.00  0.00     0.082 A 
ATOM     75  C   UNL A   1      31.213  25.763  23.220  1.00  0.00     0.019 A 
ATOM     76  C   UNL A   1      33.484  25.135  23.769  1.00  0.00     0.143 A 
ATOM     77  C   UNL A   1      31.587  25.913  21.894  1.00  0.00     0.021 A 
ATOM     78  N   UNL A   1      33.841  25.293  22.467  1.00  0.00    -0.238 NA
ATOM     79  C   UNL A   1      32.902  25.653  21.566  1.00  0.00     0.113 A 
BRANCH  76  80
ATOM     80  N   UNL A   1      34.467  24.708  24.685  1.00  0.00    -0.340 N 
ATOM     81  H   UNL A   1      34.758  25.368  25.355  1.00  0.00     0.168 HD
BRANCH  80  82
ATOM     82  C   UNL A   1      35.079  23.445  24.742  1.00  0.00     0.040 A 
ATOM     83  C   UNL A   1      36.473  23.347  24.760  1.00  0.00     0.026 A 
ATOM     84  C   UNL A   1      34.323  22.266  24.727  1.00  0.00     0.039 A 
ATOM     85  C   UNL A   1      37.097  22.099  24.831  1.00  0.00     0.003 A 
ATOM     86  C   UNL A   1      34.933  21.004  24.775  1.00  0.00     0.058 A 
ATOM     87  C   UNL A   1      36.331  20.933  24.844  1.00  0.00     0.013 A 
BRANCH  86  88
ATOM     88  C   UNL A   1      34.103  19.749  24.765  1.00  0.00     0.416 C 
ATOM     89  F   UNL A   1      34.864  18.622  24.654  1.00  0.00    -0.166 F 
ATOM     90  F   UNL A   1      33.376  19.588  25.907  1.00  0.00    -0.166 F 
ATOM     91  F   UNL A   1      33.204  19.683  23.741  1.00  0.00    -0.166 F 
ENDBRANCH  86  88
ENDBRANCH  80  82
ENDBRANCH  76  80
ENDBRANCH  71  74
ENDBRANCH  69  70
ENDBRANCH   1  69
TORSDOF 16
ENDMDL
MODEL 2
REMARK VINA RESULT:     -11.2      3.464      8.971
REMARK SMILES O=C(NCCCNC(=O)c1cccnc1Nc1cccc(C(F)(F)F)c1)c1ccc(-c2c3nc(c(-c4ccc(S(=O)(=O)[O-])cc4)c4ccc([nH]4)c(-c4ccc(S(=O)(=O)[O-])cc4)c4nc(c(-c5ccc(S(=O)(=O)[O-])cc5)c5ccc2[nH]5)C=C4)C=C3)cc1
REMARK SMILES IDX 5 1 4 2 3 3 1 4 2 5 27 7 28 8 86 9 29 10 85 11 30 12 31 13
REMARK SMILES IDX 32 14 79 15 33 16 84 17 78 18 80 19 34 20 83 21 77 22 76 23
REMARK SMILES IDX 35 25 65 26 46 27 64 28 47 29 50 30 63 31 81 32 48 33 49 34
REMARK SMILES IDX 62 36 82 37 51 38 36 39 37 40 45 41 38 42 44 43 39 44 40 45
REMARK SMILES IDX 41 46 42 47 43 48 66 49 67 50 75 51 68 52 74 53 69 54 70 55
REMARK SMILES IDX 71 56 72 57 73 58 52 59 53 60 61 61 54 62 60 63 55 64 56 65
REMARK SMILES IDX 57 66 58 67 59 68 6 69 7 70 8 71 9 73 10 74 11 75 15 76
REMARK SMILES IDX 12 77 14 78 13 79 16 80 17 82 18 83 26 84 19 85 21 86 20 87
REMARK SMILES IDX 22 88 23 89 24 90 25 91
REMARK H PARENT 3 6 80 24 50 35 7 72 16 81
REMARK Flexibility Score: inf
ROOT
ATOM      1  C   UNL A   1      37.804  20.195  25.030  1.00  0.00     0.042 C 
ENDROOT
BRANCH   1   2
ATOM      2  C   UNL A   1      39.030  20.647  25.808  1.00  0.00     0.118 C 
BRANCH   2   3
ATOM      3  N   UNL A   1      40.010  19.580  25.964  1.00  0.00    -0.352 N 
ATOM      4  O   UNL A   1      42.054  18.644  26.030  1.00  0.00    -0.269 OA
ATOM      5  C   UNL A   1      41.369  19.660  26.146  1.00  0.00     0.251 C 
ATOM      6  H   UNL A   1      39.644  18.667  25.935  1.00  0.00     0.163 HD
BRANCH   5   7
ATOM      7  C   UNL A   1      42.002  20.955  26.468  1.00  0.00     0.039 A 
ATOM      8  C   UNL A   1      42.311  21.863  25.452  1.00  0.00     0.014 A 
ATOM      9  C   UNL A   1      42.250  21.288  27.803  1.00  0.00     0.014 A 
ATOM     10  C   UNL A   1      42.988  23.037  25.752  1.00  0.00     0.010 A 
ATOM     11  C   UNL A   1      42.838  22.517  28.113  1.00  0.00     0.010 A 
ATOM     12  C   UNL A   1      43.220  23.397  27.089  1.00  0.00    -0.014 A 
BRANCH  12  13
ATOM     13  C   UNL A   1      43.730  24.756  27.391  1.00  0.00     0.031 A 
ATOM     14  C   UNL A   1      42.816  25.855  27.849  1.00  0.00     0.074 A 
ATOM     15  C   UNL A   1      45.051  24.982  27.231  1.00  0.00     0.049 A 
ATOM     16  N   UNL A   1      43.111  27.099  28.124  1.00  0.00    -0.248 NA
ATOM     17  C   UNL A   1      41.391  25.526  28.015  1.00  0.00     0.031 C 
ATOM     18  C   UNL A   1      46.028  23.986  26.776  1.00  0.00     0.029 A 
ATOM     19  N   UNL A   1      45.803  26.111  27.430  1.00  0.00    -0.354 N 
ATOM     20  C   UNL A   1      41.912  27.710  28.468  1.00  0.00     0.074 A 
ATOM     21  C   UNL A   1      40.879  26.701  28.362  1.00  0.00     0.031 C 
ATOM     22  C   UNL A   1      47.248  24.539  26.757  1.00  0.00     0.029 A 
ATOM     23  C   UNL A   1      47.132  25.944  27.121  1.00  0.00     0.049 A 
ATOM     24  H   UNL A   1      45.428  26.959  27.761  1.00  0.00     0.167 HD
ATOM     25  C   UNL A   1      41.699  28.997  28.831  1.00  0.00     0.031 A 
ATOM     26  C   UNL A   1      48.145  26.831  27.088  1.00  0.00     0.031 A 
ATOM     27  C   UNL A   1      42.742  29.986  28.940  1.00  0.00     0.049 A 
ATOM     28  C   UNL A   1      47.864  28.258  27.455  1.00  0.00     0.074 A 
ATOM     29  C   UNL A   1      42.636  31.297  29.373  1.00  0.00     0.029 A 
ATOM     30  N   UNL A   1      44.070  29.785  28.596  1.00  0.00    -0.354 N 
ATOM     31  N   UNL A   1      46.738  28.794  27.861  1.00  0.00    -0.248 NA
ATOM     32  C   UNL A   1      48.984  29.203  27.352  1.00  0.00     0.031 C 
ATOM     33  C   UNL A   1      43.883  31.909  29.220  1.00  0.00     0.029 A 
ATOM     34  C   UNL A   1      44.781  30.963  28.755  1.00  0.00     0.049 A 
ATOM     35  H   UNL A   1      44.450  28.933  28.285  1.00  0.00     0.167 HD
ATOM     36  C   UNL A   1      47.016  30.139  28.068  1.00  0.00     0.074 A 
ATOM     37  C   UNL A   1      48.423  30.327  27.775  1.00  0.00     0.031 C 
ATOM     38  C   UNL A   1      46.180  31.132  28.455  1.00  0.00     0.031 A 
BRANCH  25  39
ATOM     39  C   UNL A   1      40.288  29.443  29.111  1.00  0.00    -0.014 A 
ATOM     40  C   UNL A   1      39.874  29.802  30.405  1.00  0.00     0.010 A 
ATOM     41  C   UNL A   1      39.397  29.616  28.034  1.00  0.00     0.010 A 
ATOM     42  C   UNL A   1      38.592  30.320  30.617  1.00  0.00     0.020 A 
ATOM     43  C   UNL A   1      38.123  30.153  28.239  1.00  0.00     0.020 A 
ATOM     44  C   UNL A   1      37.726  30.498  29.532  1.00  0.00     0.054 A 
BRANCH  44  45
ATOM     45  S   UNL A   1      36.096  31.237  29.830  1.00  0.00     0.124 S 
ATOM     46  O   UNL A   1      35.806  30.787  31.189  1.00  0.00    -0.237 OA
ATOM     47  O   UNL A   1      36.363  32.666  29.685  1.00  0.00    -0.237 OA
ATOM     48  O   UNL A   1      35.254  30.653  28.789  1.00  0.00    -0.744 OA
ENDBRANCH  44  45
ENDBRANCH  25  39
BRANCH  26  49
ATOM     49  C   UNL A   1      49.493  26.405  26.623  1.00  0.00    -0.014 A 
ATOM     50  C   UNL A   1      49.873  26.547  25.279  1.00  0.00     0.010 A 
ATOM     51  C   UNL A   1      50.405  25.841  27.537  1.00  0.00     0.010 A 
ATOM     52  C   UNL A   1      51.127  26.103  24.849  1.00  0.00     0.020 A 
ATOM     53  C   UNL A   1      51.672  25.430  27.120  1.00  0.00     0.020 A 
ATOM     54  C   UNL A   1      52.016  25.545  25.773  1.00  0.00     0.054 A 
BRANCH  54  55
ATOM     55  S   UNL A   1      53.643  24.987  25.198  1.00  0.00     0.124 S 
ATOM     56  O   UNL A   1      53.443  23.547  25.078  1.00  0.00    -0.237 OA
ATOM     57  O   UNL A   1      53.799  25.712  23.939  1.00  0.00    -0.237 OA
ATOM     58  O   UNL A   1      54.546  25.408  26.266  1.00  0.00    -0.744 OA
ENDBRANCH  54  55
ENDBRANCH  26  49
BRANCH  38  59
ATOM     59  C   UNL A   1      46.764  32.511  28.592  1.00  0.00    -0.014 A 
ATOM     60  C   UNL A   1      47.364  32.925  29.794  1.00  0.00     0.010 A 
ATOM     61  C   UNL A   1      46.774  33.378  27.484  1.00  0.00     0.010 A 
ATOM     62  C   UNL A   1      47.948  34.189  29.892  1.00  0.00     0.020 A 
ATOM     63  C   UNL A   1      47.384  34.631  27.569  1.00  0.00     0.020 A 
ATOM     64  C   UNL A   1      47.961  35.032  28.776  1.00  0.00     0.054 A 
BRANCH  64  65
ATOM     65  S   UNL A   1      48.789  36.639  28.911  1.00  0.00     0.124 S 
ATOM     66  O   UNL A   1      49.371  36.794  27.580  1.00  0.00    -0.237 OA
ATOM     67  O   UNL A   1      47.685  37.542  29.224  1.00  0.00    -0.237 OA
ATOM     68  O   UNL A   1      49.752  36.444  29.992  1.00  0.00    -0.744 OA
ENDBRANCH  64  65
ENDBRANCH  38  59
ENDBRANCH  12  13
ENDBRANCH   5   7
ENDBRANCH   2   3
ENDBRANCH   1   2
BRANCH   1  69
ATOM     69  C   UNL A   1      36.689  21.229  25.000  1.00  0.00     0.118 C 
BRANCH  69  70
ATOM     70  N   UNL A   1      35.814  21.122  26.160  1.00  0.00    -0.352 N 
ATOM     71  C   UNL A   1      34.784  21.943  26.548  1.00  0.00     0.255 C 
ATOM     72  H   UNL A   1      35.986  20.353  26.750  1.00  0.00     0.163 HD
ATOM     73  O   UNL A   1      34.341  21.873  27.692  1.00  0.00    -0.269 OA
BRANCH  71  74
ATOM     74  C   UNL A   1      34.213  22.918  25.601  1.00  0.00     0.082 A 
ATOM     75  C   UNL A   1      34.881  24.126  25.357  1.00  0.00     0.019 A 
ATOM     76  C   UNL A   1      33.040  22.627  24.898  1.00  0.00     0.143 A 
ATOM     77  C   UNL A   1      34.304  25.072  24.525  1.00  0.00     0.021 A 
ATOM     78  N   UNL A   1      32.487  23.559  24.077  1.00  0.00    -0.238 NA
ATOM     79  C   UNL A   1      33.106  24.750  23.923  1.00  0.00     0.113 A 
BRANCH  76  80
ATOM     80  N   UNL A   1      32.351  21.411  25.086  1.00  0.00    -0.340 N 
ATOM     81  H   UNL A   1      31.679  21.394  25.804  1.00  0.00     0.168 HD
BRANCH  80  82
ATOM     82  C   UNL A   1      32.523  20.220  24.360  1.00  0.00     0.040 A 
ATOM     83  C   UNL A   1      32.147  20.166  23.015  1.00  0.00     0.026 A 
ATOM     84  C   UNL A   1      33.016  19.059  24.968  1.00  0.00     0.039 A 
ATOM     85  C   UNL A   1      32.324  18.994  22.274  1.00  0.00     0.003 A 
ATOM     86  C   UNL A   1      33.179  17.867  24.245  1.00  0.00     0.058 A 
ATOM     87  C   UNL A   1      32.843  17.852  22.885  1.00  0.00     0.013 A 
BRANCH  86  88
ATOM     88  C   UNL A   1      33.717  16.631  24.915  1.00  0.00     0.416 C 
ATOM     89  F   UNL A   1      33.259  15.485  24.335  1.00  0.00    -0.166 F 
ATOM     90  F   UNL A   1      35.077  16.551  24.861  1.00  0.00    -0.166 F 
ATOM     91  F   UNL A   1      33.392  16.527  26.235  1.00  0.00    -0.166 F 
ENDBRANCH  86  88
ENDBRANCH  80  82
ENDBRANCH  76  80
ENDBRANCH  71  74
ENDBRANCH  69  70
ENDBRANCH   1  69
TORSDOF 16
ENDMDL
MODEL 3
REMARK VINA RESULT:     -11.1      2.084      8.794
REMARK SMILES O=C(NCCCNC(=O)c1cccnc1Nc1cccc(C(F)(F)F)c1)c1ccc(-c2c3nc(c(-c4ccc(S(=O)(=O)[O-])cc4)c4ccc([nH]4)c(-c4ccc(S(=O)(=O)[O-])cc4)c4nc(c(-c5ccc(S(=O)(=O)[O-])cc5)c5ccc2[nH]5)C=C4)C=C3)cc1
REMARK SMILES IDX 5 1 4 2 3 3 1 4 2 5 27 7 28 8 86 9 29 10 85 11 30 12 31 13
REMARK SMILES IDX 32 14 79 15 33 16 84 17 78 18 80 19 34 20 83 21 77 22 76 23
REMARK SMILES IDX 35 25 65 26 46 27 64 28 47 29 50 30 63 31 81 32 48 33 49 34
REMARK SMILES IDX 62 36 82 37 51 38 36 39 37 40 45 41 38 42 44 43 39 44 40 45
REMARK SMILES IDX 41 46 42 47 43 48 66 49 67 50 75 51 68 52 74 53 69 54 70 55
REMARK SMILES IDX 71 56 72 57 73 58 52 59 53 60 61 61 54 62 60 63 55 64 56 65
REMARK SMILES IDX 57 66 58 67 59 68 6 69 7 70 8 71 9 73 10 74 11 75 15 76
REMARK SMILES IDX 12 77 14 78 13 79 16 80 17 82 18 83 26 84 19 85 21 86 20 87
REMARK SMILES IDX 22 88 23 89 24 90 25 91
REMARK H PARENT 3 6 80 24 50 35 7 72 16 81
REMARK Flexibility Score: inf
ROOT
ATOM      1  C   UNL A   1      32.286  27.376  26.692  1.00  0.00     0.042 C 
ENDROOT
BRANCH   1   2
ATOM      2  C   UNL A   1      33.581  28.172  26.650  1.00  0.00     0.118 C 
BRANCH   2   3
ATOM      3  N   UNL A   1      33.375  29.581  26.962  1.00  0.00    -0.352 N 
ATOM      4  O   UNL A   1      33.710  31.533  28.028  1.00  0.00    -0.269 OA
ATOM      5  C   UNL A   1      34.164  30.441  27.684  1.00  0.00     0.251 C 
ATOM      6  H   UNL A   1      32.548  29.973  26.602  1.00  0.00     0.163 HD
BRANCH   5   7
ATOM      7  C   UNL A   1      35.542  30.057  28.052  1.00  0.00     0.039 A 
ATOM      8  C   UNL A   1      36.572  30.130  27.112  1.00  0.00     0.014 A 
ATOM      9  C   UNL A   1      35.819  29.660  29.364  1.00  0.00     0.014 A 
ATOM     10  C   UNL A   1      37.844  29.682  27.439  1.00  0.00     0.010 A 
ATOM     11  C   UNL A   1      37.123  29.307  29.720  1.00  0.00     0.010 A 
ATOM     12  C   UNL A   1      38.144  29.306  28.757  1.00  0.00    -0.014 A 
BRANCH  12  13
ATOM     13  C   UNL A   1      39.557  29.057  29.131  1.00  0.00     0.031 A 
ATOM     14  C   UNL A   1      40.401  30.122  29.768  1.00  0.00     0.074 A 
ATOM     15  C   UNL A   1      40.071  27.837  28.872  1.00  0.00     0.049 A 
ATOM     16  N   UNL A   1      41.657  30.062  30.125  1.00  0.00    -0.248 NA
ATOM     17  C   UNL A   1      39.764  31.423  30.035  1.00  0.00     0.031 C 
ATOM     18  C   UNL A   1      39.340  26.730  28.242  1.00  0.00     0.029 A 
ATOM     19  N   UNL A   1      41.318  27.315  29.102  1.00  0.00    -0.354 N 
ATOM     20  C   UNL A   1      41.973  31.316  30.631  1.00  0.00     0.074 A 
ATOM     21  C   UNL A   1      40.776  32.125  30.531  1.00  0.00     0.031 C 
ATOM     22  C   UNL A   1      40.141  25.660  28.161  1.00  0.00     0.029 A 
ATOM     23  C   UNL A   1      41.461  26.022  28.659  1.00  0.00     0.049 A 
ATOM     24  H   UNL A   1      42.042  27.819  29.541  1.00  0.00     0.167 HD
ATOM     25  C   UNL A   1      43.157  31.749  31.126  1.00  0.00     0.031 A 
ATOM     26  C   UNL A   1      42.544  25.224  28.613  1.00  0.00     0.031 A 
ATOM     27  C   UNL A   1      44.336  30.927  31.228  1.00  0.00     0.049 A 
ATOM     28  C   UNL A   1      43.850  25.751  29.129  1.00  0.00     0.074 A 
ATOM     29  C   UNL A   1      45.561  31.253  31.785  1.00  0.00     0.029 A 
ATOM     30  N   UNL A   1      44.448  29.631  30.747  1.00  0.00    -0.354 N 
ATOM     31  N   UNL A   1      44.104  26.912  29.684  1.00  0.00    -0.248 NA
ATOM     32  C   UNL A   1      45.017  24.867  29.010  1.00  0.00     0.031 C 
ATOM     33  C   UNL A   1      46.435  30.183  31.573  1.00  0.00     0.029 A 
ATOM     34  C   UNL A   1      45.737  29.165  30.944  1.00  0.00     0.049 A 
ATOM     35  H   UNL A   1      43.720  29.120  30.327  1.00  0.00     0.167 HD
ATOM     36  C   UNL A   1      45.459  26.896  29.984  1.00  0.00     0.074 A 
ATOM     37  C   UNL A   1      45.964  25.598  29.582  1.00  0.00     0.031 C 
ATOM     38  C   UNL A   1      46.222  27.872  30.534  1.00  0.00     0.031 A 
BRANCH  25  39
ATOM     39  C   UNL A   1      43.270  33.183  31.573  1.00  0.00    -0.014 A 
ATOM     40  C   UNL A   1      43.014  33.560  32.903  1.00  0.00     0.010 A 
ATOM     41  C   UNL A   1      43.757  34.147  30.670  1.00  0.00     0.010 A 
ATOM     42  C   UNL A   1      43.236  34.878  33.317  1.00  0.00     0.020 A 
ATOM     43  C   UNL A   1      44.001  35.459  31.085  1.00  0.00     0.020 A 
ATOM     44  C   UNL A   1      43.734  35.818  32.408  1.00  0.00     0.054 A 
BRANCH  44  45
ATOM     45  S   UNL A   1      44.077  37.500  32.994  1.00  0.00     0.124 S 
ATOM     46  O   UNL A   1      43.959  38.277  31.763  1.00  0.00    -0.237 OA
ATOM     47  O   UNL A   1      43.019  37.717  33.977  1.00  0.00    -0.237 OA
ATOM     48  O   UNL A   1      45.427  37.408  33.544  1.00  0.00    -0.744 OA
ENDBRANCH  44  45
ENDBRANCH  25  39
BRANCH  26  49
ATOM     49  C   UNL A   1      42.449  23.876  27.989  1.00  0.00    -0.014 A 
ATOM     50  C   UNL A   1      42.193  22.735  28.766  1.00  0.00     0.010 A 
ATOM     51  C   UNL A   1      42.626  23.731  26.599  1.00  0.00     0.010 A 
ATOM     52  C   UNL A   1      42.148  21.470  28.172  1.00  0.00     0.020 A 
ATOM     53  C   UNL A   1      42.547  22.476  25.995  1.00  0.00     0.020 A 
ATOM     54  C   UNL A   1      42.329  21.350  26.790  1.00  0.00     0.054 A 
BRANCH  54  55
ATOM     55  S   UNL A   1      42.256  19.702  26.036  1.00  0.00     0.124 S 
ATOM     56  O   UNL A   1      40.855  19.615  25.638  1.00  0.00    -0.237 OA
ATOM     57  O   UNL A   1      43.219  19.812  24.943  1.00  0.00    -0.237 OA
ATOM     58  O   UNL A   1      42.656  18.812  27.123  1.00  0.00    -0.744 OA
ENDBRANCH  54  55
ENDBRANCH  26  49
BRANCH  38  59
ATOM     59  C   UNL A   1      47.681  27.572  30.740  1.00  0.00    -0.014 A 
ATOM     60  C   UNL A   1      48.640  27.972  29.792  1.00  0.00     0.010 A 
ATOM     61  C   UNL A   1      48.105  26.945  31.925  1.00  0.00     0.010 A 
ATOM     62  C   UNL A   1      49.997  27.733  30.018  1.00  0.00     0.020 A 
ATOM     63  C   UNL A   1      49.463  26.731  32.168  1.00  0.00     0.020 A 
ATOM     64  C   UNL A   1      50.400  27.121  31.209  1.00  0.00     0.054 A 
BRANCH  64  65
ATOM     65  S   UNL A   1      52.174  26.888  31.508  1.00  0.00     0.124 S 
ATOM     66  O   UNL A   1      52.194  26.475  32.909  1.00  0.00    -0.237 OA
ATOM     67  O   UNL A   1      52.527  25.851  30.542  1.00  0.00    -0.237 OA
ATOM     68  O   UNL A   1      52.747  28.204  31.238  1.00  0.00    -0.744 OA
ENDBRANCH  64  65
ENDBRANCH  38  59
ENDBRANCH  12  13
ENDBRANCH   5   7
ENDBRANCH   2   3
ENDBRANCH   1   2
BRANCH   1  69
ATOM     69  C   UNL A   1      32.484  25.884  26.482  1.00  0.00     0.118 C 
BRANCH  69  70
ATOM     70  N   UNL A   1      31.383  25.103  27.030  1.00  0.00    -0.352 N 
ATOM     71  C   UNL A   1      30.726  24.028  26.486  1.00  0.00     0.255 C 
ATOM     72  H   UNL A   1      31.066  25.387  27.919  1.00  0.00     0.163 HD
ATOM     73  O   UNL A   1      29.644  23.671  26.947  1.00  0.00    -0.269 OA
BRANCH  71  74
ATOM     74  C   UNL A   1      31.306  23.304  25.340  1.00  0.00     0.082 A 
ATOM     75  C   UNL A   1      32.182  22.232  25.565  1.00  0.00     0.019 A 
ATOM     76  C   UNL A   1      30.947  23.635  24.030  1.00  0.00     0.143 A 
ATOM     77  C   UNL A   1      32.784  21.602  24.487  1.00  0.00     0.021 A 
ATOM     78  N   UNL A   1      31.538  23.004  22.980  1.00  0.00    -0.238 NA
ATOM     79  C   UNL A   1      32.443  22.031  23.222  1.00  0.00     0.113 A 
BRANCH  76  80
ATOM     80  N   UNL A   1      30.045  24.683  23.757  1.00  0.00    -0.340 N 
ATOM     81  H   UNL A   1      29.091  24.442  23.720  1.00  0.00     0.168 HD
BRANCH  80  82
ATOM     82  C   UNL A   1      30.360  26.034  23.530  1.00  0.00     0.040 A 
ATOM     83  C   UNL A   1      29.340  26.989  23.498  1.00  0.00     0.026 A 
ATOM     84  C   UNL A   1      31.675  26.445  23.280  1.00  0.00     0.039 A 
ATOM     85  C   UNL A   1      29.637  28.339  23.288  1.00  0.00     0.003 A 
ATOM     86  C   UNL A   1      31.988  27.792  23.045  1.00  0.00     0.058 A 
ATOM     87  C   UNL A   1      30.955  28.739  23.068  1.00  0.00     0.013 A 
BRANCH  86  88
ATOM     88  C   UNL A   1      33.409  28.215  22.784  1.00  0.00     0.416 C 
ATOM     89  F   UNL A   1      33.625  29.527  23.090  1.00  0.00    -0.166 F 
ATOM     90  F   UNL A   1      34.313  27.512  23.524  1.00  0.00    -0.166 F 
ATOM     91  F   UNL A   1      33.803  28.075  21.486  1.00  0.00    -0.166 F 
ENDBRANCH  86  88
ENDBRANCH  80  82
ENDBRANCH  76  80
ENDBRANCH  71  74
ENDBRANCH  69  70
ENDBRANCH   1  69
TORSDOF 16
ENDMDL
