MODEL 1
REMARK VINA RESULT:     -12.6      0.000      0.000
REMARK SMILES CCOc1ccc(C(=O)NC(=S)Nc2cccc(C(=O)NCCCNC(=O)c3ccc(-c4c5nc(c(-c6ccc(S(=O)(=O)[O-])cc6)c6ccc([nH]6)c(-c6ccc(S(=O)(=O)[O-])cc6)c6nc(c(-c7ccc(S(=O)(=O)[O-])cc7)c7ccc4[nH]7)C=C6)C=C5)cc3)c2C)cc1Br
REMARK SMILES IDX 19 1 20 2 21 3 18 5 14 6 15 7 88 8 16 9 89 10 17 11 13 12
REMARK SMILES IDX 11 14 12 15 10 16 8 17 9 18 7 20 4 21 5 22 91 23 6 24 90 25
REMARK SMILES IDX 92 26 3 27 2 28 1 29 22 30 23 31 24 32 25 33 26 34 27 36
REMARK SMILES IDX 28 37 29 38 87 39 30 40 86 41 31 42 32 43 33 44 80 45 34 46
REMARK SMILES IDX 85 47 79 48 81 49 35 50 84 51 78 52 77 53 36 55 66 56 47 57
REMARK SMILES IDX 65 58 48 59 51 60 64 61 82 62 49 63 50 64 63 66 83 67 52 68
REMARK SMILES IDX 37 69 38 70 46 71 39 72 45 73 40 74 41 75 42 76 43 77 44 78
REMARK SMILES IDX 67 79 68 80 76 81 69 82 75 83 70 84 71 85 72 86 73 87 74 88
REMARK SMILES IDX 53 89 54 90 62 91 55 92 61 93 56 94 57 95 58 96 59 97 60 98
REMARK H PARENT 21 4 13 13 10 19 25 35 81 54 51 65
REMARK Flexibility Score: inf
ROOT
ATOM      1  C   UNL A   1      37.068  22.250  24.187  1.00  0.00     0.251 C 
ATOM      2  O   UNL A   1      37.146  22.606  23.011  1.00  0.00    -0.269 OA
ATOM      3  N   UNL A   1      38.274  22.099  24.889  1.00  0.00    -0.352 N 
ATOM      4  H   UNL A   1      39.023  22.071  24.251  1.00  0.00     0.163 HD
ENDROOT
BRANCH   1   5
ATOM      5  C   UNL A   1      35.695  21.915  24.696  1.00  0.00     0.044 A 
ATOM      6  C   UNL A   1      32.617  22.421  25.391  1.00  0.00     0.044 A 
ATOM      7  C   UNL A   1      32.147  20.718  25.302  1.00  0.00     0.026 A 
ATOM      8  C   UNL A   1      34.295  23.019  24.956  1.00  0.00    -0.015 A 
ATOM      9  C   UNL A   1      33.427  19.559  24.997  1.00  0.00     0.003 A 
ATOM     10  C   UNL A   1      34.485  24.504  24.885  1.00  0.00     0.047 C 
ATOM     11  C   UNL A   1      35.335  20.197  24.794  1.00  0.00     0.014 A 
BRANCH   6  12
ATOM     12  N   UNL A   1      32.135  22.878  26.659  1.00  0.00    -0.332 N 
ATOM     13  H   UNL A   1      32.601  22.530  27.453  1.00  0.00     0.169 HD
BRANCH  12  14
ATOM     14  C   UNL A   1      31.087  23.755  26.898  1.00  0.00     0.177 C 
ATOM     15  S   UNL A   1      29.539  23.102  26.863  1.00  0.00    -0.040 S 
BRANCH  14  16
ATOM     16  N   UNL A   1      31.188  25.195  27.112  1.00  0.00    -0.299 N 
ATOM     17  C   UNL A   1      31.340  26.662  26.696  1.00  0.00     0.257 C 
ATOM     18  O   UNL A   1      31.335  27.519  27.576  1.00  0.00    -0.269 OA
ATOM     19  H   UNL A   1      31.114  25.264  28.091  1.00  0.00     0.172 HD
BRANCH  17  20
ATOM     20  C   UNL A   1      31.559  27.063  25.252  1.00  0.00     0.041 A 
ATOM     21  C   UNL A   1      30.042  29.130  22.479  1.00  0.00     0.133 A 
ATOM     22  C   UNL A   1      30.199  27.341  22.393  1.00  0.00     0.048 A 
ATOM     23  C   UNL A   1      30.601  29.925  23.972  1.00  0.00     0.060 A 
ATOM     24  C   UNL A   1      30.911  26.341  23.754  1.00  0.00     0.018 A 
ATOM     25  C   UNL A   1      31.522  28.771  25.351  1.00  0.00     0.033 A 
ATOM     26  Br  UNL A   1      29.163  31.549  24.182  1.00  0.00    -0.047 Br
BRANCH  21  27
ATOM     27  O   UNL A   1      29.811  29.975  21.406  1.00  0.00    -0.493 OA
BRANCH  27  28
ATOM     28  C   UNL A   1      28.404  30.351  21.185  1.00  0.00     0.226 C 
ATOM     29  C   UNL A   1      27.987  31.649  20.486  1.00  0.00     0.049 C 
ENDBRANCH  27  28
ENDBRANCH  21  27
ENDBRANCH  17  20
ENDBRANCH  14  16
ENDBRANCH  12  14
ENDBRANCH   6  12
ENDBRANCH   1   5
BRANCH   3  30
ATOM     30  C   UNL A   1      38.802  21.965  26.292  1.00  0.00     0.118 C 
BRANCH  30  31
ATOM     31  C   UNL A   1      39.703  23.084  26.847  1.00  0.00     0.042 C 
BRANCH  31  32
ATOM     32  C   UNL A   1      39.168  24.498  26.687  1.00  0.00     0.118 C 
BRANCH  32  33
ATOM     33  N   UNL A   1      40.243  25.422  26.343  1.00  0.00    -0.352 N 
ATOM     34  C   UNL A   1      40.497  26.676  26.878  1.00  0.00     0.251 C 
ATOM     35  H   UNL A   1      40.866  25.118  25.644  1.00  0.00     0.163 HD
ATOM     36  O   UNL A   1      40.707  27.679  26.214  1.00  0.00    -0.269 OA
BRANCH  34  37
ATOM     37  C   UNL A   1      40.632  26.713  28.347  1.00  0.00     0.039 A 
ATOM     38  C   UNL A   1      39.432  26.649  29.078  1.00  0.00     0.014 A 
ATOM     39  C   UNL A   1      41.732  27.418  28.801  1.00  0.00     0.014 A 
ATOM     40  C   UNL A   1      39.241  27.542  30.113  1.00  0.00     0.010 A 
ATOM     41  C   UNL A   1      41.460  28.459  29.633  1.00  0.00     0.010 A 
ATOM     42  C   UNL A   1      40.209  28.524  30.260  1.00  0.00    -0.014 A 
BRANCH  42  43
ATOM     43  C   UNL A   1      40.196  29.560  31.258  1.00  0.00     0.031 A 
ATOM     44  C   UNL A   1      39.395  30.718  30.784  1.00  0.00     0.074 A 
ATOM     45  C   UNL A   1      40.636  29.163  32.479  1.00  0.00     0.049 A 
ATOM     46  N   UNL A   1      39.514  31.922  31.184  1.00  0.00    -0.248 NA
ATOM     47  C   UNL A   1      38.413  30.638  29.672  1.00  0.00     0.031 C 
ATOM     48  C   UNL A   1      40.442  29.688  33.826  1.00  0.00     0.029 A 
ATOM     49  N   UNL A   1      41.614  28.177  32.684  1.00  0.00    -0.354 N 
ATOM     50  C   UNL A   1      38.315  32.535  30.857  1.00  0.00     0.074 A 
ATOM     51  C   UNL A   1      37.799  31.824  29.729  1.00  0.00     0.031 C 
ATOM     52  C   UNL A   1      41.492  29.327  34.598  1.00  0.00     0.029 A 
ATOM     53  C   UNL A   1      42.432  28.612  33.747  1.00  0.00     0.049 A 
ATOM     54  H   UNL A   1      41.710  27.338  32.179  1.00  0.00     0.167 HD
ATOM     55  C   UNL A   1      37.766  33.374  31.775  1.00  0.00     0.031 A 
ATOM     56  C   UNL A   1      43.696  29.035  33.433  1.00  0.00     0.031 A 
ATOM     57  C   UNL A   1      38.629  33.392  32.957  1.00  0.00     0.049 A 
ATOM     58  C   UNL A   1      43.768  30.556  33.442  1.00  0.00     0.074 A 
ATOM     59  C   UNL A   1      38.584  32.758  34.185  1.00  0.00     0.029 A 
ATOM     60  N   UNL A   1      39.946  33.754  32.765  1.00  0.00    -0.354 N 
ATOM     61  N   UNL A   1      42.718  31.333  33.367  1.00  0.00    -0.248 NA
ATOM     62  C   UNL A   1      45.004  31.321  33.575  1.00  0.00     0.031 C 
ATOM     63  C   UNL A   1      39.917  32.750  34.715  1.00  0.00     0.029 A 
ATOM     64  C   UNL A   1      40.760  33.344  33.792  1.00  0.00     0.049 A 
ATOM     65  H   UNL A   1      40.266  34.252  31.978  1.00  0.00     0.167 HD
ATOM     66  C   UNL A   1      43.082  32.639  33.536  1.00  0.00     0.074 A 
ATOM     67  C   UNL A   1      44.538  32.585  33.557  1.00  0.00     0.031 C 
ATOM     68  C   UNL A   1      42.177  33.659  33.680  1.00  0.00     0.031 A 
BRANCH  55  69
ATOM     69  C   UNL A   1      36.390  33.986  31.772  1.00  0.00    -0.014 A 
ATOM     70  C   UNL A   1      36.101  34.900  32.807  1.00  0.00     0.010 A 
ATOM     71  C   UNL A   1      35.371  33.775  30.821  1.00  0.00     0.010 A 
ATOM     72  C   UNL A   1      34.876  35.558  32.912  1.00  0.00     0.020 A 
ATOM     73  C   UNL A   1      34.125  34.434  30.916  1.00  0.00     0.020 A 
ATOM     74  C   UNL A   1      33.889  35.324  31.965  1.00  0.00     0.054 A 
BRANCH  74  75
ATOM     75  S   UNL A   1      32.330  36.230  32.133  1.00  0.00     0.124 S 
ATOM     76  O   UNL A   1      32.645  37.199  33.181  1.00  0.00    -0.237 OA
ATOM     77  O   UNL A   1      32.146  36.790  30.797  1.00  0.00    -0.237 OA
ATOM     78  O   UNL A   1      31.366  35.200  32.513  1.00  0.00    -0.744 OA
ENDBRANCH  74  75
ENDBRANCH  55  69
BRANCH  56  79
ATOM     79  C   UNL A   1      44.319  28.093  32.436  1.00  0.00    -0.014 A 
ATOM     80  C   UNL A   1      44.644  28.640  31.166  1.00  0.00     0.010 A 
ATOM     81  C   UNL A   1      45.014  26.948  32.860  1.00  0.00     0.010 A 
ATOM     82  C   UNL A   1      45.748  28.178  30.439  1.00  0.00     0.020 A 
ATOM     83  C   UNL A   1      46.103  26.462  32.111  1.00  0.00     0.020 A 
ATOM     84  C   UNL A   1      46.489  27.106  30.931  1.00  0.00     0.054 A 
BRANCH  84  85
ATOM     85  S   UNL A   1      48.022  26.654  30.066  1.00  0.00     0.124 S 
ATOM     86  O   UNL A   1      48.146  27.726  29.083  1.00  0.00    -0.237 OA
ATOM     87  O   UNL A   1      49.014  26.680  31.146  1.00  0.00    -0.237 OA
ATOM     88  O   UNL A   1      47.728  25.334  29.525  1.00  0.00    -0.744 OA
ENDBRANCH  84  85
ENDBRANCH  56  79
BRANCH  68  89
ATOM     89  C   UNL A   1      42.550  35.119  33.682  1.00  0.00    -0.014 A 
ATOM     90  C   UNL A   1      42.182  35.995  34.701  1.00  0.00     0.010 A 
ATOM     91  C   UNL A   1      43.260  35.677  32.586  1.00  0.00     0.010 A 
ATOM     92  C   UNL A   1      42.630  37.318  34.700  1.00  0.00     0.020 A 
ATOM     93  C   UNL A   1      43.675  37.000  32.548  1.00  0.00     0.020 A 
ATOM     94  C   UNL A   1      43.385  37.805  33.631  1.00  0.00     0.054 A 
BRANCH  94  95
ATOM     95  S   UNL A   1      43.935  39.517  33.647  1.00  0.00     0.124 S 
ATOM     96  O   UNL A   1      42.795  40.211  33.054  1.00  0.00    -0.237 OA
ATOM     97  O   UNL A   1      44.145  39.751  35.073  1.00  0.00    -0.237 OA
ATOM     98  O   UNL A   1      45.148  39.505  32.832  1.00  0.00    -0.744 OA
ENDBRANCH  94  95
ENDBRANCH  68  89
ENDBRANCH  42  43
ENDBRANCH  34  37
ENDBRANCH  32  33
ENDBRANCH  31  32
ENDBRANCH  30  31
ENDBRANCH   3  30
TORSDOF 19
ENDMDL
MODEL 2
REMARK VINA RESULT:     -11.9      2.041      3.200
REMARK SMILES CCOc1ccc(C(=O)NC(=S)Nc2cccc(C(=O)NCCCNC(=O)c3ccc(-c4c5nc(c(-c6ccc(S(=O)(=O)[O-])cc6)c6ccc([nH]6)c(-c6ccc(S(=O)(=O)[O-])cc6)c6nc(c(-c7ccc(S(=O)(=O)[O-])cc7)c7ccc4[nH]7)C=C6)C=C5)cc3)c2C)cc1Br
REMARK SMILES IDX 19 1 20 2 21 3 18 5 14 6 15 7 88 8 16 9 89 10 17 11 13 12
REMARK SMILES IDX 11 14 12 15 10 16 8 17 9 18 7 20 4 21 5 22 91 23 6 24 90 25
REMARK SMILES IDX 92 26 3 27 2 28 1 29 22 30 23 31 24 32 25 33 26 34 27 36
REMARK SMILES IDX 28 37 29 38 87 39 30 40 86 41 31 42 32 43 33 44 80 45 34 46
REMARK SMILES IDX 85 47 79 48 81 49 35 50 84 51 78 52 77 53 36 55 66 56 47 57
REMARK SMILES IDX 65 58 48 59 51 60 64 61 82 62 49 63 50 64 63 66 83 67 52 68
REMARK SMILES IDX 37 69 38 70 46 71 39 72 45 73 40 74 41 75 42 76 43 77 44 78
REMARK SMILES IDX 67 79 68 80 76 81 69 82 75 83 70 84 71 85 72 86 73 87 74 88
REMARK SMILES IDX 53 89 54 90 62 91 55 92 61 93 56 94 57 95 58 96 59 97 60 98
REMARK H PARENT 21 4 13 13 10 19 25 35 81 54 51 65
REMARK Flexibility Score: inf
ROOT
ATOM      1  C   UNL A   1      41.536  22.744  27.491  1.00  0.00     0.251 C 
ATOM      2  O   UNL A   1      41.656  22.758  28.717  1.00  0.00    -0.269 OA
ATOM      3  N   UNL A   1      42.496  23.449  26.749  1.00  0.00    -0.352 N 
ATOM      4  H   UNL A   1      42.990  24.055  27.345  1.00  0.00     0.163 HD
ENDROOT
BRANCH   1   5
ATOM      5  C   UNL A   1      40.313  22.064  26.945  1.00  0.00     0.044 A 
ATOM      6  C   UNL A   1      37.477  21.849  25.486  1.00  0.00     0.044 A 
ATOM      7  C   UNL A   1      37.683  20.166  24.978  1.00  0.00     0.026 A 
ATOM      8  C   UNL A   1      38.803  22.813  26.307  1.00  0.00    -0.015 A 
ATOM      9  C   UNL A   1      39.147  19.355  25.499  1.00  0.00     0.003 A 
ATOM     10  C   UNL A   1      38.554  24.279  26.494  1.00  0.00     0.047 C 
ATOM     11  C   UNL A   1      40.488  20.340  26.649  1.00  0.00     0.014 A 
BRANCH   6  12
ATOM     12  N   UNL A   1      36.214  21.888  26.156  1.00  0.00    -0.332 N 
ATOM     13  H   UNL A   1      36.192  21.509  27.066  1.00  0.00     0.169 HD
BRANCH  12  14
ATOM     14  C   UNL A   1      35.017  22.396  25.674  1.00  0.00     0.177 C 
ATOM     15  S   UNL A   1      34.982  24.041  25.334  1.00  0.00    -0.040 S 
BRANCH  14  16
ATOM     16  N   UNL A   1      33.768  21.661  25.495  1.00  0.00    -0.299 N 
ATOM     17  C   UNL A   1      32.259  21.502  25.283  1.00  0.00     0.257 C 
ATOM     18  O   UNL A   1      31.799  20.365  25.207  1.00  0.00    -0.269 OA
ATOM     19  H   UNL A   1      34.072  20.726  25.531  1.00  0.00     0.172 HD
BRANCH  17  20
ATOM     20  C   UNL A   1      31.330  22.697  25.231  1.00  0.00     0.041 A 
ATOM     21  C   UNL A   1      31.283  26.393  24.454  1.00  0.00     0.133 A 
ATOM     22  C   UNL A   1      30.944  25.732  26.092  1.00  0.00     0.048 A 
ATOM     23  C   UNL A   1      31.695  25.224  23.174  1.00  0.00     0.060 A 
ATOM     24  C   UNL A   1      30.996  23.940  26.468  1.00  0.00     0.018 A 
ATOM     25  C   UNL A   1      31.568  23.260  23.633  1.00  0.00     0.033 A 
ATOM     26  Br  UNL A   1      33.157  26.338  22.002  1.00  0.00    -0.047 Br
BRANCH  21  27
ATOM     27  O   UNL A   1      30.971  27.669  24.016  1.00  0.00    -0.493 OA
BRANCH  27  28
ATOM     28  C   UNL A   1      29.608  27.845  23.488  1.00  0.00     0.226 C 
ATOM     29  C   UNL A   1      29.227  28.966  22.515  1.00  0.00     0.049 C 
ENDBRANCH  27  28
ENDBRANCH  21  27
ENDBRANCH  17  20
ENDBRANCH  14  16
ENDBRANCH  12  14
ENDBRANCH   6  12
ENDBRANCH   1   5
BRANCH   3  30
ATOM     30  C   UNL A   1      43.020  23.586  25.344  1.00  0.00     0.118 C 
BRANCH  30  31
ATOM     31  C   UNL A   1      43.819  24.851  24.978  1.00  0.00     0.042 C 
BRANCH  31  32
ATOM     32  C   UNL A   1      44.065  25.825  26.119  1.00  0.00     0.118 C 
BRANCH  32  33
ATOM     33  N   UNL A   1      43.150  26.958  26.039  1.00  0.00    -0.352 N 
ATOM     34  C   UNL A   1      41.884  27.076  26.591  1.00  0.00     0.251 C 
ATOM     35  H   UNL A   1      43.472  27.736  25.530  1.00  0.00     0.163 HD
ATOM     36  O   UNL A   1      40.897  27.455  25.979  1.00  0.00    -0.269 OA
BRANCH  34  37
ATOM     37  C   UNL A   1      41.810  26.832  28.045  1.00  0.00     0.039 A 
ATOM     38  C   UNL A   1      40.520  26.653  28.575  1.00  0.00     0.014 A 
ATOM     39  C   UNL A   1      42.829  27.419  28.774  1.00  0.00     0.014 A 
ATOM     40  C   UNL A   1      40.177  27.338  29.723  1.00  0.00     0.010 A 
ATOM     41  C   UNL A   1      42.434  28.288  29.742  1.00  0.00     0.010 A 
ATOM     42  C   UNL A   1      41.106  28.256  30.188  1.00  0.00    -0.014 A 
BRANCH  42  43
ATOM     43  C   UNL A   1      40.944  29.085  31.353  1.00  0.00     0.031 A 
ATOM     44  C   UNL A   1      40.250  30.347  30.991  1.00  0.00     0.074 A 
ATOM     45  C   UNL A   1      41.169  28.445  32.528  1.00  0.00     0.049 A 
ATOM     46  N   UNL A   1      40.318  31.448  31.630  1.00  0.00    -0.248 NA
ATOM     47  C   UNL A   1      39.464  30.525  29.741  1.00  0.00     0.031 C 
ATOM     48  C   UNL A   1      40.762  28.715  33.903  1.00  0.00     0.029 A 
ATOM     49  N   UNL A   1      42.085  27.393  32.692  1.00  0.00    -0.354 N 
ATOM     50  C   UNL A   1      39.200  32.167  31.241  1.00  0.00     0.074 A 
ATOM     51  C   UNL A   1      38.868  31.706  29.928  1.00  0.00     0.031 C 
ATOM     52  C   UNL A   1      41.664  28.166  34.747  1.00  0.00     0.029 A 
ATOM     53  C   UNL A   1      42.721  27.581  33.935  1.00  0.00     0.049 A 
ATOM     54  H   UNL A   1      42.250  26.661  32.056  1.00  0.00     0.167 HD
ATOM     55  C   UNL A   1      38.519  32.843  32.204  1.00  0.00     0.031 A 
ATOM     56  C   UNL A   1      44.026  27.996  33.916  1.00  0.00     0.031 A 
ATOM     57  C   UNL A   1      39.175  32.597  33.489  1.00  0.00     0.049 A 
ATOM     58  C   UNL A   1      44.119  29.484  34.230  1.00  0.00     0.074 A 
ATOM     59  C   UNL A   1      38.917  31.746  34.548  1.00  0.00     0.029 A 
ATOM     60  N   UNL A   1      40.510  32.927  33.584  1.00  0.00    -0.354 N 
ATOM     61  N   UNL A   1      43.108  30.309  34.140  1.00  0.00    -0.248 NA
ATOM     62  C   UNL A   1      45.327  30.151  34.705  1.00  0.00     0.031 C 
ATOM     63  C   UNL A   1      40.143  31.575  35.272  1.00  0.00     0.029 A 
ATOM     64  C   UNL A   1      41.136  32.293  34.629  1.00  0.00     0.049 A 
ATOM     65  H   UNL A   1      40.965  33.549  32.969  1.00  0.00     0.167 HD
ATOM     66  C   UNL A   1      43.458  31.541  34.615  1.00  0.00     0.074 A 
ATOM     67  C   UNL A   1      44.889  31.416  34.858  1.00  0.00     0.031 C 
ATOM     68  C   UNL A   1      42.557  32.557  34.808  1.00  0.00     0.031 A 
BRANCH  55  69
ATOM     69  C   UNL A   1      37.172  33.508  32.100  1.00  0.00    -0.014 A 
ATOM     70  C   UNL A   1      36.900  34.536  33.026  1.00  0.00     0.010 A 
ATOM     71  C   UNL A   1      36.167  33.241  31.147  1.00  0.00     0.010 A 
ATOM     72  C   UNL A   1      35.703  35.251  33.029  1.00  0.00     0.020 A 
ATOM     73  C   UNL A   1      34.949  33.958  31.140  1.00  0.00     0.020 A 
ATOM     74  C   UNL A   1      34.729  34.961  32.084  1.00  0.00     0.054 A 
BRANCH  74  75
ATOM     75  S   UNL A   1      33.209  35.944  32.115  1.00  0.00     0.124 S 
ATOM     76  O   UNL A   1      32.199  34.945  32.462  1.00  0.00    -0.237 OA
ATOM     77  O   UNL A   1      33.494  36.933  33.150  1.00  0.00    -0.237 OA
ATOM     78  O   UNL A   1      33.110  36.476  30.757  1.00  0.00    -0.744 OA
ENDBRANCH  74  75
ENDBRANCH  55  69
BRANCH  56  79
ATOM     79  C   UNL A   1      44.791  27.231  32.867  1.00  0.00    -0.014 A 
ATOM     80  C   UNL A   1      45.322  27.990  31.791  1.00  0.00     0.010 A 
ATOM     81  C   UNL A   1      45.398  26.001  33.170  1.00  0.00     0.010 A 
ATOM     82  C   UNL A   1      46.523  27.627  31.170  1.00  0.00     0.020 A 
ATOM     83  C   UNL A   1      46.588  25.618  32.521  1.00  0.00     0.020 A 
ATOM     84  C   UNL A   1      47.165  26.453  31.559  1.00  0.00     0.054 A 
BRANCH  84  85
ATOM     85  S   UNL A   1      48.812  26.109  30.874  1.00  0.00     0.124 S 
ATOM     86  O   UNL A   1      49.390  25.237  31.891  1.00  0.00    -0.237 OA
ATOM     87  O   UNL A   1      48.495  25.456  29.599  1.00  0.00    -0.237 OA
ATOM     88  O   UNL A   1      49.414  27.431  30.761  1.00  0.00    -0.744 OA
ENDBRANCH  84  85
ENDBRANCH  56  79
BRANCH  68  89
ATOM     89  C   UNL A   1      42.947  33.971  35.152  1.00  0.00    -0.014 A 
ATOM     90  C   UNL A   1      42.863  34.488  36.443  1.00  0.00     0.010 A 
ATOM     91  C   UNL A   1      43.370  34.865  34.132  1.00  0.00     0.010 A 
ATOM     92  C   UNL A   1      43.323  35.777  36.726  1.00  0.00     0.020 A 
ATOM     93  C   UNL A   1      43.787  36.162  34.389  1.00  0.00     0.020 A 
ATOM     94  C   UNL A   1      43.795  36.598  35.699  1.00  0.00     0.054 A 
BRANCH  94  95
ATOM     95  S   UNL A   1      44.364  38.258  36.088  1.00  0.00     0.124 S 
ATOM     96  O   UNL A   1      43.678  38.530  37.348  1.00  0.00    -0.237 OA
ATOM     97  O   UNL A   1      45.808  38.065  36.184  1.00  0.00    -0.237 OA
ATOM     98  O   UNL A   1      43.916  39.060  34.952  1.00  0.00    -0.744 OA
ENDBRANCH  94  95
ENDBRANCH  68  89
ENDBRANCH  42  43
ENDBRANCH  34  37
ENDBRANCH  32  33
ENDBRANCH  31  32
ENDBRANCH  30  31
ENDBRANCH   3  30
TORSDOF 19
ENDMDL
MODEL 3
REMARK VINA RESULT:     -11.8      5.105      9.857
REMARK SMILES CCOc1ccc(C(=O)NC(=S)Nc2cccc(C(=O)NCCCNC(=O)c3ccc(-c4c5nc(c(-c6ccc(S(=O)(=O)[O-])cc6)c6ccc([nH]6)c(-c6ccc(S(=O)(=O)[O-])cc6)c6nc(c(-c7ccc(S(=O)(=O)[O-])cc7)c7ccc4[nH]7)C=C6)C=C5)cc3)c2C)cc1Br
REMARK SMILES IDX 19 1 20 2 21 3 18 5 14 6 15 7 88 8 16 9 89 10 17 11 13 12
REMARK SMILES IDX 11 14 12 15 10 16 8 17 9 18 7 20 4 21 5 22 91 23 6 24 90 25
REMARK SMILES IDX 92 26 3 27 2 28 1 29 22 30 23 31 24 32 25 33 26 34 27 36
REMARK SMILES IDX 28 37 29 38 87 39 30 40 86 41 31 42 32 43 33 44 80 45 34 46
REMARK SMILES IDX 85 47 79 48 81 49 35 50 84 51 78 52 77 53 36 55 66 56 47 57
REMARK SMILES IDX 65 58 48 59 51 60 64 61 82 62 49 63 50 64 63 66 83 67 52 68
REMARK SMILES IDX 37 69 38 70 46 71 39 72 45 73 40 74 41 75 42 76 43 77 44 78
REMARK SMILES IDX 67 79 68 80 76 81 69 82 75 83 70 84 71 85 72 86 73 87 74 88
REMARK SMILES IDX 53 89 54 90 62 91 55 92 61 93 56 94 57 95 58 96 59 97 60 98
REMARK H PARENT 21 4 13 13 10 19 25 35 81 54 51 65
REMARK Flexibility Score: inf
ROOT
ATOM      1  C   UNL A   1      36.705  23.282  24.781  1.00  0.00     0.251 C 
ATOM      2  O   UNL A   1      36.952  22.557  23.815  1.00  0.00    -0.269 OA
ATOM      3  N   UNL A   1      37.798  23.724  25.542  1.00  0.00    -0.352 N 
ATOM      4  H   UNL A   1      38.590  23.182  25.323  1.00  0.00     0.163 HD
ENDROOT
BRANCH   1   5
ATOM      5  C   UNL A   1      35.254  23.514  25.089  1.00  0.00     0.044 A 
ATOM      6  C   UNL A   1      32.133  23.821  24.471  1.00  0.00     0.044 A 
ATOM      7  C   UNL A   1      31.600  23.370  26.096  1.00  0.00     0.026 A 
ATOM      8  C   UNL A   1      33.886  23.751  23.939  1.00  0.00    -0.015 A 
ATOM      9  C   UNL A   1      32.852  23.062  27.284  1.00  0.00     0.003 A 
ATOM     10  C   UNL A   1      34.159  23.967  22.481  1.00  0.00     0.047 C 
ATOM     11  C   UNL A   1      34.798  23.259  26.767  1.00  0.00     0.014 A 
BRANCH   6  12
ATOM     12  N   UNL A   1      31.478  25.062  24.192  1.00  0.00    -0.332 N 
ATOM     13  H   UNL A   1      30.613  25.002  23.723  1.00  0.00     0.169 HD
BRANCH  12  14
ATOM     14  C   UNL A   1      31.919  26.339  24.504  1.00  0.00     0.177 C 
ATOM     15  S   UNL A   1      32.658  27.202  23.265  1.00  0.00    -0.040 S 
BRANCH  14  16
ATOM     16  N   UNL A   1      31.867  26.983  25.812  1.00  0.00    -0.299 N 
ATOM     17  C   UNL A   1      31.936  28.156  26.796  1.00  0.00     0.257 C 
ATOM     18  O   UNL A   1      31.754  27.925  27.989  1.00  0.00    -0.269 OA
ATOM     19  H   UNL A   1      31.676  26.224  26.408  1.00  0.00     0.172 HD
BRANCH  17  20
ATOM     20  C   UNL A   1      32.284  29.558  26.342  1.00  0.00     0.041 A 
ATOM     21  C   UNL A   1      33.250  32.959  27.672  1.00  0.00     0.133 A 
ATOM     22  C   UNL A   1      31.715  32.653  26.785  1.00  0.00     0.048 A 
ATOM     23  C   UNL A   1      34.319  31.562  27.952  1.00  0.00     0.060 A 
ATOM     24  C   UNL A   1      31.241  30.995  26.167  1.00  0.00     0.018 A 
ATOM     25  C   UNL A   1      33.800  29.807  27.095  1.00  0.00     0.033 A 
ATOM     26  Br  UNL A   1      35.147  32.016  29.917  1.00  0.00    -0.047 Br
BRANCH  21  27
ATOM     27  O   UNL A   1      33.821  34.200  27.897  1.00  0.00    -0.493 OA
BRANCH  27  28
ATOM     28  C   UNL A   1      33.164  35.026  28.924  1.00  0.00     0.226 C 
ATOM     29  C   UNL A   1      33.333  36.547  29.008  1.00  0.00     0.049 C 
ENDBRANCH  27  28
ENDBRANCH  21  27
ENDBRANCH  17  20
ENDBRANCH  14  16
ENDBRANCH  12  14
ENDBRANCH   6  12
ENDBRANCH   1   5
BRANCH   3  30
ATOM     30  C   UNL A   1      38.161  24.750  26.581  1.00  0.00     0.118 C 
BRANCH  30  31
ATOM     31  C   UNL A   1      39.532  24.641  27.274  1.00  0.00     0.042 C 
BRANCH  31  32
ATOM     32  C   UNL A   1      39.970  25.868  28.058  1.00  0.00     0.118 C 
BRANCH  32  33
ATOM     33  N   UNL A   1      38.902  26.859  28.109  1.00  0.00    -0.352 N 
ATOM     34  C   UNL A   1      38.943  28.134  28.653  1.00  0.00     0.251 C 
ATOM     35  H   UNL A   1      38.045  26.591  27.706  1.00  0.00     0.163 HD
ATOM     36  O   UNL A   1      38.104  28.584  29.419  1.00  0.00    -0.269 OA
BRANCH  34  37
ATOM     37  C   UNL A   1      40.025  28.997  28.142  1.00  0.00     0.039 A 
ATOM     38  C   UNL A   1      40.543  28.655  26.880  1.00  0.00     0.014 A 
ATOM     39  C   UNL A   1      40.809  29.572  29.127  1.00  0.00     0.014 A 
ATOM     40  C   UNL A   1      41.913  28.611  26.718  1.00  0.00     0.010 A 
ATOM     41  C   UNL A   1      42.137  29.287  29.061  1.00  0.00     0.010 A 
ATOM     42  C   UNL A   1      42.670  28.786  27.867  1.00  0.00    -0.014 A 
BRANCH  42  43
ATOM     43  C   UNL A   1      44.108  28.760  27.926  1.00  0.00     0.031 A 
ATOM     44  C   UNL A   1      44.671  29.923  27.194  1.00  0.00     0.074 A 
ATOM     45  C   UNL A   1      44.612  27.900  28.847  1.00  0.00     0.049 A 
ATOM     46  N   UNL A   1      45.839  29.992  26.685  1.00  0.00    -0.248 NA
ATOM     47  C   UNL A   1      43.887  31.137  26.847  1.00  0.00     0.031 C 
ATOM     48  C   UNL A   1      45.898  27.814  29.530  1.00  0.00     0.029 A 
ATOM     49  N   UNL A   1      43.998  26.694  29.221  1.00  0.00    -0.354 N 
ATOM     50  C   UNL A   1      46.094  31.346  26.541  1.00  0.00     0.074 A 
ATOM     51  C   UNL A   1      44.820  31.978  26.393  1.00  0.00     0.031 C 
ATOM     52  C   UNL A   1      46.126  26.530  29.885  1.00  0.00     0.029 A 
ATOM     53  C   UNL A   1      45.018  25.734  29.377  1.00  0.00     0.049 A 
ATOM     54  H   UNL A   1      43.033  26.547  29.350  1.00  0.00     0.167 HD
ATOM     55  C   UNL A   1      47.336  31.790  26.869  1.00  0.00     0.031 A 
ATOM     56  C   UNL A   1      45.116  24.761  28.418  1.00  0.00     0.031 A 
ATOM     57  C   UNL A   1      48.122  30.652  27.346  1.00  0.00     0.049 A 
ATOM     58  C   UNL A   1      46.263  25.064  27.464  1.00  0.00     0.074 A 
ATOM     59  C   UNL A   1      48.458  30.179  28.602  1.00  0.00     0.029 A 
ATOM     60  N   UNL A   1      48.254  29.579  26.489  1.00  0.00    -0.354 N 
ATOM     61  N   UNL A   1      46.807  26.247  27.335  1.00  0.00    -0.248 NA
ATOM     62  C   UNL A   1      46.912  24.070  26.615  1.00  0.00     0.031 C 
ATOM     63  C   UNL A   1      48.789  28.790  28.466  1.00  0.00     0.029 A 
ATOM     64  C   UNL A   1      48.617  28.426  27.141  1.00  0.00     0.049 A 
ATOM     65  H   UNL A   1      48.104  29.635  25.517  1.00  0.00     0.167 HD
ATOM     66  C   UNL A   1      47.894  26.182  26.512  1.00  0.00     0.074 A 
ATOM     67  C   UNL A   1      47.854  24.816  26.005  1.00  0.00     0.031 C 
ATOM     68  C   UNL A   1      48.765  27.226  26.331  1.00  0.00     0.031 A 
BRANCH  55  69
ATOM     69  C   UNL A   1      47.808  33.213  27.016  1.00  0.00    -0.014 A 
ATOM     70  C   UNL A   1      49.003  33.557  26.351  1.00  0.00     0.010 A 
ATOM     71  C   UNL A   1      47.158  34.252  27.714  1.00  0.00     0.010 A 
ATOM     72  C   UNL A   1      49.541  34.842  26.384  1.00  0.00     0.020 A 
ATOM     73  C   UNL A   1      47.694  35.559  27.756  1.00  0.00     0.020 A 
ATOM     74  C   UNL A   1      48.884  35.843  27.086  1.00  0.00     0.054 A 
BRANCH  74  75
ATOM     75  S   UNL A   1      49.611  37.501  27.065  1.00  0.00     0.124 S 
ATOM     76  O   UNL A   1      49.458  37.926  28.456  1.00  0.00    -0.237 OA
ATOM     77  O   UNL A   1      50.982  37.238  26.638  1.00  0.00    -0.237 OA
ATOM     78  O   UNL A   1      48.790  38.231  26.102  1.00  0.00    -0.744 OA
ENDBRANCH  74  75
ENDBRANCH  55  69
BRANCH  56  79
ATOM     79  C   UNL A   1      43.743  24.246  28.070  1.00  0.00    -0.014 A 
ATOM     80  C   UNL A   1      43.462  24.080  26.687  1.00  0.00     0.010 A 
ATOM     81  C   UNL A   1      43.001  23.488  28.990  1.00  0.00     0.010 A 
ATOM     82  C   UNL A   1      42.611  23.063  26.237  1.00  0.00     0.020 A 
ATOM     83  C   UNL A   1      42.118  22.488  28.538  1.00  0.00     0.020 A 
ATOM     84  C   UNL A   1      41.964  22.253  27.168  1.00  0.00     0.054 A 
BRANCH  84  85
ATOM     85  S   UNL A   1      41.022  20.826  26.554  1.00  0.00     0.124 S 
ATOM     86  O   UNL A   1      41.953  20.231  25.602  1.00  0.00    -0.237 OA
ATOM     87  O   UNL A   1      40.796  20.046  27.776  1.00  0.00    -0.237 OA
ATOM     88  O   UNL A   1      39.830  21.432  25.976  1.00  0.00    -0.744 OA
ENDBRANCH  84  85
ENDBRANCH  56  79
BRANCH  68  89
ATOM     89  C   UNL A   1      49.858  27.237  25.293  1.00  0.00    -0.014 A 
ATOM     90  C   UNL A   1      49.618  27.027  23.937  1.00  0.00     0.010 A 
ATOM     91  C   UNL A   1      51.213  27.410  25.683  1.00  0.00     0.010 A 
ATOM     92  C   UNL A   1      50.653  27.137  23.005  1.00  0.00     0.020 A 
ATOM     93  C   UNL A   1      52.258  27.478  24.775  1.00  0.00     0.020 A 
ATOM     94  C   UNL A   1      51.962  27.376  23.430  1.00  0.00     0.054 A 
BRANCH  94  95
ATOM     95  S   UNL A   1      53.277  27.497  22.211  1.00  0.00     0.124 S 
ATOM     96  O   UNL A   1      54.293  26.606  22.766  1.00  0.00    -0.237 OA
ATOM     97  O   UNL A   1      52.611  27.020  21.003  1.00  0.00    -0.237 OA
ATOM     98  O   UNL A   1      53.629  28.916  22.211  1.00  0.00    -0.744 OA
ENDBRANCH  94  95
ENDBRANCH  68  89
ENDBRANCH  42  43
ENDBRANCH  34  37
ENDBRANCH  32  33
ENDBRANCH  31  32
ENDBRANCH  30  31
ENDBRANCH   3  30
TORSDOF 19
ENDMDL
