MODEL 1
REMARK VINA RESULT:     -10.7      0.000      0.000
REMARK SMILES C[NH2+][C@]1(C(=O)NCCCNC(=O)c2ccc(-c3c4nc(c(-c5ccc(S(=O)(=O)[O-])cc5)c5ccc([nH]5)c(-c5ccc(S(=O)(=O)[O-])cc5)c5nc(c(-c6ccc(S(=O)(=O)[O-])cc6)c6ccc3[nH]6)C=C5)C=C4)cc2)CCC[C@@H]1CCn1cc(C)cn1
REMARK SMILES IDX 8 1 7 2 6 3 4 4 5 5 3 7 73 8 76 9 74 10 75 11 2 12 1 13
REMARK SMILES IDX 77 16 78 17 79 18 80 19 84 20 81 21 83 22 82 23 9 24 10 25
REMARK SMILES IDX 11 26 12 28 13 29 14 30 72 31 15 32 71 33 16 34 17 35 18 36
REMARK SMILES IDX 65 37 19 38 70 39 64 40 66 41 20 42 69 43 63 44 62 45 21 47
REMARK SMILES IDX 51 48 32 49 50 50 33 51 36 52 49 53 67 54 34 55 35 56 48 58
REMARK SMILES IDX 68 59 37 60 22 61 23 62 31 63 24 64 30 65 25 66 26 67 27 68
REMARK SMILES IDX 28 69 29 70 52 71 53 72 61 73 54 74 60 75 55 76 56 77 57 78
REMARK SMILES IDX 58 79 59 80 38 81 39 82 47 83 40 84 46 85 41 86 42 87 43 88
REMARK SMILES IDX 44 89 45 90
REMARK H PARENT 6 6 2 14 2 15 10 27 66 46 36 57
REMARK Flexibility Score: inf
ROOT
ATOM      1  C   UNL A   1      34.052  27.939  25.952  1.00  0.00     0.042 C 
ENDROOT
BRANCH   1   2
ATOM      2  C   UNL A   1      33.287  28.391  24.718  1.00  0.00     0.118 C 
BRANCH   2   3
ATOM      3  N   UNL A   1      33.563  27.549  23.562  1.00  0.00    -0.351 N 
ATOM      4  C   UNL A   1      33.082  26.345  23.151  1.00  0.00     0.281 C 
ATOM      5  O   UNL A   1      33.622  25.883  22.136  1.00  0.00    -0.268 OA
ATOM      6  H   UNL A   1      34.236  27.931  22.953  1.00  0.00     0.163 HD
BRANCH   4   7
ATOM      7  C   UNL A   1      31.934  25.559  23.901  1.00  0.00     0.178 C 
ATOM      8  C   UNL A   1      32.496  24.887  25.169  1.00  0.00     0.079 C 
ATOM      9  C   UNL A   1      30.861  26.539  24.434  1.00  0.00     0.062 C 
ATOM     10  C   UNL A   1      31.402  24.961  26.232  1.00  0.00     0.008 C 
ATOM     11  C   UNL A   1      30.310  25.895  25.708  1.00  0.00     0.011 C 
BRANCH   7  12
ATOM     12  N   UNL A   1      31.435  24.535  22.944  1.00  0.00    -0.336 N 
ATOM     13  C   UNL A   1      31.452  23.136  23.304  1.00  0.00     0.331 C 
ATOM     14  H   UNL A   1      30.465  24.773  22.738  1.00  0.00     0.346 HD
ATOM     15  H   UNL A   1      32.105  24.586  22.177  1.00  0.00     0.346 HD
ENDBRANCH   7  12
BRANCH   9  16
ATOM     16  C   UNL A   1      29.795  27.001  23.428  1.00  0.00     0.034 C 
BRANCH  16  17
ATOM     17  C   UNL A   1      30.292  28.107  22.491  1.00  0.00     0.144 C 
BRANCH  17  18
ATOM     18  N   UNL A   1      29.363  29.216  22.359  1.00  0.00    -0.272 N 
ATOM     19  C   UNL A   1      29.509  30.315  21.562  1.00  0.00     0.112 A 
ATOM     20  N   UNL A   1      28.212  29.217  23.058  1.00  0.00    -0.181 NA
ATOM     21  C   UNL A   1      28.380  31.085  21.747  1.00  0.00    -0.013 A 
ATOM     22  C   UNL A   1      27.616  30.351  22.683  1.00  0.00     0.138 A 
ATOM     23  C   UNL A   1      28.034  32.378  21.117  1.00  0.00     0.048 C 
ENDBRANCH  17  18
ENDBRANCH  16  17
ENDBRANCH   9  16
ENDBRANCH   4   7
ENDBRANCH   2   3
ENDBRANCH   1   2
BRANCH   1  24
ATOM     24  C   UNL A   1      33.392  28.334  27.264  1.00  0.00     0.118 C 
BRANCH  24  25
ATOM     25  N   UNL A   1      33.351  29.777  27.458  1.00  0.00    -0.352 N 
ATOM     26  C   UNL A   1      34.292  30.624  27.995  1.00  0.00     0.251 C 
ATOM     27  H   UNL A   1      32.521  30.213  27.159  1.00  0.00     0.163 HD
ATOM     28  O   UNL A   1      33.984  31.783  28.254  1.00  0.00    -0.269 OA
BRANCH  26  29
ATOM     29  C   UNL A   1      35.660  30.135  28.279  1.00  0.00     0.039 A 
ATOM     30  C   UNL A   1      36.627  30.201  27.273  1.00  0.00     0.014 A 
ATOM     31  C   UNL A   1      35.989  29.602  29.527  1.00  0.00     0.014 A 
ATOM     32  C   UNL A   1      37.937  29.797  27.543  1.00  0.00     0.010 A 
ATOM     33  C   UNL A   1      37.313  29.295  29.825  1.00  0.00     0.010 A 
ATOM     34  C   UNL A   1      38.301  29.377  28.834  1.00  0.00    -0.014 A 
BRANCH  34  35
ATOM     35  C   UNL A   1      39.700  29.004  29.166  1.00  0.00     0.031 A 
ATOM     36  C   UNL A   1      40.614  30.008  29.819  1.00  0.00     0.074 A 
ATOM     37  C   UNL A   1      40.169  27.788  28.821  1.00  0.00     0.049 A 
ATOM     38  N   UNL A   1      41.881  29.893  30.126  1.00  0.00    -0.248 NA
ATOM     39  C   UNL A   1      40.037  31.324  30.142  1.00  0.00     0.031 C 
ATOM     40  C   UNL A   1      39.397  26.740  28.148  1.00  0.00     0.029 A 
ATOM     41  N   UNL A   1      41.413  27.229  28.984  1.00  0.00    -0.354 N 
ATOM     42  C   UNL A   1      42.255  31.123  30.657  1.00  0.00     0.074 A 
ATOM     43  C   UNL A   1      41.099  31.986  30.579  1.00  0.00     0.031 C 
ATOM     44  C   UNL A   1      40.174  25.656  27.987  1.00  0.00     0.029 A 
ATOM     45  C   UNL A   1      41.510  25.946  28.498  1.00  0.00     0.049 A 
ATOM     46  H   UNL A   1      42.164  27.702  29.408  1.00  0.00     0.167 HD
ATOM     47  C   UNL A   1      43.447  31.495  31.180  1.00  0.00     0.031 A 
ATOM     48  C   UNL A   1      42.557  25.098  28.461  1.00  0.00     0.031 A 
ATOM     49  C   UNL A   1      44.592  30.628  31.267  1.00  0.00     0.049 A 
ATOM     50  C   UNL A   1      43.875  25.539  29.037  1.00  0.00     0.074 A 
ATOM     51  C   UNL A   1      45.827  30.889  31.835  1.00  0.00     0.029 A 
ATOM     52  N   UNL A   1      44.647  29.335  30.770  1.00  0.00    -0.354 N 
ATOM     53  N   UNL A   1      44.190  26.683  29.597  1.00  0.00    -0.248 NA
ATOM     54  C   UNL A   1      44.979  24.570  28.984  1.00  0.00     0.031 C 
ATOM     55  C   UNL A   1      46.648  29.777  31.627  1.00  0.00     0.029 A 
ATOM     56  C   UNL A   1      45.903  28.796  30.991  1.00  0.00     0.049 A 
ATOM     57  H   UNL A   1      43.903  28.869  30.324  1.00  0.00     0.167 HD
ATOM     58  C   UNL A   1      45.517  26.557  29.993  1.00  0.00     0.074 A 
ATOM     59  C   UNL A   1      45.940  25.224  29.620  1.00  0.00     0.031 C 
ATOM     60  C   UNL A   1      46.311  27.465  30.614  1.00  0.00     0.031 A 
BRANCH  47  61
ATOM     61  C   UNL A   1      43.574  32.908  31.692  1.00  0.00    -0.014 A 
ATOM     62  C   UNL A   1      44.000  33.953  30.852  1.00  0.00     0.010 A 
ATOM     63  C   UNL A   1      43.229  33.200  33.024  1.00  0.00     0.010 A 
ATOM     64  C   UNL A   1      44.123  35.254  31.348  1.00  0.00     0.020 A 
ATOM     65  C   UNL A   1      43.320  34.506  33.515  1.00  0.00     0.020 A 
ATOM     66  C   UNL A   1      43.785  35.522  32.678  1.00  0.00     0.054 A 
BRANCH  66  67
ATOM     67  S   UNL A   1      43.939  37.223  33.287  1.00  0.00     0.124 S 
ATOM     68  O   UNL A   1      45.235  37.185  33.959  1.00  0.00    -0.237 OA
ATOM     69  O   UNL A   1      43.892  38.009  32.057  1.00  0.00    -0.237 OA
ATOM     70  O   UNL A   1      42.785  37.381  34.168  1.00  0.00    -0.744 OA
ENDBRANCH  66  67
ENDBRANCH  47  61
BRANCH  48  71
ATOM     71  C   UNL A   1      42.395  23.740  27.871  1.00  0.00    -0.014 A 
ATOM     72  C   UNL A   1      42.511  23.546  26.484  1.00  0.00     0.010 A 
ATOM     73  C   UNL A   1      42.137  22.629  28.696  1.00  0.00     0.010 A 
ATOM     74  C   UNL A   1      42.353  22.273  25.929  1.00  0.00     0.020 A 
ATOM     75  C   UNL A   1      42.009  21.349  28.148  1.00  0.00     0.020 A 
ATOM     76  C   UNL A   1      42.106  21.181  26.766  1.00  0.00     0.054 A 
BRANCH  76  77
ATOM     77  S   UNL A   1      41.954  19.530  26.028  1.00  0.00     0.124 S 
ATOM     78  O   UNL A   1      42.847  19.627  24.878  1.00  0.00    -0.237 OA
ATOM     79  O   UNL A   1      42.406  18.660  27.111  1.00  0.00    -0.237 OA
ATOM     80  O   UNL A   1      40.532  19.429  25.709  1.00  0.00    -0.744 OA
ENDBRANCH  76  77
ENDBRANCH  48  71
BRANCH  60  81
ATOM     81  C   UNL A   1      47.711  27.036  30.968  1.00  0.00    -0.014 A 
ATOM     82  C   UNL A   1      47.991  26.374  32.177  1.00  0.00     0.010 A 
ATOM     83  C   UNL A   1      48.753  27.248  30.046  1.00  0.00     0.010 A 
ATOM     84  C   UNL A   1      49.295  25.964  32.470  1.00  0.00     0.020 A 
ATOM     85  C   UNL A   1      50.049  26.810  30.321  1.00  0.00     0.020 A 
ATOM     86  C   UNL A   1      50.315  26.184  31.540  1.00  0.00     0.054 A 
BRANCH  86  87
ATOM     87  S   UNL A   1      51.989  25.600  31.926  1.00  0.00     0.124 S 
ATOM     88  O   UNL A   1      51.758  24.187  32.215  1.00  0.00    -0.237 OA
ATOM     89  O   UNL A   1      52.717  25.878  30.691  1.00  0.00    -0.237 OA
ATOM     90  O   UNL A   1      52.384  26.414  33.074  1.00  0.00    -0.744 OA
ENDBRANCH  86  87
ENDBRANCH  60  81
ENDBRANCH  34  35
ENDBRANCH  26  29
ENDBRANCH  24  25
ENDBRANCH   1  24
TORSDOF 17
ENDMDL
MODEL 2
REMARK VINA RESULT:     -10.3      5.108     10.839
REMARK SMILES C[NH2+][C@]1(C(=O)NCCCNC(=O)c2ccc(-c3c4nc(c(-c5ccc(S(=O)(=O)[O-])cc5)c5ccc([nH]5)c(-c5ccc(S(=O)(=O)[O-])cc5)c5nc(c(-c6ccc(S(=O)(=O)[O-])cc6)c6ccc3[nH]6)C=C5)C=C4)cc2)CCC[C@@H]1CCn1cc(C)cn1
REMARK SMILES IDX 8 1 7 2 6 3 4 4 5 5 3 7 73 8 76 9 74 10 75 11 2 12 1 13
REMARK SMILES IDX 77 16 78 17 79 18 80 19 84 20 81 21 83 22 82 23 9 24 10 25
REMARK SMILES IDX 11 26 12 28 13 29 14 30 72 31 15 32 71 33 16 34 17 35 18 36
REMARK SMILES IDX 65 37 19 38 70 39 64 40 66 41 20 42 69 43 63 44 62 45 21 47
REMARK SMILES IDX 51 48 32 49 50 50 33 51 36 52 49 53 67 54 34 55 35 56 48 58
REMARK SMILES IDX 68 59 37 60 22 61 23 62 31 63 24 64 30 65 25 66 26 67 27 68
REMARK SMILES IDX 28 69 29 70 52 71 53 72 61 73 54 74 60 75 55 76 56 77 57 78
REMARK SMILES IDX 58 79 59 80 38 81 39 82 47 83 40 84 46 85 41 86 42 87 43 88
REMARK SMILES IDX 44 89 45 90
REMARK H PARENT 6 6 2 14 2 15 10 27 66 46 36 57
REMARK Flexibility Score: inf
ROOT
ATOM      1  C   UNL A   1      38.564  22.733  26.446  1.00  0.00     0.042 C 
ENDROOT
BRANCH   1   2
ATOM      2  C   UNL A   1      37.460  23.585  25.840  1.00  0.00     0.118 C 
BRANCH   2   3
ATOM      3  N   UNL A   1      37.327  23.371  24.405  1.00  0.00    -0.351 N 
ATOM      4  C   UNL A   1      36.255  23.259  23.576  1.00  0.00     0.281 C 
ATOM      5  O   UNL A   1      36.529  22.992  22.398  1.00  0.00    -0.268 OA
ATOM      6  H   UNL A   1      38.192  23.293  23.941  1.00  0.00     0.163 HD
BRANCH   4   7
ATOM      7  C   UNL A   1      34.758  23.432  24.053  1.00  0.00     0.178 C 
ATOM      8  C   UNL A   1      33.923  24.098  22.941  1.00  0.00     0.079 C 
ATOM      9  C   UNL A   1      34.088  22.051  24.256  1.00  0.00     0.062 C 
ATOM     10  C   UNL A   1      32.534  23.465  22.991  1.00  0.00     0.008 C 
ATOM     11  C   UNL A   1      32.608  22.257  23.926  1.00  0.00     0.011 C 
BRANCH   7  12
ATOM     12  N   UNL A   1      34.802  24.297  25.263  1.00  0.00    -0.336 N 
ATOM     13  C   UNL A   1      34.224  25.621  25.229  1.00  0.00     0.331 C 
ATOM     14  H   UNL A   1      34.324  23.787  26.006  1.00  0.00     0.346 HD
ATOM     15  H   UNL A   1      35.797  24.480  25.383  1.00  0.00     0.346 HD
ENDBRANCH   7  12
BRANCH   9  16
ATOM     16  C   UNL A   1      34.363  21.347  25.594  1.00  0.00     0.034 C 
BRANCH  16  17
ATOM     17  C   UNL A   1      33.209  20.445  26.046  1.00  0.00     0.144 C 
BRANCH  17  18
ATOM     18  N   UNL A   1      33.216  19.136  25.414  1.00  0.00    -0.272 N 
ATOM     19  C   UNL A   1      33.948  18.758  24.325  1.00  0.00     0.112 A 
ATOM     20  N   UNL A   1      32.454  18.144  25.911  1.00  0.00    -0.181 NA
ATOM     21  C   UNL A   1      33.650  17.432  24.095  1.00  0.00    -0.013 A 
ATOM     22  C   UNL A   1      32.721  17.110  25.110  1.00  0.00     0.138 A 
ATOM     23  C   UNL A   1      34.175  16.541  23.037  1.00  0.00     0.048 C 
ENDBRANCH  17  18
ENDBRANCH  16  17
ENDBRANCH   9  16
ENDBRANCH   4   7
ENDBRANCH   2   3
ENDBRANCH   1   2
BRANCH   1  24
ATOM     24  C   UNL A   1      39.709  23.540  27.037  1.00  0.00     0.118 C 
BRANCH  24  25
ATOM     25  N   UNL A   1      40.510  24.206  26.020  1.00  0.00    -0.352 N 
ATOM     26  C   UNL A   1      41.018  25.484  25.990  1.00  0.00     0.251 C 
ATOM     27  H   UNL A   1      40.721  23.657  25.231  1.00  0.00     0.163 HD
ATOM     28  O   UNL A   1      41.501  25.919  24.950  1.00  0.00    -0.269 OA
BRANCH  26  29
ATOM     29  C   UNL A   1      40.963  26.336  27.199  1.00  0.00     0.039 A 
ATOM     30  C   UNL A   1      41.869  27.392  27.329  1.00  0.00     0.014 A 
ATOM     31  C   UNL A   1      40.031  26.091  28.209  1.00  0.00     0.014 A 
ATOM     32  C   UNL A   1      41.792  28.240  28.436  1.00  0.00     0.010 A 
ATOM     33  C   UNL A   1      39.890  26.994  29.260  1.00  0.00     0.010 A 
ATOM     34  C   UNL A   1      40.776  28.071  29.393  1.00  0.00    -0.014 A 
BRANCH  34  35
ATOM     35  C   UNL A   1      40.631  28.998  30.546  1.00  0.00     0.031 A 
ATOM     36  C   UNL A   1      41.504  28.829  31.763  1.00  0.00     0.074 A 
ATOM     37  C   UNL A   1      39.673  29.945  30.527  1.00  0.00     0.049 A 
ATOM     38  N   UNL A   1      41.484  29.494  32.890  1.00  0.00    -0.248 NA
ATOM     39  C   UNL A   1      42.510  27.756  31.719  1.00  0.00     0.031 C 
ATOM     40  C   UNL A   1      38.737  30.185  29.426  1.00  0.00     0.029 A 
ATOM     41  N   UNL A   1      39.323  30.882  31.468  1.00  0.00    -0.354 N 
ATOM     42  C   UNL A   1      42.456  28.907  33.693  1.00  0.00     0.074 A 
ATOM     43  C   UNL A   1      43.008  27.799  32.946  1.00  0.00     0.031 C 
ATOM     44  C   UNL A   1      37.943  31.221  29.740  1.00  0.00     0.029 A 
ATOM     45  C   UNL A   1      38.278  31.690  31.082  1.00  0.00     0.049 A 
ATOM     46  H   UNL A   1      39.776  30.968  32.337  1.00  0.00     0.167 HD
ATOM     47  C   UNL A   1      42.866  29.268  34.931  1.00  0.00     0.031 A 
ATOM     48  C   UNL A   1      37.654  32.690  31.734  1.00  0.00     0.031 A 
ATOM     49  C   UNL A   1      42.322  30.379  35.666  1.00  0.00     0.049 A 
ATOM     50  C   UNL A   1      38.120  33.065  33.114  1.00  0.00     0.074 A 
ATOM     51  C   UNL A   1      42.711  30.865  36.902  1.00  0.00     0.029 A 
ATOM     52  N   UNL A   1      41.271  31.175  35.236  1.00  0.00    -0.354 N 
ATOM     53  N   UNL A   1      39.087  32.542  33.829  1.00  0.00    -0.248 NA
ATOM     54  C   UNL A   1      37.415  34.173  33.773  1.00  0.00     0.031 C 
ATOM     55  C   UNL A   1      41.855  31.916  37.247  1.00  0.00     0.029 A 
ATOM     56  C   UNL A   1      40.978  32.130  36.195  1.00  0.00     0.049 A 
ATOM     57  H   UNL A   1      40.802  31.075  34.377  1.00  0.00     0.167 HD
ATOM     58  C   UNL A   1      39.128  33.279  35.007  1.00  0.00     0.074 A 
ATOM     59  C   UNL A   1      38.098  34.292  34.903  1.00  0.00     0.031 C 
ATOM     60  C   UNL A   1      39.948  33.132  36.077  1.00  0.00     0.031 A 
BRANCH  47  61
ATOM     61  C   UNL A   1      43.954  28.445  35.574  1.00  0.00    -0.014 A 
ATOM     62  C   UNL A   1      43.655  27.269  36.287  1.00  0.00     0.010 A 
ATOM     63  C   UNL A   1      45.298  28.834  35.434  1.00  0.00     0.010 A 
ATOM     64  C   UNL A   1      44.675  26.525  36.886  1.00  0.00     0.020 A 
ATOM     65  C   UNL A   1      46.325  28.075  36.004  1.00  0.00     0.020 A 
ATOM     66  C   UNL A   1      46.004  26.935  36.744  1.00  0.00     0.054 A 
BRANCH  66  67
ATOM     67  S   UNL A   1      47.307  25.939  37.518  1.00  0.00     0.124 S 
ATOM     68  O   UNL A   1      48.482  26.327  36.741  1.00  0.00    -0.237 OA
ATOM     69  O   UNL A   1      47.286  26.405  38.902  1.00  0.00    -0.237 OA
ATOM     70  O   UNL A   1      46.857  24.564  37.319  1.00  0.00    -0.744 OA
ENDBRANCH  66  67
ENDBRANCH  47  61
BRANCH  48  71
ATOM     71  C   UNL A   1      36.532  33.420  31.080  1.00  0.00    -0.014 A 
ATOM     72  C   UNL A   1      36.680  33.946  29.785  1.00  0.00     0.010 A 
ATOM     73  C   UNL A   1      35.302  33.581  31.744  1.00  0.00     0.010 A 
ATOM     74  C   UNL A   1      35.630  34.636  29.174  1.00  0.00     0.020 A 
ATOM     75  C   UNL A   1      34.238  34.243  31.124  1.00  0.00     0.020 A 
ATOM     76  C   UNL A   1      34.413  34.776  29.846  1.00  0.00     0.054 A 
BRANCH  76  77
ATOM     77  S   UNL A   1      33.047  35.632  29.013  1.00  0.00     0.124 S 
ATOM     78  O   UNL A   1      33.748  36.673  28.269  1.00  0.00    -0.237 OA
ATOM     79  O   UNL A   1      32.454  34.567  28.209  1.00  0.00    -0.237 OA
ATOM     80  O   UNL A   1      32.215  36.104  30.118  1.00  0.00    -0.744 OA
ENDBRANCH  76  77
ENDBRANCH  48  71
BRANCH  60  81
ATOM     81  C   UNL A   1      39.796  34.115  37.210  1.00  0.00    -0.014 A 
ATOM     82  C   UNL A   1      40.213  35.451  37.082  1.00  0.00     0.010 A 
ATOM     83  C   UNL A   1      39.169  33.704  38.401  1.00  0.00     0.010 A 
ATOM     84  C   UNL A   1      40.037  36.349  38.139  1.00  0.00     0.020 A 
ATOM     85  C   UNL A   1      38.962  34.606  39.446  1.00  0.00     0.020 A 
ATOM     86  C   UNL A   1      39.412  35.921  39.314  1.00  0.00     0.054 A 
BRANCH  86  87
ATOM     87  S   UNL A   1      39.154  37.118  40.652  1.00  0.00     0.124 S 
ATOM     88  O   UNL A   1      38.174  36.431  41.489  1.00  0.00    -0.237 OA
ATOM     89  O   UNL A   1      40.490  37.248  41.226  1.00  0.00    -0.237 OA
ATOM     90  O   UNL A   1      38.659  38.308  39.963  1.00  0.00    -0.744 OA
ENDBRANCH  86  87
ENDBRANCH  60  81
ENDBRANCH  34  35
ENDBRANCH  26  29
ENDBRANCH  24  25
ENDBRANCH   1  24
TORSDOF 17
ENDMDL
MODEL 3
REMARK VINA RESULT:     -10.3      2.509      8.855
REMARK SMILES C[NH2+][C@]1(C(=O)NCCCNC(=O)c2ccc(-c3c4nc(c(-c5ccc(S(=O)(=O)[O-])cc5)c5ccc([nH]5)c(-c5ccc(S(=O)(=O)[O-])cc5)c5nc(c(-c6ccc(S(=O)(=O)[O-])cc6)c6ccc3[nH]6)C=C5)C=C4)cc2)CCC[C@@H]1CCn1cc(C)cn1
REMARK SMILES IDX 8 1 7 2 6 3 4 4 5 5 3 7 73 8 76 9 74 10 75 11 2 12 1 13
REMARK SMILES IDX 77 16 78 17 79 18 80 19 84 20 81 21 83 22 82 23 9 24 10 25
REMARK SMILES IDX 11 26 12 28 13 29 14 30 72 31 15 32 71 33 16 34 17 35 18 36
REMARK SMILES IDX 65 37 19 38 70 39 64 40 66 41 20 42 69 43 63 44 62 45 21 47
REMARK SMILES IDX 51 48 32 49 50 50 33 51 36 52 49 53 67 54 34 55 35 56 48 58
REMARK SMILES IDX 68 59 37 60 22 61 23 62 31 63 24 64 30 65 25 66 26 67 27 68
REMARK SMILES IDX 28 69 29 70 52 71 53 72 61 73 54 74 60 75 55 76 56 77 57 78
REMARK SMILES IDX 58 79 59 80 38 81 39 82 47 83 40 84 46 85 41 86 42 87 43 88
REMARK SMILES IDX 44 89 45 90
REMARK H PARENT 6 6 2 14 2 15 10 27 66 46 36 57
REMARK Flexibility Score: inf
ROOT
ATOM      1  C   UNL A   1      35.065  23.857  26.044  1.00  0.00     0.042 C 
ENDROOT
BRANCH   1   2
ATOM      2  C   UNL A   1      34.035  23.616  24.953  1.00  0.00     0.118 C 
BRANCH   2   3
ATOM      3  N   UNL A   1      34.134  24.595  23.878  1.00  0.00    -0.351 N 
ATOM      4  C   UNL A   1      33.418  25.708  23.564  1.00  0.00     0.281 C 
ATOM      5  O   UNL A   1      33.746  26.260  22.505  1.00  0.00    -0.268 OA
ATOM      6  H   UNL A   1      34.872  24.413  23.252  1.00  0.00     0.163 HD
BRANCH   4   7
ATOM      7  C   UNL A   1      32.238  26.269  24.452  1.00  0.00     0.178 C 
ATOM      8  C   UNL A   1      32.719  26.474  25.902  1.00  0.00     0.079 C 
ATOM      9  C   UNL A   1      31.830  27.687  23.983  1.00  0.00     0.062 C 
ATOM     10  C   UNL A   1      32.021  27.727  26.428  1.00  0.00     0.008 C 
ATOM     11  C   UNL A   1      31.348  28.415  25.240  1.00  0.00     0.011 C 
BRANCH   7  12
ATOM     12  N   UNL A   1      31.155  25.250  24.399  1.00  0.00    -0.336 N 
ATOM     13  C   UNL A   1      30.695  24.618  25.615  1.00  0.00     0.331 C 
ATOM     14  H   UNL A   1      30.344  25.705  23.980  1.00  0.00     0.346 HD
ATOM     15  H   UNL A   1      31.582  24.481  23.885  1.00  0.00     0.346 HD
ENDBRANCH   7  12
BRANCH   9  16
ATOM     16  C   UNL A   1      30.873  27.762  22.783  1.00  0.00     0.034 C 
BRANCH  16  17
ATOM     17  C   UNL A   1      29.459  28.208  23.169  1.00  0.00     0.144 C 
BRANCH  17  18
ATOM     18  N   UNL A   1      29.132  29.550  22.717  1.00  0.00    -0.272 N 
ATOM     19  C   UNL A   1      29.220  30.702  23.445  1.00  0.00     0.112 A 
ATOM     20  N   UNL A   1      28.703  29.751  21.457  1.00  0.00    -0.181 NA
ATOM     21  C   UNL A   1      28.827  31.725  22.608  1.00  0.00    -0.013 A 
ATOM     22  C   UNL A   1      28.521  31.072  21.392  1.00  0.00     0.138 A 
ATOM     23  C   UNL A   1      28.744  33.172  22.900  1.00  0.00     0.048 C 
ENDBRANCH  17  18
ENDBRANCH  16  17
ENDBRANCH   9  16
ENDBRANCH   4   7
ENDBRANCH   2   3
ENDBRANCH   1   2
BRANCH   1  24
ATOM     24  C   UNL A   1      36.453  24.189  25.518  1.00  0.00     0.118 C 
BRANCH  24  25
ATOM     25  N   UNL A   1      37.384  23.076  25.650  1.00  0.00    -0.352 N 
ATOM     26  C   UNL A   1      38.669  23.051  26.138  1.00  0.00     0.251 C 
ATOM     27  H   UNL A   1      37.039  22.207  25.342  1.00  0.00     0.163 HD
ATOM     28  O   UNL A   1      39.357  22.048  25.979  1.00  0.00    -0.269 OA
BRANCH  26  29
ATOM     29  C   UNL A   1      39.225  24.234  26.832  1.00  0.00     0.039 A 
ATOM     30  C   UNL A   1      40.018  25.133  26.114  1.00  0.00     0.014 A 
ATOM     31  C   UNL A   1      38.978  24.455  28.189  1.00  0.00     0.014 A 
ATOM     32  C   UNL A   1      40.502  26.285  26.741  1.00  0.00     0.010 A 
ATOM     33  C   UNL A   1      39.376  25.648  28.784  1.00  0.00     0.010 A 
ATOM     34  C   UNL A   1      40.153  26.572  28.071  1.00  0.00    -0.014 A 
BRANCH  34  35
ATOM     35  C   UNL A   1      40.600  27.821  28.741  1.00  0.00     0.031 A 
ATOM     36  C   UNL A   1      41.982  27.903  29.337  1.00  0.00     0.074 A 
ATOM     37  C   UNL A   1      39.744  28.853  28.873  1.00  0.00     0.049 A 
ATOM     38  N   UNL A   1      42.530  28.879  30.016  1.00  0.00    -0.248 NA
ATOM     39  C   UNL A   1      42.850  26.725  29.176  1.00  0.00     0.031 C 
ATOM     40  C   UNL A   1      38.367  28.883  28.375  1.00  0.00     0.029 A 
ATOM     41  N   UNL A   1      39.906  30.079  29.471  1.00  0.00    -0.354 N 
ATOM     42  C   UNL A   1      43.793  28.425  30.377  1.00  0.00     0.074 A 
ATOM     43  C   UNL A   1      43.910  27.069  29.892  1.00  0.00     0.031 C 
ATOM     44  C   UNL A   1      37.821  30.077  28.660  1.00  0.00     0.029 A 
ATOM     45  C   UNL A   1      38.790  30.880  29.401  1.00  0.00     0.049 A 
ATOM     46  H   UNL A   1      40.741  30.357  29.910  1.00  0.00     0.167 HD
ATOM     47  C   UNL A   1      44.776  29.084  31.036  1.00  0.00     0.031 A 
ATOM     48  C   UNL A   1      38.566  32.118  29.884  1.00  0.00     0.031 A 
ATOM     49  C   UNL A   1      44.660  30.439  31.506  1.00  0.00     0.049 A 
ATOM     50  C   UNL A   1      39.669  32.825  30.624  1.00  0.00     0.074 A 
ATOM     51  C   UNL A   1      45.619  31.217  32.131  1.00  0.00     0.029 A 
ATOM     52  N   UNL A   1      43.516  31.217  31.409  1.00  0.00    -0.354 N 
ATOM     53  N   UNL A   1      40.881  32.404  30.896  1.00  0.00    -0.248 NA
ATOM     54  C   UNL A   1      39.376  34.178  31.114  1.00  0.00     0.031 C 
ATOM     55  C   UNL A   1      45.037  32.443  32.466  1.00  0.00     0.029 A 
ATOM     56  C   UNL A   1      43.736  32.455  31.987  1.00  0.00     0.049 A 
ATOM     57  H   UNL A   1      42.672  30.929  30.991  1.00  0.00     0.167 HD
ATOM     58  C   UNL A   1      41.506  33.454  31.559  1.00  0.00     0.074 A 
ATOM     59  C   UNL A   1      40.542  34.532  31.636  1.00  0.00     0.031 C 
ATOM     60  C   UNL A   1      42.765  33.520  32.057  1.00  0.00     0.031 A 
BRANCH  47  61
ATOM     61  C   UNL A   1      46.062  28.341  31.295  1.00  0.00    -0.014 A 
ATOM     62  C   UNL A   1      46.217  27.521  32.429  1.00  0.00     0.010 A 
ATOM     63  C   UNL A   1      47.120  28.435  30.373  1.00  0.00     0.010 A 
ATOM     64  C   UNL A   1      47.421  26.850  32.658  1.00  0.00     0.020 A 
ATOM     65  C   UNL A   1      48.315  27.740  30.582  1.00  0.00     0.020 A 
ATOM     66  C   UNL A   1      48.464  26.965  31.734  1.00  0.00     0.054 A 
BRANCH  66  67
ATOM     67  S   UNL A   1      50.007  26.068  32.051  1.00  0.00     0.124 S 
ATOM     68  O   UNL A   1      49.923  25.824  33.489  1.00  0.00    -0.237 OA
ATOM     69  O   UNL A   1      49.870  24.886  31.205  1.00  0.00    -0.237 OA
ATOM     70  O   UNL A   1      51.046  27.009  31.640  1.00  0.00    -0.744 OA
ENDBRANCH  66  67
ENDBRANCH  47  61
BRANCH  48  71
ATOM     71  C   UNL A   1      37.247  32.775  29.666  1.00  0.00    -0.014 A 
ATOM     72  C   UNL A   1      36.254  32.730  30.660  1.00  0.00     0.010 A 
ATOM     73  C   UNL A   1      36.980  33.461  28.466  1.00  0.00     0.010 A 
ATOM     74  C   UNL A   1      35.014  33.340  30.454  1.00  0.00     0.020 A 
ATOM     75  C   UNL A   1      35.752  34.100  28.268  1.00  0.00     0.020 A 
ATOM     76  C   UNL A   1      34.772  34.025  29.260  1.00  0.00     0.054 A 
BRANCH  76  77
ATOM     77  S   UNL A   1      33.173  34.853  29.035  1.00  0.00     0.124 S 
ATOM     78  O   UNL A   1      33.578  36.184  28.597  1.00  0.00    -0.237 OA
ATOM     79  O   UNL A   1      32.528  34.020  28.023  1.00  0.00    -0.237 OA
ATOM     80  O   UNL A   1      32.565  34.788  30.362  1.00  0.00    -0.744 OA
ENDBRANCH  76  77
ENDBRANCH  48  71
BRANCH  60  81
ATOM     81  C   UNL A   1      43.194  34.816  32.695  1.00  0.00    -0.014 A 
ATOM     82  C   UNL A   1      43.631  35.905  31.920  1.00  0.00     0.010 A 
ATOM     83  C   UNL A   1      43.100  34.963  34.091  1.00  0.00     0.010 A 
ATOM     84  C   UNL A   1      43.999  37.105  32.535  1.00  0.00     0.020 A 
ATOM     85  C   UNL A   1      43.435  36.170  34.706  1.00  0.00     0.020 A 
ATOM     86  C   UNL A   1      43.898  37.230  33.924  1.00  0.00     0.054 A 
BRANCH  86  87
ATOM     87  S   UNL A   1      44.338  38.814  34.692  1.00  0.00     0.124 S 
ATOM     88  O   UNL A   1      43.425  39.738  34.025  1.00  0.00    -0.237 OA
ATOM     89  O   UNL A   1      44.064  38.570  36.106  1.00  0.00    -0.237 OA
ATOM     90  O   UNL A   1      45.750  38.982  34.356  1.00  0.00    -0.744 OA
ENDBRANCH  86  87
ENDBRANCH  60  81
ENDBRANCH  34  35
ENDBRANCH  26  29
ENDBRANCH  24  25
ENDBRANCH   1  24
TORSDOF 17
ENDMDL
