MODEL 1
REMARK VINA RESULT:     -10.0      0.000      0.000
REMARK SMILES CC(C)C[C@H](CNc1cccc(F)c1C#N)CC(=O)NCCCNC(=O)c1ccc(-c2c3nc(c(-c4ccc(S(=O)(=O)[O-])cc4)c4ccc([nH]4)c(-c4ccc(S(=O)(=O)[O-])cc4)c4nc(c(-c5ccc(S(=O)(=O)[O-])cc5)c5ccc2[nH]5)C=C4)C=C3)cc1
REMARK SMILES IDX 21 1 20 2 18 3 19 4 17 6 5 7 4 8 2 9 1 10 3 11 6 12 7 13
REMARK SMILES IDX 8 15 9 16 14 17 10 18 12 19 11 20 13 21 15 22 16 23 22 24
REMARK SMILES IDX 23 25 24 26 25 27 26 29 27 30 28 31 86 32 29 33 85 34 30 35
REMARK SMILES IDX 31 36 32 37 79 38 33 39 84 40 78 41 80 42 34 43 83 44 77 45
REMARK SMILES IDX 76 46 35 48 65 49 46 50 64 51 47 52 50 53 63 54 81 55 48 56
REMARK SMILES IDX 49 57 62 59 82 60 51 61 36 62 37 63 45 64 38 65 44 66 39 67
REMARK SMILES IDX 40 68 41 69 42 70 43 71 66 72 67 73 75 74 68 75 74 76 69 77
REMARK SMILES IDX 70 78 71 79 72 80 73 81 52 82 53 83 61 84 54 85 60 86 55 87
REMARK SMILES IDX 56 88 57 89 58 90 59 91
REMARK H PARENT 20 5 7 14 24 28 80 47 50 58
REMARK Flexibility Score: inf
ROOT
ATOM      1  C   UNL A   1      31.760  27.784  26.196  1.00  0.00     0.117 C 
ENDROOT
BRANCH   1   2
ATOM      2  N   UNL A   1      30.958  26.661  26.652  1.00  0.00    -0.356 N 
ATOM      3  C   UNL A   1      30.463  25.581  25.993  1.00  0.00     0.220 C 
ATOM      4  O   UNL A   1      29.768  24.791  26.637  1.00  0.00    -0.275 OA
ATOM      5  H   UNL A   1      30.733  26.688  27.611  1.00  0.00     0.163 HD
BRANCH   3   6
ATOM      6  C   UNL A   1      30.786  25.296  24.532  1.00  0.00     0.105 C 
BRANCH   6   7
ATOM      7  C   UNL A   1      32.005  24.381  24.281  1.00  0.00     0.018 C 
BRANCH   7   8
ATOM      8  C   UNL A   1      33.085  25.000  23.350  1.00  0.00     0.009 C 
BRANCH   8   9
ATOM      9  C   UNL A   1      32.665  26.189  22.458  1.00  0.00    -0.017 C 
ATOM     10  C   UNL A   1      33.606  27.380  22.646  1.00  0.00     0.007 C 
ATOM     11  C   UNL A   1      32.656  25.772  20.982  1.00  0.00     0.007 C 
ENDBRANCH   8   9
ENDBRANCH   7   8
BRANCH   7  12
ATOM     12  C   UNL A   1      31.688  22.950  23.802  1.00  0.00     0.117 C 
BRANCH  12  13
ATOM     13  N   UNL A   1      31.937  21.956  24.829  1.00  0.00    -0.384 N 
ATOM     14  H   UNL A   1      31.393  22.014  25.648  1.00  0.00     0.160 HD
BRANCH  13  15
ATOM     15  C   UNL A   1      32.869  20.935  24.765  1.00  0.00     0.055 A 
ATOM     16  C   UNL A   1      32.365  19.684  24.349  1.00  0.00     0.027 A 
ATOM     17  C   UNL A   1      34.250  21.035  25.013  1.00  0.00     0.111 A 
ATOM     18  C   UNL A   1      33.187  18.572  24.177  1.00  0.00     0.005 A 
ATOM     19  C   UNL A   1      35.062  19.906  24.856  1.00  0.00     0.143 A 
ATOM     20  C   UNL A   1      34.545  18.685  24.434  1.00  0.00     0.041 A 
ATOM     21  F   UNL A   1      36.373  19.975  25.125  1.00  0.00    -0.205 F 
BRANCH  17  22
ATOM     22  C   UNL A   1      34.871  22.230  25.495  1.00  0.00     0.104 C 
ATOM     23  N   UNL A   1      35.344  23.222  25.878  1.00  0.00    -0.192 NA
ENDBRANCH  17  22
ENDBRANCH  13  15
ENDBRANCH  12  13
ENDBRANCH   7  12
ENDBRANCH   6   7
ENDBRANCH   3   6
ENDBRANCH   1   2
BRANCH   1  24
ATOM     24  C   UNL A   1      33.228  27.601  26.567  1.00  0.00     0.042 C 
BRANCH  24  25
ATOM     25  C   UNL A   1      34.162  28.697  26.089  1.00  0.00     0.118 C 
BRANCH  25  26
ATOM     26  N   UNL A   1      33.915  29.959  26.762  1.00  0.00    -0.352 N 
ATOM     27  C   UNL A   1      34.617  30.573  27.774  1.00  0.00     0.251 C 
ATOM     28  H   UNL A   1      33.124  30.453  26.446  1.00  0.00     0.163 HD
ATOM     29  O   UNL A   1      34.086  31.506  28.374  1.00  0.00    -0.269 OA
BRANCH  27  30
ATOM     30  C   UNL A   1      35.983  30.129  28.155  1.00  0.00     0.039 A 
ATOM     31  C   UNL A   1      36.989  30.139  27.182  1.00  0.00     0.014 A 
ATOM     32  C   UNL A   1      36.280  29.651  29.434  1.00  0.00     0.014 A 
ATOM     33  C   UNL A   1      38.283  29.714  27.504  1.00  0.00     0.010 A 
ATOM     34  C   UNL A   1      37.592  29.339  29.785  1.00  0.00     0.010 A 
ATOM     35  C   UNL A   1      38.606  29.340  28.818  1.00  0.00    -0.014 A 
BRANCH  35  36
ATOM     36  C   UNL A   1      39.986  28.925  29.188  1.00  0.00     0.031 A 
ATOM     37  C   UNL A   1      40.909  29.889  29.894  1.00  0.00     0.074 A 
ATOM     38  C   UNL A   1      40.427  27.696  28.852  1.00  0.00     0.049 A 
ATOM     39  N   UNL A   1      42.150  29.715  30.271  1.00  0.00    -0.248 NA
ATOM     40  C   UNL A   1      40.377  31.229  30.194  1.00  0.00     0.031 C 
ATOM     41  C   UNL A   1      39.649  26.688  28.128  1.00  0.00     0.029 A 
ATOM     42  N   UNL A   1      41.637  27.084  29.072  1.00  0.00    -0.354 N 
ATOM     43  C   UNL A   1      42.551  30.925  30.831  1.00  0.00     0.074 A 
ATOM     44  C   UNL A   1      41.440  31.840  30.694  1.00  0.00     0.031 C 
ATOM     45  C   UNL A   1      40.385  25.573  27.999  1.00  0.00     0.029 A 
ATOM     46  C   UNL A   1      41.705  25.803  28.577  1.00  0.00     0.049 A 
ATOM     47  H   UNL A   1      42.384  27.521  29.542  1.00  0.00     0.167 HD
ATOM     48  C   UNL A   1      43.727  31.241  31.421  1.00  0.00     0.031 A 
ATOM     49  C   UNL A   1      42.720  24.916  28.570  1.00  0.00     0.031 A 
ATOM     50  C   UNL A   1      44.830  30.324  31.555  1.00  0.00     0.049 A 
ATOM     51  C   UNL A   1      44.027  25.297  29.212  1.00  0.00     0.074 A 
ATOM     52  C   UNL A   1      46.043  30.527  32.188  1.00  0.00     0.029 A 
ATOM     53  N   UNL A   1      44.859  29.037  31.037  1.00  0.00    -0.354 N 
ATOM     54  N   UNL A   1      44.357  26.419  29.806  1.00  0.00    -0.248 NA
ATOM     55  C   UNL A   1      45.094  24.288  29.193  1.00  0.00     0.031 C 
ATOM     56  C   UNL A   1      46.836  29.392  31.985  1.00  0.00     0.029 A 
ATOM     57  C   UNL A   1      46.085  28.449  31.302  1.00  0.00     0.049 A 
ATOM     58  H   UNL A   1      44.118  28.606  30.552  1.00  0.00     0.167 HD
ATOM     59  C   UNL A   1      45.662  26.240  30.257  1.00  0.00     0.074 A 
ATOM     60  C   UNL A   1      46.050  24.895  29.883  1.00  0.00     0.031 C 
ATOM     61  C   UNL A   1      46.462  27.110  30.920  1.00  0.00     0.031 A 
BRANCH  48  62
ATOM     62  C   UNL A   1      43.897  32.645  31.950  1.00  0.00    -0.014 A 
ATOM     63  C   UNL A   1      44.411  33.678  31.144  1.00  0.00     0.010 A 
ATOM     64  C   UNL A   1      43.492  32.948  33.264  1.00  0.00     0.010 A 
ATOM     65  C   UNL A   1      44.559  34.971  31.655  1.00  0.00     0.020 A 
ATOM     66  C   UNL A   1      43.603  34.247  33.766  1.00  0.00     0.020 A 
ATOM     67  C   UNL A   1      44.152  35.247  32.963  1.00  0.00     0.054 A 
BRANCH  67  68
ATOM     68  S   UNL A   1      44.332  36.941  33.588  1.00  0.00     0.124 S 
ATOM     69  O   UNL A   1      43.818  36.817  34.949  1.00  0.00    -0.237 OA
ATOM     70  O   UNL A   1      45.770  37.169  33.478  1.00  0.00    -0.237 OA
ATOM     71  O   UNL A   1      43.507  37.736  32.681  1.00  0.00    -0.744 OA
ENDBRANCH  67  68
ENDBRANCH  48  62
BRANCH  49  72
ATOM     72  C   UNL A   1      42.537  23.583  27.928  1.00  0.00    -0.014 A 
ATOM     73  C   UNL A   1      42.791  23.398  26.557  1.00  0.00     0.010 A 
ATOM     74  C   UNL A   1      42.122  22.479  28.696  1.00  0.00     0.010 A 
ATOM     75  C   UNL A   1      42.616  22.143  25.965  1.00  0.00     0.020 A 
ATOM     76  C   UNL A   1      41.981  21.215  28.117  1.00  0.00     0.020 A 
ATOM     77  C   UNL A   1      42.219  21.057  26.751  1.00  0.00     0.054 A 
BRANCH  77  78
ATOM     78  S   UNL A   1      42.053  19.428  25.971  1.00  0.00     0.124 S 
ATOM     79  O   UNL A   1      42.516  18.534  27.028  1.00  0.00    -0.237 OA
ATOM     80  O   UNL A   1      40.624  19.367  25.673  1.00  0.00    -0.237 OA
ATOM     81  O   UNL A   1      42.923  19.516  24.801  1.00  0.00    -0.744 OA
ENDBRANCH  77  78
ENDBRANCH  49  72
BRANCH  61  82
ATOM     82  C   UNL A   1      47.832  26.626  31.325  1.00  0.00    -0.014 A 
ATOM     83  C   UNL A   1      48.079  26.101  32.606  1.00  0.00     0.010 A 
ATOM     84  C   UNL A   1      48.877  26.648  30.383  1.00  0.00     0.010 A 
ATOM     85  C   UNL A   1      49.354  25.641  32.948  1.00  0.00     0.020 A 
ATOM     86  C   UNL A   1      50.142  26.154  30.708  1.00  0.00     0.020 A 
ATOM     87  C   UNL A   1      50.376  25.668  31.995  1.00  0.00     0.054 A 
BRANCH  87  88
ATOM     88  S   UNL A   1      52.010  25.024  32.450  1.00  0.00     0.124 S 
ATOM     89  O   UNL A   1      52.209  25.605  33.775  1.00  0.00    -0.237 OA
ATOM     90  O   UNL A   1      51.800  23.578  32.424  1.00  0.00    -0.237 OA
ATOM     91  O   UNL A   1      52.891  25.538  31.405  1.00  0.00    -0.744 OA
ENDBRANCH  87  88
ENDBRANCH  61  82
ENDBRANCH  35  36
ENDBRANCH  27  30
ENDBRANCH  25  26
ENDBRANCH  24  25
ENDBRANCH   1  24
TORSDOF 20
ENDMDL
MODEL 2
REMARK VINA RESULT:     -10.0      4.375     10.248
REMARK SMILES CC(C)C[C@H](CNc1cccc(F)c1C#N)CC(=O)NCCCNC(=O)c1ccc(-c2c3nc(c(-c4ccc(S(=O)(=O)[O-])cc4)c4ccc([nH]4)c(-c4ccc(S(=O)(=O)[O-])cc4)c4nc(c(-c5ccc(S(=O)(=O)[O-])cc5)c5ccc2[nH]5)C=C4)C=C3)cc1
REMARK SMILES IDX 21 1 20 2 18 3 19 4 17 6 5 7 4 8 2 9 1 10 3 11 6 12 7 13
REMARK SMILES IDX 8 15 9 16 14 17 10 18 12 19 11 20 13 21 15 22 16 23 22 24
REMARK SMILES IDX 23 25 24 26 25 27 26 29 27 30 28 31 86 32 29 33 85 34 30 35
REMARK SMILES IDX 31 36 32 37 79 38 33 39 84 40 78 41 80 42 34 43 83 44 77 45
REMARK SMILES IDX 76 46 35 48 65 49 46 50 64 51 47 52 50 53 63 54 81 55 48 56
REMARK SMILES IDX 49 57 62 59 82 60 51 61 36 62 37 63 45 64 38 65 44 66 39 67
REMARK SMILES IDX 40 68 41 69 42 70 43 71 66 72 67 73 75 74 68 75 74 76 69 77
REMARK SMILES IDX 70 78 71 79 72 80 73 81 52 82 53 83 61 84 54 85 60 86 55 87
REMARK SMILES IDX 56 88 57 89 58 90 59 91
REMARK H PARENT 20 5 7 14 24 28 80 47 50 58
REMARK Flexibility Score: inf
ROOT
ATOM      1  C   UNL A   1      37.715  22.257  25.410  1.00  0.00     0.117 C 
ENDROOT
BRANCH   1   2
ATOM      2  N   UNL A   1      36.505  22.091  26.198  1.00  0.00    -0.356 N 
ATOM      3  C   UNL A   1      35.206  21.936  25.832  1.00  0.00     0.220 C 
ATOM      4  O   UNL A   1      34.367  21.855  26.733  1.00  0.00    -0.275 OA
ATOM      5  H   UNL A   1      36.654  22.091  27.172  1.00  0.00     0.163 HD
BRANCH   3   6
ATOM      6  C   UNL A   1      34.777  21.802  24.377  1.00  0.00     0.105 C 
BRANCH   6   7
ATOM      7  C   UNL A   1      33.334  21.300  24.148  1.00  0.00     0.018 C 
BRANCH   7   8
ATOM      8  C   UNL A   1      33.229  19.778  23.849  1.00  0.00     0.009 C 
BRANCH   8   9
ATOM      9  C   UNL A   1      33.715  18.800  24.942  1.00  0.00    -0.017 C 
ATOM     10  C   UNL A   1      32.553  17.983  25.508  1.00  0.00     0.007 C 
ATOM     11  C   UNL A   1      34.778  17.851  24.374  1.00  0.00     0.007 C 
ENDBRANCH   8   9
ENDBRANCH   7   8
BRANCH   7  12
ATOM     12  C   UNL A   1      32.507  22.076  23.102  1.00  0.00     0.117 C 
BRANCH  12  13
ATOM     13  N   UNL A   1      31.831  23.224  23.674  1.00  0.00    -0.384 N 
ATOM     14  H   UNL A   1      30.859  23.148  23.812  1.00  0.00     0.160 HD
BRANCH  13  15
ATOM     15  C   UNL A   1      32.426  24.419  24.044  1.00  0.00     0.055 A 
ATOM     16  C   UNL A   1      33.031  25.141  22.993  1.00  0.00     0.027 A 
ATOM     17  C   UNL A   1      32.434  24.997  25.327  1.00  0.00     0.111 A 
ATOM     18  C   UNL A   1      33.619  26.389  23.193  1.00  0.00     0.005 A 
ATOM     19  C   UNL A   1      33.044  26.241  25.517  1.00  0.00     0.143 A 
ATOM     20  C   UNL A   1      33.626  26.940  24.465  1.00  0.00     0.041 A 
ATOM     21  F   UNL A   1      33.093  26.788  26.740  1.00  0.00    -0.205 F 
BRANCH  17  22
ATOM     22  C   UNL A   1      31.905  24.339  26.481  1.00  0.00     0.104 C 
ATOM     23  N   UNL A   1      31.455  23.837  27.430  1.00  0.00    -0.192 NA
ENDBRANCH  17  22
ENDBRANCH  13  15
ENDBRANCH  12  13
ENDBRANCH   7  12
ENDBRANCH   6   7
ENDBRANCH   3   6
ENDBRANCH   1   2
BRANCH   1  24
ATOM     24  C   UNL A   1      38.962  22.029  26.257  1.00  0.00     0.042 C 
BRANCH  24  25
ATOM     25  C   UNL A   1      39.583  23.279  26.851  1.00  0.00     0.118 C 
BRANCH  25  26
ATOM     26  N   UNL A   1      40.748  23.720  26.105  1.00  0.00    -0.352 N 
ATOM     27  C   UNL A   1      41.459  24.894  26.192  1.00  0.00     0.251 C 
ATOM     28  H   UNL A   1      41.082  23.080  25.436  1.00  0.00     0.163 HD
ATOM     29  O   UNL A   1      42.247  25.171  25.289  1.00  0.00    -0.269 OA
BRANCH  27  30
ATOM     30  C   UNL A   1      41.289  25.827  27.336  1.00  0.00     0.039 A 
ATOM     31  C   UNL A   1      42.190  26.888  27.479  1.00  0.00     0.014 A 
ATOM     32  C   UNL A   1      40.297  25.645  28.302  1.00  0.00     0.014 A 
ATOM     33  C   UNL A   1      42.068  27.776  28.553  1.00  0.00     0.010 A 
ATOM     34  C   UNL A   1      40.103  26.594  29.305  1.00  0.00     0.010 A 
ATOM     35  C   UNL A   1      41.002  27.657  29.460  1.00  0.00    -0.014 A 
BRANCH  35  36
ATOM     36  C   UNL A   1      40.832  28.617  30.584  1.00  0.00     0.031 A 
ATOM     37  C   UNL A   1      41.688  28.502  31.822  1.00  0.00     0.074 A 
ATOM     38  C   UNL A   1      39.879  29.569  30.511  1.00  0.00     0.049 A 
ATOM     39  N   UNL A   1      41.666  29.229  32.910  1.00  0.00    -0.248 NA
ATOM     40  C   UNL A   1      42.680  27.415  31.853  1.00  0.00     0.031 C 
ATOM     41  C   UNL A   1      38.957  29.757  29.389  1.00  0.00     0.029 A 
ATOM     42  N   UNL A   1      39.526  30.556  31.398  1.00  0.00    -0.354 N 
ATOM     43  C   UNL A   1      42.621  28.676  33.757  1.00  0.00     0.074 A 
ATOM     44  C   UNL A   1      43.165  27.521  33.081  1.00  0.00     0.031 C 
ATOM     45  C   UNL A   1      38.172  30.817  29.637  1.00  0.00     0.029 A 
ATOM     46  C   UNL A   1      38.492  31.349  30.958  1.00  0.00     0.049 A 
ATOM     47  H   UNL A   1      39.972  30.685  32.267  1.00  0.00     0.167 HD
ATOM     48  C   UNL A   1      43.023  29.101  34.979  1.00  0.00     0.031 A 
ATOM     49  C   UNL A   1      37.858  32.378  31.554  1.00  0.00     0.031 A 
ATOM     50  C   UNL A   1      42.476  30.254  35.647  1.00  0.00     0.049 A 
ATOM     51  C   UNL A   1      38.306  32.818  32.921  1.00  0.00     0.074 A 
ATOM     52  C   UNL A   1      42.854  30.802  36.860  1.00  0.00     0.029 A 
ATOM     53  N   UNL A   1      41.429  31.026  35.168  1.00  0.00    -0.354 N 
ATOM     54  N   UNL A   1      39.265  32.330  33.670  1.00  0.00    -0.248 NA
ATOM     55  C   UNL A   1      37.593  33.955  33.519  1.00  0.00     0.031 C 
ATOM     56  C   UNL A   1      41.985  31.857  37.151  1.00  0.00     0.029 A 
ATOM     57  C   UNL A   1      41.121  32.023  36.080  1.00  0.00     0.049 A 
ATOM     58  H   UNL A   1      40.971  30.888  34.307  1.00  0.00     0.167 HD
ATOM     59  C   UNL A   1      39.290  33.120  34.816  1.00  0.00     0.074 A 
ATOM     60  C   UNL A   1      38.263  34.128  34.649  1.00  0.00     0.031 C 
ATOM     61  C   UNL A   1      40.092  33.018  35.905  1.00  0.00     0.031 A 
BRANCH  48  62
ATOM     62  C   UNL A   1      44.091  28.303  35.686  1.00  0.00    -0.014 A 
ATOM     63  C   UNL A   1      45.458  28.600  35.528  1.00  0.00     0.010 A 
ATOM     64  C   UNL A   1      43.720  27.264  36.561  1.00  0.00     0.010 A 
ATOM     65  C   UNL A   1      46.430  27.847  36.193  1.00  0.00     0.020 A 
ATOM     66  C   UNL A   1      44.687  26.534  37.257  1.00  0.00     0.020 A 
ATOM     67  C   UNL A   1      46.038  26.819  37.055  1.00  0.00     0.054 A 
BRANCH  67  68
ATOM     68  S   UNL A   1      47.323  25.879  37.925  1.00  0.00     0.124 S 
ATOM     69  O   UNL A   1      48.533  26.305  37.228  1.00  0.00    -0.237 OA
ATOM     70  O   UNL A   1      47.189  26.354  39.300  1.00  0.00    -0.237 OA
ATOM     71  O   UNL A   1      46.940  24.485  37.710  1.00  0.00    -0.744 OA
ENDBRANCH  67  68
ENDBRANCH  48  62
BRANCH  49  72
ATOM     72  C   UNL A   1      36.727  33.057  30.858  1.00  0.00    -0.014 A 
ATOM     73  C   UNL A   1      35.402  32.897  31.301  1.00  0.00     0.010 A 
ATOM     74  C   UNL A   1      36.976  33.889  29.749  1.00  0.00     0.010 A 
ATOM     75  C   UNL A   1      34.350  33.538  30.641  1.00  0.00     0.020 A 
ATOM     76  C   UNL A   1      35.932  34.561  29.109  1.00  0.00     0.020 A 
ATOM     77  C   UNL A   1      34.622  34.373  29.553  1.00  0.00     0.054 A 
BRANCH  77  78
ATOM     78  S   UNL A   1      33.246  35.238  28.748  1.00  0.00     0.124 S 
ATOM     79  O   UNL A   1      33.941  36.247  27.954  1.00  0.00    -0.237 OA
ATOM     80  O   UNL A   1      32.604  34.168  27.989  1.00  0.00    -0.237 OA
ATOM     81  O   UNL A   1      32.462  35.754  29.868  1.00  0.00    -0.744 OA
ENDBRANCH  77  78
ENDBRANCH  49  72
BRANCH  61  82
ATOM     82  C   UNL A   1      39.922  34.049  36.993  1.00  0.00    -0.014 A 
ATOM     83  C   UNL A   1      40.525  35.317  36.908  1.00  0.00     0.010 A 
ATOM     84  C   UNL A   1      39.097  33.758  38.096  1.00  0.00     0.010 A 
ATOM     85  C   UNL A   1      40.334  36.260  37.921  1.00  0.00     0.020 A 
ATOM     86  C   UNL A   1      38.873  34.711  39.091  1.00  0.00     0.020 A 
ATOM     87  C   UNL A   1      39.506  35.951  39.005  1.00  0.00     0.054 A 
BRANCH  87  88
ATOM     88  S   UNL A   1      39.240  37.209  40.285  1.00  0.00     0.124 S 
ATOM     89  O   UNL A   1      38.501  36.462  41.299  1.00  0.00    -0.237 OA
ATOM     90  O   UNL A   1      40.604  37.584  40.651  1.00  0.00    -0.237 OA
ATOM     91  O   UNL A   1      38.478  38.249  39.598  1.00  0.00    -0.744 OA
ENDBRANCH  87  88
ENDBRANCH  61  82
ENDBRANCH  35  36
ENDBRANCH  27  30
ENDBRANCH  25  26
ENDBRANCH  24  25
ENDBRANCH   1  24
TORSDOF 20
ENDMDL
MODEL 3
REMARK VINA RESULT:      -9.9      2.366      2.921
REMARK SMILES CC(C)C[C@H](CNc1cccc(F)c1C#N)CC(=O)NCCCNC(=O)c1ccc(-c2c3nc(c(-c4ccc(S(=O)(=O)[O-])cc4)c4ccc([nH]4)c(-c4ccc(S(=O)(=O)[O-])cc4)c4nc(c(-c5ccc(S(=O)(=O)[O-])cc5)c5ccc2[nH]5)C=C4)C=C3)cc1
REMARK SMILES IDX 21 1 20 2 18 3 19 4 17 6 5 7 4 8 2 9 1 10 3 11 6 12 7 13
REMARK SMILES IDX 8 15 9 16 14 17 10 18 12 19 11 20 13 21 15 22 16 23 22 24
REMARK SMILES IDX 23 25 24 26 25 27 26 29 27 30 28 31 86 32 29 33 85 34 30 35
REMARK SMILES IDX 31 36 32 37 79 38 33 39 84 40 78 41 80 42 34 43 83 44 77 45
REMARK SMILES IDX 76 46 35 48 65 49 46 50 64 51 47 52 50 53 63 54 81 55 48 56
REMARK SMILES IDX 49 57 62 59 82 60 51 61 36 62 37 63 45 64 38 65 44 66 39 67
REMARK SMILES IDX 40 68 41 69 42 70 43 71 66 72 67 73 75 74 68 75 74 76 69 77
REMARK SMILES IDX 70 78 71 79 72 80 73 81 52 82 53 83 61 84 54 85 60 86 55 87
REMARK SMILES IDX 56 88 57 89 58 90 59 91
REMARK H PARENT 20 5 7 14 24 28 80 47 50 58
REMARK Flexibility Score: inf
ROOT
ATOM      1  C   UNL A   1      31.682  27.772  26.102  1.00  0.00     0.117 C 
ENDROOT
BRANCH   1   2
ATOM      2  N   UNL A   1      30.900  26.666  26.629  1.00  0.00    -0.356 N 
ATOM      3  C   UNL A   1      30.380  25.564  26.027  1.00  0.00     0.220 C 
ATOM      4  O   UNL A   1      29.713  24.796  26.725  1.00  0.00    -0.275 OA
ATOM      5  H   UNL A   1      30.715  26.725  27.594  1.00  0.00     0.163 HD
BRANCH   3   6
ATOM      6  C   UNL A   1      30.643  25.230  24.564  1.00  0.00     0.105 C 
BRANCH   6   7
ATOM      7  C   UNL A   1      31.887  24.355  24.291  1.00  0.00     0.018 C 
BRANCH   7   8
ATOM      8  C   UNL A   1      32.919  25.001  23.324  1.00  0.00     0.009 C 
BRANCH   8   9
ATOM      9  C   UNL A   1      32.404  26.076  22.341  1.00  0.00    -0.017 C 
ATOM     10  C   UNL A   1      33.082  27.423  22.592  1.00  0.00     0.007 C 
ATOM     11  C   UNL A   1      32.655  25.638  20.893  1.00  0.00     0.007 C 
ENDBRANCH   8   9
ENDBRANCH   7   8
BRANCH   7  12
ATOM     12  C   UNL A   1      31.608  22.908  23.835  1.00  0.00     0.117 C 
BRANCH  12  13
ATOM     13  N   UNL A   1      31.888  21.938  24.876  1.00  0.00    -0.384 N 
ATOM     14  H   UNL A   1      31.341  21.989  25.694  1.00  0.00     0.160 HD
BRANCH  13  15
ATOM     15  C   UNL A   1      32.854  20.947  24.828  1.00  0.00     0.055 A 
ATOM     16  C   UNL A   1      32.392  19.675  24.427  1.00  0.00     0.027 A 
ATOM     17  C   UNL A   1      34.230  21.097  25.079  1.00  0.00     0.111 A 
ATOM     18  C   UNL A   1      33.252  18.589  24.271  1.00  0.00     0.005 A 
ATOM     19  C   UNL A   1      35.079  19.993  24.938  1.00  0.00     0.143 A 
ATOM     20  C   UNL A   1      34.604  18.751  24.531  1.00  0.00     0.041 A 
ATOM     21  F   UNL A   1      36.387  20.109  25.209  1.00  0.00    -0.205 F 
BRANCH  17  22
ATOM     22  C   UNL A   1      34.809  22.317  25.546  1.00  0.00     0.104 C 
ATOM     23  N   UNL A   1      35.246  23.329  25.923  1.00  0.00    -0.192 NA
ENDBRANCH  17  22
ENDBRANCH  13  15
ENDBRANCH  12  13
ENDBRANCH   7  12
ENDBRANCH   6   7
ENDBRANCH   3   6
ENDBRANCH   1   2
BRANCH   1  24
ATOM     24  C   UNL A   1      33.139  27.677  26.541  1.00  0.00     0.042 C 
BRANCH  24  25
ATOM     25  C   UNL A   1      34.070  28.710  25.937  1.00  0.00     0.118 C 
BRANCH  25  26
ATOM     26  N   UNL A   1      33.756  30.057  26.380  1.00  0.00    -0.352 N 
ATOM     27  C   UNL A   1      34.278  30.787  27.422  1.00  0.00     0.251 C 
ATOM     28  H   UNL A   1      33.064  30.518  25.854  1.00  0.00     0.163 HD
ATOM     29  O   UNL A   1      33.685  31.803  27.781  1.00  0.00    -0.269 OA
BRANCH  27  30
ATOM     30  C   UNL A   1      35.524  30.374  28.118  1.00  0.00     0.039 A 
ATOM     31  C   UNL A   1      36.757  30.740  27.565  1.00  0.00     0.014 A 
ATOM     32  C   UNL A   1      35.505  29.584  29.270  1.00  0.00     0.014 A 
ATOM     33  C   UNL A   1      37.949  30.355  28.187  1.00  0.00     0.010 A 
ATOM     34  C   UNL A   1      36.687  29.299  29.952  1.00  0.00     0.010 A 
ATOM     35  C   UNL A   1      37.926  29.657  29.405  1.00  0.00    -0.014 A 
BRANCH  35  36
ATOM     36  C   UNL A   1      39.184  29.276  30.102  1.00  0.00     0.031 A 
ATOM     37  C   UNL A   1      39.618  30.008  31.348  1.00  0.00     0.074 A 
ATOM     38  C   UNL A   1      39.960  28.298  29.592  1.00  0.00     0.049 A 
ATOM     39  N   UNL A   1      40.694  29.834  32.075  1.00  0.00    -0.248 NA
ATOM     40  C   UNL A   1      38.746  31.092  31.827  1.00  0.00     0.031 C 
ATOM     41  C   UNL A   1      39.675  27.544  28.369  1.00  0.00     0.029 A 
ATOM     42  N   UNL A   1      41.148  27.769  30.036  1.00  0.00    -0.354 N 
ATOM     43  C   UNL A   1      40.635  30.796  33.079  1.00  0.00     0.074 A 
ATOM     44  C   UNL A   1      39.449  31.585  32.836  1.00  0.00     0.031 C 
ATOM     45  C   UNL A   1      40.638  26.628  28.182  1.00  0.00     0.029 A 
ATOM     46  C   UNL A   1      41.638  26.764  29.236  1.00  0.00     0.049 A 
ATOM     47  H   UNL A   1      41.605  28.080  30.852  1.00  0.00     0.167 HD
ATOM     48  C   UNL A   1      41.479  30.993  34.118  1.00  0.00     0.031 A 
ATOM     49  C   UNL A   1      42.773  26.043  29.326  1.00  0.00     0.031 A 
ATOM     50  C   UNL A   1      42.660  30.202  34.355  1.00  0.00     0.049 A 
ATOM     51  C   UNL A   1      43.708  26.294  30.477  1.00  0.00     0.074 A 
ATOM     52  C   UNL A   1      43.550  30.282  35.411  1.00  0.00     0.029 A 
ATOM     53  N   UNL A   1      43.121  29.195  33.519  1.00  0.00    -0.354 N 
ATOM     54  N   UNL A   1      43.593  27.156  31.460  1.00  0.00    -0.248 NA
ATOM     55  C   UNL A   1      44.922  25.470  30.538  1.00  0.00     0.031 C 
ATOM     56  C   UNL A   1      44.591  29.380  35.173  1.00  0.00     0.029 A 
ATOM     57  C   UNL A   1      44.305  28.675  34.016  1.00  0.00     0.049 A 
ATOM     58  H   UNL A   1      42.674  28.896  32.695  1.00  0.00     0.167 HD
ATOM     59  C   UNL A   1      44.705  26.956  32.272  1.00  0.00     0.074 A 
ATOM     60  C   UNL A   1      45.468  25.879  31.675  1.00  0.00     0.031 C 
ATOM     61  C   UNL A   1      45.059  27.605  33.409  1.00  0.00     0.031 A 
BRANCH  48  62
ATOM     62  C   UNL A   1      41.173  32.124  35.071  1.00  0.00    -0.014 A 
ATOM     63  C   UNL A   1      41.653  33.427  34.843  1.00  0.00     0.010 A 
ATOM     64  C   UNL A   1      40.354  31.889  36.191  1.00  0.00     0.010 A 
ATOM     65  C   UNL A   1      41.357  34.460  35.739  1.00  0.00     0.020 A 
ATOM     66  C   UNL A   1      40.024  32.925  37.068  1.00  0.00     0.020 A 
ATOM     67  C   UNL A   1      40.543  34.201  36.845  1.00  0.00     0.054 A 
BRANCH  67  68
ATOM     68  S   UNL A   1      40.155  35.568  37.974  1.00  0.00     0.124 S 
ATOM     69  O   UNL A   1      41.363  35.637  38.792  1.00  0.00    -0.237 OA
ATOM     70  O   UNL A   1      39.951  36.688  37.059  1.00  0.00    -0.237 OA
ATOM     71  O   UNL A   1      38.956  35.112  38.674  1.00  0.00    -0.744 OA
ENDBRANCH  67  68
ENDBRANCH  48  62
BRANCH  49  72
ATOM     72  C   UNL A   1      43.085  25.017  28.290  1.00  0.00    -0.014 A 
ATOM     73  C   UNL A   1      43.705  25.375  27.080  1.00  0.00     0.010 A 
ATOM     74  C   UNL A   1      42.777  23.662  28.520  1.00  0.00     0.010 A 
ATOM     75  C   UNL A   1      43.994  24.404  26.115  1.00  0.00     0.020 A 
ATOM     76  C   UNL A   1      43.096  22.684  27.574  1.00  0.00     0.020 A 
ATOM     77  C   UNL A   1      43.694  23.063  26.372  1.00  0.00     0.054 A 
BRANCH  77  78
ATOM     78  S   UNL A   1      44.128  21.816  25.128  1.00  0.00     0.124 S 
ATOM     79  O   UNL A   1      43.113  20.792  25.355  1.00  0.00    -0.237 OA
ATOM     80  O   UNL A   1      44.005  22.563  23.879  1.00  0.00    -0.237 OA
ATOM     81  O   UNL A   1      45.492  21.434  25.486  1.00  0.00    -0.744 OA
ENDBRANCH  77  78
ENDBRANCH  49  72
BRANCH  61  82
ATOM     82  C   UNL A   1      46.311  27.145  34.112  1.00  0.00    -0.014 A 
ATOM     83  C   UNL A   1      47.562  27.733  33.849  1.00  0.00     0.010 A 
ATOM     84  C   UNL A   1      46.221  26.143  35.096  1.00  0.00     0.010 A 
ATOM     85  C   UNL A   1      48.703  27.301  34.530  1.00  0.00     0.020 A 
ATOM     86  C   UNL A   1      47.352  25.735  35.806  1.00  0.00     0.020 A 
ATOM     87  C   UNL A   1      48.590  26.307  35.508  1.00  0.00     0.054 A 
BRANCH  87  88
ATOM     88  S   UNL A   1      50.079  25.796  36.408  1.00  0.00     0.124 S 
ATOM     89  O   UNL A   1      49.516  25.064  37.539  1.00  0.00    -0.237 OA
ATOM     90  O   UNL A   1      50.784  24.981  35.421  1.00  0.00    -0.237 OA
ATOM     91  O   UNL A   1      50.732  27.058  36.746  1.00  0.00    -0.744 OA
ENDBRANCH  87  88
ENDBRANCH  61  82
ENDBRANCH  35  36
ENDBRANCH  27  30
ENDBRANCH  25  26
ENDBRANCH  24  25
ENDBRANCH   1  24
TORSDOF 20
ENDMDL
