MODEL 1
REMARK VINA RESULT:     -11.6      0.000      0.000
REMARK SMILES CNC(=O)c1cccc(-c2cnc(O)c(C(=O)NCCCNC(=O)c3ccc(-c4c5nc(c(-c6ccc(S(=O)(=O)[O-])cc6)c6ccc([nH]6)c(-c6ccc(S(=O)(=O)[O-])cc6)c6nc(c(-c7ccc(S(=O)(=O)[O-])cc7)c7ccc4[nH]7)C=C6)C=C5)cc3)c2)c1
REMARK SMILES IDX 20 1 19 2 18 3 16 4 17 5 15 7 10 8 11 9 85 10 12 11 13 12
REMARK SMILES IDX 9 13 5 14 6 15 86 16 7 17 8 18 3 19 1 20 2 21 4 23 14 24
REMARK SMILES IDX 21 26 22 27 23 28 24 30 25 31 26 32 84 33 27 34 83 35 28 36
REMARK SMILES IDX 29 37 30 38 77 39 31 40 82 41 76 42 78 43 32 44 81 45 75 46
REMARK SMILES IDX 74 47 33 49 63 50 44 51 62 52 45 53 48 54 61 55 79 56 46 57
REMARK SMILES IDX 47 58 60 60 80 61 49 62 34 63 35 64 43 65 36 66 42 67 37 68
REMARK SMILES IDX 38 69 39 70 40 71 41 72 64 73 65 74 73 75 66 76 72 77 67 78
REMARK SMILES IDX 68 79 69 80 70 81 71 82 50 83 51 84 59 85 52 86 58 87 53 88
REMARK SMILES IDX 54 89 55 90 56 91 57 92
REMARK H PARENT 18 6 2 22 14 25 22 29 78 48 48 59
REMARK Flexibility Score: inf
ROOT
ATOM      1  C   UNL A   1      33.842  28.060  25.729  1.00  0.00     0.042 C 
ENDROOT
BRANCH   1   2
ATOM      2  C   UNL A   1      33.088  28.985  24.773  1.00  0.00     0.118 C 
BRANCH   2   3
ATOM      3  N   UNL A   1      33.728  29.049  23.468  1.00  0.00    -0.352 N 
ATOM      4  C   UNL A   1      33.828  28.149  22.438  1.00  0.00     0.256 C 
ATOM      5  O   UNL A   1      34.328  28.539  21.379  1.00  0.00    -0.269 OA
ATOM      6  H   UNL A   1      34.178  29.906  23.289  1.00  0.00     0.163 HD
BRANCH   4   7
ATOM      7  C   UNL A   1      33.320  26.758  22.488  1.00  0.00     0.102 A 
ATOM      8  C   UNL A   1      33.524  24.385  22.986  1.00  0.00     0.001 A 
ATOM      9  C   UNL A   1      32.194  24.253  22.601  1.00  0.00     0.124 A 
ATOM     10  C   UNL A   1      34.091  25.662  22.873  1.00  0.00     0.029 A 
ATOM     11  N   UNL A   1      31.427  25.275  22.160  1.00  0.00    -0.221 NA
ATOM     12  C   UNL A   1      31.999  26.498  22.111  1.00  0.00     0.223 A 
BRANCH   8  13
ATOM     13  C   UNL A   1      34.292  23.276  23.553  1.00  0.00    -0.016 A 
ATOM     14  C   UNL A   1      34.340  21.210  24.847  1.00  0.00     0.040 A 
ATOM     15  C   UNL A   1      35.730  21.161  24.726  1.00  0.00     0.014 A 
ATOM     16  C   UNL A   1      33.629  22.275  24.286  1.00  0.00     0.022 A 
ATOM     17  C   UNL A   1      36.400  22.149  24.002  1.00  0.00     0.001 A 
ATOM     18  C   UNL A   1      35.684  23.194  23.410  1.00  0.00     0.009 A 
BRANCH  14  19
ATOM     19  C   UNL A   1      33.658  20.173  25.654  1.00  0.00     0.251 C 
ATOM     20  C   UNL A   1      33.480  21.596  27.761  1.00  0.00     0.143 C 
ATOM     21  N   UNL A   1      33.387  20.384  26.982  1.00  0.00    -0.355 N 
ATOM     22  H   UNL A   1      33.084  19.589  27.478  1.00  0.00     0.163 HD
ATOM     23  O   UNL A   1      33.329  19.116  25.127  1.00  0.00    -0.269 OA
ENDBRANCH  14  19
ENDBRANCH   8  13
BRANCH  12  24
ATOM     24  O   UNL A   1      31.147  27.469  21.663  1.00  0.00    -0.493 OA
ATOM     25  H   UNL A   1      31.373  27.978  20.910  1.00  0.00     0.295 HD
ENDBRANCH  12  24
ENDBRANCH   4   7
ENDBRANCH   2   3
ENDBRANCH   1   2
BRANCH   1  26
ATOM     26  C   UNL A   1      33.580  28.355  27.205  1.00  0.00     0.118 C 
BRANCH  26  27
ATOM     27  N   UNL A   1      33.479  29.781  27.469  1.00  0.00    -0.352 N 
ATOM     28  C   UNL A   1      34.357  30.634  28.089  1.00  0.00     0.251 C 
ATOM     29  H   UNL A   1      32.647  30.203  27.152  1.00  0.00     0.163 HD
ATOM     30  O   UNL A   1      33.973  31.760  28.393  1.00  0.00    -0.269 OA
BRANCH  28  31
ATOM     31  C   UNL A   1      35.744  30.217  28.402  1.00  0.00     0.039 A 
ATOM     32  C   UNL A   1      36.710  30.307  27.396  1.00  0.00     0.014 A 
ATOM     33  C   UNL A   1      36.085  29.679  29.646  1.00  0.00     0.014 A 
ATOM     34  C   UNL A   1      38.025  29.904  27.650  1.00  0.00     0.010 A 
ATOM     35  C   UNL A   1      37.410  29.330  29.917  1.00  0.00     0.010 A 
ATOM     36  C   UNL A   1      38.391  29.435  28.921  1.00  0.00    -0.014 A 
BRANCH  36  37
ATOM     37  C   UNL A   1      39.800  29.069  29.221  1.00  0.00     0.031 A 
ATOM     38  C   UNL A   1      40.737  30.067  29.845  1.00  0.00     0.074 A 
ATOM     39  C   UNL A   1      40.250  27.845  28.879  1.00  0.00     0.049 A 
ATOM     40  N   UNL A   1      42.004  29.931  30.147  1.00  0.00    -0.248 NA
ATOM     41  C   UNL A   1      40.188  31.397  30.152  1.00  0.00     0.031 C 
ATOM     42  C   UNL A   1      39.455  26.802  28.226  1.00  0.00     0.029 A 
ATOM     43  N   UNL A   1      41.489  27.273  29.029  1.00  0.00    -0.354 N 
ATOM     44  C   UNL A   1      42.408  31.157  30.661  1.00  0.00     0.074 A 
ATOM     45  C   UNL A   1      41.261  32.037  30.596  1.00  0.00     0.031 C 
ATOM     46  C   UNL A   1      40.219  25.712  28.051  1.00  0.00     0.029 A 
ATOM     47  C   UNL A   1      41.563  25.987  28.548  1.00  0.00     0.049 A 
ATOM     48  H   UNL A   1      42.252  27.738  29.442  1.00  0.00     0.167 HD
ATOM     49  C   UNL A   1      43.618  31.516  31.155  1.00  0.00     0.031 A 
ATOM     50  C   UNL A   1      42.597  25.124  28.508  1.00  0.00     0.031 A 
ATOM     51  C   UNL A   1      44.754  30.635  31.233  1.00  0.00     0.049 A 
ATOM     52  C   UNL A   1      43.924  25.538  29.078  1.00  0.00     0.074 A 
ATOM     53  C   UNL A   1      46.004  30.887  31.776  1.00  0.00     0.029 A 
ATOM     54  N   UNL A   1      44.784  29.335  30.753  1.00  0.00    -0.354 N 
ATOM     55  N   UNL A   1      44.265  26.682  29.621  1.00  0.00    -0.248 NA
ATOM     56  C   UNL A   1      45.001  24.540  29.041  1.00  0.00     0.031 C 
ATOM     57  C   UNL A   1      46.800  29.753  31.585  1.00  0.00     0.029 A 
ATOM     58  C   UNL A   1      46.034  28.779  30.967  1.00  0.00     0.049 A 
ATOM     59  H   UNL A   1      44.027  28.875  30.323  1.00  0.00     0.167 HD
ATOM     60  C   UNL A   1      45.592  26.536  30.005  1.00  0.00     0.074 A 
ATOM     61  C   UNL A   1      45.985  25.187  29.650  1.00  0.00     0.031 C 
ATOM     62  C   UNL A   1      46.413  27.439  30.597  1.00  0.00     0.031 A 
BRANCH  49  63
ATOM     63  C   UNL A   1      43.777  32.930  31.648  1.00  0.00    -0.014 A 
ATOM     64  C   UNL A   1      44.236  33.948  30.794  1.00  0.00     0.010 A 
ATOM     65  C   UNL A   1      43.425  33.254  32.972  1.00  0.00     0.010 A 
ATOM     66  C   UNL A   1      44.380  35.257  31.265  1.00  0.00     0.020 A 
ATOM     67  C   UNL A   1      43.545  34.566  33.439  1.00  0.00     0.020 A 
ATOM     68  C   UNL A   1      44.040  35.556  32.588  1.00  0.00     0.054 A 
BRANCH  68  69
ATOM     69  S   UNL A   1      44.219  37.264  33.170  1.00  0.00     0.124 S 
ATOM     70  O   UNL A   1      43.125  37.371  34.130  1.00  0.00    -0.237 OA
ATOM     71  O   UNL A   1      45.562  37.270  33.746  1.00  0.00    -0.237 OA
ATOM     72  O   UNL A   1      44.064  38.062  31.956  1.00  0.00    -0.744 OA
ENDBRANCH  68  69
ENDBRANCH  49  63
BRANCH  50  73
ATOM     73  C   UNL A   1      42.408  23.773  27.915  1.00  0.00    -0.014 A 
ATOM     74  C   UNL A   1      42.499  23.585  26.525  1.00  0.00     0.010 A 
ATOM     75  C   UNL A   1      42.158  22.664  28.743  1.00  0.00     0.010 A 
ATOM     76  C   UNL A   1      42.328  22.313  25.971  1.00  0.00     0.020 A 
ATOM     77  C   UNL A   1      42.010  21.387  28.195  1.00  0.00     0.020 A 
ATOM     78  C   UNL A   1      42.085  21.222  26.810  1.00  0.00     0.054 A 
BRANCH  78  79
ATOM     79  S   UNL A   1      41.924  19.569  26.077  1.00  0.00     0.124 S 
ATOM     80  O   UNL A   1      42.408  18.712  27.156  1.00  0.00    -0.237 OA
ATOM     81  O   UNL A   1      40.494  19.483  25.793  1.00  0.00    -0.237 OA
ATOM     82  O   UNL A   1      42.783  19.636  24.897  1.00  0.00    -0.744 OA
ENDBRANCH  78  79
ENDBRANCH  50  73
BRANCH  62  83
ATOM     83  C   UNL A   1      47.814  26.988  30.910  1.00  0.00    -0.014 A 
ATOM     84  C   UNL A   1      48.132  26.425  32.159  1.00  0.00     0.010 A 
ATOM     85  C   UNL A   1      48.820  27.107  29.934  1.00  0.00     0.010 A 
ATOM     86  C   UNL A   1      49.440  26.023  32.441  1.00  0.00     0.020 A 
ATOM     87  C   UNL A   1      50.124  26.684  30.204  1.00  0.00     0.020 A 
ATOM     88  C   UNL A   1      50.430  26.161  31.463  1.00  0.00     0.054 A 
BRANCH  88  89
ATOM     89  S   UNL A   1      52.117  25.612  31.840  1.00  0.00     0.124 S 
ATOM     90  O   UNL A   1      52.420  26.374  33.047  1.00  0.00    -0.237 OA
ATOM     91  O   UNL A   1      51.955  24.173  32.029  1.00  0.00    -0.237 OA
ATOM     92  O   UNL A   1      52.878  25.995  30.653  1.00  0.00    -0.744 OA
ENDBRANCH  88  89
ENDBRANCH  62  83
ENDBRANCH  36  37
ENDBRANCH  28  31
ENDBRANCH  26  27
ENDBRANCH   1  26
TORSDOF 16
ENDMDL
MODEL 2
REMARK VINA RESULT:     -11.6      3.710      7.056
REMARK SMILES CNC(=O)c1cccc(-c2cnc(O)c(C(=O)NCCCNC(=O)c3ccc(-c4c5nc(c(-c6ccc(S(=O)(=O)[O-])cc6)c6ccc([nH]6)c(-c6ccc(S(=O)(=O)[O-])cc6)c6nc(c(-c7ccc(S(=O)(=O)[O-])cc7)c7ccc4[nH]7)C=C6)C=C5)cc3)c2)c1
REMARK SMILES IDX 20 1 19 2 18 3 16 4 17 5 15 7 10 8 11 9 85 10 12 11 13 12
REMARK SMILES IDX 9 13 5 14 6 15 86 16 7 17 8 18 3 19 1 20 2 21 4 23 14 24
REMARK SMILES IDX 21 26 22 27 23 28 24 30 25 31 26 32 84 33 27 34 83 35 28 36
REMARK SMILES IDX 29 37 30 38 77 39 31 40 82 41 76 42 78 43 32 44 81 45 75 46
REMARK SMILES IDX 74 47 33 49 63 50 44 51 62 52 45 53 48 54 61 55 79 56 46 57
REMARK SMILES IDX 47 58 60 60 80 61 49 62 34 63 35 64 43 65 36 66 42 67 37 68
REMARK SMILES IDX 38 69 39 70 40 71 41 72 64 73 65 74 73 75 66 76 72 77 67 78
REMARK SMILES IDX 68 79 69 80 70 81 71 82 50 83 51 84 59 85 52 86 58 87 53 88
REMARK SMILES IDX 54 89 55 90 56 91 57 92
REMARK H PARENT 18 6 2 22 14 25 22 29 78 48 48 59
REMARK Flexibility Score: inf
ROOT
ATOM      1  C   UNL A   1      34.897  33.404  27.982  1.00  0.00     0.042 C 
ENDROOT
BRANCH   1   2
ATOM      2  C   UNL A   1      35.019  34.795  28.605  1.00  0.00     0.118 C 
BRANCH   2   3
ATOM      3  N   UNL A   1      33.719  35.336  28.974  1.00  0.00    -0.352 N 
ATOM      4  C   UNL A   1      33.163  35.673  30.181  1.00  0.00     0.256 C 
ATOM      5  O   UNL A   1      32.069  36.245  30.171  1.00  0.00    -0.269 OA
ATOM      6  H   UNL A   1      33.123  35.489  28.207  1.00  0.00     0.163 HD
BRANCH   4   7
ATOM      7  C   UNL A   1      33.813  35.454  31.495  1.00  0.00     0.102 A 
ATOM      8  C   UNL A   1      35.179  34.190  33.061  1.00  0.00     0.001 A 
ATOM      9  C   UNL A   1      35.028  35.247  33.952  1.00  0.00     0.124 A 
ATOM     10  C   UNL A   1      34.511  34.295  31.834  1.00  0.00     0.029 A 
ATOM     11  N   UNL A   1      34.308  36.361  33.691  1.00  0.00    -0.221 NA
ATOM     12  C   UNL A   1      33.718  36.444  32.478  1.00  0.00     0.223 A 
BRANCH   8  13
ATOM     13  C   UNL A   1      36.048  33.046  33.340  1.00  0.00    -0.016 A 
ATOM     14  C   UNL A   1      37.562  31.890  34.863  1.00  0.00     0.040 A 
ATOM     15  C   UNL A   1      37.788  30.906  33.898  1.00  0.00     0.014 A 
ATOM     16  C   UNL A   1      36.718  32.966  34.575  1.00  0.00     0.022 A 
ATOM     17  C   UNL A   1      37.130  30.973  32.669  1.00  0.00     0.001 A 
ATOM     18  C   UNL A   1      36.257  32.032  32.396  1.00  0.00     0.009 A 
BRANCH  14  19
ATOM     19  C   UNL A   1      38.302  31.817  36.143  1.00  0.00     0.251 C 
ATOM     20  C   UNL A   1      40.239  33.285  35.376  1.00  0.00     0.143 C 
ATOM     21  N   UNL A   1      39.542  32.390  36.269  1.00  0.00    -0.355 N 
ATOM     22  H   UNL A   1      40.030  32.156  37.092  1.00  0.00     0.163 HD
ATOM     23  O   UNL A   1      37.800  31.240  37.100  1.00  0.00    -0.269 OA
ENDBRANCH  14  19
ENDBRANCH   8  13
BRANCH  12  24
ATOM     24  O   UNL A   1      33.021  37.606  32.300  1.00  0.00    -0.493 OA
ATOM     25  H   UNL A   1      33.480  38.406  32.130  1.00  0.00     0.295 HD
ENDBRANCH  12  24
ENDBRANCH   4   7
ENDBRANCH   2   3
ENDBRANCH   1   2
BRANCH   1  26
ATOM     26  C   UNL A   1      34.437  32.328  28.964  1.00  0.00     0.118 C 
BRANCH  26  27
ATOM     27  N   UNL A   1      33.901  31.159  28.284  1.00  0.00    -0.352 N 
ATOM     28  C   UNL A   1      34.538  30.044  27.800  1.00  0.00     0.251 C 
ATOM     29  H   UNL A   1      32.926  31.170  28.149  1.00  0.00     0.163 HD
ATOM     30  O   UNL A   1      33.915  29.277  27.070  1.00  0.00    -0.269 OA
BRANCH  28  31
ATOM     31  C   UNL A   1      35.952  29.759  28.135  1.00  0.00     0.039 A 
ATOM     32  C   UNL A   1      36.253  29.290  29.417  1.00  0.00     0.014 A 
ATOM     33  C   UNL A   1      36.986  30.011  27.228  1.00  0.00     0.014 A 
ATOM     34  C   UNL A   1      37.580  29.029  29.773  1.00  0.00     0.010 A 
ATOM     35  C   UNL A   1      38.304  29.697  27.565  1.00  0.00     0.010 A 
ATOM     36  C   UNL A   1      38.614  29.207  28.841  1.00  0.00    -0.014 A 
BRANCH  36  37
ATOM     37  C   UNL A   1      40.019  28.868  29.189  1.00  0.00     0.031 A 
ATOM     38  C   UNL A   1      40.904  29.872  29.878  1.00  0.00     0.074 A 
ATOM     39  C   UNL A   1      40.514  27.666  28.835  1.00  0.00     0.049 A 
ATOM     40  N   UNL A   1      42.161  29.759  30.228  1.00  0.00    -0.248 NA
ATOM     41  C   UNL A   1      40.308  31.179  30.197  1.00  0.00     0.031 C 
ATOM     42  C   UNL A   1      39.774  26.622  28.122  1.00  0.00     0.029 A 
ATOM     43  N   UNL A   1      41.760  27.121  29.020  1.00  0.00    -0.354 N 
ATOM     44  C   UNL A   1      42.511  30.981  30.790  1.00  0.00     0.074 A 
ATOM     45  C   UNL A   1      41.345  31.833  30.701  1.00  0.00     0.031 C 
ATOM     46  C   UNL A   1      40.572  25.556  27.950  1.00  0.00     0.029 A 
ATOM     47  C   UNL A   1      41.888  25.850  28.509  1.00  0.00     0.049 A 
ATOM     48  H   UNL A   1      42.494  27.594  29.476  1.00  0.00     0.167 HD
ATOM     49  C   UNL A   1      43.690  31.356  31.343  1.00  0.00     0.031 A 
ATOM     50  C   UNL A   1      42.944  25.015  28.488  1.00  0.00     0.031 A 
ATOM     51  C   UNL A   1      44.845  30.502  31.444  1.00  0.00     0.049 A 
ATOM     52  C   UNL A   1      44.236  25.447  29.123  1.00  0.00     0.074 A 
ATOM     53  C   UNL A   1      46.065  30.770  32.044  1.00  0.00     0.029 A 
ATOM     54  N   UNL A   1      44.928  29.217  30.931  1.00  0.00    -0.354 N 
ATOM     55  N   UNL A   1      44.524  26.584  29.710  1.00  0.00    -0.248 NA
ATOM     56  C   UNL A   1      45.339  24.477  29.104  1.00  0.00     0.031 C 
ATOM     57  C   UNL A   1      46.898  29.662  31.857  1.00  0.00     0.029 A 
ATOM     58  C   UNL A   1      46.182  28.686  31.182  1.00  0.00     0.049 A 
ATOM     59  H   UNL A   1      44.202  28.750  30.459  1.00  0.00     0.167 HD
ATOM     60  C   UNL A   1      45.839  26.461  30.144  1.00  0.00     0.074 A 
ATOM     61  C   UNL A   1      46.281  25.132  29.771  1.00  0.00     0.031 C 
ATOM     62  C   UNL A   1      46.612  27.367  30.793  1.00  0.00     0.031 A 
BRANCH  49  63
ATOM     63  C   UNL A   1      43.793  32.760  31.878  1.00  0.00    -0.014 A 
ATOM     64  C   UNL A   1      43.533  33.040  33.232  1.00  0.00     0.010 A 
ATOM     65  C   UNL A   1      44.193  33.806  31.027  1.00  0.00     0.010 A 
ATOM     66  C   UNL A   1      43.630  34.349  33.715  1.00  0.00     0.020 A 
ATOM     67  C   UNL A   1      44.315  35.112  31.512  1.00  0.00     0.020 A 
ATOM     68  C   UNL A   1      44.015  35.378  32.850  1.00  0.00     0.054 A 
BRANCH  68  69
ATOM     69  S   UNL A   1      44.151  37.063  33.506  1.00  0.00     0.124 S 
ATOM     70  O   UNL A   1      44.596  37.807  32.331  1.00  0.00    -0.237 OA
ATOM     71  O   UNL A   1      42.789  37.348  33.950  1.00  0.00    -0.237 OA
ATOM     72  O   UNL A   1      45.137  36.940  34.577  1.00  0.00    -0.744 OA
ENDBRANCH  68  69
ENDBRANCH  49  63
BRANCH  50  73
ATOM     73  C   UNL A   1      42.815  23.677  27.853  1.00  0.00    -0.014 A 
ATOM     74  C   UNL A   1      42.383  22.570  28.605  1.00  0.00     0.010 A 
ATOM     75  C   UNL A   1      43.103  23.508  26.487  1.00  0.00     0.010 A 
ATOM     76  C   UNL A   1      42.256  21.314  28.005  1.00  0.00     0.020 A 
ATOM     77  C   UNL A   1      42.955  22.260  25.879  1.00  0.00     0.020 A 
ATOM     78  C   UNL A   1      42.543  21.167  26.644  1.00  0.00     0.054 A 
BRANCH  78  79
ATOM     79  S   UNL A   1      42.315  19.542  25.869  1.00  0.00     0.124 S 
ATOM     80  O   UNL A   1      43.301  19.580  24.793  1.00  0.00    -0.237 OA
ATOM     81  O   UNL A   1      42.608  18.621  26.965  1.00  0.00    -0.237 OA
ATOM     82  O   UNL A   1      40.918  19.563  25.441  1.00  0.00    -0.744 OA
ENDBRANCH  78  79
ENDBRANCH  50  73
BRANCH  62  83
ATOM     83  C   UNL A   1      48.010  26.943  31.152  1.00  0.00    -0.014 A 
ATOM     84  C   UNL A   1      49.095  27.231  30.304  1.00  0.00     0.010 A 
ATOM     85  C   UNL A   1      48.245  26.270  32.364  1.00  0.00     0.010 A 
ATOM     86  C   UNL A   1      50.385  26.820  30.645  1.00  0.00     0.020 A 
ATOM     87  C   UNL A   1      49.539  25.878  32.719  1.00  0.00     0.020 A 
ATOM     88  C   UNL A   1      50.599  26.140  31.848  1.00  0.00     0.054 A 
BRANCH  88  89
ATOM     89  S   UNL A   1      52.286  25.634  32.282  1.00  0.00     0.124 S 
ATOM     90  O   UNL A   1      52.581  26.505  33.415  1.00  0.00    -0.237 OA
ATOM     91  O   UNL A   1      52.127  24.218  32.601  1.00  0.00    -0.237 OA
ATOM     92  O   UNL A   1      53.051  25.909  31.067  1.00  0.00    -0.744 OA
ENDBRANCH  88  89
ENDBRANCH  62  83
ENDBRANCH  36  37
ENDBRANCH  28  31
ENDBRANCH  26  27
ENDBRANCH   1  26
TORSDOF 16
ENDMDL
MODEL 3
REMARK VINA RESULT:     -11.4      4.471     10.385
REMARK SMILES CNC(=O)c1cccc(-c2cnc(O)c(C(=O)NCCCNC(=O)c3ccc(-c4c5nc(c(-c6ccc(S(=O)(=O)[O-])cc6)c6ccc([nH]6)c(-c6ccc(S(=O)(=O)[O-])cc6)c6nc(c(-c7ccc(S(=O)(=O)[O-])cc7)c7ccc4[nH]7)C=C6)C=C5)cc3)c2)c1
REMARK SMILES IDX 20 1 19 2 18 3 16 4 17 5 15 7 10 8 11 9 85 10 12 11 13 12
REMARK SMILES IDX 9 13 5 14 6 15 86 16 7 17 8 18 3 19 1 20 2 21 4 23 14 24
REMARK SMILES IDX 21 26 22 27 23 28 24 30 25 31 26 32 84 33 27 34 83 35 28 36
REMARK SMILES IDX 29 37 30 38 77 39 31 40 82 41 76 42 78 43 32 44 81 45 75 46
REMARK SMILES IDX 74 47 33 49 63 50 44 51 62 52 45 53 48 54 61 55 79 56 46 57
REMARK SMILES IDX 47 58 60 60 80 61 49 62 34 63 35 64 43 65 36 66 42 67 37 68
REMARK SMILES IDX 38 69 39 70 40 71 41 72 64 73 65 74 73 75 66 76 72 77 67 78
REMARK SMILES IDX 68 79 69 80 70 81 71 82 50 83 51 84 59 85 52 86 58 87 53 88
REMARK SMILES IDX 54 89 55 90 56 91 57 92
REMARK H PARENT 18 6 2 22 14 25 22 29 78 48 48 59
REMARK Flexibility Score: inf
ROOT
ATOM      1  C   UNL A   1      39.912  22.137  26.668  1.00  0.00     0.042 C 
ENDROOT
BRANCH   1   2
ATOM      2  C   UNL A   1      38.582  22.849  26.422  1.00  0.00     0.118 C 
BRANCH   2   3
ATOM      3  N   UNL A   1      38.153  22.726  25.037  1.00  0.00    -0.352 N 
ATOM      4  C   UNL A   1      36.921  22.780  24.438  1.00  0.00     0.256 C 
ATOM      5  O   UNL A   1      36.879  22.775  23.205  1.00  0.00    -0.269 OA
ATOM      6  H   UNL A   1      38.893  22.573  24.407  1.00  0.00     0.163 HD
BRANCH   4   7
ATOM      7  C   UNL A   1      35.638  22.907  25.169  1.00  0.00     0.102 A 
ATOM      8  C   UNL A   1      33.685  24.137  25.938  1.00  0.00     0.001 A 
ATOM      9  C   UNL A   1      33.228  22.946  26.490  1.00  0.00     0.124 A 
ATOM     10  C   UNL A   1      34.939  24.105  25.312  1.00  0.00     0.029 A 
ATOM     11  N   UNL A   1      33.900  21.775  26.431  1.00  0.00    -0.221 NA
ATOM     12  C   UNL A   1      35.083  21.777  25.778  1.00  0.00     0.223 A 
BRANCH   8  13
ATOM     13  C   UNL A   1      32.883  25.361  25.934  1.00  0.00    -0.016 A 
ATOM     14  C   UNL A   1      32.745  27.773  25.597  1.00  0.00     0.040 A 
ATOM     15  C   UNL A   1      31.402  27.754  25.980  1.00  0.00     0.014 A 
ATOM     16  C   UNL A   1      33.486  26.587  25.599  1.00  0.00     0.022 A 
ATOM     17  C   UNL A   1      30.791  26.543  26.314  1.00  0.00     0.001 A 
ATOM     18  C   UNL A   1      31.525  25.353  26.281  1.00  0.00     0.009 A 
BRANCH  14  19
ATOM     19  C   UNL A   1      33.379  29.073  25.286  1.00  0.00     0.251 C 
ATOM     20  C   UNL A   1      32.974  28.934  22.773  1.00  0.00     0.143 C 
ATOM     21  N   UNL A   1      33.530  29.486  23.986  1.00  0.00    -0.355 N 
ATOM     22  H   UNL A   1      34.104  30.277  23.862  1.00  0.00     0.163 HD
ATOM     23  O   UNL A   1      33.772  29.789  26.200  1.00  0.00    -0.269 OA
ENDBRANCH  14  19
ENDBRANCH   8  13
BRANCH  12  24
ATOM     24  O   UNL A   1      35.687  20.550  25.762  1.00  0.00    -0.493 OA
ATOM     25  H   UNL A   1      36.242  20.292  26.472  1.00  0.00     0.295 HD
ENDBRANCH  12  24
ENDBRANCH   4   7
ENDBRANCH   2   3
ENDBRANCH   1   2
BRANCH   1  26
ATOM     26  C   UNL A   1      41.025  23.063  27.157  1.00  0.00     0.118 C 
BRANCH  26  27
ATOM     27  N   UNL A   1      41.560  23.889  26.087  1.00  0.00    -0.352 N 
ATOM     28  C   UNL A   1      41.699  25.251  26.000  1.00  0.00     0.251 C 
ATOM     29  H   UNL A   1      41.873  23.390  25.297  1.00  0.00     0.163 HD
ATOM     30  O   UNL A   1      41.980  25.750  24.914  1.00  0.00    -0.269 OA
BRANCH  28  31
ATOM     31  C   UNL A   1      41.508  26.121  27.184  1.00  0.00     0.039 A 
ATOM     32  C   UNL A   1      42.430  27.147  27.414  1.00  0.00     0.014 A 
ATOM     33  C   UNL A   1      40.477  25.896  28.101  1.00  0.00     0.014 A 
ATOM     34  C   UNL A   1      42.291  27.974  28.532  1.00  0.00     0.010 A 
ATOM     35  C   UNL A   1      40.306  26.757  29.187  1.00  0.00     0.010 A 
ATOM     36  C   UNL A   1      41.214  27.802  29.415  1.00  0.00    -0.014 A 
BRANCH  36  37
ATOM     37  C   UNL A   1      41.020  28.719  30.569  1.00  0.00     0.031 A 
ATOM     38  C   UNL A   1      41.865  28.584  31.807  1.00  0.00     0.074 A 
ATOM     39  C   UNL A   1      40.042  29.644  30.519  1.00  0.00     0.049 A 
ATOM     40  N   UNL A   1      41.814  29.276  32.919  1.00  0.00    -0.248 NA
ATOM     41  C   UNL A   1      42.886  27.525  31.807  1.00  0.00     0.031 C 
ATOM     42  C   UNL A   1      39.124  29.846  29.395  1.00  0.00     0.029 A 
ATOM     43  N   UNL A   1      39.652  30.586  31.438  1.00  0.00    -0.354 N 
ATOM     44  C   UNL A   1      42.778  28.725  33.754  1.00  0.00     0.074 A 
ATOM     45  C   UNL A   1      43.375  27.620  33.036  1.00  0.00     0.031 C 
ATOM     46  C   UNL A   1      38.293  30.860  29.683  1.00  0.00     0.029 A 
ATOM     47  C   UNL A   1      38.595  31.360  31.020  1.00  0.00     0.049 A 
ATOM     48  H   UNL A   1      40.087  30.697  32.315  1.00  0.00     0.167 HD
ATOM     49  C   UNL A   1      43.145  29.113  35.000  1.00  0.00     0.031 A 
ATOM     50  C   UNL A   1      37.939  32.359  31.642  1.00  0.00     0.031 A 
ATOM     51  C   UNL A   1      42.561  30.223  35.708  1.00  0.00     0.049 A 
ATOM     52  C   UNL A   1      38.376  32.782  33.016  1.00  0.00     0.074 A 
ATOM     53  C   UNL A   1      42.909  30.732  36.948  1.00  0.00     0.029 A 
ATOM     54  N   UNL A   1      41.507  30.993  35.243  1.00  0.00    -0.354 N 
ATOM     55  N   UNL A   1      39.337  32.291  33.762  1.00  0.00    -0.248 NA
ATOM     56  C   UNL A   1      37.648  33.903  33.626  1.00  0.00     0.031 C 
ATOM     57  C   UNL A   1      42.037  31.784  37.250  1.00  0.00     0.029 A 
ATOM     58  C   UNL A   1      41.178  31.960  36.178  1.00  0.00     0.049 A 
ATOM     59  H   UNL A   1      41.059  30.871  34.375  1.00  0.00     0.167 HD
ATOM     60  C   UNL A   1      39.339  33.053  34.924  1.00  0.00     0.074 A 
ATOM     61  C   UNL A   1      38.298  34.050  34.773  1.00  0.00     0.031 C 
ATOM     62  C   UNL A   1      40.130  32.937  36.018  1.00  0.00     0.031 A 
BRANCH  49  63
ATOM     63  C   UNL A   1      44.230  28.323  35.683  1.00  0.00    -0.014 A 
ATOM     64  C   UNL A   1      43.921  27.217  36.495  1.00  0.00     0.010 A 
ATOM     65  C   UNL A   1      45.580  28.668  35.479  1.00  0.00     0.010 A 
ATOM     66  C   UNL A   1      44.939  26.494  37.123  1.00  0.00     0.020 A 
ATOM     67  C   UNL A   1      46.602  27.932  36.088  1.00  0.00     0.020 A 
ATOM     68  C   UNL A   1      46.273  26.861  36.921  1.00  0.00     0.054 A 
BRANCH  68  69
ATOM     69  S   UNL A   1      47.576  25.895  37.735  1.00  0.00     0.124 S 
ATOM     70  O   UNL A   1      47.563  24.659  36.958  1.00  0.00    -0.237 OA
ATOM     71  O   UNL A   1      48.759  26.735  37.558  1.00  0.00    -0.237 OA
ATOM     72  O   UNL A   1      47.106  25.771  39.113  1.00  0.00    -0.744 OA
ENDBRANCH  68  69
ENDBRANCH  49  63
BRANCH  50  73
ATOM     73  C   UNL A   1      36.806  33.036  30.958  1.00  0.00    -0.014 A 
ATOM     74  C   UNL A   1      37.044  33.927  29.896  1.00  0.00     0.010 A 
ATOM     75  C   UNL A   1      35.482  32.777  31.352  1.00  0.00     0.010 A 
ATOM     76  C   UNL A   1      35.978  34.558  29.250  1.00  0.00     0.020 A 
ATOM     77  C   UNL A   1      34.412  33.388  30.693  1.00  0.00     0.020 A 
ATOM     78  C   UNL A   1      34.667  34.284  29.653  1.00  0.00     0.054 A 
BRANCH  78  79
ATOM     79  S   UNL A   1      33.293  35.067  28.763  1.00  0.00     0.124 S 
ATOM     80  O   UNL A   1      32.450  35.534  29.860  1.00  0.00    -0.237 OA
ATOM     81  O   UNL A   1      33.964  36.110  27.993  1.00  0.00    -0.237 OA
ATOM     82  O   UNL A   1      32.738  33.975  27.967  1.00  0.00    -0.744 OA
ENDBRANCH  78  79
ENDBRANCH  50  73
BRANCH  62  83
ATOM     83  C   UNL A   1      39.909  33.925  37.132  1.00  0.00    -0.014 A 
ATOM     84  C   UNL A   1      40.476  35.211  37.083  1.00  0.00     0.010 A 
ATOM     85  C   UNL A   1      39.102  33.570  38.228  1.00  0.00     0.010 A 
ATOM     86  C   UNL A   1      40.272  36.112  38.131  1.00  0.00     0.020 A 
ATOM     87  C   UNL A   1      38.877  34.478  39.266  1.00  0.00     0.020 A 
ATOM     88  C   UNL A   1      39.478  35.738  39.219  1.00  0.00     0.054 A 
BRANCH  88  89
ATOM     89  S   UNL A   1      39.207  36.931  40.558  1.00  0.00     0.124 S 
ATOM     90  O   UNL A   1      40.573  37.230  40.978  1.00  0.00    -0.237 OA
ATOM     91  O   UNL A   1      38.503  38.019  39.885  1.00  0.00    -0.237 OA
ATOM     92  O   UNL A   1      38.406  36.186  41.527  1.00  0.00    -0.744 OA
ENDBRANCH  88  89
ENDBRANCH  62  83
ENDBRANCH  36  37
ENDBRANCH  28  31
ENDBRANCH  26  27
ENDBRANCH   1  26
TORSDOF 16
ENDMDL
