MODEL 1
REMARK VINA RESULT:      -8.6      0.000      0.000
REMARK SMILES Cc1cc(C(=O)N(C)[C@H]2CCSC2)sc1/C=C/C(=O)NCCCNC(=O)c1ccc(-c2c3nc(c(-c4ccc(S(=O)(=O)[O-])cc4)c4ccc([nH]4)c(-c4ccc(S(=O)(=O)[O-])cc4)c4nc(c(-c5ccc(S(=O)(=O)[O-])cc5)c5ccc2[nH]5)C=C4)C=C3)cc1
REMARK SMILES IDX 21 1 20 2 18 3 19 4 17 6 16 7 15 8 1 9 2 10 3 11 4 12 14 13
REMARK SMILES IDX 5 14 6 15 7 16 8 17 9 18 10 19 13 20 11 21 12 22 22 23 23 24
REMARK SMILES IDX 24 25 25 26 26 28 27 29 28 30 86 31 29 32 85 33 30 34 31 35
REMARK SMILES IDX 32 36 79 37 33 38 84 39 78 40 80 41 34 42 83 43 77 44 76 45
REMARK SMILES IDX 35 47 65 48 46 49 64 50 47 51 50 52 63 53 81 54 48 55 49 56
REMARK SMILES IDX 62 58 82 59 51 60 36 61 37 62 45 63 38 64 44 65 39 66 40 67
REMARK SMILES IDX 41 68 42 69 43 70 66 71 67 72 75 73 68 74 74 75 69 76 70 77
REMARK SMILES IDX 71 78 72 79 73 80 52 81 53 82 61 83 54 84 60 85 55 86 56 87
REMARK SMILES IDX 57 88 58 89 59 90
REMARK H PARENT 20 5 24 27 80 46 50 57
REMARK Flexibility Score: inf
ROOT
ATOM      1  C   UNL A   1      35.289  33.222  30.677  1.00  0.00     0.118 C 
ENDROOT
BRANCH   1   2
ATOM      2  N   UNL A   1      35.127  34.232  31.708  1.00  0.00    -0.352 N 
ATOM      3  C   UNL A   1      35.727  34.361  32.921  1.00  0.00     0.244 C 
ATOM      4  O   UNL A   1      35.515  35.358  33.605  1.00  0.00    -0.270 OA
ATOM      5  H   UNL A   1      34.475  34.938  31.494  1.00  0.00     0.163 HD
BRANCH   3   6
ATOM      6  C   UNL A   1      36.714  33.364  33.382  1.00  0.00     0.072 C 
ATOM      7  C   UNL A   1      38.038  33.487  33.212  1.00  0.00     0.025 C 
BRANCH   7   8
ATOM      8  C   UNL A   1      38.986  32.511  33.641  1.00  0.00     0.031 A 
ATOM      9  C   UNL A   1      40.741  34.014  34.790  1.00  0.00     0.046 C 
ATOM     10  C   UNL A   1      40.212  32.716  34.266  1.00  0.00    -0.032 A 
ATOM     11  C   UNL A   1      40.964  31.497  34.333  1.00  0.00     0.029 A 
ATOM     12  C   UNL A   1      40.306  30.392  33.814  1.00  0.00     0.093 A 
ATOM     13  S   UNL A   1      38.713  30.829  33.416  1.00  0.00    -0.130 S 
BRANCH  12  14
ATOM     14  C   UNL A   1      40.882  29.045  33.748  1.00  0.00     0.263 C 
ATOM     15  O   UNL A   1      40.541  28.302  32.821  1.00  0.00    -0.268 OA
BRANCH  14  16
ATOM     16  N   UNL A   1      41.812  28.544  34.688  1.00  0.00    -0.337 N 
ATOM     17  C   UNL A   1      41.674  28.608  36.139  1.00  0.00     0.147 C 
BRANCH  16  18
ATOM     18  C   UNL A   1      42.928  27.742  34.148  1.00  0.00     0.095 C 
ATOM     19  C   UNL A   1      44.327  28.260  34.492  1.00  0.00     0.037 C 
ATOM     20  C   UNL A   1      42.867  26.280  34.607  1.00  0.00     0.094 C 
ATOM     21  C   UNL A   1      45.296  27.220  33.957  1.00  0.00     0.072 C 
ATOM     22  S   UNL A   1      44.549  25.624  34.380  1.00  0.00    -0.160 SA
ENDBRANCH  16  18
ENDBRANCH  14  16
ENDBRANCH  12  14
ENDBRANCH   7   8
ENDBRANCH   3   6
ENDBRANCH   1   2
BRANCH   1  23
ATOM     23  C   UNL A   1      34.279  33.414  29.549  1.00  0.00     0.042 C 
BRANCH  23  24
ATOM     24  C   UNL A   1      34.686  32.718  28.254  1.00  0.00     0.118 C 
BRANCH  24  25
ATOM     25  N   UNL A   1      33.980  31.457  28.076  1.00  0.00    -0.352 N 
ATOM     26  C   UNL A   1      34.471  30.184  27.931  1.00  0.00     0.251 C 
ATOM     27  H   UNL A   1      32.998  31.528  28.056  1.00  0.00     0.163 HD
ATOM     28  O   UNL A   1      33.723  29.294  27.541  1.00  0.00    -0.269 OA
BRANCH  26  29
ATOM     29  C   UNL A   1      35.888  29.883  28.237  1.00  0.00     0.039 A 
ATOM     30  C   UNL A   1      36.228  29.498  29.537  1.00  0.00     0.014 A 
ATOM     31  C   UNL A   1      36.883  30.031  27.268  1.00  0.00     0.014 A 
ATOM     32  C   UNL A   1      37.559  29.217  29.852  1.00  0.00     0.010 A 
ATOM     33  C   UNL A   1      38.199  29.680  27.564  1.00  0.00     0.010 A 
ATOM     34  C   UNL A   1      38.552  29.282  28.861  1.00  0.00    -0.014 A 
BRANCH  34  35
ATOM     35  C   UNL A   1      39.966  28.944  29.165  1.00  0.00     0.031 A 
ATOM     36  C   UNL A   1      40.871  29.972  29.791  1.00  0.00     0.074 A 
ATOM     37  C   UNL A   1      40.446  27.733  28.826  1.00  0.00     0.049 A 
ATOM     38  N   UNL A   1      42.145  29.881  30.077  1.00  0.00    -0.248 NA
ATOM     39  C   UNL A   1      40.275  31.278  30.114  1.00  0.00     0.031 C 
ATOM     40  C   UNL A   1      39.677  26.667  28.178  1.00  0.00     0.029 A 
ATOM     41  N   UNL A   1      41.701  27.195  28.972  1.00  0.00    -0.354 N 
ATOM     42  C   UNL A   1      42.506  31.119  30.596  1.00  0.00     0.074 A 
ATOM     43  C   UNL A   1      41.329  31.959  30.540  1.00  0.00     0.031 C 
ATOM     44  C   UNL A   1      40.469  25.597  28.006  1.00  0.00     0.029 A 
ATOM     45  C   UNL A   1      41.808  25.911  28.492  1.00  0.00     0.049 A 
ATOM     46  H   UNL A   1      42.452  27.683  29.381  1.00  0.00     0.167 HD
ATOM     47  C   UNL A   1      43.702  31.517  31.092  1.00  0.00     0.031 A 
ATOM     48  C   UNL A   1      42.868  25.081  28.442  1.00  0.00     0.031 A 
ATOM     49  C   UNL A   1      44.866  30.674  31.154  1.00  0.00     0.049 A 
ATOM     50  C   UNL A   1      44.186  25.543  28.999  1.00  0.00     0.074 A 
ATOM     51  C   UNL A   1      46.112  30.965  31.683  1.00  0.00     0.029 A 
ATOM     52  N   UNL A   1      44.930  29.376  30.673  1.00  0.00    -0.354 N 
ATOM     53  N   UNL A   1      44.491  26.700  29.538  1.00  0.00    -0.248 NA
ATOM     54  C   UNL A   1      45.298  24.585  28.953  1.00  0.00     0.031 C 
ATOM     55  C   UNL A   1      46.942  29.857  31.479  1.00  0.00     0.029 A 
ATOM     56  C   UNL A   1      46.198  28.857  30.874  1.00  0.00     0.049 A 
ATOM     57  H   UNL A   1      44.184  28.893  30.249  1.00  0.00     0.167 HD
ATOM     58  C   UNL A   1      45.825  26.599  29.917  1.00  0.00     0.074 A 
ATOM     59  C   UNL A   1      46.261  25.263  29.561  1.00  0.00     0.031 C 
ATOM     60  C   UNL A   1      46.616  27.527  30.510  1.00  0.00     0.031 A 
BRANCH  47  61
ATOM     61  C   UNL A   1      43.809  32.931  31.602  1.00  0.00    -0.014 A 
ATOM     62  C   UNL A   1      43.832  34.023  30.716  1.00  0.00     0.010 A 
ATOM     63  C   UNL A   1      43.855  33.175  32.987  1.00  0.00     0.010 A 
ATOM     64  C   UNL A   1      43.944  35.328  31.202  1.00  0.00     0.020 A 
ATOM     65  C   UNL A   1      43.938  34.481  33.478  1.00  0.00     0.020 A 
ATOM     66  C   UNL A   1      44.001  35.549  32.581  1.00  0.00     0.054 A 
BRANCH  66  67
ATOM     67  S   UNL A   1      44.130  37.255  33.184  1.00  0.00     0.124 S 
ATOM     68  O   UNL A   1      45.505  37.296  33.674  1.00  0.00    -0.237 OA
ATOM     69  O   UNL A   1      43.869  38.040  31.981  1.00  0.00    -0.237 OA
ATOM     70  O   UNL A   1      43.098  37.337  34.215  1.00  0.00    -0.744 OA
ENDBRANCH  66  67
ENDBRANCH  47  61
BRANCH  48  71
ATOM     71  C   UNL A   1      42.715  23.720  27.859  1.00  0.00    -0.014 A 
ATOM     72  C   UNL A   1      42.242  22.656  28.646  1.00  0.00     0.010 A 
ATOM     73  C   UNL A   1      43.015  23.489  26.505  1.00  0.00     0.010 A 
ATOM     74  C   UNL A   1      42.085  21.381  28.094  1.00  0.00     0.020 A 
ATOM     75  C   UNL A   1      42.834  22.223  25.942  1.00  0.00     0.020 A 
ATOM     76  C   UNL A   1      42.379  21.174  26.743  1.00  0.00     0.054 A 
BRANCH  76  77
ATOM     77  S   UNL A   1      42.109  19.527  26.032  1.00  0.00     0.124 S 
ATOM     78  O   UNL A   1      40.669  19.532  25.790  1.00  0.00    -0.237 OA
ATOM     79  O   UNL A   1      42.951  19.557  24.839  1.00  0.00    -0.237 OA
ATOM     80  O   UNL A   1      42.565  18.622  27.084  1.00  0.00    -0.744 OA
ENDBRANCH  76  77
ENDBRANCH  48  71
BRANCH  60  81
ATOM     81  C   UNL A   1      48.029  27.122  30.839  1.00  0.00    -0.014 A 
ATOM     82  C   UNL A   1      48.334  26.443  32.031  1.00  0.00     0.010 A 
ATOM     83  C   UNL A   1      49.056  27.382  29.913  1.00  0.00     0.010 A 
ATOM     84  C   UNL A   1      49.649  26.060  32.307  1.00  0.00     0.020 A 
ATOM     85  C   UNL A   1      50.366  26.977  30.174  1.00  0.00     0.020 A 
ATOM     86  C   UNL A   1      50.658  26.331  31.377  1.00  0.00     0.054 A 
BRANCH  86  87
ATOM     87  S   UNL A   1      52.350  25.788  31.741  1.00  0.00     0.124 S 
ATOM     88  O   UNL A   1      52.991  25.896  30.434  1.00  0.00    -0.237 OA
ATOM     89  O   UNL A   1      52.790  26.758  32.740  1.00  0.00    -0.237 OA
ATOM     90  O   UNL A   1      52.175  24.425  32.240  1.00  0.00    -0.744 OA
ENDBRANCH  86  87
ENDBRANCH  60  81
ENDBRANCH  34  35
ENDBRANCH  26  29
ENDBRANCH  24  25
ENDBRANCH  23  24
ENDBRANCH   1  23
TORSDOF 17
ENDMDL
MODEL 2
REMARK VINA RESULT:      -8.5      4.827     12.601
REMARK SMILES Cc1cc(C(=O)N(C)[C@H]2CCSC2)sc1/C=C/C(=O)NCCCNC(=O)c1ccc(-c2c3nc(c(-c4ccc(S(=O)(=O)[O-])cc4)c4ccc([nH]4)c(-c4ccc(S(=O)(=O)[O-])cc4)c4nc(c(-c5ccc(S(=O)(=O)[O-])cc5)c5ccc2[nH]5)C=C4)C=C3)cc1
REMARK SMILES IDX 21 1 20 2 18 3 19 4 17 6 16 7 15 8 1 9 2 10 3 11 4 12 14 13
REMARK SMILES IDX 5 14 6 15 7 16 8 17 9 18 10 19 13 20 11 21 12 22 22 23 23 24
REMARK SMILES IDX 24 25 25 26 26 28 27 29 28 30 86 31 29 32 85 33 30 34 31 35
REMARK SMILES IDX 32 36 79 37 33 38 84 39 78 40 80 41 34 42 83 43 77 44 76 45
REMARK SMILES IDX 35 47 65 48 46 49 64 50 47 51 50 52 63 53 81 54 48 55 49 56
REMARK SMILES IDX 62 58 82 59 51 60 36 61 37 62 45 63 38 64 44 65 39 66 40 67
REMARK SMILES IDX 41 68 42 69 43 70 66 71 67 72 75 73 68 74 74 75 69 76 70 77
REMARK SMILES IDX 71 78 72 79 73 80 52 81 53 82 61 83 54 84 60 85 55 86 56 87
REMARK SMILES IDX 57 88 58 89 59 90
REMARK H PARENT 20 5 24 27 80 46 50 57
REMARK Flexibility Score: inf
ROOT
ATOM      1  C   UNL A   1      39.041  22.211  25.866  1.00  0.00     0.118 C 
ENDROOT
BRANCH   1   2
ATOM      2  N   UNL A   1      38.445  20.913  25.601  1.00  0.00    -0.352 N 
ATOM      3  C   UNL A   1      37.283  20.585  24.977  1.00  0.00     0.244 C 
ATOM      4  O   UNL A   1      37.012  19.405  24.769  1.00  0.00    -0.270 OA
ATOM      5  H   UNL A   1      38.968  20.145  25.929  1.00  0.00     0.163 HD
BRANCH   3   6
ATOM      6  C   UNL A   1      36.389  21.636  24.450  1.00  0.00     0.072 C 
ATOM      7  C   UNL A   1      35.051  21.550  24.450  1.00  0.00     0.025 C 
BRANCH   7   8
ATOM      8  C   UNL A   1      34.193  22.559  23.921  1.00  0.00     0.031 A 
ATOM      9  C   UNL A   1      32.177  21.132  23.171  1.00  0.00     0.046 C 
ATOM     10  C   UNL A   1      32.965  22.400  23.287  1.00  0.00    -0.032 A 
ATOM     11  C   UNL A   1      32.524  23.635  22.705  1.00  0.00     0.029 A 
ATOM     12  C   UNL A   1      33.374  24.706  22.932  1.00  0.00     0.093 A 
ATOM     13  S   UNL A   1      34.604  24.226  24.000  1.00  0.00    -0.130 S 
BRANCH  12  14
ATOM     14  C   UNL A   1      33.149  26.061  22.415  1.00  0.00     0.263 C 
ATOM     15  O   UNL A   1      33.753  26.411  21.394  1.00  0.00    -0.268 OA
BRANCH  14  16
ATOM     16  N   UNL A   1      32.275  26.995  23.017  1.00  0.00    -0.337 N 
ATOM     17  C   UNL A   1      30.913  27.288  22.582  1.00  0.00     0.147 C 
BRANCH  16  18
ATOM     18  C   UNL A   1      32.725  27.592  24.290  1.00  0.00     0.095 C 
ATOM     19  C   UNL A   1      32.834  29.120  24.288  1.00  0.00     0.037 C 
ATOM     20  C   UNL A   1      31.813  27.210  25.463  1.00  0.00     0.094 C 
ATOM     21  C   UNL A   1      33.175  29.511  25.716  1.00  0.00     0.072 C 
ATOM     22  S   UNL A   1      32.125  28.456  26.752  1.00  0.00    -0.160 SA
ENDBRANCH  16  18
ENDBRANCH  14  16
ENDBRANCH  12  14
ENDBRANCH   7   8
ENDBRANCH   3   6
ENDBRANCH   1   2
BRANCH   1  23
ATOM     23  C   UNL A   1      40.063  22.132  26.997  1.00  0.00     0.042 C 
BRANCH  23  24
ATOM     24  C   UNL A   1      40.585  23.499  27.429  1.00  0.00     0.118 C 
BRANCH  24  25
ATOM     25  N   UNL A   1      41.009  24.298  26.288  1.00  0.00    -0.352 N 
ATOM     26  C   UNL A   1      41.055  25.661  26.135  1.00  0.00     0.251 C 
ATOM     27  H   UNL A   1      41.308  23.781  25.506  1.00  0.00     0.163 HD
ATOM     28  O   UNL A   1      41.202  26.133  25.012  1.00  0.00    -0.269 OA
BRANCH  26  29
ATOM     29  C   UNL A   1      40.926  26.556  27.307  1.00  0.00     0.039 A 
ATOM     30  C   UNL A   1      39.953  26.269  28.268  1.00  0.00     0.014 A 
ATOM     31  C   UNL A   1      41.720  27.698  27.434  1.00  0.00     0.014 A 
ATOM     32  C   UNL A   1      39.807  27.104  29.378  1.00  0.00     0.010 A 
ATOM     33  C   UNL A   1      41.624  28.489  28.577  1.00  0.00     0.010 A 
ATOM     34  C   UNL A   1      40.658  28.207  29.554  1.00  0.00    -0.014 A 
BRANCH  34  35
ATOM     35  C   UNL A   1      40.548  29.080  30.750  1.00  0.00     0.031 A 
ATOM     36  C   UNL A   1      41.480  28.887  31.916  1.00  0.00     0.074 A 
ATOM     37  C   UNL A   1      39.573  30.008  30.806  1.00  0.00     0.049 A 
ATOM     38  N   UNL A   1      41.500  29.511  33.066  1.00  0.00    -0.248 NA
ATOM     39  C   UNL A   1      42.506  27.839  31.784  1.00  0.00     0.031 C 
ATOM     40  C   UNL A   1      38.584  30.264  29.756  1.00  0.00     0.029 A 
ATOM     41  N   UNL A   1      39.248  30.905  31.794  1.00  0.00    -0.354 N 
ATOM     42  C   UNL A   1      42.525  28.923  33.799  1.00  0.00     0.074 A 
ATOM     43  C   UNL A   1      43.070  27.860  32.983  1.00  0.00     0.031 C 
ATOM     44  C   UNL A   1      37.780  31.266  30.144  1.00  0.00     0.029 A 
ATOM     45  C   UNL A   1      38.169  31.698  31.483  1.00  0.00     0.049 A 
ATOM     46  H   UNL A   1      39.741  30.974  32.643  1.00  0.00     0.167 HD
ATOM     47  C   UNL A   1      42.984  29.249  35.031  1.00  0.00     0.031 A 
ATOM     48  C   UNL A   1      37.554  32.660  32.198  1.00  0.00     0.031 A 
ATOM     49  C   UNL A   1      42.444  30.314  35.834  1.00  0.00     0.049 A 
ATOM     50  C   UNL A   1      38.081  33.006  33.563  1.00  0.00     0.074 A 
ATOM     51  C   UNL A   1      42.869  30.758  37.074  1.00  0.00     0.029 A 
ATOM     52  N   UNL A   1      41.361  31.104  35.477  1.00  0.00    -0.354 N 
ATOM     53  N   UNL A   1      39.089  32.475  34.214  1.00  0.00    -0.248 NA
ATOM     54  C   UNL A   1      37.398  34.088  34.283  1.00  0.00     0.031 C 
ATOM     55  C   UNL A   1      42.014  31.785  37.488  1.00  0.00     0.029 A 
ATOM     56  C   UNL A   1      41.092  32.019  36.480  1.00  0.00     0.049 A 
ATOM     57  H   UNL A   1      40.858  31.025  34.635  1.00  0.00     0.167 HD
ATOM     58  C   UNL A   1      39.174  33.176  35.412  1.00  0.00     0.074 A 
ATOM     59  C   UNL A   1      38.127  34.179  35.386  1.00  0.00     0.031 C 
ATOM     60  C   UNL A   1      40.043  33.007  36.439  1.00  0.00     0.031 A 
BRANCH  47  61
ATOM     61  C   UNL A   1      44.126  28.438  35.586  1.00  0.00    -0.014 A 
ATOM     62  C   UNL A   1      45.463  28.807  35.346  1.00  0.00     0.010 A 
ATOM     63  C   UNL A   1      43.863  27.310  36.384  1.00  0.00     0.010 A 
ATOM     64  C   UNL A   1      46.513  28.039  35.856  1.00  0.00     0.020 A 
ATOM     65  C   UNL A   1      44.911  26.556  36.920  1.00  0.00     0.020 A 
ATOM     66  C   UNL A   1      46.230  26.915  36.637  1.00  0.00     0.054 A 
BRANCH  66  67
ATOM     67  S   UNL A   1      47.613  25.946  37.298  1.00  0.00     0.124 S 
ATOM     68  O   UNL A   1      47.747  26.494  38.645  1.00  0.00    -0.237 OA
ATOM     69  O   UNL A   1      47.109  24.577  37.225  1.00  0.00    -0.237 OA
ATOM     70  O   UNL A   1      48.716  26.251  36.389  1.00  0.00    -0.744 OA
ENDBRANCH  66  67
ENDBRANCH  47  61
BRANCH  48  71
ATOM     71  C   UNL A   1      36.384  33.377  31.622  1.00  0.00    -0.014 A 
ATOM     72  C   UNL A   1      35.269  33.682  32.421  1.00  0.00     0.010 A 
ATOM     73  C   UNL A   1      36.392  33.782  30.275  1.00  0.00     0.010 A 
ATOM     74  C   UNL A   1      34.177  34.367  31.882  1.00  0.00     0.020 A 
ATOM     75  C   UNL A   1      35.313  34.491  29.739  1.00  0.00     0.020 A 
ATOM     76  C   UNL A   1      34.208  34.771  30.544  1.00  0.00     0.054 A 
BRANCH  76  77
ATOM     77  S   UNL A   1      32.806  35.713  29.882  1.00  0.00     0.124 S 
ATOM     78  O   UNL A   1      31.810  35.558  30.937  1.00  0.00    -0.237 OA
ATOM     79  O   UNL A   1      33.369  37.053  29.733  1.00  0.00    -0.237 OA
ATOM     80  O   UNL A   1      32.500  35.032  28.626  1.00  0.00    -0.744 OA
ENDBRANCH  76  77
ENDBRANCH  48  71
BRANCH  60  81
ATOM     81  C   UNL A   1      39.919  33.946  37.610  1.00  0.00    -0.014 A 
ATOM     82  C   UNL A   1      40.441  35.250  37.558  1.00  0.00     0.010 A 
ATOM     83  C   UNL A   1      39.224  33.529  38.761  1.00  0.00     0.010 A 
ATOM     84  C   UNL A   1      40.298  36.111  38.649  1.00  0.00     0.020 A 
ATOM     85  C   UNL A   1      39.057  34.395  39.842  1.00  0.00     0.020 A 
ATOM     86  C   UNL A   1      39.607  35.677  39.786  1.00  0.00     0.054 A 
BRANCH  86  87
ATOM     87  S   UNL A   1      39.401  36.827  41.173  1.00  0.00     0.124 S 
ATOM     88  O   UNL A   1      38.888  38.019  40.506  1.00  0.00    -0.237 OA
ATOM     89  O   UNL A   1      38.450  36.127  42.032  1.00  0.00    -0.237 OA
ATOM     90  O   UNL A   1      40.751  36.952  41.722  1.00  0.00    -0.744 OA
ENDBRANCH  86  87
ENDBRANCH  60  81
ENDBRANCH  34  35
ENDBRANCH  26  29
ENDBRANCH  24  25
ENDBRANCH  23  24
ENDBRANCH   1  23
TORSDOF 17
ENDMDL
MODEL 3
REMARK VINA RESULT:      -8.3      4.629      7.613
REMARK SMILES Cc1cc(C(=O)N(C)[C@H]2CCSC2)sc1/C=C/C(=O)NCCCNC(=O)c1ccc(-c2c3nc(c(-c4ccc(S(=O)(=O)[O-])cc4)c4ccc([nH]4)c(-c4ccc(S(=O)(=O)[O-])cc4)c4nc(c(-c5ccc(S(=O)(=O)[O-])cc5)c5ccc2[nH]5)C=C4)C=C3)cc1
REMARK SMILES IDX 21 1 20 2 18 3 19 4 17 6 16 7 15 8 1 9 2 10 3 11 4 12 14 13
REMARK SMILES IDX 5 14 6 15 7 16 8 17 9 18 10 19 13 20 11 21 12 22 22 23 23 24
REMARK SMILES IDX 24 25 25 26 26 28 27 29 28 30 86 31 29 32 85 33 30 34 31 35
REMARK SMILES IDX 32 36 79 37 33 38 84 39 78 40 80 41 34 42 83 43 77 44 76 45
REMARK SMILES IDX 35 47 65 48 46 49 64 50 47 51 50 52 63 53 81 54 48 55 49 56
REMARK SMILES IDX 62 58 82 59 51 60 36 61 37 62 45 63 38 64 44 65 39 66 40 67
REMARK SMILES IDX 41 68 42 69 43 70 66 71 67 72 75 73 68 74 74 75 69 76 70 77
REMARK SMILES IDX 71 78 72 79 73 80 52 81 53 82 61 83 54 84 60 85 55 86 56 87
REMARK SMILES IDX 57 88 58 89 59 90
REMARK H PARENT 20 5 24 27 80 46 50 57
REMARK Flexibility Score: inf
ROOT
ATOM      1  C   UNL A   1      34.695  29.680  27.299  1.00  0.00     0.118 C 
ENDROOT
BRANCH   1   2
ATOM      2  N   UNL A   1      33.560  30.574  27.151  1.00  0.00    -0.352 N 
ATOM      3  C   UNL A   1      32.421  30.443  26.420  1.00  0.00     0.244 C 
ATOM      4  O   UNL A   1      31.532  31.285  26.516  1.00  0.00    -0.270 OA
ATOM      5  H   UNL A   1      33.626  31.411  27.664  1.00  0.00     0.163 HD
BRANCH   3   6
ATOM      6  C   UNL A   1      32.195  29.245  25.587  1.00  0.00     0.072 C 
ATOM      7  C   UNL A   1      32.702  29.080  24.357  1.00  0.00     0.025 C 
BRANCH   7   8
ATOM      8  C   UNL A   1      32.463  27.930  23.549  1.00  0.00     0.031 A 
ATOM      9  C   UNL A   1      30.250  28.598  22.402  1.00  0.00     0.046 C 
ATOM     10  C   UNL A   1      31.363  27.657  22.742  1.00  0.00    -0.032 A 
ATOM     11  C   UNL A   1      31.396  26.303  22.269  1.00  0.00     0.029 A 
ATOM     12  C   UNL A   1      32.513  25.587  22.671  1.00  0.00     0.093 A 
ATOM     13  S   UNL A   1      33.588  26.632  23.470  1.00  0.00    -0.130 S 
BRANCH  12  14
ATOM     14  C   UNL A   1      32.755  24.180  22.335  1.00  0.00     0.263 C 
ATOM     15  O   UNL A   1      33.308  23.915  21.261  1.00  0.00    -0.268 OA
BRANCH  14  16
ATOM     16  N   UNL A   1      32.392  23.101  23.174  1.00  0.00    -0.337 N 
ATOM     17  C   UNL A   1      32.276  21.705  22.762  1.00  0.00     0.147 C 
BRANCH  16  18
ATOM     18  C   UNL A   1      32.289  23.394  24.617  1.00  0.00     0.095 C 
ATOM     19  C   UNL A   1      31.002  22.906  25.289  1.00  0.00     0.037 C 
ATOM     20  C   UNL A   1      33.460  22.804  25.413  1.00  0.00     0.094 C 
ATOM     21  C   UNL A   1      31.176  23.191  26.771  1.00  0.00     0.072 C 
ATOM     22  S   UNL A   1      32.888  22.722  27.138  1.00  0.00    -0.160 SA
ENDBRANCH  16  18
ENDBRANCH  14  16
ENDBRANCH  12  14
ENDBRANCH   7   8
ENDBRANCH   3   6
ENDBRANCH   1   2
BRANCH   1  23
ATOM     23  C   UNL A   1      35.323  29.804  28.684  1.00  0.00     0.042 C 
BRANCH  23  24
ATOM     24  C   UNL A   1      35.636  31.246  29.073  1.00  0.00     0.118 C 
BRANCH  24  25
ATOM     25  N   UNL A   1      35.771  31.396  30.516  1.00  0.00    -0.352 N 
ATOM     26  C   UNL A   1      36.795  31.023  31.349  1.00  0.00     0.251 C 
ATOM     27  H   UNL A   1      35.011  31.835  30.961  1.00  0.00     0.163 HD
ATOM     28  O   UNL A   1      36.607  31.010  32.561  1.00  0.00    -0.269 OA
BRANCH  26  29
ATOM     29  C   UNL A   1      38.112  30.634  30.797  1.00  0.00     0.039 A 
ATOM     30  C   UNL A   1      39.040  30.017  31.642  1.00  0.00     0.014 A 
ATOM     31  C   UNL A   1      38.454  30.921  29.473  1.00  0.00     0.014 A 
ATOM     32  C   UNL A   1      40.292  29.649  31.146  1.00  0.00     0.010 A 
ATOM     33  C   UNL A   1      39.675  30.487  28.960  1.00  0.00     0.010 A 
ATOM     34  C   UNL A   1      40.610  29.859  29.794  1.00  0.00    -0.014 A 
BRANCH  34  35
ATOM     35  C   UNL A   1      41.920  29.434  29.237  1.00  0.00     0.031 A 
ATOM     36  C   UNL A   1      43.043  30.427  29.104  1.00  0.00     0.074 A 
ATOM     37  C   UNL A   1      42.076  28.169  28.800  1.00  0.00     0.049 A 
ATOM     38  N   UNL A   1      44.235  30.257  28.591  1.00  0.00    -0.248 NA
ATOM     39  C   UNL A   1      42.787  31.793  29.587  1.00  0.00     0.031 C 
ATOM     40  C   UNL A   1      41.048  27.126  28.839  1.00  0.00     0.029 A 
ATOM     41  N   UNL A   1      43.158  27.547  28.230  1.00  0.00    -0.354 N 
ATOM     42  C   UNL A   1      44.863  31.495  28.673  1.00  0.00     0.074 A 
ATOM     43  C   UNL A   1      43.903  32.417  29.240  1.00  0.00     0.031 C 
ATOM     44  C   UNL A   1      41.557  25.989  28.339  1.00  0.00     0.029 A 
ATOM     45  C   UNL A   1      42.930  26.230  27.908  1.00  0.00     0.049 A 
ATOM     46  H   UNL A   1      44.017  28.001  28.067  1.00  0.00     0.167 HD
ATOM     47  C   UNL A   1      46.128  31.831  28.326  1.00  0.00     0.031 A 
ATOM     48  C   UNL A   1      43.732  25.319  27.324  1.00  0.00     0.031 A 
ATOM     49  C   UNL A   1      47.082  30.906  27.772  1.00  0.00     0.049 A 
ATOM     50  C   UNL A   1      45.134  25.714  26.948  1.00  0.00     0.074 A 
ATOM     51  C   UNL A   1      48.404  31.134  27.433  1.00  0.00     0.029 A 
ATOM     52  N   UNL A   1      46.817  29.578  27.475  1.00  0.00    -0.354 N 
ATOM     53  N   UNL A   1      45.727  26.876  27.087  1.00  0.00    -0.248 NA
ATOM     54  C   UNL A   1      45.978  24.672  26.349  1.00  0.00     0.031 C 
ATOM     55  C   UNL A   1      48.925  29.955  26.888  1.00  0.00     0.029 A 
ATOM     56  C   UNL A   1      47.943  28.978  26.940  1.00  0.00     0.049 A 
ATOM     57  H   UNL A   1      45.954  29.128  27.623  1.00  0.00     0.167 HD
ATOM     58  C   UNL A   1      47.022  26.698  26.614  1.00  0.00     0.074 A 
ATOM     59  C   UNL A   1      47.129  25.312  26.202  1.00  0.00     0.031 C 
ATOM     60  C   UNL A   1      48.032  27.598  26.532  1.00  0.00     0.031 A 
BRANCH  47  61
ATOM     61  C   UNL A   1      46.551  33.262  28.534  1.00  0.00    -0.014 A 
ATOM     62  C   UNL A   1      46.366  34.227  27.527  1.00  0.00     0.010 A 
ATOM     63  C   UNL A   1      47.112  33.657  29.763  1.00  0.00     0.010 A 
ATOM     64  C   UNL A   1      46.774  35.548  27.728  1.00  0.00     0.020 A 
ATOM     65  C   UNL A   1      47.494  34.984  29.978  1.00  0.00     0.020 A 
ATOM     66  C   UNL A   1      47.340  35.918  28.952  1.00  0.00     0.054 A 
BRANCH  66  67
ATOM     67  S   UNL A   1      47.846  37.643  29.190  1.00  0.00     0.124 S 
ATOM     68  O   UNL A   1      46.561  38.308  29.389  1.00  0.00    -0.237 OA
ATOM     69  O   UNL A   1      48.701  37.566  30.371  1.00  0.00    -0.237 OA
ATOM     70  O   UNL A   1      48.535  37.978  27.945  1.00  0.00    -0.744 OA
ENDBRANCH  66  67
ENDBRANCH  47  61
BRANCH  48  71
ATOM     71  C   UNL A   1      43.231  23.940  27.080  1.00  0.00    -0.014 A 
ATOM     72  C   UNL A   1      43.165  23.008  28.131  1.00  0.00     0.010 A 
ATOM     73  C   UNL A   1      42.789  23.560  25.800  1.00  0.00     0.010 A 
ATOM     74  C   UNL A   1      42.681  21.717  27.904  1.00  0.00     0.020 A 
ATOM     75  C   UNL A   1      42.279  22.278  25.575  1.00  0.00     0.020 A 
ATOM     76  C   UNL A   1      42.237  21.361  26.627  1.00  0.00     0.054 A 
BRANCH  76  77
ATOM     77  S   UNL A   1      41.555  19.700  26.369  1.00  0.00     0.124 S 
ATOM     78  O   UNL A   1      40.142  19.985  26.137  1.00  0.00    -0.237 OA
ATOM     79  O   UNL A   1      42.304  19.228  25.208  1.00  0.00    -0.237 OA
ATOM     80  O   UNL A   1      41.858  19.009  27.620  1.00  0.00    -0.744 OA
ENDBRANCH  76  77
ENDBRANCH  48  71
BRANCH  60  81
ATOM     81  C   UNL A   1      49.353  27.108  26.002  1.00  0.00    -0.014 A 
ATOM     82  C   UNL A   1      49.705  27.276  24.651  1.00  0.00     0.010 A 
ATOM     83  C   UNL A   1      50.276  26.515  26.884  1.00  0.00     0.010 A 
ATOM     84  C   UNL A   1      50.944  26.829  24.185  1.00  0.00     0.020 A 
ATOM     85  C   UNL A   1      51.525  26.092  26.427  1.00  0.00     0.020 A 
ATOM     86  C   UNL A   1      51.847  26.239  25.076  1.00  0.00     0.054 A 
BRANCH  86  87
ATOM     87  S   UNL A   1      53.464  25.704  24.454  1.00  0.00     0.124 S 
ATOM     88  O   UNL A   1      53.358  26.010  23.031  1.00  0.00    -0.237 OA
ATOM     89  O   UNL A   1      54.392  26.540  25.211  1.00  0.00    -0.237 OA
ATOM     90  O   UNL A   1      53.507  24.280  24.784  1.00  0.00    -0.744 OA
ENDBRANCH  86  87
ENDBRANCH  60  81
ENDBRANCH  34  35
ENDBRANCH  26  29
ENDBRANCH  24  25
ENDBRANCH  23  24
ENDBRANCH   1  23
TORSDOF 17
ENDMDL
