MODEL 1
REMARK VINA RESULT:     -12.5      0.000      0.000
REMARK SMILES COc1cc2ccccc2cc1C(=O)Nc1cc(C(=O)NCCCNC(=O)c2ccc(-c3c4nc(c(-c5ccc(S(=O)(=O)[O-])cc5)c5ccc([nH]5)c(-c5ccc(S(=O)(=O)[O-])cc5)c5nc(c(-c6ccc(S(=O)(=O)[O-])cc6)c6ccc3[nH]6)C=C5)C=C4)cc2)ccc1C
REMARK SMILES IDX 23 1 22 2 21 3 19 4 20 5 18 7 16 8 17 9 90 10 89 11 91 12
REMARK SMILES IDX 88 13 15 14 13 15 14 16 12 18 3 19 4 20 5 21 11 22 6 23
REMARK SMILES IDX 10 24 7 25 9 26 8 27 2 28 1 29 24 30 25 31 26 32 27 34 28 35
REMARK SMILES IDX 29 36 87 37 30 38 86 39 31 40 32 41 33 42 80 43 34 44 85 45
REMARK SMILES IDX 79 46 81 47 35 48 84 49 78 50 77 51 36 53 66 54 47 55 65 56
REMARK SMILES IDX 48 57 51 58 64 59 82 60 49 61 50 62 63 64 83 65 52 66 37 67
REMARK SMILES IDX 38 68 46 69 39 70 45 71 40 72 41 73 42 74 43 75 44 76 67 77
REMARK SMILES IDX 68 78 76 79 69 80 75 81 70 82 71 83 72 84 73 85 74 86 53 87
REMARK SMILES IDX 54 88 62 89 55 90 61 91 56 92 57 93 58 94 59 95 60 96
REMARK H PARENT 21 6 15 17 25 33 81 52 51 63
REMARK Flexibility Score: inf
ROOT
ATOM      1  C   UNL A   1      39.157  24.227  27.205  1.00  0.00     0.042 C 
ENDROOT
BRANCH   1   2
ATOM      2  C   UNL A   1      38.139  23.786  26.163  1.00  0.00     0.118 C 
BRANCH   2   3
ATOM      3  N   UNL A   1      38.496  22.483  25.634  1.00  0.00    -0.352 N 
ATOM      4  C   UNL A   1      37.734  21.426  25.212  1.00  0.00     0.251 C 
ATOM      5  O   UNL A   1      38.314  20.358  25.011  1.00  0.00    -0.269 OA
ATOM      6  H   UNL A   1      39.467  22.331  25.566  1.00  0.00     0.163 HD
BRANCH   4   7
ATOM      7  C   UNL A   1      36.275  21.528  24.910  1.00  0.00     0.041 A 
ATOM      8  C   UNL A   1      34.439  22.463  23.626  1.00  0.00     0.045 A 
ATOM      9  C   UNL A   1      35.679  22.591  24.237  1.00  0.00     0.040 A 
ATOM     10  C   UNL A   1      33.615  21.380  23.951  1.00  0.00    -0.027 A 
ATOM     11  C   UNL A   1      34.158  20.351  24.740  1.00  0.00     0.006 A 
ATOM     12  C   UNL A   1      32.255  21.170  23.355  1.00  0.00     0.046 C 
ATOM     13  C   UNL A   1      35.485  20.404  25.175  1.00  0.00     0.014 A 
BRANCH   8  14
ATOM     14  N   UNL A   1      34.093  23.367  22.609  1.00  0.00    -0.322 N 
ATOM     15  C   UNL A   1      33.340  24.537  22.657  1.00  0.00     0.259 C 
ATOM     16  O   UNL A   1      33.056  25.050  21.568  1.00  0.00    -0.269 OA
ATOM     17  H   UNL A   1      34.439  23.138  21.717  1.00  0.00     0.170 HD
BRANCH  15  18
ATOM     18  C   UNL A   1      32.925  25.272  23.909  1.00  0.00     0.082 A 
ATOM     19  C   UNL A   1      31.867  24.943  24.770  1.00  0.00     0.132 A 
ATOM     20  C   UNL A   1      31.476  25.809  25.804  1.00  0.00     0.056 A 
ATOM     21  C   UNL A   1      32.229  26.942  26.124  1.00  0.00    -0.015 A 
ATOM     22  C   UNL A   1      33.714  26.387  24.274  1.00  0.00     0.026 A 
ATOM     23  C   UNL A   1      31.844  27.803  27.167  1.00  0.00     0.009 A 
ATOM     24  C   UNL A   1      33.402  27.204  25.389  1.00  0.00    -0.017 A 
ATOM     25  C   UNL A   1      32.649  28.880  27.532  1.00  0.00     0.001 A 
ATOM     26  C   UNL A   1      34.208  28.286  25.782  1.00  0.00     0.009 A 
ATOM     27  C   UNL A   1      33.842  29.108  26.854  1.00  0.00     0.001 A 
BRANCH  19  28
ATOM     28  O   UNL A   1      31.078  23.832  24.664  1.00  0.00    -0.496 OA
ATOM     29  C   UNL A   1      30.761  23.292  25.939  1.00  0.00     0.278 C 
ENDBRANCH  19  28
ENDBRANCH  15  18
ENDBRANCH   8  14
ENDBRANCH   4   7
ENDBRANCH   2   3
ENDBRANCH   1   2
BRANCH   1  30
ATOM     30  C   UNL A   1      40.024  25.319  26.623  1.00  0.00     0.118 C 
BRANCH  30  31
ATOM     31  N   UNL A   1      40.576  26.099  27.704  1.00  0.00    -0.352 N 
ATOM     32  C   UNL A   1      41.649  26.947  27.453  1.00  0.00     0.251 C 
ATOM     33  H   UNL A   1      40.197  26.031  28.610  1.00  0.00     0.163 HD
ATOM     34  O   UNL A   1      42.767  26.584  27.752  1.00  0.00    -0.269 OA
BRANCH  32  35
ATOM     35  C   UNL A   1      41.279  28.343  26.973  1.00  0.00     0.039 A 
ATOM     36  C   UNL A   1      42.213  29.246  27.488  1.00  0.00     0.014 A 
ATOM     37  C   UNL A   1      39.935  28.633  27.183  1.00  0.00     0.014 A 
ATOM     38  C   UNL A   1      41.914  29.885  28.675  1.00  0.00     0.010 A 
ATOM     39  C   UNL A   1      39.624  29.119  28.427  1.00  0.00     0.010 A 
ATOM     40  C   UNL A   1      40.657  29.652  29.205  1.00  0.00    -0.014 A 
BRANCH  40  41
ATOM     41  C   UNL A   1      40.278  30.002  30.548  1.00  0.00     0.031 A 
ATOM     42  C   UNL A   1      39.632  31.310  30.663  1.00  0.00     0.074 A 
ATOM     43  C   UNL A   1      40.392  29.038  31.486  1.00  0.00     0.049 A 
ATOM     44  N   UNL A   1      39.424  31.933  31.758  1.00  0.00    -0.248 NA
ATOM     45  C   UNL A   1      39.202  32.070  29.482  1.00  0.00     0.031 C 
ATOM     46  C   UNL A   1      39.836  28.945  32.832  1.00  0.00     0.029 A 
ATOM     47  N   UNL A   1      41.316  27.983  31.438  1.00  0.00    -0.354 N 
ATOM     48  C   UNL A   1      38.523  32.936  31.468  1.00  0.00     0.074 A 
ATOM     49  C   UNL A   1      38.530  33.076  30.040  1.00  0.00     0.031 C 
ATOM     50  C   UNL A   1      40.632  28.140  33.569  1.00  0.00     0.029 A 
ATOM     51  C   UNL A   1      41.804  27.847  32.748  1.00  0.00     0.049 A 
ATOM     52  H   UNL A   1      41.569  27.450  30.650  1.00  0.00     0.167 HD
ATOM     53  C   UNL A   1      37.733  33.377  32.481  1.00  0.00     0.031 A 
ATOM     54  C   UNL A   1      43.065  28.304  33.022  1.00  0.00     0.031 A 
ATOM     55  C   UNL A   1      38.200  32.800  33.742  1.00  0.00     0.049 A 
ATOM     56  C   UNL A   1      43.012  29.487  33.987  1.00  0.00     0.074 A 
ATOM     57  C   UNL A   1      37.788  31.703  34.478  1.00  0.00     0.029 A 
ATOM     58  N   UNL A   1      39.506  33.074  34.137  1.00  0.00    -0.354 N 
ATOM     59  N   UNL A   1      42.059  30.385  34.021  1.00  0.00    -0.248 NA
ATOM     60  C   UNL A   1      43.979  29.660  35.067  1.00  0.00     0.031 C 
ATOM     61  C   UNL A   1      38.907  31.252  35.242  1.00  0.00     0.029 A 
ATOM     62  C   UNL A   1      39.983  32.085  34.976  1.00  0.00     0.049 A 
ATOM     63  H   UNL A   1      40.019  33.865  33.857  1.00  0.00     0.167 HD
ATOM     64  C   UNL A   1      42.225  31.192  35.123  1.00  0.00     0.074 A 
ATOM     65  C   UNL A   1      43.453  30.703  35.732  1.00  0.00     0.031 C 
ATOM     66  C   UNL A   1      41.344  32.176  35.495  1.00  0.00     0.031 A 
BRANCH  53  67
ATOM     67  C   UNL A   1      36.401  34.057  32.291  1.00  0.00    -0.014 A 
ATOM     68  C   UNL A   1      36.065  35.120  33.152  1.00  0.00     0.010 A 
ATOM     69  C   UNL A   1      35.411  33.677  31.361  1.00  0.00     0.010 A 
ATOM     70  C   UNL A   1      34.813  35.745  33.112  1.00  0.00     0.020 A 
ATOM     71  C   UNL A   1      34.147  34.287  31.314  1.00  0.00     0.020 A 
ATOM     72  C   UNL A   1      33.856  35.320  32.195  1.00  0.00     0.054 A 
BRANCH  72  73
ATOM     73  S   UNL A   1      32.248  36.149  32.157  1.00  0.00     0.124 S 
ATOM     74  O   UNL A   1      32.186  36.650  30.785  1.00  0.00    -0.237 OA
ATOM     75  O   UNL A   1      31.328  35.060  32.472  1.00  0.00    -0.237 OA
ATOM     76  O   UNL A   1      32.362  37.181  33.186  1.00  0.00    -0.744 OA
ENDBRANCH  72  73
ENDBRANCH  53  67
BRANCH  54  77
ATOM     77  C   UNL A   1      44.037  28.128  31.878  1.00  0.00    -0.014 A 
ATOM     78  C   UNL A   1      44.534  29.282  31.214  1.00  0.00     0.010 A 
ATOM     79  C   UNL A   1      44.690  26.912  31.622  1.00  0.00     0.010 A 
ATOM     80  C   UNL A   1      45.697  29.245  30.422  1.00  0.00     0.020 A 
ATOM     81  C   UNL A   1      45.842  26.867  30.802  1.00  0.00     0.020 A 
ATOM     82  C   UNL A   1      46.364  28.037  30.236  1.00  0.00     0.054 A 
BRANCH  82  83
ATOM     83  S   UNL A   1      47.842  27.952  29.153  1.00  0.00     0.124 S 
ATOM     84  O   UNL A   1      48.927  28.400  30.025  1.00  0.00    -0.237 OA
ATOM     85  O   UNL A   1      47.903  26.558  28.736  1.00  0.00    -0.237 OA
ATOM     86  O   UNL A   1      47.498  28.885  28.081  1.00  0.00    -0.744 OA
ENDBRANCH  82  83
ENDBRANCH  54  77
BRANCH  66  87
ATOM     87  C   UNL A   1      41.644  33.336  36.432  1.00  0.00    -0.014 A 
ATOM     88  C   UNL A   1      42.653  34.286  36.227  1.00  0.00     0.010 A 
ATOM     89  C   UNL A   1      40.762  33.586  37.518  1.00  0.00     0.010 A 
ATOM     90  C   UNL A   1      42.807  35.387  37.081  1.00  0.00     0.020 A 
ATOM     91  C   UNL A   1      40.857  34.718  38.329  1.00  0.00     0.020 A 
ATOM     92  C   UNL A   1      41.904  35.600  38.121  1.00  0.00     0.054 A 
BRANCH  92  93
ATOM     93  S   UNL A   1      42.091  37.061  39.166  1.00  0.00     0.124 S 
ATOM     94  O   UNL A   1      40.736  37.605  39.161  1.00  0.00    -0.237 OA
ATOM     95  O   UNL A   1      42.533  36.490  40.436  1.00  0.00    -0.237 OA
ATOM     96  O   UNL A   1      43.091  37.864  38.468  1.00  0.00    -0.744 OA
ENDBRANCH  92  93
ENDBRANCH  66  87
ENDBRANCH  40  41
ENDBRANCH  32  35
ENDBRANCH  30  31
ENDBRANCH   1  30
TORSDOF 16
ENDMDL
MODEL 2
REMARK VINA RESULT:     -12.3      2.884      3.948
REMARK SMILES COc1cc2ccccc2cc1C(=O)Nc1cc(C(=O)NCCCNC(=O)c2ccc(-c3c4nc(c(-c5ccc(S(=O)(=O)[O-])cc5)c5ccc([nH]5)c(-c5ccc(S(=O)(=O)[O-])cc5)c5nc(c(-c6ccc(S(=O)(=O)[O-])cc6)c6ccc3[nH]6)C=C5)C=C4)cc2)ccc1C
REMARK SMILES IDX 23 1 22 2 21 3 19 4 20 5 18 7 16 8 17 9 90 10 89 11 91 12
REMARK SMILES IDX 88 13 15 14 13 15 14 16 12 18 3 19 4 20 5 21 11 22 6 23
REMARK SMILES IDX 10 24 7 25 9 26 8 27 2 28 1 29 24 30 25 31 26 32 27 34 28 35
REMARK SMILES IDX 29 36 87 37 30 38 86 39 31 40 32 41 33 42 80 43 34 44 85 45
REMARK SMILES IDX 79 46 81 47 35 48 84 49 78 50 77 51 36 53 66 54 47 55 65 56
REMARK SMILES IDX 48 57 51 58 64 59 82 60 49 61 50 62 63 64 83 65 52 66 37 67
REMARK SMILES IDX 38 68 46 69 39 70 45 71 40 72 41 73 42 74 43 75 44 76 67 77
REMARK SMILES IDX 68 78 76 79 69 80 75 81 70 82 71 83 72 84 73 85 74 86 53 87
REMARK SMILES IDX 54 88 62 89 55 90 61 91 56 92 57 93 58 94 59 95 60 96
REMARK H PARENT 21 6 15 17 25 33 81 52 51 63
REMARK Flexibility Score: inf
ROOT
ATOM      1  C   UNL A   1      40.526  21.329  26.978  1.00  0.00     0.042 C 
ENDROOT
BRANCH   1   2
ATOM      2  C   UNL A   1      39.324  21.154  26.061  1.00  0.00     0.118 C 
BRANCH   2   3
ATOM      3  N   UNL A   1      38.697  22.438  25.809  1.00  0.00    -0.352 N 
ATOM      4  C   UNL A   1      37.404  22.783  25.514  1.00  0.00     0.251 C 
ATOM      5  O   UNL A   1      37.201  23.938  25.137  1.00  0.00    -0.269 OA
ATOM      6  H   UNL A   1      39.315  23.203  25.860  1.00  0.00     0.163 HD
BRANCH   4   7
ATOM      7  C   UNL A   1      36.241  21.865  25.702  1.00  0.00     0.041 A 
ATOM      8  C   UNL A   1      33.955  21.463  26.412  1.00  0.00     0.045 A 
ATOM      9  C   UNL A   1      35.176  22.105  26.566  1.00  0.00     0.040 A 
ATOM     10  C   UNL A   1      33.867  20.326  25.602  1.00  0.00    -0.027 A 
ATOM     11  C   UNL A   1      34.981  19.990  24.813  1.00  0.00     0.006 A 
ATOM     12  C   UNL A   1      32.595  19.559  25.391  1.00  0.00     0.046 C 
ATOM     13  C   UNL A   1      36.136  20.776  24.830  1.00  0.00     0.014 A 
BRANCH   8  14
ATOM     14  N   UNL A   1      32.813  22.043  26.987  1.00  0.00    -0.322 N 
ATOM     15  C   UNL A   1      32.173  23.249  26.710  1.00  0.00     0.259 C 
ATOM     16  O   UNL A   1      31.276  23.584  27.491  1.00  0.00    -0.269 OA
ATOM     17  H   UNL A   1      32.395  21.512  27.703  1.00  0.00     0.170 HD
BRANCH  15  18
ATOM     18  C   UNL A   1      32.418  24.122  25.502  1.00  0.00     0.082 A 
ATOM     19  C   UNL A   1      32.265  23.762  24.155  1.00  0.00     0.132 A 
ATOM     20  C   UNL A   1      32.695  24.612  23.123  1.00  0.00     0.056 A 
ATOM     21  C   UNL A   1      33.127  25.914  23.389  1.00  0.00    -0.015 A 
ATOM     22  C   UNL A   1      32.802  25.457  25.760  1.00  0.00     0.026 A 
ATOM     23  C   UNL A   1      33.547  26.769  22.355  1.00  0.00     0.009 A 
ATOM     24  C   UNL A   1      33.123  26.368  24.723  1.00  0.00    -0.017 A 
ATOM     25  C   UNL A   1      33.894  28.092  22.624  1.00  0.00     0.001 A 
ATOM     26  C   UNL A   1      33.463  27.709  24.972  1.00  0.00     0.009 A 
ATOM     27  C   UNL A   1      33.830  28.567  23.930  1.00  0.00     0.001 A 
BRANCH  19  28
ATOM     28  O   UNL A   1      31.776  22.567  23.707  1.00  0.00    -0.496 OA
ATOM     29  C   UNL A   1      32.506  22.089  22.586  1.00  0.00     0.278 C 
ENDBRANCH  19  28
ENDBRANCH  15  18
ENDBRANCH   8  14
ENDBRANCH   4   7
ENDBRANCH   2   3
ENDBRANCH   1   2
BRANCH   1  30
ATOM     30  C   UNL A   1      41.556  22.195  26.291  1.00  0.00     0.118 C 
BRANCH  30  31
ATOM     31  N   UNL A   1      41.869  23.313  27.147  1.00  0.00    -0.352 N 
ATOM     32  C   UNL A   1      42.199  24.537  26.576  1.00  0.00     0.251 C 
ATOM     33  H   UNL A   1      41.850  23.210  28.126  1.00  0.00     0.163 HD
ATOM     34  O   UNL A   1      43.367  24.855  26.501  1.00  0.00    -0.269 OA
BRANCH  32  35
ATOM     35  C   UNL A   1      41.021  25.444  26.249  1.00  0.00     0.039 A 
ATOM     36  C   UNL A   1      41.521  26.693  25.871  1.00  0.00     0.014 A 
ATOM     37  C   UNL A   1      40.050  25.425  27.245  1.00  0.00     0.014 A 
ATOM     38  C   UNL A   1      41.636  27.668  26.842  1.00  0.00     0.010 A 
ATOM     39  C   UNL A   1      40.260  26.289  28.289  1.00  0.00     0.010 A 
ATOM     40  C   UNL A   1      41.144  27.355  28.096  1.00  0.00    -0.014 A 
BRANCH  40  41
ATOM     41  C   UNL A   1      41.423  28.126  29.279  1.00  0.00     0.031 A 
ATOM     42  C   UNL A   1      40.669  29.377  29.366  1.00  0.00     0.074 A 
ATOM     43  C   UNL A   1      42.181  27.536  30.228  1.00  0.00     0.049 A 
ATOM     44  N   UNL A   1      40.913  30.326  30.186  1.00  0.00    -0.248 NA
ATOM     45  C   UNL A   1      39.564  29.684  28.448  1.00  0.00     0.031 C 
ATOM     46  C   UNL A   1      42.403  27.886  31.627  1.00  0.00     0.029 A 
ATOM     47  N   UNL A   1      43.151  26.553  29.977  1.00  0.00    -0.354 N 
ATOM     48  C   UNL A   1      39.806  31.148  30.167  1.00  0.00     0.074 A 
ATOM     49  C   UNL A   1      39.072  30.799  28.984  1.00  0.00     0.031 C 
ATOM     50  C   UNL A   1      43.604  27.398  32.006  1.00  0.00     0.029 A 
ATOM     51  C   UNL A   1      44.242  26.879  30.799  1.00  0.00     0.049 A 
ATOM     52  H   UNL A   1      43.080  25.793  29.355  1.00  0.00     0.167 HD
ATOM     53  C   UNL A   1      39.555  31.880  31.283  1.00  0.00     0.031 A 
ATOM     54  C   UNL A   1      45.349  27.437  30.217  1.00  0.00     0.031 A 
ATOM     55  C   UNL A   1      40.694  31.775  32.195  1.00  0.00     0.049 A 
ATOM     56  C   UNL A   1      45.545  28.873  30.698  1.00  0.00     0.074 A 
ATOM     57  C   UNL A   1      40.936  30.977  33.301  1.00  0.00     0.029 A 
ATOM     58  N   UNL A   1      41.936  32.202  31.737  1.00  0.00    -0.354 N 
ATOM     59  N   UNL A   1      44.576  29.703  30.996  1.00  0.00    -0.248 NA
ATOM     60  C   UNL A   1      46.863  29.426  30.996  1.00  0.00     0.031 C 
ATOM     61  C   UNL A   1      42.351  30.841  33.431  1.00  0.00     0.029 A 
ATOM     62  C   UNL A   1      42.957  31.566  32.417  1.00  0.00     0.049 A 
ATOM     63  H   UNL A   1      42.069  32.867  31.023  1.00  0.00     0.167 HD
ATOM     64  C   UNL A   1      45.101  30.838  31.570  1.00  0.00     0.074 A 
ATOM     65  C   UNL A   1      46.539  30.616  31.529  1.00  0.00     0.031 C 
ATOM     66  C   UNL A   1      44.344  31.864  32.075  1.00  0.00     0.031 A 
BRANCH  53  67
ATOM     67  C   UNL A   1      38.199  32.420  31.664  1.00  0.00    -0.014 A 
ATOM     68  C   UNL A   1      37.974  33.804  31.544  1.00  0.00     0.010 A 
ATOM     69  C   UNL A   1      37.139  31.665  32.206  1.00  0.00     0.010 A 
ATOM     70  C   UNL A   1      36.781  34.406  31.965  1.00  0.00     0.020 A 
ATOM     71  C   UNL A   1      35.941  32.252  32.641  1.00  0.00     0.020 A 
ATOM     72  C   UNL A   1      35.771  33.625  32.518  1.00  0.00     0.054 A 
BRANCH  72  73
ATOM     73  S   UNL A   1      34.235  34.423  33.047  1.00  0.00     0.124 S 
ATOM     74  O   UNL A   1      33.910  35.267  31.899  1.00  0.00    -0.237 OA
ATOM     75  O   UNL A   1      33.349  33.282  33.262  1.00  0.00    -0.237 OA
ATOM     76  O   UNL A   1      34.617  35.148  34.258  1.00  0.00    -0.744 OA
ENDBRANCH  72  73
ENDBRANCH  53  67
BRANCH  54  77
ATOM     77  C   UNL A   1      45.634  26.913  28.828  1.00  0.00    -0.014 A 
ATOM     78  C   UNL A   1      45.338  27.738  27.709  1.00  0.00     0.010 A 
ATOM     79  C   UNL A   1      46.433  25.783  28.596  1.00  0.00     0.010 A 
ATOM     80  C   UNL A   1      45.905  27.508  26.441  1.00  0.00     0.020 A 
ATOM     81  C   UNL A   1      46.979  25.532  27.315  1.00  0.00     0.020 A 
ATOM     82  C   UNL A   1      46.746  26.414  26.252  1.00  0.00     0.054 A 
BRANCH  82  83
ATOM     83  S   UNL A   1      47.441  26.056  24.593  1.00  0.00     0.124 S 
ATOM     84  O   UNL A   1      47.039  27.217  23.800  1.00  0.00    -0.237 OA
ATOM     85  O   UNL A   1      48.872  25.915  24.825  1.00  0.00    -0.237 OA
ATOM     86  O   UNL A   1      46.766  24.810  24.234  1.00  0.00    -0.744 OA
ENDBRANCH  82  83
ENDBRANCH  54  77
BRANCH  66  87
ATOM     87  C   UNL A   1      44.829  33.280  32.351  1.00  0.00    -0.014 A 
ATOM     88  C   UNL A   1      44.941  33.849  33.626  1.00  0.00     0.010 A 
ATOM     89  C   UNL A   1      45.351  34.048  31.276  1.00  0.00     0.010 A 
ATOM     90  C   UNL A   1      45.491  35.125  33.813  1.00  0.00     0.020 A 
ATOM     91  C   UNL A   1      45.970  35.286  31.457  1.00  0.00     0.020 A 
ATOM     92  C   UNL A   1      46.008  35.832  32.729  1.00  0.00     0.054 A 
BRANCH  92  93
ATOM     93  S   UNL A   1      46.766  37.447  33.009  1.00  0.00     0.124 S 
ATOM     94  O   UNL A   1      45.610  38.336  32.923  1.00  0.00    -0.237 OA
ATOM     95  O   UNL A   1      47.347  37.299  34.342  1.00  0.00    -0.237 OA
ATOM     96  O   UNL A   1      47.734  37.571  31.923  1.00  0.00    -0.744 OA
ENDBRANCH  92  93
ENDBRANCH  66  87
ENDBRANCH  40  41
ENDBRANCH  32  35
ENDBRANCH  30  31
ENDBRANCH   1  30
TORSDOF 16
ENDMDL
MODEL 3
REMARK VINA RESULT:     -12.1      4.052      9.847
REMARK SMILES COc1cc2ccccc2cc1C(=O)Nc1cc(C(=O)NCCCNC(=O)c2ccc(-c3c4nc(c(-c5ccc(S(=O)(=O)[O-])cc5)c5ccc([nH]5)c(-c5ccc(S(=O)(=O)[O-])cc5)c5nc(c(-c6ccc(S(=O)(=O)[O-])cc6)c6ccc3[nH]6)C=C5)C=C4)cc2)ccc1C
REMARK SMILES IDX 23 1 22 2 21 3 19 4 20 5 18 7 16 8 17 9 90 10 89 11 91 12
REMARK SMILES IDX 88 13 15 14 13 15 14 16 12 18 3 19 4 20 5 21 11 22 6 23
REMARK SMILES IDX 10 24 7 25 9 26 8 27 2 28 1 29 24 30 25 31 26 32 27 34 28 35
REMARK SMILES IDX 29 36 87 37 30 38 86 39 31 40 32 41 33 42 80 43 34 44 85 45
REMARK SMILES IDX 79 46 81 47 35 48 84 49 78 50 77 51 36 53 66 54 47 55 65 56
REMARK SMILES IDX 48 57 51 58 64 59 82 60 49 61 50 62 63 64 83 65 52 66 37 67
REMARK SMILES IDX 38 68 46 69 39 70 45 71 40 72 41 73 42 74 43 75 44 76 67 77
REMARK SMILES IDX 68 78 76 79 69 80 75 81 70 82 71 83 72 84 73 85 74 86 53 87
REMARK SMILES IDX 54 88 62 89 55 90 61 91 56 92 57 93 58 94 59 95 60 96
REMARK H PARENT 21 6 15 17 25 33 81 52 51 63
REMARK Flexibility Score: inf
ROOT
ATOM      1  C   UNL A   1      36.066  30.687  28.034  1.00  0.00     0.042 C 
ENDROOT
BRANCH   1   2
ATOM      2  C   UNL A   1      34.702  30.619  27.362  1.00  0.00     0.118 C 
BRANCH   2   3
ATOM      3  N   UNL A   1      34.077  29.337  27.627  1.00  0.00    -0.352 N 
ATOM      4  C   UNL A   1      33.042  28.679  27.016  1.00  0.00     0.251 C 
ATOM      5  O   UNL A   1      32.583  27.693  27.593  1.00  0.00    -0.269 OA
ATOM      6  H   UNL A   1      34.470  28.850  28.388  1.00  0.00     0.163 HD
BRANCH   4   7
ATOM      7  C   UNL A   1      32.512  29.046  25.669  1.00  0.00     0.041 A 
ATOM      8  C   UNL A   1      32.304  28.622  23.288  1.00  0.00     0.045 A 
ATOM      9  C   UNL A   1      33.046  28.605  24.462  1.00  0.00     0.040 A 
ATOM     10  C   UNL A   1      31.132  29.384  23.220  1.00  0.00    -0.027 A 
ATOM     11  C   UNL A   1      30.641  29.948  24.410  1.00  0.00     0.006 A 
ATOM     12  C   UNL A   1      30.278  29.475  21.991  1.00  0.00     0.046 C 
ATOM     13  C   UNL A   1      31.300  29.743  25.626  1.00  0.00     0.014 A 
BRANCH   8  14
ATOM     14  N   UNL A   1      32.692  27.779  22.234  1.00  0.00    -0.322 N 
ATOM     15  C   UNL A   1      33.122  26.455  22.246  1.00  0.00     0.259 C 
ATOM     16  O   UNL A   1      33.559  26.013  21.178  1.00  0.00    -0.269 OA
ATOM     17  H   UNL A   1      32.655  28.191  21.341  1.00  0.00     0.170 HD
BRANCH  15  18
ATOM     18  C   UNL A   1      33.015  25.501  23.411  1.00  0.00     0.082 A 
ATOM     19  C   UNL A   1      31.877  25.242  24.190  1.00  0.00     0.132 A 
ATOM     20  C   UNL A   1      31.957  24.465  25.356  1.00  0.00     0.056 A 
ATOM     21  C   UNL A   1      33.127  23.778  25.691  1.00  0.00    -0.015 A 
ATOM     22  C   UNL A   1      34.177  24.760  23.725  1.00  0.00     0.026 A 
ATOM     23  C   UNL A   1      33.203  22.990  26.854  1.00  0.00     0.009 A 
ATOM     24  C   UNL A   1      34.238  23.876  24.831  1.00  0.00    -0.017 A 
ATOM     25  C   UNL A   1      34.346  22.243  27.130  1.00  0.00     0.001 A 
ATOM     26  C   UNL A   1      35.376  23.103  25.120  1.00  0.00     0.009 A 
ATOM     27  C   UNL A   1      35.423  22.283  26.252  1.00  0.00     0.001 A 
BRANCH  19  28
ATOM     28  O   UNL A   1      30.631  25.754  23.961  1.00  0.00    -0.496 OA
ATOM     29  C   UNL A   1      29.993  26.140  25.170  1.00  0.00     0.278 C 
ENDBRANCH  19  28
ENDBRANCH  15  18
ENDBRANCH   8  14
ENDBRANCH   4   7
ENDBRANCH   2   3
ENDBRANCH   1   2
BRANCH   1  30
ATOM     30  C   UNL A   1      36.023  29.914  29.332  1.00  0.00     0.118 C 
BRANCH  30  31
ATOM     31  N   UNL A   1      37.347  29.426  29.627  1.00  0.00    -0.352 N 
ATOM     32  C   UNL A   1      38.449  30.219  29.324  1.00  0.00     0.251 C 
ATOM     33  H   UNL A   1      37.470  28.540  30.039  1.00  0.00     0.163 HD
ATOM     34  O   UNL A   1      39.082  29.984  28.317  1.00  0.00    -0.269 OA
BRANCH  32  35
ATOM     35  C   UNL A   1      38.852  31.216  30.401  1.00  0.00     0.039 A 
ATOM     36  C   UNL A   1      39.997  31.890  29.968  1.00  0.00     0.014 A 
ATOM     37  C   UNL A   1      38.898  30.635  31.665  1.00  0.00     0.014 A 
ATOM     38  C   UNL A   1      41.227  31.401  30.362  1.00  0.00     0.010 A 
ATOM     39  C   UNL A   1      40.076  30.010  31.984  1.00  0.00     0.010 A 
ATOM     40  C   UNL A   1      41.218  30.336  31.244  1.00  0.00    -0.014 A 
BRANCH  40  41
ATOM     41  C   UNL A   1      42.374  29.532  31.540  1.00  0.00     0.031 A 
ATOM     42  C   UNL A   1      42.435  28.276  30.791  1.00  0.00     0.074 A 
ATOM     43  C   UNL A   1      43.330  30.097  32.309  1.00  0.00     0.049 A 
ATOM     44  N   UNL A   1      43.224  27.306  31.048  1.00  0.00    -0.248 NA
ATOM     45  C   UNL A   1      41.522  27.993  29.676  1.00  0.00     0.031 C 
ATOM     46  C   UNL A   1      44.716  29.708  32.549  1.00  0.00     0.029 A 
ATOM     47  N   UNL A   1      43.096  31.090  33.272  1.00  0.00    -0.354 N 
ATOM     48  C   UNL A   1      43.196  26.481  29.943  1.00  0.00     0.074 A 
ATOM     49  C   UNL A   1      42.033  26.861  29.193  1.00  0.00     0.031 C 
ATOM     50  C   UNL A   1      45.093  30.189  33.753  1.00  0.00     0.029 A 
ATOM     51  C   UNL A   1      43.894  30.744  34.375  1.00  0.00     0.049 A 
ATOM     52  H   UNL A   1      42.496  31.867  33.191  1.00  0.00     0.167 HD
ATOM     53  C   UNL A   1      44.293  25.716  29.708  1.00  0.00     0.031 A 
ATOM     54  C   UNL A   1      43.282  30.207  35.476  1.00  0.00     0.031 A 
ATOM     55  C   UNL A   1      45.193  25.799  30.858  1.00  0.00     0.049 A 
ATOM     56  C   UNL A   1      43.720  28.758  35.682  1.00  0.00     0.074 A 
ATOM     57  C   UNL A   1      46.318  26.565  31.112  1.00  0.00     0.029 A 
ATOM     58  N   UNL A   1      44.707  25.389  32.096  1.00  0.00    -0.354 N 
ATOM     59  N   UNL A   1      44.005  27.917  34.719  1.00  0.00    -0.248 NA
ATOM     60  C   UNL A   1      43.984  28.201  37.005  1.00  0.00     0.031 C 
ATOM     61  C   UNL A   1      46.435  26.702  32.528  1.00  0.00     0.029 A 
ATOM     62  C   UNL A   1      45.392  26.009  33.123  1.00  0.00     0.049 A 
ATOM     63  H   UNL A   1      43.974  24.746  32.221  1.00  0.00     0.167 HD
ATOM     64  C   UNL A   1      44.540  26.767  35.255  1.00  0.00     0.074 A 
ATOM     65  C   UNL A   1      44.487  26.995  36.691  1.00  0.00     0.031 C 
ATOM     66  C   UNL A   1      45.025  25.725  34.507  1.00  0.00     0.031 A 
BRANCH  53  67
ATOM     67  C   UNL A   1      44.675  25.161  28.359  1.00  0.00    -0.014 A 
ATOM     68  C   UNL A   1      44.453  23.793  28.112  1.00  0.00     0.010 A 
ATOM     69  C   UNL A   1      45.310  25.882  27.326  1.00  0.00     0.010 A 
ATOM     70  C   UNL A   1      44.865  23.172  26.926  1.00  0.00     0.020 A 
ATOM     71  C   UNL A   1      45.738  25.274  26.135  1.00  0.00     0.020 A 
ATOM     72  C   UNL A   1      45.512  23.917  25.944  1.00  0.00     0.054 A 
BRANCH  72  73
ATOM     73  S   UNL A   1      46.028  23.095  24.416  1.00  0.00     0.124 S 
ATOM     74  O   UNL A   1      44.778  23.026  23.662  1.00  0.00    -0.237 OA
ATOM     75  O   UNL A   1      47.032  24.015  23.891  1.00  0.00    -0.237 OA
ATOM     76  O   UNL A   1      46.546  21.806  24.871  1.00  0.00    -0.744 OA
ENDBRANCH  72  73
ENDBRANCH  53  67
BRANCH  54  77
ATOM     77  C   UNL A   1      41.905  30.771  35.742  1.00  0.00    -0.014 A 
ATOM     78  C   UNL A   1      41.750  32.178  35.858  1.00  0.00     0.010 A 
ATOM     79  C   UNL A   1      40.736  30.008  35.597  1.00  0.00     0.010 A 
ATOM     80  C   UNL A   1      40.496  32.805  35.722  1.00  0.00     0.020 A 
ATOM     81  C   UNL A   1      39.471  30.633  35.491  1.00  0.00     0.020 A 
ATOM     82  C   UNL A   1      39.359  32.029  35.516  1.00  0.00     0.054 A 
BRANCH  82  83
ATOM     83  S   UNL A   1      37.707  32.819  35.405  1.00  0.00     0.124 S 
ATOM     84  O   UNL A   1      37.092  32.157  34.255  1.00  0.00    -0.237 OA
ATOM     85  O   UNL A   1      37.090  32.544  36.695  1.00  0.00    -0.237 OA
ATOM     86  O   UNL A   1      38.046  34.224  35.188  1.00  0.00    -0.744 OA
ENDBRANCH  82  83
ENDBRANCH  54  77
BRANCH  66  87
ATOM     87  C   UNL A   1      45.254  24.304  34.999  1.00  0.00    -0.014 A 
ATOM     88  C   UNL A   1      44.338  23.254  34.855  1.00  0.00     0.010 A 
ATOM     89  C   UNL A   1      46.534  23.951  35.506  1.00  0.00     0.010 A 
ATOM     90  C   UNL A   1      44.658  21.944  35.243  1.00  0.00     0.020 A 
ATOM     91  C   UNL A   1      46.891  22.639  35.824  1.00  0.00     0.020 A 
ATOM     92  C   UNL A   1      45.934  21.644  35.717  1.00  0.00     0.054 A 
BRANCH  92  93
ATOM     93  S   UNL A   1      46.336  19.938  36.149  1.00  0.00     0.124 S 
ATOM     94  O   UNL A   1      47.796  19.961  36.120  1.00  0.00    -0.237 OA
ATOM     95  O   UNL A   1      45.736  19.795  37.474  1.00  0.00    -0.237 OA
ATOM     96  O   UNL A   1      45.701  19.152  35.095  1.00  0.00    -0.744 OA
ENDBRANCH  92  93
ENDBRANCH  66  87
ENDBRANCH  40  41
ENDBRANCH  32  35
ENDBRANCH  30  31
ENDBRANCH   1  30
TORSDOF 16
ENDMDL
