MODEL 1
REMARK VINA RESULT:     -12.7      0.000      0.000
REMARK SMILES Cc1ccc(C(=O)N2CCC3(CCC(=O)N(CC(=O)NCCCNC(=O)c4ccc(-c5c6nc(c(-c7ccc(S(=O)(=O)[O-])cc7)c7ccc([nH]7)c(-c7ccc(S(=O)(=O)[O-])cc7)c7nc(c(-c8ccc(S(=O)(=O)[O-])cc8)c8ccc5[nH]8)C=C7)C=C6)cc4)C3)CC2)cc1O
REMARK SMILES IDX 22 1 21 2 20 3 18 4 19 5 17 7 16 8 6 9 7 10 8 11 9 12 89 13
REMARK SMILES IDX 10 14 88 15 11 16 12 17 87 18 13 19 14 20 15 21 5 22 1 23
REMARK SMILES IDX 2 24 3 25 91 26 4 27 90 28 92 29 23 31 24 32 25 33 26 35
REMARK SMILES IDX 27 36 28 37 86 38 29 39 85 40 30 41 31 42 32 43 79 44 33 45
REMARK SMILES IDX 84 46 78 47 80 48 34 49 83 50 77 51 76 52 35 54 65 55 46 56
REMARK SMILES IDX 64 57 47 58 50 59 63 60 81 61 48 62 49 63 62 65 82 66 51 67
REMARK SMILES IDX 36 68 37 69 45 70 38 71 44 72 39 73 40 74 41 75 42 76 43 77
REMARK SMILES IDX 66 78 67 79 75 80 68 81 74 82 69 83 70 84 71 85 72 86 73 87
REMARK SMILES IDX 52 88 53 89 61 90 54 91 60 92 55 93 56 94 57 95 58 96 59 97
REMARK H PARENT 20 6 92 30 24 34 80 53 50 64
REMARK Flexibility Score: inf
ROOT
ATOM      1  C   UNL A   1      39.129  22.600  26.508  1.00  0.00     0.042 C 
ENDROOT
BRANCH   1   2
ATOM      2  C   UNL A   1      37.884  23.399  26.152  1.00  0.00     0.117 C 
BRANCH   2   3
ATOM      3  N   UNL A   1      37.544  23.287  24.753  1.00  0.00    -0.354 N 
ATOM      4  C   UNL A   1      36.764  22.358  24.132  1.00  0.00     0.239 C 
ATOM      5  O   UNL A   1      36.412  22.598  22.974  1.00  0.00    -0.273 OA
ATOM      6  H   UNL A   1      37.929  23.977  24.167  1.00  0.00     0.163 HD
BRANCH   4   7
ATOM      7  C   UNL A   1      36.184  21.174  24.915  1.00  0.00     0.219 C 
BRANCH   7   8
ATOM      8  N   UNL A   1      34.799  21.262  25.390  1.00  0.00    -0.333 N 
ATOM      9  C   UNL A   1      32.195  27.093  24.739  1.00  0.00     0.253 C 
ATOM     10  O   UNL A   1      31.932  27.476  23.598  1.00  0.00    -0.269 OA
ATOM     11  N   UNL A   1      32.182  25.743  25.072  1.00  0.00    -0.339 N 
ATOM     12  C   UNL A   1      32.428  24.780  24.013  1.00  0.00     0.120 C 
ATOM     13  C   UNL A   1      31.726  25.172  26.338  1.00  0.00     0.120 C 
ATOM     14  C   UNL A   1      33.519  23.822  24.473  1.00  0.00     0.030 C 
ATOM     15  C   UNL A   1      32.719  24.128  26.864  1.00  0.00     0.030 C 
ATOM     16  C   UNL A   1      33.156  23.089  25.792  1.00  0.00    -0.008 C 
ATOM     17  C   UNL A   1      32.048  22.032  25.615  1.00  0.00     0.019 C 
ATOM     18  C   UNL A   1      34.396  22.332  26.294  1.00  0.00     0.127 C 
ATOM     19  C   UNL A   1      32.455  20.899  24.687  1.00  0.00     0.101 C 
ATOM     20  C   UNL A   1      33.880  20.396  24.821  1.00  0.00     0.223 C 
ATOM     21  O   UNL A   1      34.215  19.340  24.290  1.00  0.00    -0.275 OA
BRANCH   9  22
ATOM     22  C   UNL A   1      32.704  28.105  25.713  1.00  0.00     0.043 A 
ATOM     23  C   UNL A   1      34.396  31.366  28.006  1.00  0.00     0.048 C 
ATOM     24  C   UNL A   1      33.772  30.242  27.233  1.00  0.00    -0.009 A 
ATOM     25  C   UNL A   1      34.475  29.041  27.094  1.00  0.00     0.008 A 
ATOM     26  C   UNL A   1      32.529  30.357  26.600  1.00  0.00     0.119 A 
ATOM     27  C   UNL A   1      33.957  27.996  26.323  1.00  0.00     0.014 A 
ATOM     28  C   UNL A   1      31.992  29.301  25.861  1.00  0.00     0.060 A 
BRANCH  26  29
ATOM     29  O   UNL A   1      31.788  31.506  26.633  1.00  0.00    -0.508 OA
ATOM     30  H   UNL A   1      31.271  31.708  27.387  1.00  0.00     0.293 HD
ENDBRANCH  26  29
ENDBRANCH   9  22
ENDBRANCH   7   8
ENDBRANCH   4   7
ENDBRANCH   2   3
ENDBRANCH   1   2
BRANCH   1  31
ATOM     31  C   UNL A   1      40.244  23.440  27.122  1.00  0.00     0.118 C 
BRANCH  31  32
ATOM     32  N   UNL A   1      41.010  24.168  26.119  1.00  0.00    -0.352 N 
ATOM     33  C   UNL A   1      41.330  25.500  26.042  1.00  0.00     0.251 C 
ATOM     34  H   UNL A   1      41.354  23.617  25.380  1.00  0.00     0.163 HD
ATOM     35  O   UNL A   1      41.811  25.944  25.000  1.00  0.00    -0.269 OA
BRANCH  33  36
ATOM     36  C   UNL A   1      41.084  26.400  27.189  1.00  0.00     0.039 A 
ATOM     37  C   UNL A   1      40.074  26.075  28.099  1.00  0.00     0.014 A 
ATOM     38  C   UNL A   1      41.825  27.573  27.359  1.00  0.00     0.014 A 
ATOM     39  C   UNL A   1      39.855  26.890  29.212  1.00  0.00     0.010 A 
ATOM     40  C   UNL A   1      41.663  28.336  28.510  1.00  0.00     0.010 A 
ATOM     41  C   UNL A   1      40.673  28.007  29.447  1.00  0.00    -0.014 A 
BRANCH  41  42
ATOM     42  C   UNL A   1      40.512  28.839  30.667  1.00  0.00     0.031 A 
ATOM     43  C   UNL A   1      39.471  29.925  30.713  1.00  0.00     0.074 A 
ATOM     44  C   UNL A   1      41.344  28.656  31.710  1.00  0.00     0.049 A 
ATOM     45  N   UNL A   1      39.217  30.783  31.668  1.00  0.00    -0.248 NA
ATOM     46  C   UNL A   1      38.618  30.081  29.524  1.00  0.00     0.031 C 
ATOM     47  C   UNL A   1      42.416  27.659  31.776  1.00  0.00     0.029 A 
ATOM     48  N   UNL A   1      41.423  29.303  32.918  1.00  0.00    -0.354 N 
ATOM     49  C   UNL A   1      38.189  31.587  31.191  1.00  0.00     0.074 A 
ATOM     50  C   UNL A   1      37.904  31.151  29.842  1.00  0.00     0.031 C 
ATOM     51  C   UNL A   1      43.020  27.739  32.972  1.00  0.00     0.029 A 
ATOM     52  C   UNL A   1      42.414  28.822  33.741  1.00  0.00     0.049 A 
ATOM     53  H   UNL A   1      40.825  30.044  33.172  1.00  0.00     0.167 HD
ATOM     54  C   UNL A   1      37.525  32.583  31.825  1.00  0.00     0.031 A 
ATOM     55  C   UNL A   1      42.799  29.210  34.971  1.00  0.00     0.031 A 
ATOM     56  C   UNL A   1      37.813  33.016  33.167  1.00  0.00     0.049 A 
ATOM     57  C   UNL A   1      42.071  30.342  35.642  1.00  0.00     0.074 A 
ATOM     58  C   UNL A   1      37.173  33.988  33.915  1.00  0.00     0.029 A 
ATOM     59  N   UNL A   1      38.832  32.510  33.961  1.00  0.00    -0.354 N 
ATOM     60  N   UNL A   1      41.061  31.050  35.198  1.00  0.00    -0.248 NA
ATOM     61  C   UNL A   1      42.529  30.720  36.986  1.00  0.00     0.031 C 
ATOM     62  C   UNL A   1      37.840  34.110  35.139  1.00  0.00     0.029 A 
ATOM     63  C   UNL A   1      38.854  33.166  35.180  1.00  0.00     0.049 A 
ATOM     64  H   UNL A   1      39.449  31.789  33.697  1.00  0.00     0.167 HD
ATOM     65  C   UNL A   1      40.742  31.937  36.219  1.00  0.00     0.074 A 
ATOM     66  C   UNL A   1      41.659  31.666  37.309  1.00  0.00     0.031 C 
ATOM     67  C   UNL A   1      39.775  32.889  36.255  1.00  0.00     0.031 A 
BRANCH  54  68
ATOM     68  C   UNL A   1      36.426  33.281  31.063  1.00  0.00    -0.014 A 
ATOM     69  C   UNL A   1      36.703  34.015  29.895  1.00  0.00     0.010 A 
ATOM     70  C   UNL A   1      35.094  33.183  31.506  1.00  0.00     0.010 A 
ATOM     71  C   UNL A   1      35.680  34.681  29.215  1.00  0.00     0.020 A 
ATOM     72  C   UNL A   1      34.062  33.820  30.809  1.00  0.00     0.020 A 
ATOM     73  C   UNL A   1      34.366  34.583  29.680  1.00  0.00     0.054 A 
BRANCH  73  74
ATOM     74  S   UNL A   1      33.058  35.452  28.774  1.00  0.00     0.124 S 
ATOM     75  O   UNL A   1      33.825  36.422  27.997  1.00  0.00    -0.237 OA
ATOM     76  O   UNL A   1      32.439  34.379  28.000  1.00  0.00    -0.237 OA
ATOM     77  O   UNL A   1      32.221  36.019  29.827  1.00  0.00    -0.744 OA
ENDBRANCH  73  74
ENDBRANCH  54  68
BRANCH  55  78
ATOM     78  C   UNL A   1      43.916  28.504  35.657  1.00  0.00    -0.014 A 
ATOM     79  C   UNL A   1      43.660  27.389  36.474  1.00  0.00     0.010 A 
ATOM     80  C   UNL A   1      45.245  28.928  35.477  1.00  0.00     0.010 A 
ATOM     81  C   UNL A   1      44.710  26.720  37.110  1.00  0.00     0.020 A 
ATOM     82  C   UNL A   1      46.300  28.244  36.086  1.00  0.00     0.020 A 
ATOM     83  C   UNL A   1      46.025  27.149  36.907  1.00  0.00     0.054 A 
BRANCH  83  84
ATOM     84  S   UNL A   1      47.376  26.225  37.690  1.00  0.00     0.124 S 
ATOM     85  O   UNL A   1      47.019  26.302  39.103  1.00  0.00    -0.237 OA
ATOM     86  O   UNL A   1      47.252  24.906  37.075  1.00  0.00    -0.237 OA
ATOM     87  O   UNL A   1      48.570  26.973  37.303  1.00  0.00    -0.744 OA
ENDBRANCH  83  84
ENDBRANCH  55  78
BRANCH  67  88
ATOM     88  C   UNL A   1      39.631  33.685  37.526  1.00  0.00    -0.014 A 
ATOM     89  C   UNL A   1      40.271  34.926  37.690  1.00  0.00     0.010 A 
ATOM     90  C   UNL A   1      38.795  33.204  38.551  1.00  0.00     0.010 A 
ATOM     91  C   UNL A   1      40.104  35.655  38.870  1.00  0.00     0.020 A 
ATOM     92  C   UNL A   1      38.601  33.945  39.719  1.00  0.00     0.020 A 
ATOM     93  C   UNL A   1      39.268  35.161  39.876  1.00  0.00     0.054 A 
BRANCH  93  94
ATOM     94  S   UNL A   1      39.034  36.149  41.379  1.00  0.00     0.124 S 
ATOM     95  O   UNL A   1      38.901  37.499  40.838  1.00  0.00    -0.237 OA
ATOM     96  O   UNL A   1      37.817  35.578  41.950  1.00  0.00    -0.237 OA
ATOM     97  O   UNL A   1      40.251  35.904  42.150  1.00  0.00    -0.744 OA
ENDBRANCH  93  94
ENDBRANCH  67  88
ENDBRANCH  41  42
ENDBRANCH  33  36
ENDBRANCH  31  32
ENDBRANCH   1  31
TORSDOF 16
ENDMDL
MODEL 2
REMARK VINA RESULT:     -12.6      0.503      7.932
REMARK SMILES Cc1ccc(C(=O)N2CCC3(CCC(=O)N(CC(=O)NCCCNC(=O)c4ccc(-c5c6nc(c(-c7ccc(S(=O)(=O)[O-])cc7)c7ccc([nH]7)c(-c7ccc(S(=O)(=O)[O-])cc7)c7nc(c(-c8ccc(S(=O)(=O)[O-])cc8)c8ccc5[nH]8)C=C7)C=C6)cc4)C3)CC2)cc1O
REMARK SMILES IDX 22 1 21 2 20 3 18 4 19 5 17 7 16 8 6 9 7 10 8 11 9 12 89 13
REMARK SMILES IDX 10 14 88 15 11 16 12 17 87 18 13 19 14 20 15 21 5 22 1 23
REMARK SMILES IDX 2 24 3 25 91 26 4 27 90 28 92 29 23 31 24 32 25 33 26 35
REMARK SMILES IDX 27 36 28 37 86 38 29 39 85 40 30 41 31 42 32 43 79 44 33 45
REMARK SMILES IDX 84 46 78 47 80 48 34 49 83 50 77 51 76 52 35 54 65 55 46 56
REMARK SMILES IDX 64 57 47 58 50 59 63 60 81 61 48 62 49 63 62 65 82 66 51 67
REMARK SMILES IDX 36 68 37 69 45 70 38 71 44 72 39 73 40 74 41 75 42 76 43 77
REMARK SMILES IDX 66 78 67 79 75 80 68 81 74 82 69 83 70 84 71 85 72 86 73 87
REMARK SMILES IDX 52 88 53 89 61 90 54 91 60 92 55 93 56 94 57 95 58 96 59 97
REMARK H PARENT 20 6 92 30 24 34 80 53 50 64
REMARK Flexibility Score: inf
ROOT
ATOM      1  C   UNL A   1      39.317  22.445  26.513  1.00  0.00     0.042 C 
ENDROOT
BRANCH   1   2
ATOM      2  C   UNL A   1      38.145  23.363  26.200  1.00  0.00     0.117 C 
BRANCH   2   3
ATOM      3  N   UNL A   1      37.710  23.246  24.828  1.00  0.00    -0.354 N 
ATOM      4  C   UNL A   1      36.888  22.317  24.266  1.00  0.00     0.239 C 
ATOM      5  O   UNL A   1      36.457  22.553  23.134  1.00  0.00    -0.273 OA
ATOM      6  H   UNL A   1      38.055  23.934  24.214  1.00  0.00     0.163 HD
BRANCH   4   7
ATOM      7  C   UNL A   1      36.362  21.136  25.091  1.00  0.00     0.219 C 
BRANCH   7   8
ATOM      8  N   UNL A   1      34.961  21.158  25.526  1.00  0.00    -0.333 N 
ATOM      9  C   UNL A   1      32.018  26.774  24.528  1.00  0.00     0.253 C 
ATOM     10  O   UNL A   1      31.762  27.086  23.363  1.00  0.00    -0.269 OA
ATOM     11  N   UNL A   1      32.079  25.443  24.926  1.00  0.00    -0.339 N 
ATOM     12  C   UNL A   1      32.415  24.449  23.921  1.00  0.00     0.120 C 
ATOM     13  C   UNL A   1      31.624  24.904  26.206  1.00  0.00     0.120 C 
ATOM     14  C   UNL A   1      33.549  23.585  24.454  1.00  0.00     0.030 C 
ATOM     15  C   UNL A   1      32.666  23.952  26.806  1.00  0.00     0.030 C 
ATOM     16  C   UNL A   1      33.196  22.894  25.798  1.00  0.00    -0.008 C 
ATOM     17  C   UNL A   1      32.162  21.761  25.645  1.00  0.00     0.019 C 
ATOM     18  C   UNL A   1      34.466  22.241  26.367  1.00  0.00     0.127 C 
ATOM     19  C   UNL A   1      32.665  20.614  24.783  1.00  0.00     0.101 C 
ATOM     20  C   UNL A   1      34.114  20.210  24.977  1.00  0.00     0.223 C 
ATOM     21  O   UNL A   1      34.529  19.153  24.507  1.00  0.00    -0.275 OA
BRANCH   9  22
ATOM     22  C   UNL A   1      32.435  27.861  25.464  1.00  0.00     0.043 A 
ATOM     23  C   UNL A   1      33.943  31.280  27.653  1.00  0.00     0.048 C 
ATOM     24  C   UNL A   1      33.380  30.104  26.910  1.00  0.00    -0.009 A 
ATOM     25  C   UNL A   1      34.045  28.876  26.979  1.00  0.00     0.008 A 
ATOM     26  C   UNL A   1      32.237  30.193  26.107  1.00  0.00     0.119 A 
ATOM     27  C   UNL A   1      33.590  27.776  26.245  1.00  0.00     0.014 A 
ATOM     28  C   UNL A   1      31.760  29.086  25.403  1.00  0.00     0.060 A 
BRANCH  26  29
ATOM     29  O   UNL A   1      31.547  31.360  25.933  1.00  0.00    -0.508 OA
ATOM     30  H   UNL A   1      31.785  31.947  25.243  1.00  0.00     0.293 HD
ENDBRANCH  26  29
ENDBRANCH   9  22
ENDBRANCH   7   8
ENDBRANCH   4   7
ENDBRANCH   2   3
ENDBRANCH   1   2
BRANCH   1  31
ATOM     31  C   UNL A   1      40.518  23.165  27.117  1.00  0.00     0.118 C 
BRANCH  31  32
ATOM     32  N   UNL A   1      41.346  23.814  26.108  1.00  0.00    -0.352 N 
ATOM     33  C   UNL A   1      41.707  25.130  25.970  1.00  0.00     0.251 C 
ATOM     34  H   UNL A   1      41.704  23.212  25.417  1.00  0.00     0.163 HD
ATOM     35  O   UNL A   1      42.243  25.500  24.926  1.00  0.00    -0.269 OA
BRANCH  33  36
ATOM     36  C   UNL A   1      41.440  26.101  27.052  1.00  0.00     0.039 A 
ATOM     37  C   UNL A   1      40.464  25.799  28.006  1.00  0.00     0.014 A 
ATOM     38  C   UNL A   1      42.127  27.317  27.118  1.00  0.00     0.014 A 
ATOM     39  C   UNL A   1      40.227  26.684  29.060  1.00  0.00     0.010 A 
ATOM     40  C   UNL A   1      41.950  28.156  28.213  1.00  0.00     0.010 A 
ATOM     41  C   UNL A   1      40.995  27.852  29.193  1.00  0.00    -0.014 A 
BRANCH  41  42
ATOM     42  C   UNL A   1      40.817  28.766  30.351  1.00  0.00     0.031 A 
ATOM     43  C   UNL A   1      41.681  28.617  31.574  1.00  0.00     0.074 A 
ATOM     44  C   UNL A   1      39.837  29.690  30.324  1.00  0.00     0.049 A 
ATOM     45  N   UNL A   1      41.640  29.285  32.698  1.00  0.00    -0.248 NA
ATOM     46  C   UNL A   1      42.712  27.566  31.539  1.00  0.00     0.031 C 
ATOM     47  C   UNL A   1      38.912  29.913  29.210  1.00  0.00     0.029 A 
ATOM     48  N   UNL A   1      39.454  30.617  31.261  1.00  0.00    -0.354 N 
ATOM     49  C   UNL A   1      42.625  28.729  33.506  1.00  0.00     0.074 A 
ATOM     50  C   UNL A   1      43.209  27.633  32.765  1.00  0.00     0.031 C 
ATOM     51  C   UNL A   1      38.092  30.931  29.515  1.00  0.00     0.029 A 
ATOM     52  C   UNL A   1      38.399  31.403  30.862  1.00  0.00     0.049 A 
ATOM     53  H   UNL A   1      39.892  30.709  32.138  1.00  0.00     0.167 HD
ATOM     54  C   UNL A   1      43.024  29.109  34.743  1.00  0.00     0.031 A 
ATOM     55  C   UNL A   1      37.746  32.389  31.507  1.00  0.00     0.031 A 
ATOM     56  C   UNL A   1      42.439  30.199  35.479  1.00  0.00     0.049 A 
ATOM     57  C   UNL A   1      38.183  32.771  32.894  1.00  0.00     0.074 A 
ATOM     58  C   UNL A   1      42.798  30.690  36.721  1.00  0.00     0.029 A 
ATOM     59  N   UNL A   1      41.366  30.963  35.043  1.00  0.00    -0.354 N 
ATOM     60  N   UNL A   1      39.157  32.272  33.617  1.00  0.00    -0.248 NA
ATOM     61  C   UNL A   1      37.440  33.856  33.548  1.00  0.00     0.031 C 
ATOM     62  C   UNL A   1      41.906  31.713  37.062  1.00  0.00     0.029 A 
ATOM     63  C   UNL A   1      41.034  31.905  36.002  1.00  0.00     0.049 A 
ATOM     64  H   UNL A   1      40.908  30.852  34.179  1.00  0.00     0.167 HD
ATOM     65  C   UNL A   1      39.163  33.003  34.800  1.00  0.00     0.074 A 
ATOM     66  C   UNL A   1      38.104  33.987  34.688  1.00  0.00     0.031 C 
ATOM     67  C   UNL A   1      39.975  32.876  35.880  1.00  0.00     0.031 A 
BRANCH  54  68
ATOM     68  C   UNL A   1      44.145  28.327  35.383  1.00  0.00    -0.014 A 
ATOM     69  C   UNL A   1      43.880  27.205  36.189  1.00  0.00     0.010 A 
ATOM     70  C   UNL A   1      45.481  28.704  35.156  1.00  0.00     0.010 A 
ATOM     71  C   UNL A   1      44.926  26.507  36.800  1.00  0.00     0.020 A 
ATOM     72  C   UNL A   1      46.532  27.988  35.738  1.00  0.00     0.020 A 
ATOM     73  C   UNL A   1      46.246  26.907  36.574  1.00  0.00     0.054 A 
BRANCH  73  74
ATOM     74  S   UNL A   1      47.583  25.979  37.373  1.00  0.00     0.124 S 
ATOM     75  O   UNL A   1      48.694  26.923  37.291  1.00  0.00    -0.237 OA
ATOM     76  O   UNL A   1      47.054  25.748  38.714  1.00  0.00    -0.237 OA
ATOM     77  O   UNL A   1      47.720  24.783  36.546  1.00  0.00    -0.744 OA
ENDBRANCH  73  74
ENDBRANCH  54  68
BRANCH  55  78
ATOM     78  C   UNL A   1      36.623  33.099  30.835  1.00  0.00    -0.014 A 
ATOM     79  C   UNL A   1      35.323  33.040  31.369  1.00  0.00     0.010 A 
ATOM     80  C   UNL A   1      36.850  33.856  29.672  1.00  0.00     0.010 A 
ATOM     81  C   UNL A   1      34.269  33.715  30.744  1.00  0.00     0.020 A 
ATOM     82  C   UNL A   1      35.806  34.556  29.062  1.00  0.00     0.020 A 
ATOM     83  C   UNL A   1      34.520  34.474  29.597  1.00  0.00     0.054 A 
BRANCH  83  84
ATOM     84  S   UNL A   1      33.150  35.393  28.842  1.00  0.00     0.124 S 
ATOM     85  O   UNL A   1      32.434  35.890  30.014  1.00  0.00    -0.237 OA
ATOM     86  O   UNL A   1      33.848  36.402  28.050  1.00  0.00    -0.237 OA
ATOM     87  O   UNL A   1      32.447  34.377  28.063  1.00  0.00    -0.744 OA
ENDBRANCH  83  84
ENDBRANCH  55  78
BRANCH  67  88
ATOM     88  C   UNL A   1      39.776  33.845  37.015  1.00  0.00    -0.014 A 
ATOM     89  C   UNL A   1      40.218  35.177  36.929  1.00  0.00     0.010 A 
ATOM     90  C   UNL A   1      39.083  33.426  38.167  1.00  0.00     0.010 A 
ATOM     91  C   UNL A   1      40.002  36.062  37.988  1.00  0.00     0.020 A 
ATOM     92  C   UNL A   1      38.838  34.318  39.215  1.00  0.00     0.020 A 
ATOM     93  C   UNL A   1      39.311  35.628  39.123  1.00  0.00     0.054 A 
BRANCH  93  94
ATOM     94  S   UNL A   1      39.005  36.810  40.465  1.00  0.00     0.124 S 
ATOM     95  O   UNL A   1      40.341  36.982  41.029  1.00  0.00    -0.237 OA
ATOM     96  O   UNL A   1      38.468  37.966  39.754  1.00  0.00    -0.237 OA
ATOM     97  O   UNL A   1      38.050  36.117  41.328  1.00  0.00    -0.744 OA
ENDBRANCH  93  94
ENDBRANCH  67  88
ENDBRANCH  41  42
ENDBRANCH  33  36
ENDBRANCH  31  32
ENDBRANCH   1  31
TORSDOF 16
ENDMDL
MODEL 3
REMARK VINA RESULT:     -12.1      5.900      8.329
REMARK SMILES Cc1ccc(C(=O)N2CCC3(CCC(=O)N(CC(=O)NCCCNC(=O)c4ccc(-c5c6nc(c(-c7ccc(S(=O)(=O)[O-])cc7)c7ccc([nH]7)c(-c7ccc(S(=O)(=O)[O-])cc7)c7nc(c(-c8ccc(S(=O)(=O)[O-])cc8)c8ccc5[nH]8)C=C7)C=C6)cc4)C3)CC2)cc1O
REMARK SMILES IDX 22 1 21 2 20 3 18 4 19 5 17 7 16 8 6 9 7 10 8 11 9 12 89 13
REMARK SMILES IDX 10 14 88 15 11 16 12 17 87 18 13 19 14 20 15 21 5 22 1 23
REMARK SMILES IDX 2 24 3 25 91 26 4 27 90 28 92 29 23 31 24 32 25 33 26 35
REMARK SMILES IDX 27 36 28 37 86 38 29 39 85 40 30 41 31 42 32 43 79 44 33 45
REMARK SMILES IDX 84 46 78 47 80 48 34 49 83 50 77 51 76 52 35 54 65 55 46 56
REMARK SMILES IDX 64 57 47 58 50 59 63 60 81 61 48 62 49 63 62 65 82 66 51 67
REMARK SMILES IDX 36 68 37 69 45 70 38 71 44 72 39 73 40 74 41 75 42 76 43 77
REMARK SMILES IDX 66 78 67 79 75 80 68 81 74 82 69 83 70 84 71 85 72 86 73 87
REMARK SMILES IDX 52 88 53 89 61 90 54 91 60 92 55 93 56 94 57 95 58 96 59 97
REMARK H PARENT 20 6 92 30 24 34 80 53 50 64
REMARK Flexibility Score: inf
ROOT
ATOM      1  C   UNL A   1      38.297  19.832  24.746  1.00  0.00     0.042 C 
ENDROOT
BRANCH   1   2
ATOM      2  C   UNL A   1      36.817  20.077  25.003  1.00  0.00     0.117 C 
BRANCH   2   3
ATOM      3  N   UNL A   1      36.552  21.432  25.425  1.00  0.00    -0.354 N 
ATOM      4  C   UNL A   1      35.428  21.947  25.998  1.00  0.00     0.239 C 
ATOM      5  O   UNL A   1      35.513  23.072  26.499  1.00  0.00    -0.273 OA
ATOM      6  H   UNL A   1      37.285  22.073  25.278  1.00  0.00     0.163 HD
BRANCH   4   7
ATOM      7  C   UNL A   1      34.180  21.078  26.191  1.00  0.00     0.219 C 
BRANCH   7   8
ATOM      8  N   UNL A   1      33.029  21.305  25.310  1.00  0.00    -0.333 N 
ATOM      9  C   UNL A   1      33.003  27.078  22.504  1.00  0.00     0.253 C 
ATOM     10  O   UNL A   1      33.842  27.290  21.626  1.00  0.00    -0.269 OA
ATOM     11  N   UNL A   1      32.514  25.799  22.747  1.00  0.00    -0.339 N 
ATOM     12  C   UNL A   1      33.363  24.671  22.403  1.00  0.00     0.120 C 
ATOM     13  C   UNL A   1      31.141  25.456  23.111  1.00  0.00     0.120 C 
ATOM     14  C   UNL A   1      33.453  23.747  23.610  1.00  0.00     0.030 C 
ATOM     15  C   UNL A   1      31.110  24.462  24.279  1.00  0.00     0.030 C 
ATOM     16  C   UNL A   1      32.063  23.248  24.088  1.00  0.00    -0.008 C 
ATOM     17  C   UNL A   1      31.419  22.230  23.127  1.00  0.00     0.019 C 
ATOM     18  C   UNL A   1      32.235  22.521  25.432  1.00  0.00     0.127 C 
ATOM     19  C   UNL A   1      32.225  20.947  22.998  1.00  0.00     0.101 C 
ATOM     20  C   UNL A   1      32.839  20.405  24.275  1.00  0.00     0.223 C 
ATOM     21  O   UNL A   1      33.294  19.264  24.305  1.00  0.00    -0.275 OA
BRANCH   9  22
ATOM     22  C   UNL A   1      32.656  28.206  23.421  1.00  0.00     0.043 A 
ATOM     23  C   UNL A   1      31.539  31.003  26.532  1.00  0.00     0.048 C 
ATOM     24  C   UNL A   1      31.963  30.057  25.448  1.00  0.00    -0.009 A 
ATOM     25  C   UNL A   1      31.035  29.685  24.470  1.00  0.00     0.008 A 
ATOM     26  C   UNL A   1      33.242  29.488  25.396  1.00  0.00     0.119 A 
ATOM     27  C   UNL A   1      31.372  28.752  23.485  1.00  0.00     0.014 A 
ATOM     28  C   UNL A   1      33.591  28.585  24.391  1.00  0.00     0.060 A 
BRANCH  26  29
ATOM     29  O   UNL A   1      34.202  29.748  26.333  1.00  0.00    -0.508 OA
ATOM     30  H   UNL A   1      34.376  29.125  27.011  1.00  0.00     0.293 HD
ENDBRANCH  26  29
ENDBRANCH   9  22
ENDBRANCH   7   8
ENDBRANCH   4   7
ENDBRANCH   2   3
ENDBRANCH   1   2
BRANCH   1  31
ATOM     31  C   UNL A   1      39.202  20.291  25.883  1.00  0.00     0.118 C 
BRANCH  31  32
ATOM     32  N   UNL A   1      40.308  19.372  26.122  1.00  0.00    -0.352 N 
ATOM     33  C   UNL A   1      41.639  19.623  26.336  1.00  0.00     0.251 C 
ATOM     34  H   UNL A   1      40.059  18.420  26.133  1.00  0.00     0.163 HD
ATOM     35  O   UNL A   1      42.439  18.688  26.310  1.00  0.00    -0.269 OA
BRANCH  33  36
ATOM     36  C   UNL A   1      42.116  21.002  26.577  1.00  0.00     0.039 A 
ATOM     37  C   UNL A   1      42.372  21.408  27.889  1.00  0.00     0.014 A 
ATOM     38  C   UNL A   1      42.290  21.901  25.522  1.00  0.00     0.014 A 
ATOM     39  C   UNL A   1      42.864  22.693  28.134  1.00  0.00     0.010 A 
ATOM     40  C   UNL A   1      42.859  23.148  25.758  1.00  0.00     0.010 A 
ATOM     41  C   UNL A   1      43.147  23.560  27.067  1.00  0.00    -0.014 A 
BRANCH  41  42
ATOM     42  C   UNL A   1      43.749  24.899  27.298  1.00  0.00     0.031 A 
ATOM     43  C   UNL A   1      42.891  26.048  27.755  1.00  0.00     0.074 A 
ATOM     44  C   UNL A   1      45.057  25.093  27.039  1.00  0.00     0.049 A 
ATOM     45  N   UNL A   1      43.227  27.295  27.960  1.00  0.00    -0.248 NA
ATOM     46  C   UNL A   1      41.466  25.763  27.990  1.00  0.00     0.031 C 
ATOM     47  C   UNL A   1      45.988  24.067  26.561  1.00  0.00     0.029 A 
ATOM     48  N   UNL A   1      45.832  26.220  27.140  1.00  0.00    -0.354 N 
ATOM     49  C   UNL A   1      42.057  27.946  28.334  1.00  0.00     0.074 A 
ATOM     50  C   UNL A   1      40.993  26.968  28.273  1.00  0.00     0.031 C 
ATOM     51  C   UNL A   1      47.213  24.604  26.442  1.00  0.00     0.029 A 
ATOM     52  C   UNL A   1      47.147  26.021  26.789  1.00  0.00     0.049 A 
ATOM     53  H   UNL A   1      45.480  27.092  27.435  1.00  0.00     0.167 HD
ATOM     54  C   UNL A   1      41.885  29.234  28.716  1.00  0.00     0.031 A 
ATOM     55  C   UNL A   1      48.183  26.880  26.743  1.00  0.00     0.031 A 
ATOM     56  C   UNL A   1      42.947  30.205  28.773  1.00  0.00     0.049 A 
ATOM     57  C   UNL A   1      47.962  28.315  27.137  1.00  0.00     0.074 A 
ATOM     58  C   UNL A   1      42.885  31.524  29.186  1.00  0.00     0.029 A 
ATOM     59  N   UNL A   1      44.261  29.965  28.399  1.00  0.00    -0.354 N 
ATOM     60  N   UNL A   1      46.860  28.896  27.546  1.00  0.00    -0.248 NA
ATOM     61  C   UNL A   1      49.128  29.206  27.074  1.00  0.00     0.031 C 
ATOM     62  C   UNL A   1      44.149  32.098  29.007  1.00  0.00     0.029 A 
ATOM     63  C   UNL A   1      45.014  31.118  28.547  1.00  0.00     0.049 A 
ATOM     64  H   UNL A   1      44.607  29.102  28.076  1.00  0.00     0.167 HD
ATOM     65  C   UNL A   1      47.206  30.215  27.818  1.00  0.00     0.074 A 
ATOM     66  C   UNL A   1      48.623  30.340  27.540  1.00  0.00     0.031 C 
ATOM     67  C   UNL A   1      46.423  31.230  28.263  1.00  0.00     0.031 A 
BRANCH  54  68
ATOM     68  C   UNL A   1      40.490  29.668  29.092  1.00  0.00    -0.014 A 
ATOM     69  C   UNL A   1      39.459  29.710  28.135  1.00  0.00     0.010 A 
ATOM     70  C   UNL A   1      40.199  30.016  30.423  1.00  0.00     0.010 A 
ATOM     71  C   UNL A   1      38.178  30.142  28.491  1.00  0.00     0.020 A 
ATOM     72  C   UNL A   1      38.910  30.416  30.791  1.00  0.00     0.020 A 
ATOM     73  C   UNL A   1      37.914  30.497  29.815  1.00  0.00     0.054 A 
BRANCH  73  74
ATOM     74  S   UNL A   1      36.241  31.047  30.249  1.00  0.00     0.124 S 
ATOM     75  O   UNL A   1      35.509  30.786  29.012  1.00  0.00    -0.237 OA
ATOM     76  O   UNL A   1      35.901  30.178  31.373  1.00  0.00    -0.237 OA
ATOM     77  O   UNL A   1      36.413  32.457  30.585  1.00  0.00    -0.744 OA
ENDBRANCH  73  74
ENDBRANCH  54  68
BRANCH  55  78
ATOM     78  C   UNL A   1      49.529  26.398  26.327  1.00  0.00    -0.014 A 
ATOM     79  C   UNL A   1      49.983  26.602  25.012  1.00  0.00     0.010 A 
ATOM     80  C   UNL A   1      50.374  25.755  27.250  1.00  0.00     0.010 A 
ATOM     81  C   UNL A   1      51.252  26.159  24.624  1.00  0.00     0.020 A 
ATOM     82  C   UNL A   1      51.653  25.338  26.874  1.00  0.00     0.020 A 
ATOM     83  C   UNL A   1      52.081  25.535  25.561  1.00  0.00     0.054 A 
BRANCH  83  84
ATOM     84  S   UNL A   1      53.747  25.027  25.051  1.00  0.00     0.124 S 
ATOM     85  O   UNL A   1      54.571  25.562  26.130  1.00  0.00    -0.237 OA
ATOM     86  O   UNL A   1      53.631  23.572  25.002  1.00  0.00    -0.237 OA
ATOM     87  O   UNL A   1      53.917  25.674  23.752  1.00  0.00    -0.744 OA
ENDBRANCH  83  84
ENDBRANCH  55  78
BRANCH  67  88
ATOM     88  C   UNL A   1      47.086  32.559  28.512  1.00  0.00    -0.014 A 
ATOM     89  C   UNL A   1      47.683  32.862  29.748  1.00  0.00     0.010 A 
ATOM     90  C   UNL A   1      47.160  33.500  27.467  1.00  0.00     0.010 A 
ATOM     91  C   UNL A   1      48.311  34.094  29.947  1.00  0.00     0.020 A 
ATOM     92  C   UNL A   1      47.814  34.721  27.652  1.00  0.00     0.020 A 
ATOM     93  C   UNL A   1      48.374  35.015  28.897  1.00  0.00     0.054 A 
BRANCH  93  94
ATOM     94  S   UNL A   1      49.234  36.589  29.167  1.00  0.00     0.124 S 
ATOM     95  O   UNL A   1      50.195  36.602  28.067  1.00  0.00    -0.237 OA
ATOM     96  O   UNL A   1      48.153  37.564  29.070  1.00  0.00    -0.237 OA
ATOM     97  O   UNL A   1      49.817  36.443  30.499  1.00  0.00    -0.744 OA
ENDBRANCH  93  94
ENDBRANCH  67  88
ENDBRANCH  41  42
ENDBRANCH  33  36
ENDBRANCH  31  32
ENDBRANCH   1  31
TORSDOF 16
ENDMDL
