MODEL 1
REMARK VINA RESULT:     -12.0      0.000      0.000
REMARK SMILES CCc1ccc(N(C)C(=O)N2CC[C@@H](C(=O)NCCCNC(=O)c3ccc(-c4c5nc(c(-c6ccc(S(=O)(=O)[O-])cc6)c6ccc([nH]6)c(-c6ccc(S(=O)(=O)[O-])cc6)c6nc(c(-c7ccc(S(=O)(=O)[O-])cc7)c7ccc4[nH]7)C=C6)C=C5)cc3)[C@@H]2C)cc1
REMARK SMILES IDX 18 1 17 2 15 3 16 4 14 6 11 7 12 8 84 9 13 10 85 11 9 12
REMARK SMILES IDX 10 13 7 14 8 15 6 16 3 17 4 18 87 19 5 20 86 21 2 22 1 23
REMARK SMILES IDX 19 24 20 25 21 26 22 27 23 29 24 30 25 31 83 32 26 33 82 34
REMARK SMILES IDX 27 35 28 36 29 37 76 38 30 39 81 40 75 41 77 42 31 43 80 44
REMARK SMILES IDX 74 45 73 46 32 48 62 49 43 50 61 51 44 52 47 53 60 54 78 55
REMARK SMILES IDX 45 56 46 57 59 59 79 60 48 61 33 62 34 63 42 64 35 65 41 66
REMARK SMILES IDX 36 67 37 68 38 69 39 70 40 71 63 72 64 73 72 74 65 75 71 76
REMARK SMILES IDX 66 77 67 78 68 79 69 80 70 81 49 82 50 83 58 84 51 85 57 86
REMARK SMILES IDX 52 87 53 88 54 89 55 90 56 91
REMARK H PARENT 17 5 21 28 77 47 47 58
REMARK Flexibility Score: inf
ROOT
ATOM      1  C   UNL A   1      32.962  29.769  27.145  1.00  0.00     0.117 C 
ENDROOT
BRANCH   1   2
ATOM      2  N   UNL A   1      32.196  28.547  27.343  1.00  0.00    -0.356 N 
ATOM      3  C   UNL A   1      31.630  27.669  26.474  1.00  0.00     0.225 C 
ATOM      4  O   UNL A   1      31.003  26.727  26.972  1.00  0.00    -0.275 OA
ATOM      5  H   UNL A   1      32.064  28.310  28.289  1.00  0.00     0.163 HD
BRANCH   3   6
ATOM      6  C   UNL A   1      31.728  27.782  24.958  1.00  0.00     0.102 C 
ATOM      7  N   UNL A   1      32.564  26.216  23.348  1.00  0.00    -0.321 N 
ATOM      8  C   UNL A   1      31.195  26.524  22.973  1.00  0.00     0.122 C 
ATOM      9  C   UNL A   1      33.021  27.183  24.367  1.00  0.00     0.096 C 
ATOM     10  C   UNL A   1      30.562  27.148  24.203  1.00  0.00     0.037 C 
ATOM     11  C   UNL A   1      33.884  28.274  23.726  1.00  0.00     0.032 C 
BRANCH   7  12
ATOM     12  C   UNL A   1      33.273  25.328  22.533  1.00  0.00     0.324 C 
ATOM     13  O   UNL A   1      33.518  25.696  21.381  1.00  0.00    -0.248 OA
BRANCH  12  14
ATOM     14  N   UNL A   1      33.611  24.059  23.035  1.00  0.00    -0.297 N 
ATOM     15  C   UNL A   1      32.981  22.875  22.485  1.00  0.00     0.155 C 
BRANCH  14  16
ATOM     16  C   UNL A   1      34.774  23.803  23.878  1.00  0.00     0.045 A 
ATOM     17  C   UNL A   1      37.181  23.457  25.393  1.00  0.00    -0.048 A 
ATOM     18  C   UNL A   1      37.099  23.008  24.079  1.00  0.00     0.006 A 
ATOM     19  C   UNL A   1      36.041  24.027  25.965  1.00  0.00     0.006 A 
ATOM     20  C   UNL A   1      35.915  23.161  23.348  1.00  0.00     0.027 A 
ATOM     21  C   UNL A   1      34.857  24.186  25.222  1.00  0.00     0.027 A 
BRANCH  17  22
ATOM     22  C   UNL A   1      38.471  23.323  26.165  1.00  0.00     0.032 C 
ATOM     23  C   UNL A   1      39.058  21.920  26.081  1.00  0.00     0.009 C 
ENDBRANCH  17  22
ENDBRANCH  14  16
ENDBRANCH  12  14
ENDBRANCH   7  12
ENDBRANCH   3   6
ENDBRANCH   1   2
BRANCH   1  24
ATOM     24  C   UNL A   1      34.465  29.497  27.131  1.00  0.00     0.042 C 
BRANCH  24  25
ATOM     25  C   UNL A   1      35.329  30.585  27.746  1.00  0.00     0.118 C 
BRANCH  25  26
ATOM     26  N   UNL A   1      35.336  30.539  29.199  1.00  0.00    -0.352 N 
ATOM     27  C   UNL A   1      36.280  30.104  30.096  1.00  0.00     0.251 C 
ATOM     28  H   UNL A   1      34.514  30.883  29.616  1.00  0.00     0.163 HD
ATOM     29  O   UNL A   1      35.945  30.004  31.281  1.00  0.00    -0.269 OA
BRANCH  27  30
ATOM     30  C   UNL A   1      37.662  29.732  29.700  1.00  0.00     0.039 A 
ATOM     31  C   UNL A   1      38.564  29.349  30.702  1.00  0.00     0.014 A 
ATOM     32  C   UNL A   1      38.122  29.827  28.385  1.00  0.00     0.014 A 
ATOM     33  C   UNL A   1      39.886  29.018  30.381  1.00  0.00     0.010 A 
ATOM     34  C   UNL A   1      39.408  29.398  28.051  1.00  0.00     0.010 A 
ATOM     35  C   UNL A   1      40.315  29.006  29.045  1.00  0.00    -0.014 A 
BRANCH  35  36
ATOM     36  C   UNL A   1      41.706  28.622  28.673  1.00  0.00     0.031 A 
ATOM     37  C   UNL A   1      42.807  29.655  28.673  1.00  0.00     0.074 A 
ATOM     38  C   UNL A   1      41.978  27.360  28.286  1.00  0.00     0.049 A 
ATOM     39  N   UNL A   1      44.058  29.530  28.305  1.00  0.00    -0.248 NA
ATOM     40  C   UNL A   1      42.450  31.013  29.115  1.00  0.00     0.031 C 
ATOM     41  C   UNL A   1      41.005  26.267  28.209  1.00  0.00     0.029 A 
ATOM     42  N   UNL A   1      43.156  26.781  27.880  1.00  0.00    -0.354 N 
ATOM     43  C   UNL A   1      44.627  30.791  28.450  1.00  0.00     0.074 A 
ATOM     44  C   UNL A   1      43.573  31.679  28.887  1.00  0.00     0.031 C 
ATOM     45  C   UNL A   1      41.631  25.146  27.817  1.00  0.00     0.029 A 
ATOM     46  C   UNL A   1      43.038  25.446  27.571  1.00  0.00     0.049 A 
ATOM     47  H   UNL A   1      44.005  27.276  27.817  1.00  0.00     0.167 HD
ATOM     48  C   UNL A   1      45.912  31.176  28.258  1.00  0.00     0.031 A 
ATOM     49  C   UNL A   1      43.955  24.560  27.133  1.00  0.00     0.031 A 
ATOM     50  C   UNL A   1      46.970  30.291  27.849  1.00  0.00     0.049 A 
ATOM     51  C   UNL A   1      45.376  25.009  26.928  1.00  0.00     0.074 A 
ATOM     52  C   UNL A   1      48.314  30.576  27.677  1.00  0.00     0.029 A 
ATOM     53  N   UNL A   1      46.808  28.945  27.557  1.00  0.00    -0.354 N 
ATOM     54  N   UNL A   1      45.898  26.198  27.109  1.00  0.00    -0.248 NA
ATOM     55  C   UNL A   1      46.334  23.992  26.472  1.00  0.00     0.031 C 
ATOM     56  C   UNL A   1      48.956  29.413  27.240  1.00  0.00     0.029 A 
ATOM     57  C   UNL A   1      48.022  28.391  27.191  1.00  0.00     0.049 A 
ATOM     58  H   UNL A   1      45.954  28.456  27.603  1.00  0.00     0.167 HD
ATOM     59  C   UNL A   1      47.251  26.066  26.813  1.00  0.00     0.074 A 
ATOM     60  C   UNL A   1      47.468  24.679  26.454  1.00  0.00     0.031 C 
ATOM     61  C   UNL A   1      48.225  27.009  26.836  1.00  0.00     0.031 A 
BRANCH  48  62
ATOM     62  C   UNL A   1      46.245  32.627  28.491  1.00  0.00    -0.014 A 
ATOM     63  C   UNL A   1      46.517  33.110  29.784  1.00  0.00     0.010 A 
ATOM     64  C   UNL A   1      46.324  33.513  27.400  1.00  0.00     0.010 A 
ATOM     65  C   UNL A   1      46.813  34.461  29.989  1.00  0.00     0.020 A 
ATOM     66  C   UNL A   1      46.649  34.860  27.597  1.00  0.00     0.020 A 
ATOM     67  C   UNL A   1      46.871  35.328  28.894  1.00  0.00     0.054 A 
BRANCH  67  68
ATOM     68  S   UNL A   1      47.271  37.073  29.184  1.00  0.00     0.124 S 
ATOM     69  O   UNL A   1      46.641  37.719  28.034  1.00  0.00    -0.237 OA
ATOM     70  O   UNL A   1      46.634  37.337  30.476  1.00  0.00    -0.237 OA
ATOM     71  O   UNL A   1      48.728  37.101  29.195  1.00  0.00    -0.744 OA
ENDBRANCH  67  68
ENDBRANCH  48  62
BRANCH  49  72
ATOM     72  C   UNL A   1      43.558  23.149  26.878  1.00  0.00    -0.014 A 
ATOM     73  C   UNL A   1      43.805  22.556  25.627  1.00  0.00     0.010 A 
ATOM     74  C   UNL A   1      42.947  22.385  27.889  1.00  0.00     0.010 A 
ATOM     75  C   UNL A   1      43.435  21.229  25.387  1.00  0.00     0.020 A 
ATOM     76  C   UNL A   1      42.599  21.051  27.661  1.00  0.00     0.020 A 
ATOM     77  C   UNL A   1      42.836  20.485  26.408  1.00  0.00     0.054 A 
BRANCH  77  78
ATOM     78  S   UNL A   1      42.410  18.750  26.091  1.00  0.00     0.124 S 
ATOM     79  O   UNL A   1      41.007  18.848  25.701  1.00  0.00    -0.237 OA
ATOM     80  O   UNL A   1      43.340  18.386  25.025  1.00  0.00    -0.237 OA
ATOM     81  O   UNL A   1      42.659  18.098  27.375  1.00  0.00    -0.744 OA
ENDBRANCH  77  78
ENDBRANCH  49  72
BRANCH  61  82
ATOM     82  C   UNL A   1      49.624  26.569  26.497  1.00  0.00    -0.014 A 
ATOM     83  C   UNL A   1      50.462  25.994  27.467  1.00  0.00     0.010 A 
ATOM     84  C   UNL A   1      50.086  26.689  25.174  1.00  0.00     0.010 A 
ATOM     85  C   UNL A   1      51.751  25.574  27.127  1.00  0.00     0.020 A 
ATOM     86  C   UNL A   1      51.364  26.247  24.824  1.00  0.00     0.020 A 
ATOM     87  C   UNL A   1      52.195  25.705  25.807  1.00  0.00     0.054 A 
BRANCH  87  88
ATOM     88  S   UNL A   1      53.856  25.114  25.381  1.00  0.00     0.124 S 
ATOM     89  O   UNL A   1      53.567  23.832  24.743  1.00  0.00    -0.237 OA
ATOM     90  O   UNL A   1      54.351  26.162  24.491  1.00  0.00    -0.237 OA
ATOM     91  O   UNL A   1      54.535  25.029  26.672  1.00  0.00    -0.744 OA
ENDBRANCH  87  88
ENDBRANCH  61  82
ENDBRANCH  35  36
ENDBRANCH  27  30
ENDBRANCH  25  26
ENDBRANCH  24  25
ENDBRANCH   1  24
TORSDOF 17
ENDMDL
MODEL 2
REMARK VINA RESULT:     -11.1      3.191      4.097
REMARK SMILES CCc1ccc(N(C)C(=O)N2CC[C@@H](C(=O)NCCCNC(=O)c3ccc(-c4c5nc(c(-c6ccc(S(=O)(=O)[O-])cc6)c6ccc([nH]6)c(-c6ccc(S(=O)(=O)[O-])cc6)c6nc(c(-c7ccc(S(=O)(=O)[O-])cc7)c7ccc4[nH]7)C=C6)C=C5)cc3)[C@@H]2C)cc1
REMARK SMILES IDX 18 1 17 2 15 3 16 4 14 6 11 7 12 8 84 9 13 10 85 11 9 12
REMARK SMILES IDX 10 13 7 14 8 15 6 16 3 17 4 18 87 19 5 20 86 21 2 22 1 23
REMARK SMILES IDX 19 24 20 25 21 26 22 27 23 29 24 30 25 31 83 32 26 33 82 34
REMARK SMILES IDX 27 35 28 36 29 37 76 38 30 39 81 40 75 41 77 42 31 43 80 44
REMARK SMILES IDX 74 45 73 46 32 48 62 49 43 50 61 51 44 52 47 53 60 54 78 55
REMARK SMILES IDX 45 56 46 57 59 59 79 60 48 61 33 62 34 63 42 64 35 65 41 66
REMARK SMILES IDX 36 67 37 68 38 69 39 70 40 71 63 72 64 73 72 74 65 75 71 76
REMARK SMILES IDX 66 77 67 78 68 79 69 80 70 81 49 82 50 83 58 84 51 85 57 86
REMARK SMILES IDX 52 87 53 88 54 89 55 90 56 91
REMARK H PARENT 17 5 21 28 77 47 47 58
REMARK Flexibility Score: inf
ROOT
ATOM      1  C   UNL A   1      31.971  26.853  26.078  1.00  0.00     0.117 C 
ENDROOT
BRANCH   1   2
ATOM      2  N   UNL A   1      31.355  27.813  25.174  1.00  0.00    -0.356 N 
ATOM      3  C   UNL A   1      30.904  27.711  23.896  1.00  0.00     0.225 C 
ATOM      4  O   UNL A   1      30.454  28.743  23.385  1.00  0.00    -0.275 OA
ATOM      5  H   UNL A   1      31.240  28.710  25.564  1.00  0.00     0.163 HD
BRANCH   3   6
ATOM      6  C   UNL A   1      30.924  26.423  23.082  1.00  0.00     0.102 C 
ATOM      7  N   UNL A   1      32.368  24.518  23.251  1.00  0.00    -0.321 N 
ATOM      8  C   UNL A   1      31.006  24.036  23.403  1.00  0.00     0.122 C 
ATOM      9  C   UNL A   1      32.342  25.909  22.758  1.00  0.00     0.096 C 
ATOM     10  C   UNL A   1      30.170  25.261  23.725  1.00  0.00     0.037 C 
ATOM     11  C   UNL A   1      32.604  25.951  21.249  1.00  0.00     0.032 C 
BRANCH   7  12
ATOM     12  C   UNL A   1      33.397  23.572  23.295  1.00  0.00     0.324 C 
ATOM     13  O   UNL A   1      34.127  23.490  22.303  1.00  0.00    -0.248 OA
BRANCH  12  14
ATOM     14  N   UNL A   1      33.509  22.733  24.417  1.00  0.00    -0.297 N 
ATOM     15  C   UNL A   1      33.364  23.287  25.749  1.00  0.00     0.155 C 
BRANCH  14  16
ATOM     16  C   UNL A   1      33.473  21.276  24.349  1.00  0.00     0.045 A 
ATOM     17  C   UNL A   1      33.420  18.436  23.973  1.00  0.00    -0.048 A 
ATOM     18  C   UNL A   1      32.360  19.229  23.545  1.00  0.00     0.006 A 
ATOM     19  C   UNL A   1      34.478  19.058  24.638  1.00  0.00     0.006 A 
ATOM     20  C   UNL A   1      32.380  20.614  23.747  1.00  0.00     0.027 A 
ATOM     21  C   UNL A   1      34.498  20.452  24.831  1.00  0.00     0.027 A 
BRANCH  17  22
ATOM     22  C   UNL A   1      33.409  16.948  23.718  1.00  0.00     0.032 C 
ATOM     23  C   UNL A   1      33.357  16.137  25.006  1.00  0.00     0.009 C 
ENDBRANCH  17  22
ENDBRANCH  14  16
ENDBRANCH  12  14
ENDBRANCH   7  12
ENDBRANCH   3   6
ENDBRANCH   1   2
BRANCH   1  24
ATOM     24  C   UNL A   1      33.127  27.476  26.859  1.00  0.00     0.042 C 
BRANCH  24  25
ATOM     25  C   UNL A   1      33.854  28.609  26.153  1.00  0.00     0.118 C 
BRANCH  25  26
ATOM     26  N   UNL A   1      33.662  29.891  26.810  1.00  0.00    -0.352 N 
ATOM     27  C   UNL A   1      34.420  30.569  27.733  1.00  0.00     0.251 C 
ATOM     28  H   UNL A   1      32.839  30.360  26.544  1.00  0.00     0.163 HD
ATOM     29  O   UNL A   1      33.922  31.564  28.268  1.00  0.00    -0.269 OA
BRANCH  27  30
ATOM     30  C   UNL A   1      35.788  30.144  28.124  1.00  0.00     0.039 A 
ATOM     31  C   UNL A   1      36.816  30.250  27.176  1.00  0.00     0.014 A 
ATOM     32  C   UNL A   1      36.076  29.571  29.364  1.00  0.00     0.014 A 
ATOM     33  C   UNL A   1      38.117  29.836  27.489  1.00  0.00     0.010 A 
ATOM     34  C   UNL A   1      37.391  29.255  29.711  1.00  0.00     0.010 A 
ATOM     35  C   UNL A   1      38.427  29.364  28.773  1.00  0.00    -0.014 A 
BRANCH  35  36
ATOM     36  C   UNL A   1      39.810  28.951  29.142  1.00  0.00     0.031 A 
ATOM     37  C   UNL A   1      40.729  29.913  29.856  1.00  0.00     0.074 A 
ATOM     38  C   UNL A   1      40.266  27.731  28.794  1.00  0.00     0.049 A 
ATOM     39  N   UNL A   1      41.987  29.763  30.189  1.00  0.00    -0.248 NA
ATOM     40  C   UNL A   1      40.170  31.226  30.218  1.00  0.00     0.031 C 
ATOM     41  C   UNL A   1      39.499  26.710  28.074  1.00  0.00     0.029 A 
ATOM     42  N   UNL A   1      41.490  27.139  28.997  1.00  0.00    -0.354 N 
ATOM     43  C   UNL A   1      42.373  30.964  30.774  1.00  0.00     0.074 A 
ATOM     44  C   UNL A   1      41.233  31.851  30.704  1.00  0.00     0.031 C 
ATOM     45  C   UNL A   1      40.255  25.611  27.928  1.00  0.00     0.029 A 
ATOM     46  C   UNL A   1      41.575  25.860  28.499  1.00  0.00     0.049 A 
ATOM     47  H   UNL A   1      42.235  27.590  29.455  1.00  0.00     0.167 HD
ATOM     48  C   UNL A   1      43.559  31.297  31.339  1.00  0.00     0.031 A 
ATOM     49  C   UNL A   1      42.599  24.983  28.498  1.00  0.00     0.031 A 
ATOM     50  C   UNL A   1      44.687  30.409  31.436  1.00  0.00     0.049 A 
ATOM     51  C   UNL A   1      43.906  25.373  29.132  1.00  0.00     0.074 A 
ATOM     52  C   UNL A   1      45.914  30.638  32.035  1.00  0.00     0.029 A 
ATOM     53  N   UNL A   1      44.725  29.119  30.929  1.00  0.00    -0.354 N 
ATOM     54  N   UNL A   1      44.234  26.501  29.714  1.00  0.00    -0.248 NA
ATOM     55  C   UNL A   1      44.976  24.366  29.118  1.00  0.00     0.031 C 
ATOM     56  C   UNL A   1      46.708  29.501  31.853  1.00  0.00     0.029 A 
ATOM     57  C   UNL A   1      45.958  28.546  31.187  1.00  0.00     0.049 A 
ATOM     58  H   UNL A   1      43.984  28.677  30.454  1.00  0.00     0.167 HD
ATOM     59  C   UNL A   1      45.541  26.330  30.159  1.00  0.00     0.074 A 
ATOM     60  C   UNL A   1      45.937  24.986  29.790  1.00  0.00     0.031 C 
ATOM     61  C   UNL A   1      46.341  27.207  30.815  1.00  0.00     0.031 A 
BRANCH  48  62
ATOM     62  C   UNL A   1      43.695  32.689  31.900  1.00  0.00    -0.014 A 
ATOM     63  C   UNL A   1      43.386  32.962  33.245  1.00  0.00     0.010 A 
ATOM     64  C   UNL A   1      44.174  33.731  31.084  1.00  0.00     0.010 A 
ATOM     65  C   UNL A   1      43.505  34.260  33.751  1.00  0.00     0.020 A 
ATOM     66  C   UNL A   1      44.322  35.025  31.595  1.00  0.00     0.020 A 
ATOM     67  C   UNL A   1      43.967  35.284  32.921  1.00  0.00     0.054 A 
BRANCH  67  68
ATOM     68  S   UNL A   1      44.126  36.957  33.604  1.00  0.00     0.124 S 
ATOM     69  O   UNL A   1      44.992  36.727  34.758  1.00  0.00    -0.237 OA
ATOM     70  O   UNL A   1      44.739  37.697  32.500  1.00  0.00    -0.237 OA
ATOM     71  O   UNL A   1      42.755  37.337  33.919  1.00  0.00    -0.744 OA
ENDBRANCH  67  68
ENDBRANCH  48  62
BRANCH  49  72
ATOM     72  C   UNL A   1      42.419  23.636  27.889  1.00  0.00    -0.014 A 
ATOM     73  C   UNL A   1      42.755  23.414  26.542  1.00  0.00     0.010 A 
ATOM     74  C   UNL A   1      41.929  22.565  28.659  1.00  0.00     0.010 A 
ATOM     75  C   UNL A   1      42.589  22.150  25.970  1.00  0.00     0.020 A 
ATOM     76  C   UNL A   1      41.787  21.293  28.098  1.00  0.00     0.020 A 
ATOM     77  C   UNL A   1      42.108  21.096  26.754  1.00  0.00     0.054 A 
BRANCH  77  78
ATOM     78  S   UNL A   1      41.949  19.451  26.006  1.00  0.00     0.124 S 
ATOM     79  O   UNL A   1      40.519  19.385  25.719  1.00  0.00    -0.237 OA
ATOM     80  O   UNL A   1      42.824  19.548  24.840  1.00  0.00    -0.237 OA
ATOM     81  O   UNL A   1      42.420  18.552  27.056  1.00  0.00    -0.744 OA
ENDBRANCH  77  78
ENDBRANCH  49  72
BRANCH  61  82
ATOM     82  C   UNL A   1      47.714  26.734  31.207  1.00  0.00    -0.014 A 
ATOM     83  C   UNL A   1      47.941  26.098  32.440  1.00  0.00     0.010 A 
ATOM     84  C   UNL A   1      48.783  26.885  30.305  1.00  0.00     0.010 A 
ATOM     85  C   UNL A   1      49.219  25.648  32.777  1.00  0.00     0.020 A 
ATOM     86  C   UNL A   1      50.058  26.413  30.628  1.00  0.00     0.020 A 
ATOM     87  C   UNL A   1      50.271  25.810  31.870  1.00  0.00     0.054 A 
BRANCH  87  88
ATOM     88  S   UNL A   1      51.913  25.181  32.312  1.00  0.00     0.124 S 
ATOM     89  O   UNL A   1      52.743  25.711  31.233  1.00  0.00    -0.237 OA
ATOM     90  O   UNL A   1      52.141  25.772  33.629  1.00  0.00    -0.237 OA
ATOM     91  O   UNL A   1      51.740  23.729  32.310  1.00  0.00    -0.744 OA
ENDBRANCH  87  88
ENDBRANCH  61  82
ENDBRANCH  35  36
ENDBRANCH  27  30
ENDBRANCH  25  26
ENDBRANCH  24  25
ENDBRANCH   1  24
TORSDOF 17
ENDMDL
MODEL 3
REMARK VINA RESULT:     -11.1      3.042      3.727
REMARK SMILES CCc1ccc(N(C)C(=O)N2CC[C@@H](C(=O)NCCCNC(=O)c3ccc(-c4c5nc(c(-c6ccc(S(=O)(=O)[O-])cc6)c6ccc([nH]6)c(-c6ccc(S(=O)(=O)[O-])cc6)c6nc(c(-c7ccc(S(=O)(=O)[O-])cc7)c7ccc4[nH]7)C=C6)C=C5)cc3)[C@@H]2C)cc1
REMARK SMILES IDX 18 1 17 2 15 3 16 4 14 6 11 7 12 8 84 9 13 10 85 11 9 12
REMARK SMILES IDX 10 13 7 14 8 15 6 16 3 17 4 18 87 19 5 20 86 21 2 22 1 23
REMARK SMILES IDX 19 24 20 25 21 26 22 27 23 29 24 30 25 31 83 32 26 33 82 34
REMARK SMILES IDX 27 35 28 36 29 37 76 38 30 39 81 40 75 41 77 42 31 43 80 44
REMARK SMILES IDX 74 45 73 46 32 48 62 49 43 50 61 51 44 52 47 53 60 54 78 55
REMARK SMILES IDX 45 56 46 57 59 59 79 60 48 61 33 62 34 63 42 64 35 65 41 66
REMARK SMILES IDX 36 67 37 68 38 69 39 70 40 71 63 72 64 73 72 74 65 75 71 76
REMARK SMILES IDX 66 77 67 78 68 79 69 80 70 81 49 82 50 83 58 84 51 85 57 86
REMARK SMILES IDX 52 87 53 88 54 89 55 90 56 91
REMARK H PARENT 17 5 21 28 77 47 47 58
REMARK Flexibility Score: inf
ROOT
ATOM      1  C   UNL A   1      31.488  28.399  25.749  1.00  0.00     0.117 C 
ENDROOT
BRANCH   1   2
ATOM      2  N   UNL A   1      31.969  28.973  24.501  1.00  0.00    -0.356 N 
ATOM      3  C   UNL A   1      31.947  28.527  23.218  1.00  0.00     0.225 C 
ATOM      4  O   UNL A   1      32.482  29.253  22.372  1.00  0.00    -0.275 OA
ATOM      5  H   UNL A   1      32.391  29.856  24.606  1.00  0.00     0.163 HD
BRANCH   3   6
ATOM      6  C   UNL A   1      31.312  27.213  22.779  1.00  0.00     0.102 C 
ATOM      7  N   UNL A   1      31.580  25.003  23.666  1.00  0.00    -0.321 N 
ATOM      8  C   UNL A   1      30.162  25.314  23.715  1.00  0.00     0.122 C 
ATOM      9  C   UNL A   1      32.271  26.006  22.832  1.00  0.00     0.096 C 
ATOM     10  C   UNL A   1      30.066  26.822  23.570  1.00  0.00     0.037 C 
ATOM     11  C   UNL A   1      32.529  25.453  21.427  1.00  0.00     0.032 C 
BRANCH   7  12
ATOM     12  C   UNL A   1      31.981  23.742  24.119  1.00  0.00     0.324 C 
ATOM     13  O   UNL A   1      31.552  22.762  23.503  1.00  0.00    -0.248 OA
BRANCH  12  14
ATOM     14  N   UNL A   1      32.785  23.650  25.267  1.00  0.00    -0.297 N 
ATOM     15  C   UNL A   1      32.182  23.753  26.582  1.00  0.00     0.155 C 
BRANCH  14  16
ATOM     16  C   UNL A   1      34.161  23.164  25.258  1.00  0.00     0.045 A 
ATOM     17  C   UNL A   1      36.871  22.262  25.479  1.00  0.00    -0.048 A 
ATOM     18  C   UNL A   1      36.557  23.608  25.633  1.00  0.00     0.006 A 
ATOM     19  C   UNL A   1      35.838  21.378  25.159  1.00  0.00     0.006 A 
ATOM     20  C   UNL A   1      35.235  24.048  25.506  1.00  0.00     0.027 A 
ATOM     21  C   UNL A   1      34.509  21.826  25.041  1.00  0.00     0.027 A 
BRANCH  17  22
ATOM     22  C   UNL A   1      38.294  21.787  25.655  1.00  0.00     0.032 C 
ATOM     23  C   UNL A   1      39.161  22.802  26.388  1.00  0.00     0.009 C 
ENDBRANCH  17  22
ENDBRANCH  14  16
ENDBRANCH  12  14
ENDBRANCH   7  12
ENDBRANCH   3   6
ENDBRANCH   1   2
BRANCH   1  24
ATOM     24  C   UNL A   1      32.569  27.574  26.444  1.00  0.00     0.042 C 
BRANCH  24  25
ATOM     25  C   UNL A   1      33.904  28.277  26.632  1.00  0.00     0.118 C 
BRANCH  25  26
ATOM     26  N   UNL A   1      33.757  29.627  27.151  1.00  0.00    -0.352 N 
ATOM     27  C   UNL A   1      34.583  30.405  27.924  1.00  0.00     0.251 C 
ATOM     28  H   UNL A   1      32.910  30.063  26.904  1.00  0.00     0.163 HD
ATOM     29  O   UNL A   1      34.123  31.456  28.381  1.00  0.00    -0.269 OA
BRANCH  27  30
ATOM     30  C   UNL A   1      35.983  30.027  28.245  1.00  0.00     0.039 A 
ATOM     31  C   UNL A   1      36.258  29.505  29.516  1.00  0.00     0.014 A 
ATOM     32  C   UNL A   1      37.045  30.243  27.364  1.00  0.00     0.014 A 
ATOM     33  C   UNL A   1      37.568  29.161  29.875  1.00  0.00     0.010 A 
ATOM     34  C   UNL A   1      38.332  29.804  27.683  1.00  0.00     0.010 A 
ATOM     35  C   UNL A   1      38.616  29.275  28.950  1.00  0.00    -0.014 A 
BRANCH  35  36
ATOM     36  C   UNL A   1      40.011  28.881  29.295  1.00  0.00     0.031 A 
ATOM     37  C   UNL A   1      40.916  29.844  30.027  1.00  0.00     0.074 A 
ATOM     38  C   UNL A   1      40.489  27.681  28.910  1.00  0.00     0.049 A 
ATOM     39  N   UNL A   1      42.180  29.711  30.344  1.00  0.00    -0.248 NA
ATOM     40  C   UNL A   1      40.333  31.134  30.429  1.00  0.00     0.031 C 
ATOM     41  C   UNL A   1      39.736  26.665  28.169  1.00  0.00     0.029 A 
ATOM     42  N   UNL A   1      41.727  27.111  29.085  1.00  0.00    -0.354 N 
ATOM     43  C   UNL A   1      42.546  30.904  30.959  1.00  0.00     0.074 A 
ATOM     44  C   UNL A   1      41.387  31.768  30.923  1.00  0.00     0.031 C 
ATOM     45  C   UNL A   1      40.515  25.587  27.986  1.00  0.00     0.029 A 
ATOM     46  C   UNL A   1      41.834  25.848  28.552  1.00  0.00     0.049 A 
ATOM     47  H   UNL A   1      42.467  27.565  29.549  1.00  0.00     0.167 HD
ATOM     48  C   UNL A   1      43.730  31.246  31.522  1.00  0.00     0.031 A 
ATOM     49  C   UNL A   1      42.876  24.993  28.518  1.00  0.00     0.031 A 
ATOM     50  C   UNL A   1      44.878  30.381  31.585  1.00  0.00     0.049 A 
ATOM     51  C   UNL A   1      44.181  25.393  29.151  1.00  0.00     0.074 A 
ATOM     52  C   UNL A   1      46.105  30.619  32.179  1.00  0.00     0.029 A 
ATOM     53  N   UNL A   1      44.938  29.106  31.042  1.00  0.00    -0.354 N 
ATOM     54  N   UNL A   1      44.490  26.512  29.760  1.00  0.00    -0.248 NA
ATOM     55  C   UNL A   1      45.272  24.410  29.100  1.00  0.00     0.031 C 
ATOM     56  C   UNL A   1      46.921  29.505  31.959  1.00  0.00     0.029 A 
ATOM     57  C   UNL A   1      46.185  28.552  31.274  1.00  0.00     0.049 A 
ATOM     58  H   UNL A   1      44.202  28.661  30.562  1.00  0.00     0.167 HD
ATOM     59  C   UNL A   1      45.805  26.357  30.189  1.00  0.00     0.074 A 
ATOM     60  C   UNL A   1      46.226  25.032  29.780  1.00  0.00     0.031 C 
ATOM     61  C   UNL A   1      46.592  27.233  30.862  1.00  0.00     0.031 A 
BRANCH  48  62
ATOM     62  C   UNL A   1      43.842  32.625  32.120  1.00  0.00    -0.014 A 
ATOM     63  C   UNL A   1      44.226  33.727  31.334  1.00  0.00     0.010 A 
ATOM     64  C   UNL A   1      43.525  32.831  33.476  1.00  0.00     0.010 A 
ATOM     65  C   UNL A   1      44.338  34.999  31.903  1.00  0.00     0.020 A 
ATOM     66  C   UNL A   1      43.608  34.107  34.042  1.00  0.00     0.020 A 
ATOM     67  C   UNL A   1      44.034  35.180  33.256  1.00  0.00     0.054 A 
BRANCH  67  68
ATOM     68  S   UNL A   1      44.175  36.842  33.967  1.00  0.00     0.124 S 
ATOM     69  O   UNL A   1      42.858  37.405  33.674  1.00  0.00    -0.237 OA
ATOM     70  O   UNL A   1      44.435  36.564  35.381  1.00  0.00    -0.237 OA
ATOM     71  O   UNL A   1      45.286  37.441  33.239  1.00  0.00    -0.744 OA
ENDBRANCH  67  68
ENDBRANCH  48  62
BRANCH  49  72
ATOM     72  C   UNL A   1      42.719  23.660  27.874  1.00  0.00    -0.014 A 
ATOM     73  C   UNL A   1      43.116  23.463  26.540  1.00  0.00     0.010 A 
ATOM     74  C   UNL A   1      42.189  22.576  28.598  1.00  0.00     0.010 A 
ATOM     75  C   UNL A   1      42.971  22.211  25.935  1.00  0.00     0.020 A 
ATOM     76  C   UNL A   1      42.068  21.317  28.005  1.00  0.00     0.020 A 
ATOM     77  C   UNL A   1      42.450  21.145  26.674  1.00  0.00     0.054 A 
BRANCH  77  78
ATOM     78  S   UNL A   1      42.319  19.516  25.886  1.00  0.00     0.124 S 
ATOM     79  O   UNL A   1      42.648  18.618  26.989  1.00  0.00    -0.237 OA
ATOM     80  O   UNL A   1      40.927  19.491  25.443  1.00  0.00    -0.237 OA
ATOM     81  O   UNL A   1      43.306  19.577  24.812  1.00  0.00    -0.744 OA
ENDBRANCH  77  78
ENDBRANCH  49  72
BRANCH  61  82
ATOM     82  C   UNL A   1      47.978  26.779  31.229  1.00  0.00    -0.014 A 
ATOM     83  C   UNL A   1      48.216  26.040  32.400  1.00  0.00     0.010 A 
ATOM     84  C   UNL A   1      49.051  27.055  30.361  1.00  0.00     0.010 A 
ATOM     85  C   UNL A   1      49.508  25.610  32.713  1.00  0.00     0.020 A 
ATOM     86  C   UNL A   1      50.340  26.604  30.657  1.00  0.00     0.020 A 
ATOM     87  C   UNL A   1      50.563  25.897  31.841  1.00  0.00     0.054 A 
BRANCH  87  88
ATOM     88  S   UNL A   1      52.224  25.293  32.247  1.00  0.00     0.124 S 
ATOM     89  O   UNL A   1      52.010  23.851  32.335  1.00  0.00    -0.237 OA
ATOM     90  O   UNL A   1      53.019  25.742  31.107  1.00  0.00    -0.237 OA
ATOM     91  O   UNL A   1      52.533  25.955  33.513  1.00  0.00    -0.744 OA
ENDBRANCH  87  88
ENDBRANCH  61  82
ENDBRANCH  35  36
ENDBRANCH  27  30
ENDBRANCH  25  26
ENDBRANCH  24  25
ENDBRANCH   1  24
TORSDOF 17
ENDMDL
