MODEL 1
REMARK VINA RESULT:     -13.5      0.000      0.000
REMARK SMILES O=C(C[C@]12CSc3[nH]c(=O)sc3[C@H]1c1cc(Cl)ccc1OC2=O)NCCCNC(=O)c1ccc(-c2c3nc(c(-c4ccc(S(=O)(=O)[O-])cc4)c4ccc([nH]4)c(-c4ccc(S(=O)(=O)[O-])cc4)c4nc(c(-c5ccc(S(=O)(=O)[O-])cc5)c5ccc2[nH]5)C=C4)C=C3)cc1
REMARK SMILES IDX 27 1 26 2 25 3 24 4 1 5 2 6 3 8 4 9 5 10 13 11 22 12 6 13
REMARK SMILES IDX 12 14 14 15 21 16 23 17 7 18 11 19 15 20 20 21 8 22 9 23
REMARK SMILES IDX 16 24 19 25 10 27 17 28 18 29 28 30 29 31 30 33 31 34 32 35
REMARK SMILES IDX 90 36 33 37 89 38 34 39 35 40 36 41 83 42 37 43 88 44 82 45
REMARK SMILES IDX 84 46 38 47 87 48 81 49 80 50 39 52 69 53 50 54 68 55 51 56
REMARK SMILES IDX 54 57 67 58 85 59 52 60 53 61 66 63 86 64 55 65 40 66 41 67
REMARK SMILES IDX 49 68 42 69 48 70 43 71 44 72 45 73 46 74 47 75 70 76 71 77
REMARK SMILES IDX 79 78 72 79 78 80 73 81 74 82 75 83 76 84 77 85 56 86 57 87
REMARK SMILES IDX 65 88 58 89 64 90 59 91 60 92 61 93 62 94 63 95
REMARK H PARENT 24 7 8 26 28 32 84 51 54 62
REMARK Flexibility Score: inf
ROOT
ATOM      1  C   UNL A   1      39.759  22.019  26.683  1.00  0.00     0.118 C 
ENDROOT
BRANCH   1   2
ATOM      2  C   UNL A   1      38.408  22.362  26.027  1.00  0.00     0.042 C 
BRANCH   2   3
ATOM      3  C   UNL A   1      38.112  23.860  25.975  1.00  0.00     0.117 C 
BRANCH   3   4
ATOM      4  N   UNL A   1      36.686  24.040  26.066  1.00  0.00    -0.356 N 
ATOM      5  O   UNL A   1      35.987  23.638  23.917  1.00  0.00    -0.275 OA
ATOM      6  C   UNL A   1      35.765  23.954  25.074  1.00  0.00     0.221 C 
ATOM      7  H   UNL A   1      36.335  24.251  26.962  1.00  0.00     0.163 HD
BRANCH   6   8
ATOM      8  C   UNL A   1      34.377  24.187  25.649  1.00  0.00     0.120 C 
BRANCH   8   9
ATOM      9  C   UNL A   1      33.509  22.894  25.564  1.00  0.00     0.098 C 
ATOM     10  C   UNL A   1      34.314  21.751  26.222  1.00  0.00     0.097 C 
ATOM     11  C   UNL A   1      33.096  22.616  24.079  1.00  0.00     0.085 C 
ATOM     12  C   UNL A   1      32.228  23.058  26.422  1.00  0.00     0.319 C 
ATOM     13  S   UNL A   1      33.513  20.143  26.225  1.00  0.00    -0.106 SA
ATOM     14  C   UNL A   1      32.627  21.196  23.844  1.00  0.00     0.049 A 
ATOM     15  C   UNL A   1      32.249  23.864  23.722  1.00  0.00     0.006 A 
ATOM     16  O   UNL A   1      31.076  23.442  25.764  1.00  0.00    -0.426 OA
ATOM     17  O   UNL A   1      32.193  22.830  27.628  1.00  0.00    -0.251 OA
ATOM     18  C   UNL A   1      32.877  20.149  24.653  1.00  0.00     0.090 A 
ATOM     19  S   UNL A   1      32.100  20.601  22.277  1.00  0.00    -0.077 S 
ATOM     20  C   UNL A   1      32.779  24.840  22.850  1.00  0.00     0.028 A 
ATOM     21  C   UNL A   1      31.395  24.318  24.738  1.00  0.00     0.134 A 
ATOM     22  N   UNL A   1      32.713  18.926  24.086  1.00  0.00    -0.307 N 
ATOM     23  C   UNL A   1      32.326  18.915  22.784  1.00  0.00     0.305 A 
ATOM     24  C   UNL A   1      32.609  26.209  23.142  1.00  0.00     0.041 A 
ATOM     25  C   UNL A   1      31.158  25.677  24.986  1.00  0.00     0.049 A 
ATOM     26  H   UNL A   1      32.866  18.094  24.590  1.00  0.00     0.171 HD
ATOM     27  O   UNL A   1      32.177  17.928  22.071  1.00  0.00    -0.257 OA
ATOM     28  Cl  UNL A   1      33.571  27.383  22.324  1.00  0.00    -0.084 Cl
ATOM     29  C   UNL A   1      31.822  26.627  24.219  1.00  0.00     0.024 A 
ENDBRANCH   8   9
ENDBRANCH   6   8
ENDBRANCH   3   4
ENDBRANCH   2   3
ENDBRANCH   1   2
BRANCH   1  30
ATOM     30  N   UNL A   1      40.887  22.074  25.776  1.00  0.00    -0.352 N 
ATOM     31  C   UNL A   1      41.943  22.936  25.677  1.00  0.00     0.251 C 
ATOM     32  H   UNL A   1      40.896  21.355  25.105  1.00  0.00     0.163 HD
ATOM     33  O   UNL A   1      42.857  22.599  24.921  1.00  0.00    -0.269 OA
BRANCH  31  34
ATOM     34  C   UNL A   1      41.985  24.268  26.332  1.00  0.00     0.039 A 
ATOM     35  C   UNL A   1      42.506  24.529  27.600  1.00  0.00     0.014 A 
ATOM     36  C   UNL A   1      41.345  25.307  25.637  1.00  0.00     0.014 A 
ATOM     37  C   UNL A   1      42.244  25.730  28.232  1.00  0.00     0.010 A 
ATOM     38  C   UNL A   1      41.117  26.530  26.247  1.00  0.00     0.010 A 
ATOM     39  C   UNL A   1      41.507  26.706  27.569  1.00  0.00    -0.014 A 
BRANCH  39  40
ATOM     40  C   UNL A   1      41.318  27.978  28.245  1.00  0.00     0.031 A 
ATOM     41  C   UNL A   1      42.433  28.925  27.986  1.00  0.00     0.074 A 
ATOM     42  C   UNL A   1      40.217  28.277  28.965  1.00  0.00     0.049 A 
ATOM     43  N   UNL A   1      43.326  29.318  28.831  1.00  0.00    -0.248 NA
ATOM     44  C   UNL A   1      42.725  29.309  26.594  1.00  0.00     0.031 C 
ATOM     45  C   UNL A   1      38.994  27.479  29.098  1.00  0.00     0.029 A 
ATOM     46  N   UNL A   1      39.912  29.407  29.663  1.00  0.00    -0.354 N 
ATOM     47  C   UNL A   1      44.133  30.214  28.138  1.00  0.00     0.074 A 
ATOM     48  C   UNL A   1      43.846  30.017  26.742  1.00  0.00     0.031 C 
ATOM     49  C   UNL A   1      38.001  28.252  29.598  1.00  0.00     0.029 A 
ATOM     50  C   UNL A   1      38.561  29.537  29.980  1.00  0.00     0.049 A 
ATOM     51  H   UNL A   1      40.589  30.075  29.920  1.00  0.00     0.167 HD
ATOM     52  C   UNL A   1      44.745  31.238  28.794  1.00  0.00     0.031 A 
ATOM     53  C   UNL A   1      37.952  30.625  30.519  1.00  0.00     0.031 A 
ATOM     54  C   UNL A   1      44.708  31.028  30.215  1.00  0.00     0.049 A 
ATOM     55  C   UNL A   1      38.998  31.396  31.220  1.00  0.00     0.074 A 
ATOM     56  C   UNL A   1      45.384  30.252  31.128  1.00  0.00     0.029 A 
ATOM     57  N   UNL A   1      43.530  31.428  30.795  1.00  0.00    -0.354 N 
ATOM     58  N   UNL A   1      39.623  30.945  32.271  1.00  0.00    -0.248 NA
ATOM     59  C   UNL A   1      39.633  32.519  30.543  1.00  0.00     0.031 C 
ATOM     60  C   UNL A   1      44.477  30.040  32.205  1.00  0.00     0.029 A 
ATOM     61  C   UNL A   1      43.301  30.749  31.960  1.00  0.00     0.049 A 
ATOM     62  H   UNL A   1      42.930  32.113  30.423  1.00  0.00     0.167 HD
ATOM     63  C   UNL A   1      40.912  31.413  32.123  1.00  0.00     0.074 A 
ATOM     64  C   UNL A   1      40.820  32.504  31.156  1.00  0.00     0.031 C 
ATOM     65  C   UNL A   1      41.977  30.676  32.546  1.00  0.00     0.031 A 
BRANCH  52  66
ATOM     66  C   UNL A   1      44.925  32.626  28.220  1.00  0.00    -0.014 A 
ATOM     67  C   UNL A   1      43.854  33.455  27.833  1.00  0.00     0.010 A 
ATOM     68  C   UNL A   1      46.194  33.237  28.323  1.00  0.00     0.010 A 
ATOM     69  C   UNL A   1      44.030  34.813  27.552  1.00  0.00     0.020 A 
ATOM     70  C   UNL A   1      46.378  34.605  28.075  1.00  0.00     0.020 A 
ATOM     71  C   UNL A   1      45.292  35.382  27.681  1.00  0.00     0.054 A 
BRANCH  71  72
ATOM     72  S   UNL A   1      45.464  37.154  27.361  1.00  0.00     0.124 S 
ATOM     73  O   UNL A   1      45.900  37.649  28.665  1.00  0.00    -0.237 OA
ATOM     74  O   UNL A   1      46.473  37.185  26.307  1.00  0.00    -0.237 OA
ATOM     75  O   UNL A   1      44.122  37.562  26.956  1.00  0.00    -0.744 OA
ENDBRANCH  71  72
ENDBRANCH  52  66
BRANCH  53  76
ATOM     76  C   UNL A   1      36.637  31.237  30.194  1.00  0.00    -0.014 A 
ATOM     77  C   UNL A   1      36.307  31.481  28.847  1.00  0.00     0.010 A 
ATOM     78  C   UNL A   1      35.889  31.905  31.186  1.00  0.00     0.010 A 
ATOM     79  C   UNL A   1      35.338  32.434  28.500  1.00  0.00     0.020 A 
ATOM     80  C   UNL A   1      34.911  32.858  30.844  1.00  0.00     0.020 A 
ATOM     81  C   UNL A   1      34.674  33.146  29.499  1.00  0.00     0.054 A 
BRANCH  81  82
ATOM     82  S   UNL A   1      33.579  34.512  29.006  1.00  0.00     0.124 S 
ATOM     83  O   UNL A   1      32.967  34.886  30.279  1.00  0.00    -0.237 OA
ATOM     84  O   UNL A   1      34.516  35.486  28.452  1.00  0.00    -0.237 OA
ATOM     85  O   UNL A   1      32.675  33.902  28.034  1.00  0.00    -0.744 OA
ENDBRANCH  81  82
ENDBRANCH  53  76
BRANCH  65  86
ATOM     86  C   UNL A   1      41.750  29.613  33.587  1.00  0.00    -0.014 A 
ATOM     87  C   UNL A   1      42.042  29.972  34.914  1.00  0.00     0.010 A 
ATOM     88  C   UNL A   1      41.418  28.274  33.306  1.00  0.00     0.010 A 
ATOM     89  C   UNL A   1      42.062  29.020  35.929  1.00  0.00     0.020 A 
ATOM     90  C   UNL A   1      41.407  27.313  34.331  1.00  0.00     0.020 A 
ATOM     91  C   UNL A   1      41.758  27.692  35.632  1.00  0.00     0.054 A 
BRANCH  91  92
ATOM     92  S   UNL A   1      41.857  26.485  36.979  1.00  0.00     0.124 S 
ATOM     93  O   UNL A   1      42.048  25.230  36.253  1.00  0.00    -0.237 OA
ATOM     94  O   UNL A   1      43.017  26.946  37.739  1.00  0.00    -0.237 OA
ATOM     95  O   UNL A   1      40.575  26.613  37.667  1.00  0.00    -0.744 OA
ENDBRANCH  91  92
ENDBRANCH  65  86
ENDBRANCH  39  40
ENDBRANCH  31  34
ENDBRANCH   1  30
TORSDOF 14
ENDMDL
MODEL 2
REMARK VINA RESULT:     -13.4      1.812      3.017
REMARK SMILES O=C(C[C@]12CSc3[nH]c(=O)sc3[C@H]1c1cc(Cl)ccc1OC2=O)NCCCNC(=O)c1ccc(-c2c3nc(c(-c4ccc(S(=O)(=O)[O-])cc4)c4ccc([nH]4)c(-c4ccc(S(=O)(=O)[O-])cc4)c4nc(c(-c5ccc(S(=O)(=O)[O-])cc5)c5ccc2[nH]5)C=C4)C=C3)cc1
REMARK SMILES IDX 27 1 26 2 25 3 24 4 1 5 2 6 3 8 4 9 5 10 13 11 22 12 6 13
REMARK SMILES IDX 12 14 14 15 21 16 23 17 7 18 11 19 15 20 20 21 8 22 9 23
REMARK SMILES IDX 16 24 19 25 10 27 17 28 18 29 28 30 29 31 30 33 31 34 32 35
REMARK SMILES IDX 90 36 33 37 89 38 34 39 35 40 36 41 83 42 37 43 88 44 82 45
REMARK SMILES IDX 84 46 38 47 87 48 81 49 80 50 39 52 69 53 50 54 68 55 51 56
REMARK SMILES IDX 54 57 67 58 85 59 52 60 53 61 66 63 86 64 55 65 40 66 41 67
REMARK SMILES IDX 49 68 42 69 48 70 43 71 44 72 45 73 46 74 47 75 70 76 71 77
REMARK SMILES IDX 79 78 72 79 78 80 73 81 74 82 75 83 76 84 77 85 56 86 57 87
REMARK SMILES IDX 65 88 58 89 64 90 59 91 60 92 61 93 62 94 63 95
REMARK H PARENT 24 7 8 26 28 32 84 51 54 62
REMARK Flexibility Score: inf
ROOT
ATOM      1  C   UNL A   1      40.489  22.192  26.579  1.00  0.00     0.118 C 
ENDROOT
BRANCH   1   2
ATOM      2  C   UNL A   1      39.143  21.775  25.956  1.00  0.00     0.042 C 
BRANCH   2   3
ATOM      3  C   UNL A   1      38.076  22.869  26.010  1.00  0.00     0.117 C 
BRANCH   3   4
ATOM      4  N   UNL A   1      37.015  22.505  25.106  1.00  0.00    -0.356 N 
ATOM      5  O   UNL A   1      35.486  21.506  26.496  1.00  0.00    -0.275 OA
ATOM      6  C   UNL A   1      35.861  21.850  25.387  1.00  0.00     0.221 C 
ATOM      7  H   UNL A   1      37.143  22.764  24.164  1.00  0.00     0.163 HD
BRANCH   6   8
ATOM      8  C   UNL A   1      35.031  21.719  24.121  1.00  0.00     0.120 C 
BRANCH   8   9
ATOM      9  C   UNL A   1      34.055  22.925  23.960  1.00  0.00     0.098 C 
ATOM     10  C   UNL A   1      34.890  24.218  24.090  1.00  0.00     0.097 C 
ATOM     11  C   UNL A   1      32.882  22.813  24.994  1.00  0.00     0.085 C 
ATOM     12  C   UNL A   1      33.465  22.944  22.527  1.00  0.00     0.319 C 
ATOM     13  S   UNL A   1      33.967  25.754  23.957  1.00  0.00    -0.106 SA
ATOM     14  C   UNL A   1      32.140  24.116  25.200  1.00  0.00     0.049 A 
ATOM     15  C   UNL A   1      32.187  21.493  24.577  1.00  0.00     0.006 A 
ATOM     16  O   UNL A   1      32.218  22.376  22.353  1.00  0.00    -0.426 OA
ATOM     17  O   UNL A   1      34.035  23.464  21.573  1.00  0.00    -0.251 OA
ATOM     18  C   UNL A   1      32.608  25.338  24.882  1.00  0.00     0.090 A 
ATOM     19  S   UNL A   1      30.778  24.287  26.297  1.00  0.00    -0.077 S 
ATOM     20  C   UNL A   1      32.325  20.345  25.388  1.00  0.00     0.028 A 
ATOM     21  C   UNL A   1      32.083  21.281  23.194  1.00  0.00     0.134 A 
ATOM     22  N   UNL A   1      31.976  26.376  25.489  1.00  0.00    -0.307 N 
ATOM     23  C   UNL A   1      30.965  26.052  26.335  1.00  0.00     0.305 A 
ATOM     24  C   UNL A   1      32.556  19.088  24.793  1.00  0.00     0.041 A 
ATOM     25  C   UNL A   1      32.233  20.021  22.599  1.00  0.00     0.049 A 
ATOM     26  H   UNL A   1      32.237  27.311  25.323  1.00  0.00     0.171 HD
ATOM     27  O   UNL A   1      30.306  26.826  27.022  1.00  0.00    -0.257 OA
ATOM     28  Cl  UNL A   1      33.116  17.774  25.761  1.00  0.00    -0.084 Cl
ATOM     29  C   UNL A   1      32.535  18.929  23.404  1.00  0.00     0.024 A 
ENDBRANCH   8   9
ENDBRANCH   6   8
ENDBRANCH   3   4
ENDBRANCH   2   3
ENDBRANCH   1   2
BRANCH   1  30
ATOM     30  N   UNL A   1      41.565  22.335  25.621  1.00  0.00    -0.352 N 
ATOM     31  C   UNL A   1      42.522  23.297  25.454  1.00  0.00     0.251 C 
ATOM     32  H   UNL A   1      41.617  21.602  24.966  1.00  0.00     0.163 HD
ATOM     33  O   UNL A   1      43.432  23.032  24.664  1.00  0.00    -0.269 OA
BRANCH  31  34
ATOM     34  C   UNL A   1      42.457  24.643  26.076  1.00  0.00     0.039 A 
ATOM     35  C   UNL A   1      43.182  25.052  27.195  1.00  0.00     0.014 A 
ATOM     36  C   UNL A   1      41.500  25.517  25.533  1.00  0.00     0.014 A 
ATOM     37  C   UNL A   1      42.845  26.214  27.862  1.00  0.00     0.010 A 
ATOM     38  C   UNL A   1      41.187  26.705  26.171  1.00  0.00     0.010 A 
ATOM     39  C   UNL A   1      41.813  27.010  27.373  1.00  0.00    -0.014 A 
BRANCH  39  40
ATOM     40  C   UNL A   1      41.542  28.258  28.066  1.00  0.00     0.031 A 
ATOM     41  C   UNL A   1      42.617  29.262  27.859  1.00  0.00     0.074 A 
ATOM     42  C   UNL A   1      40.408  28.488  28.759  1.00  0.00     0.049 A 
ATOM     43  N   UNL A   1      43.464  29.682  28.738  1.00  0.00    -0.248 NA
ATOM     44  C   UNL A   1      42.930  29.688  26.484  1.00  0.00     0.031 C 
ATOM     45  C   UNL A   1      39.222  27.629  28.840  1.00  0.00     0.029 A 
ATOM     46  N   UNL A   1      40.027  29.588  29.468  1.00  0.00    -0.354 N 
ATOM     47  C   UNL A   1      44.246  30.630  28.086  1.00  0.00     0.074 A 
ATOM     48  C   UNL A   1      44.010  30.447  26.679  1.00  0.00     0.031 C 
ATOM     49  C   UNL A   1      38.178  28.343  29.324  1.00  0.00     0.029 A 
ATOM     50  C   UNL A   1      38.663  29.645  29.747  1.00  0.00     0.049 A 
ATOM     51  H   UNL A   1      40.663  30.282  29.758  1.00  0.00     0.167 HD
ATOM     52  C   UNL A   1      44.787  31.669  28.779  1.00  0.00     0.031 A 
ATOM     53  C   UNL A   1      37.985  30.691  30.288  1.00  0.00     0.031 A 
ATOM     54  C   UNL A   1      44.719  31.429  30.195  1.00  0.00     0.049 A 
ATOM     55  C   UNL A   1      38.971  31.498  31.034  1.00  0.00     0.074 A 
ATOM     56  C   UNL A   1      45.406  30.669  31.113  1.00  0.00     0.029 A 
ATOM     57  N   UNL A   1      43.507  31.759  30.747  1.00  0.00    -0.354 N 
ATOM     58  N   UNL A   1      39.586  31.057  32.095  1.00  0.00    -0.248 NA
ATOM     59  C   UNL A   1      39.570  32.664  30.398  1.00  0.00     0.031 C 
ATOM     60  C   UNL A   1      44.479  30.391  32.158  1.00  0.00     0.029 A 
ATOM     61  C   UNL A   1      43.278  31.047  31.891  1.00  0.00     0.049 A 
ATOM     62  H   UNL A   1      42.884  32.421  30.369  1.00  0.00     0.167 HD
ATOM     63  C   UNL A   1      40.855  31.590  31.994  1.00  0.00     0.074 A 
ATOM     64  C   UNL A   1      40.737  32.695  31.046  1.00  0.00     0.031 C 
ATOM     65  C   UNL A   1      41.942  30.898  32.435  1.00  0.00     0.031 A 
BRANCH  52  66
ATOM     66  C   UNL A   1      44.915  33.076  28.237  1.00  0.00    -0.014 A 
ATOM     67  C   UNL A   1      43.815  33.866  27.852  1.00  0.00     0.010 A 
ATOM     68  C   UNL A   1      46.155  33.738  28.372  1.00  0.00     0.010 A 
ATOM     69  C   UNL A   1      43.936  35.236  27.602  1.00  0.00     0.020 A 
ATOM     70  C   UNL A   1      46.283  35.117  28.155  1.00  0.00     0.020 A 
ATOM     71  C   UNL A   1      45.171  35.856  27.761  1.00  0.00     0.054 A 
BRANCH  71  72
ATOM     72  S   UNL A   1      45.271  37.640  27.481  1.00  0.00     0.124 S 
ATOM     73  O   UNL A   1      46.403  37.732  26.562  1.00  0.00    -0.237 OA
ATOM     74  O   UNL A   1      43.965  37.940  26.903  1.00  0.00    -0.237 OA
ATOM     75  O   UNL A   1      45.505  38.184  28.816  1.00  0.00    -0.744 OA
ENDBRANCH  71  72
ENDBRANCH  52  66
BRANCH  53  76
ATOM     76  C   UNL A   1      36.652  31.245  29.935  1.00  0.00    -0.014 A 
ATOM     77  C   UNL A   1      36.351  31.502  28.584  1.00  0.00     0.010 A 
ATOM     78  C   UNL A   1      35.842  31.853  30.917  1.00  0.00     0.010 A 
ATOM     79  C   UNL A   1      35.346  32.414  28.226  1.00  0.00     0.020 A 
ATOM     80  C   UNL A   1      34.828  32.764  30.564  1.00  0.00     0.020 A 
ATOM     81  C   UNL A   1      34.618  33.070  29.219  1.00  0.00     0.054 A 
BRANCH  81  82
ATOM     82  S   UNL A   1      33.471  34.390  28.720  1.00  0.00     0.124 S 
ATOM     83  O   UNL A   1      34.382  35.397  28.180  1.00  0.00    -0.237 OA
ATOM     84  O   UNL A   1      32.625  33.720  27.736  1.00  0.00    -0.237 OA
ATOM     85  O   UNL A   1      32.799  34.759  29.964  1.00  0.00    -0.744 OA
ENDBRANCH  81  82
ENDBRANCH  53  76
BRANCH  65  86
ATOM     86  C   UNL A   1      41.738  29.804  33.449  1.00  0.00    -0.014 A 
ATOM     87  C   UNL A   1      41.980  30.148  34.790  1.00  0.00     0.010 A 
ATOM     88  C   UNL A   1      41.473  28.457  33.133  1.00  0.00     0.010 A 
ATOM     89  C   UNL A   1      42.018  29.177  35.787  1.00  0.00     0.020 A 
ATOM     90  C   UNL A   1      41.481  27.475  34.138  1.00  0.00     0.020 A 
ATOM     91  C   UNL A   1      41.782  27.843  35.455  1.00  0.00     0.054 A 
BRANCH  91  92
ATOM     92  S   UNL A   1      41.902  26.613  36.780  1.00  0.00     0.124 S 
ATOM     93  O   UNL A   1      40.603  26.745  37.440  1.00  0.00    -0.237 OA
ATOM     94  O   UNL A   1      42.101  25.366  36.044  1.00  0.00    -0.237 OA
ATOM     95  O   UNL A   1      43.047  27.054  37.572  1.00  0.00    -0.744 OA
ENDBRANCH  91  92
ENDBRANCH  65  86
ENDBRANCH  39  40
ENDBRANCH  31  34
ENDBRANCH   1  30
TORSDOF 14
ENDMDL
MODEL 3
REMARK VINA RESULT:     -13.1      2.619      4.081
REMARK SMILES O=C(C[C@]12CSc3[nH]c(=O)sc3[C@H]1c1cc(Cl)ccc1OC2=O)NCCCNC(=O)c1ccc(-c2c3nc(c(-c4ccc(S(=O)(=O)[O-])cc4)c4ccc([nH]4)c(-c4ccc(S(=O)(=O)[O-])cc4)c4nc(c(-c5ccc(S(=O)(=O)[O-])cc5)c5ccc2[nH]5)C=C4)C=C3)cc1
REMARK SMILES IDX 27 1 26 2 25 3 24 4 1 5 2 6 3 8 4 9 5 10 13 11 22 12 6 13
REMARK SMILES IDX 12 14 14 15 21 16 23 17 7 18 11 19 15 20 20 21 8 22 9 23
REMARK SMILES IDX 16 24 19 25 10 27 17 28 18 29 28 30 29 31 30 33 31 34 32 35
REMARK SMILES IDX 90 36 33 37 89 38 34 39 35 40 36 41 83 42 37 43 88 44 82 45
REMARK SMILES IDX 84 46 38 47 87 48 81 49 80 50 39 52 69 53 50 54 68 55 51 56
REMARK SMILES IDX 54 57 67 58 85 59 52 60 53 61 66 63 86 64 55 65 40 66 41 67
REMARK SMILES IDX 49 68 42 69 48 70 43 71 44 72 45 73 46 74 47 75 70 76 71 77
REMARK SMILES IDX 79 78 72 79 78 80 73 81 74 82 75 83 76 84 77 85 56 86 57 87
REMARK SMILES IDX 65 88 58 89 64 90 59 91 60 92 61 93 62 94 63 95
REMARK H PARENT 24 7 8 26 28 32 84 51 54 62
REMARK Flexibility Score: inf
ROOT
ATOM      1  C   UNL A   1      37.078  22.583  25.481  1.00  0.00     0.118 C 
ENDROOT
BRANCH   1   2
ATOM      2  C   UNL A   1      36.255  22.164  24.248  1.00  0.00     0.042 C 
BRANCH   2   3
ATOM      3  C   UNL A   1      35.880  23.330  23.333  1.00  0.00     0.117 C 
BRANCH   3   4
ATOM      4  N   UNL A   1      34.492  23.646  23.556  1.00  0.00    -0.356 N 
ATOM      5  O   UNL A   1      34.089  25.280  21.995  1.00  0.00    -0.275 OA
ATOM      6  C   UNL A   1      33.733  24.578  22.927  1.00  0.00     0.221 C 
ATOM      7  H   UNL A   1      34.037  23.120  24.253  1.00  0.00     0.163 HD
BRANCH   6   8
ATOM      8  C   UNL A   1      32.316  24.530  23.473  1.00  0.00     0.120 C 
BRANCH   8   9
ATOM      9  C   UNL A   1      31.876  25.922  24.021  1.00  0.00     0.098 C 
ATOM     10  C   UNL A   1      32.076  26.951  22.885  1.00  0.00     0.097 C 
ATOM     11  C   UNL A   1      32.658  26.259  25.336  1.00  0.00     0.085 C 
ATOM     12  C   UNL A   1      30.356  25.917  24.324  1.00  0.00     0.319 C 
ATOM     13  S   UNL A   1      31.649  28.648  23.293  1.00  0.00    -0.106 SA
ATOM     14  C   UNL A   1      32.615  27.727  25.698  1.00  0.00     0.049 A 
ATOM     15  C   UNL A   1      32.206  25.130  26.297  1.00  0.00     0.006 A 
ATOM     16  O   UNL A   1      29.976  25.686  25.631  1.00  0.00    -0.426 OA
ATOM     17  O   UNL A   1      29.500  26.142  23.472  1.00  0.00    -0.251 OA
ATOM     18  C   UNL A   1      32.310  28.730  24.853  1.00  0.00     0.090 A 
ATOM     19  S   UNL A   1      33.401  28.393  27.122  1.00  0.00    -0.077 S 
ATOM     20  C   UNL A   1      33.110  24.099  26.635  1.00  0.00     0.028 A 
ATOM     21  C   UNL A   1      30.850  24.782  26.217  1.00  0.00     0.134 A 
ATOM     22  N   UNL A   1      32.700  29.967  25.256  1.00  0.00    -0.307 N 
ATOM     23  C   UNL A   1      33.348  30.035  26.448  1.00  0.00     0.305 A 
ATOM     24  C   UNL A   1      32.667  22.762  26.675  1.00  0.00     0.041 A 
ATOM     25  C   UNL A   1      30.391  23.463  26.333  1.00  0.00     0.049 A 
ATOM     26  H   UNL A   1      32.524  30.770  24.714  1.00  0.00     0.171 HD
ATOM     27  O   UNL A   1      33.830  31.036  26.966  1.00  0.00    -0.257 OA
ATOM     28  Cl  UNL A   1      33.820  21.479  26.691  1.00  0.00    -0.084 Cl
ATOM     29  C   UNL A   1      31.317  22.440  26.501  1.00  0.00     0.024 A 
ENDBRANCH   8   9
ENDBRANCH   6   8
ENDBRANCH   3   4
ENDBRANCH   2   3
ENDBRANCH   1   2
BRANCH   1  30
ATOM     30  N   UNL A   1      38.381  21.958  25.563  1.00  0.00    -0.352 N 
ATOM     31  C   UNL A   1      39.478  22.220  26.335  1.00  0.00     0.251 C 
ATOM     32  H   UNL A   1      38.500  21.201  24.945  1.00  0.00     0.163 HD
ATOM     33  O   UNL A   1      40.376  21.375  26.316  1.00  0.00    -0.269 OA
BRANCH  31  34
ATOM     34  C   UNL A   1      39.677  23.487  27.083  1.00  0.00     0.039 A 
ATOM     35  C   UNL A   1      38.850  24.608  27.009  1.00  0.00     0.014 A 
ATOM     36  C   UNL A   1      40.861  23.568  27.835  1.00  0.00     0.014 A 
ATOM     37  C   UNL A   1      39.269  25.823  27.515  1.00  0.00     0.010 A 
ATOM     38  C   UNL A   1      41.267  24.773  28.384  1.00  0.00     0.010 A 
ATOM     39  C   UNL A   1      40.501  25.909  28.157  1.00  0.00    -0.014 A 
BRANCH  39  40
ATOM     40  C   UNL A   1      40.867  27.191  28.735  1.00  0.00     0.031 A 
ATOM     41  C   UNL A   1      42.082  27.768  28.103  1.00  0.00     0.074 A 
ATOM     42  C   UNL A   1      40.140  27.808  29.689  1.00  0.00     0.049 A 
ATOM     43  N   UNL A   1      43.248  27.896  28.641  1.00  0.00    -0.248 NA
ATOM     44  C   UNL A   1      42.066  28.030  26.654  1.00  0.00     0.031 C 
ATOM     45  C   UNL A   1      38.832  27.402  30.215  1.00  0.00     0.029 A 
ATOM     46  N   UNL A   1      40.366  28.988  30.332  1.00  0.00    -0.354 N 
ATOM     47  C   UNL A   1      44.042  28.508  27.677  1.00  0.00     0.074 A 
ATOM     48  C   UNL A   1      43.334  28.383  26.432  1.00  0.00     0.031 C 
ATOM     49  C   UNL A   1      38.272  28.439  30.884  1.00  0.00     0.029 A 
ATOM     50  C   UNL A   1      39.249  29.510  30.981  1.00  0.00     0.049 A 
ATOM     51  H   UNL A   1      41.245  29.433  30.337  1.00  0.00     0.167 HD
ATOM     52  C   UNL A   1      45.071  29.318  28.048  1.00  0.00     0.031 A 
ATOM     53  C   UNL A   1      39.139  30.735  31.557  1.00  0.00     0.031 A 
ATOM     54  C   UNL A   1      45.378  29.149  29.443  1.00  0.00     0.049 A 
ATOM     55  C   UNL A   1      40.511  31.179  31.880  1.00  0.00     0.074 A 
ATOM     56  C   UNL A   1      46.042  28.223  30.214  1.00  0.00     0.029 A 
ATOM     57  N   UNL A   1      44.568  29.882  30.273  1.00  0.00    -0.354 N 
ATOM     58  N   UNL A   1      41.255  30.580  32.767  1.00  0.00    -0.248 NA
ATOM     59  C   UNL A   1      41.215  32.058  30.956  1.00  0.00     0.031 C 
ATOM     60  C   UNL A   1      45.450  28.299  31.507  1.00  0.00     0.029 A 
ATOM     61  C   UNL A   1      44.496  29.317  31.516  1.00  0.00     0.049 A 
ATOM     62  H   UNL A   1      44.100  30.707  30.009  1.00  0.00     0.167 HD
ATOM     63  C   UNL A   1      42.528  30.650  32.239  1.00  0.00     0.074 A 
ATOM     64  C   UNL A   1      42.473  31.707  31.233  1.00  0.00     0.031 C 
ATOM     65  C   UNL A   1      43.422  29.641  32.434  1.00  0.00     0.031 A 
BRANCH  52  66
ATOM     66  C   UNL A   1      45.459  30.586  27.319  1.00  0.00    -0.014 A 
ATOM     67  C   UNL A   1      44.540  31.589  26.956  1.00  0.00     0.010 A 
ATOM     68  C   UNL A   1      46.828  30.921  27.232  1.00  0.00     0.010 A 
ATOM     69  C   UNL A   1      44.952  32.851  26.519  1.00  0.00     0.020 A 
ATOM     70  C   UNL A   1      47.254  32.193  26.827  1.00  0.00     0.020 A 
ATOM     71  C   UNL A   1      46.309  33.149  26.463  1.00  0.00     0.054 A 
BRANCH  71  72
ATOM     72  S   UNL A   1      46.797  34.812  25.946  1.00  0.00     0.124 S 
ATOM     73  O   UNL A   1      47.835  34.522  24.960  1.00  0.00    -0.237 OA
ATOM     74  O   UNL A   1      45.551  35.350  25.409  1.00  0.00    -0.237 OA
ATOM     75  O   UNL A   1      47.265  35.432  27.182  1.00  0.00    -0.744 OA
ENDBRANCH  71  72
ENDBRANCH  52  66
BRANCH  53  76
ATOM     76  C   UNL A   1      38.009  31.699  31.534  1.00  0.00    -0.014 A 
ATOM     77  C   UNL A   1      38.165  32.956  32.151  1.00  0.00     0.010 A 
ATOM     78  C   UNL A   1      36.698  31.265  31.250  1.00  0.00     0.010 A 
ATOM     79  C   UNL A   1      37.052  33.704  32.563  1.00  0.00     0.020 A 
ATOM     80  C   UNL A   1      35.577  32.014  31.654  1.00  0.00     0.020 A 
ATOM     81  C   UNL A   1      35.765  33.210  32.349  1.00  0.00     0.054 A 
BRANCH  81  82
ATOM     82  S   UNL A   1      34.362  34.109  33.077  1.00  0.00     0.124 S 
ATOM     83  O   UNL A   1      34.937  34.613  34.322  1.00  0.00    -0.237 OA
ATOM     84  O   UNL A   1      34.075  35.123  32.065  1.00  0.00    -0.237 OA
ATOM     85  O   UNL A   1      33.333  33.085  33.234  1.00  0.00    -0.744 OA
ENDBRANCH  81  82
ENDBRANCH  53  76
BRANCH  65  86
ATOM     86  C   UNL A   1      43.213  28.705  33.594  1.00  0.00    -0.014 A 
ATOM     87  C   UNL A   1      42.253  27.695  33.410  1.00  0.00     0.010 A 
ATOM     88  C   UNL A   1      43.793  28.863  34.867  1.00  0.00     0.010 A 
ATOM     89  C   UNL A   1      41.832  26.900  34.472  1.00  0.00     0.020 A 
ATOM     90  C   UNL A   1      43.395  28.044  35.938  1.00  0.00     0.020 A 
ATOM     91  C   UNL A   1      42.395  27.086  35.735  1.00  0.00     0.054 A 
BRANCH  91  92
ATOM     92  S   UNL A   1      41.769  26.064  37.093  1.00  0.00     0.124 S 
ATOM     93  O   UNL A   1      42.798  26.249  38.115  1.00  0.00    -0.237 OA
ATOM     94  O   UNL A   1      40.478  26.682  37.392  1.00  0.00    -0.237 OA
ATOM     95  O   UNL A   1      41.695  24.721  36.524  1.00  0.00    -0.744 OA
ENDBRANCH  91  92
ENDBRANCH  65  86
ENDBRANCH  39  40
ENDBRANCH  31  34
ENDBRANCH   1  30
TORSDOF 14
ENDMDL
