MODEL 1
REMARK VINA RESULT:     -13.0      0.000      0.000
REMARK SMILES Cc1cccc(O[C@H](C)C(=O)NNC(=O)[C@H]2[C@@H]3CC[C@@H](C3)[C@@H]2C(=O)NCCCNC(=O)c2ccc(-c3c4nc(c(-c5ccc(S(=O)(=O)[O-])cc5)c5ccc([nH]5)c(-c5ccc(S(=O)(=O)[O-])cc5)c5nc(c(-c6ccc(S(=O)(=O)[O-])cc6)c6ccc3[nH]6)C=C5)C=C4)cc2)c1
REMARK SMILES IDX 26 1 25 2 23 3 24 4 22 6 16 7 17 8 18 9 21 10 20 11 19 12
REMARK SMILES IDX 14 13 13 14 15 16 12 17 10 18 11 19 8 21 9 22 7 23 6 24 1 25
REMARK SMILES IDX 2 26 3 27 92 28 4 29 5 30 27 31 28 32 29 33 30 34 31 36
REMARK SMILES IDX 32 37 33 38 91 39 34 40 90 41 35 42 36 43 37 44 84 45 38 46
REMARK SMILES IDX 89 47 83 48 85 49 39 50 88 51 82 52 81 53 40 55 70 56 51 57
REMARK SMILES IDX 69 58 52 59 55 60 68 61 86 62 53 63 54 64 67 66 87 67 56 68
REMARK SMILES IDX 41 69 42 70 50 71 43 72 49 73 44 74 45 75 46 76 47 77 48 78
REMARK SMILES IDX 71 79 72 80 80 81 73 82 79 83 74 84 75 85 76 86 77 87 78 88
REMARK SMILES IDX 57 89 58 90 66 91 59 92 65 93 60 94 61 95 62 96 63 97 64 98
REMARK H PARENT 25 5 13 15 12 20 29 35 85 54 55 65
REMARK Flexibility Score: inf
ROOT
ATOM      1  C   UNL A   1      34.030  27.799  26.419  1.00  0.00     0.117 C 
ENDROOT
BRANCH   1   2
ATOM      2  N   UNL A   1      34.304  26.979  25.243  1.00  0.00    -0.356 N 
ATOM      3  C   UNL A   1      33.635  25.880  24.777  1.00  0.00     0.224 C 
ATOM      4  O   UNL A   1      34.032  25.316  23.760  1.00  0.00    -0.275 OA
ATOM      5  H   UNL A   1      35.083  27.256  24.708  1.00  0.00     0.163 HD
BRANCH   3   6
ATOM      6  C   UNL A   1      32.419  25.398  25.557  1.00  0.00     0.094 C 
ATOM      7  C   UNL A   1      32.271  23.865  25.637  1.00  0.00     0.096 C 
ATOM      8  C   UNL A   1      30.790  23.625  25.245  1.00  0.00     0.002 C 
ATOM      9  C   UNL A   1      30.689  23.759  23.711  1.00  0.00     0.005 C 
ATOM     10  C   UNL A   1      30.083  24.909  25.673  1.00  0.00     0.009 C 
ATOM     11  C   UNL A   1      31.064  25.813  24.925  1.00  0.00     0.002 C 
ATOM     12  C   UNL A   1      30.923  25.264  23.489  1.00  0.00     0.005 C 
BRANCH   7  13
ATOM     13  C   UNL A   1      32.698  23.122  26.901  1.00  0.00     0.242 C 
ATOM     14  N   UNL A   1      33.983  22.927  27.313  1.00  0.00    -0.267 N 
ATOM     15  H   UNL A   1      34.109  22.239  28.005  1.00  0.00     0.191 HD
ATOM     16  O   UNL A   1      31.815  22.689  27.654  1.00  0.00    -0.273 OA
BRANCH  14  17
ATOM     17  N   UNL A   1      35.121  23.562  26.892  1.00  0.00    -0.264 N 
ATOM     18  C   UNL A   1      35.943  23.244  25.858  1.00  0.00     0.279 C 
ATOM     19  O   UNL A   1      36.883  24.034  25.674  1.00  0.00    -0.269 OA
ATOM     20  H   UNL A   1      35.379  24.360  27.409  1.00  0.00     0.191 HD
BRANCH  18  21
ATOM     21  C   UNL A   1      35.836  21.981  24.955  1.00  0.00     0.260 C 
ATOM     22  C   UNL A   1      36.958  21.975  23.906  1.00  0.00     0.064 C 
BRANCH  21  23
ATOM     23  O   UNL A   1      35.357  20.708  25.322  1.00  0.00    -0.481 OA
BRANCH  23  24
ATOM     24  C   UNL A   1      34.328  20.041  24.743  1.00  0.00     0.120 A 
ATOM     25  C   UNL A   1      34.026  16.409  23.608  1.00  0.00     0.044 C 
ATOM     26  C   UNL A   1      33.700  17.851  23.864  1.00  0.00    -0.047 A 
ATOM     27  C   UNL A   1      32.527  18.408  23.351  1.00  0.00     0.003 A 
ATOM     28  C   UNL A   1      34.584  18.674  24.570  1.00  0.00     0.049 A 
ATOM     29  C   UNL A   1      32.245  19.759  23.552  1.00  0.00     0.004 A 
ATOM     30  C   UNL A   1      33.142  20.575  24.249  1.00  0.00     0.046 A 
ENDBRANCH  23  24
ENDBRANCH  21  23
ENDBRANCH  18  21
ENDBRANCH  14  17
ENDBRANCH   7  13
ENDBRANCH   3   6
ENDBRANCH   1   2
BRANCH   1  31
ATOM     31  C   UNL A   1      33.372  29.130  26.066  1.00  0.00     0.042 C 
BRANCH  31  32
ATOM     32  C   UNL A   1      32.981  29.925  27.303  1.00  0.00     0.118 C 
BRANCH  32  33
ATOM     33  N   UNL A   1      33.551  31.266  27.341  1.00  0.00    -0.352 N 
ATOM     34  C   UNL A   1      34.767  31.661  27.873  1.00  0.00     0.251 C 
ATOM     35  H   UNL A   1      33.005  31.979  26.939  1.00  0.00     0.163 HD
ATOM     36  O   UNL A   1      35.038  32.840  28.035  1.00  0.00    -0.269 OA
BRANCH  34  37
ATOM     37  C   UNL A   1      35.763  30.607  28.162  1.00  0.00     0.039 A 
ATOM     38  C   UNL A   1      35.800  30.085  29.460  1.00  0.00     0.014 A 
ATOM     39  C   UNL A   1      36.781  30.339  27.253  1.00  0.00     0.014 A 
ATOM     40  C   UNL A   1      36.953  29.447  29.910  1.00  0.00     0.010 A 
ATOM     41  C   UNL A   1      37.956  29.794  27.727  1.00  0.00     0.010 A 
ATOM     42  C   UNL A   1      38.061  29.390  29.068  1.00  0.00    -0.014 A 
BRANCH  42  43
ATOM     43  C   UNL A   1      39.401  28.990  29.484  1.00  0.00     0.031 A 
ATOM     44  C   UNL A   1      39.954  27.686  29.046  1.00  0.00     0.074 A 
ATOM     45  C   UNL A   1      40.210  29.877  30.104  1.00  0.00     0.049 A 
ATOM     46  N   UNL A   1      41.032  27.156  29.517  1.00  0.00    -0.248 NA
ATOM     47  C   UNL A   1      39.272  26.824  28.082  1.00  0.00     0.031 C 
ATOM     48  C   UNL A   1      41.670  29.834  30.155  1.00  0.00     0.029 A 
ATOM     49  N   UNL A   1      39.875  30.883  31.012  1.00  0.00    -0.354 N 
ATOM     50  C   UNL A   1      41.364  26.104  28.695  1.00  0.00     0.074 A 
ATOM     51  C   UNL A   1      40.173  25.851  27.923  1.00  0.00     0.031 C 
ATOM     52  C   UNL A   1      42.084  30.523  31.227  1.00  0.00     0.029 A 
ATOM     53  C   UNL A   1      40.897  30.884  31.979  1.00  0.00     0.049 A 
ATOM     54  H   UNL A   1      39.085  31.469  30.984  1.00  0.00     0.167 HD
ATOM     55  C   UNL A   1      42.658  25.676  28.651  1.00  0.00     0.031 A 
ATOM     56  C   UNL A   1      40.711  30.637  33.309  1.00  0.00     0.031 A 
ATOM     57  C   UNL A   1      43.463  26.266  29.724  1.00  0.00     0.049 A 
ATOM     58  C   UNL A   1      41.576  29.520  33.852  1.00  0.00     0.074 A 
ATOM     59  C   UNL A   1      44.474  27.211  29.765  1.00  0.00     0.029 A 
ATOM     60  N   UNL A   1      43.087  26.041  31.043  1.00  0.00    -0.354 N 
ATOM     61  N   UNL A   1      42.263  28.694  33.113  1.00  0.00    -0.248 NA
ATOM     62  C   UNL A   1      41.681  29.205  35.271  1.00  0.00     0.031 C 
ATOM     63  C   UNL A   1      44.681  27.578  31.125  1.00  0.00     0.029 A 
ATOM     64  C   UNL A   1      43.812  26.837  31.908  1.00  0.00     0.049 A 
ATOM     65  H   UNL A   1      42.396  25.398  31.324  1.00  0.00     0.167 HD
ATOM     66  C   UNL A   1      42.864  27.743  33.901  1.00  0.00     0.074 A 
ATOM     67  C   UNL A   1      42.482  28.124  35.250  1.00  0.00     0.031 C 
ATOM     68  C   UNL A   1      43.593  26.723  33.349  1.00  0.00     0.031 A 
BRANCH  55  69
ATOM     69  C   UNL A   1      43.267  24.900  27.493  1.00  0.00    -0.014 A 
ATOM     70  C   UNL A   1      43.656  23.556  27.681  1.00  0.00     0.010 A 
ATOM     71  C   UNL A   1      43.580  25.450  26.234  1.00  0.00     0.010 A 
ATOM     72  C   UNL A   1      44.367  22.836  26.703  1.00  0.00     0.020 A 
ATOM     73  C   UNL A   1      44.279  24.744  25.245  1.00  0.00     0.020 A 
ATOM     74  C   UNL A   1      44.689  23.444  25.493  1.00  0.00     0.054 A 
BRANCH  74  75
ATOM     75  S   UNL A   1      45.662  22.542  24.260  1.00  0.00     0.124 S 
ATOM     76  O   UNL A   1      44.626  21.983  23.395  1.00  0.00    -0.237 OA
ATOM     77  O   UNL A   1      46.482  23.595  23.668  1.00  0.00    -0.237 OA
ATOM     78  O   UNL A   1      46.399  21.558  25.051  1.00  0.00    -0.744 OA
ENDBRANCH  74  75
ENDBRANCH  55  69
BRANCH  56  79
ATOM     79  C   UNL A   1      39.355  30.985  33.812  1.00  0.00    -0.014 A 
ATOM     80  C   UNL A   1      39.226  32.192  34.529  1.00  0.00     0.010 A 
ATOM     81  C   UNL A   1      38.218  30.420  33.204  1.00  0.00     0.010 A 
ATOM     82  C   UNL A   1      38.039  32.924  34.466  1.00  0.00     0.020 A 
ATOM     83  C   UNL A   1      37.024  31.151  33.148  1.00  0.00     0.020 A 
ATOM     84  C   UNL A   1      36.974  32.430  33.712  1.00  0.00     0.054 A 
BRANCH  84  85
ATOM     85  S   UNL A   1      35.638  33.584  33.276  1.00  0.00     0.124 S 
ATOM     86  O   UNL A   1      34.731  33.459  34.413  1.00  0.00    -0.237 OA
ATOM     87  O   UNL A   1      36.364  34.850  33.185  1.00  0.00    -0.237 OA
ATOM     88  O   UNL A   1      35.139  33.060  32.010  1.00  0.00    -0.744 OA
ENDBRANCH  84  85
ENDBRANCH  56  79
BRANCH  68  89
ATOM     89  C   UNL A   1      44.192  25.510  34.049  1.00  0.00    -0.014 A 
ATOM     90  C   UNL A   1      43.630  24.833  35.140  1.00  0.00     0.010 A 
ATOM     91  C   UNL A   1      45.400  24.963  33.539  1.00  0.00     0.010 A 
ATOM     92  C   UNL A   1      44.233  23.687  35.691  1.00  0.00     0.020 A 
ATOM     93  C   UNL A   1      45.997  23.809  34.058  1.00  0.00     0.020 A 
ATOM     94  C   UNL A   1      45.411  23.181  35.145  1.00  0.00     0.054 A 
BRANCH  94  95
ATOM     95  S   UNL A   1      46.132  21.671  35.832  1.00  0.00     0.124 S 
ATOM     96  O   UNL A   1      45.575  20.643  34.956  1.00  0.00    -0.237 OA
ATOM     97  O   UNL A   1      47.568  21.906  35.686  1.00  0.00    -0.237 OA
ATOM     98  O   UNL A   1      45.649  21.650  37.210  1.00  0.00    -0.744 OA
ENDBRANCH  94  95
ENDBRANCH  68  89
ENDBRANCH  42  43
ENDBRANCH  34  37
ENDBRANCH  32  33
ENDBRANCH  31  32
ENDBRANCH   1  31
TORSDOF 18
ENDMDL
MODEL 2
REMARK VINA RESULT:     -12.8      3.492      9.767
REMARK SMILES Cc1cccc(O[C@H](C)C(=O)NNC(=O)[C@H]2[C@@H]3CC[C@@H](C3)[C@@H]2C(=O)NCCCNC(=O)c2ccc(-c3c4nc(c(-c5ccc(S(=O)(=O)[O-])cc5)c5ccc([nH]5)c(-c5ccc(S(=O)(=O)[O-])cc5)c5nc(c(-c6ccc(S(=O)(=O)[O-])cc6)c6ccc3[nH]6)C=C5)C=C4)cc2)c1
REMARK SMILES IDX 26 1 25 2 23 3 24 4 22 6 16 7 17 8 18 9 21 10 20 11 19 12
REMARK SMILES IDX 14 13 13 14 15 16 12 17 10 18 11 19 8 21 9 22 7 23 6 24 1 25
REMARK SMILES IDX 2 26 3 27 92 28 4 29 5 30 27 31 28 32 29 33 30 34 31 36
REMARK SMILES IDX 32 37 33 38 91 39 34 40 90 41 35 42 36 43 37 44 84 45 38 46
REMARK SMILES IDX 89 47 83 48 85 49 39 50 88 51 82 52 81 53 40 55 70 56 51 57
REMARK SMILES IDX 69 58 52 59 55 60 68 61 86 62 53 63 54 64 67 66 87 67 56 68
REMARK SMILES IDX 41 69 42 70 50 71 43 72 49 73 44 74 45 75 46 76 47 77 48 78
REMARK SMILES IDX 71 79 72 80 80 81 73 82 79 83 74 84 75 85 76 86 77 87 78 88
REMARK SMILES IDX 57 89 58 90 66 91 59 92 65 93 60 94 61 95 62 96 63 97 64 98
REMARK H PARENT 25 5 13 15 12 20 29 35 85 54 55 65
REMARK Flexibility Score: inf
ROOT
ATOM      1  C   UNL A   1      35.593  23.998  25.868  1.00  0.00     0.117 C 
ENDROOT
BRANCH   1   2
ATOM      2  N   UNL A   1      35.129  24.556  24.602  1.00  0.00    -0.356 N 
ATOM      3  C   UNL A   1      34.044  25.351  24.351  1.00  0.00     0.224 C 
ATOM      4  O   UNL A   1      33.814  25.714  23.200  1.00  0.00    -0.275 OA
ATOM      5  H   UNL A   1      35.674  24.325  23.815  1.00  0.00     0.163 HD
BRANCH   3   6
ATOM      6  C   UNL A   1      33.158  25.745  25.525  1.00  0.00     0.094 C 
ATOM      7  C   UNL A   1      31.662  25.900  25.180  1.00  0.00     0.096 C 
ATOM      8  C   UNL A   1      31.287  27.267  25.810  1.00  0.00     0.002 C 
ATOM      9  C   UNL A   1      31.826  28.370  24.876  1.00  0.00     0.005 C 
ATOM     10  C   UNL A   1      32.255  27.411  26.981  1.00  0.00     0.009 C 
ATOM     11  C   UNL A   1      33.490  27.139  26.120  1.00  0.00     0.002 C 
ATOM     12  C   UNL A   1      33.349  28.250  25.058  1.00  0.00     0.005 C 
BRANCH   7  13
ATOM     13  C   UNL A   1      30.682  24.780  25.519  1.00  0.00     0.242 C 
ATOM     14  N   UNL A   1      30.465  23.659  24.772  1.00  0.00    -0.267 N 
ATOM     15  H   UNL A   1      29.649  23.155  24.988  1.00  0.00     0.191 HD
ATOM     16  O   UNL A   1      30.049  24.855  26.581  1.00  0.00    -0.273 OA
BRANCH  14  17
ATOM     17  N   UNL A   1      31.234  23.144  23.764  1.00  0.00    -0.264 N 
ATOM     18  C   UNL A   1      32.066  22.069  23.788  1.00  0.00     0.279 C 
ATOM     19  O   UNL A   1      32.603  21.797  22.703  1.00  0.00    -0.269 OA
ATOM     20  H   UNL A   1      31.177  23.616  22.901  1.00  0.00     0.191 HD
BRANCH  18  21
ATOM     21  C   UNL A   1      32.429  21.218  25.039  1.00  0.00     0.260 C 
ATOM     22  C   UNL A   1      32.448  22.097  26.299  1.00  0.00     0.064 C 
BRANCH  21  23
ATOM     23  O   UNL A   1      32.127  19.861  25.265  1.00  0.00    -0.481 OA
BRANCH  23  24
ATOM     24  C   UNL A   1      32.913  18.801  24.953  1.00  0.00     0.120 A 
ATOM     25  C   UNL A   1      32.456  15.069  25.610  1.00  0.00     0.044 C 
ATOM     26  C   UNL A   1      33.053  16.373  25.169  1.00  0.00    -0.047 A 
ATOM     27  C   UNL A   1      34.361  16.418  24.683  1.00  0.00     0.003 A 
ATOM     28  C   UNL A   1      32.335  17.568  25.285  1.00  0.00     0.049 A 
ATOM     29  C   UNL A   1      34.931  17.637  24.314  1.00  0.00     0.004 A 
ATOM     30  C   UNL A   1      34.208  18.827  24.445  1.00  0.00     0.046 A 
ENDBRANCH  23  24
ENDBRANCH  21  23
ENDBRANCH  18  21
ENDBRANCH  14  17
ENDBRANCH   7  13
ENDBRANCH   3   6
ENDBRANCH   1   2
BRANCH   1  31
ATOM     31  C   UNL A   1      36.187  22.601  25.711  1.00  0.00     0.042 C 
BRANCH  31  32
ATOM     32  C   UNL A   1      37.534  22.623  25.003  1.00  0.00     0.118 C 
BRANCH  32  33
ATOM     33  N   UNL A   1      38.597  21.960  25.748  1.00  0.00    -0.352 N 
ATOM     34  C   UNL A   1      39.649  22.544  26.434  1.00  0.00     0.251 C 
ATOM     35  H   UNL A   1      38.564  20.978  25.765  1.00  0.00     0.163 HD
ATOM     36  O   UNL A   1      40.591  21.881  26.838  1.00  0.00    -0.269 OA
BRANCH  34  37
ATOM     37  C   UNL A   1      39.552  23.987  26.737  1.00  0.00     0.039 A 
ATOM     38  C   UNL A   1      40.278  24.871  25.930  1.00  0.00     0.014 A 
ATOM     39  C   UNL A   1      38.974  24.415  27.928  1.00  0.00     0.014 A 
ATOM     40  C   UNL A   1      40.585  26.143  26.408  1.00  0.00     0.010 A 
ATOM     41  C   UNL A   1      39.358  25.637  28.441  1.00  0.00     0.010 A 
ATOM     42  C   UNL A   1      40.201  26.483  27.704  1.00  0.00    -0.014 A 
BRANCH  42  43
ATOM     43  C   UNL A   1      40.668  27.663  28.425  1.00  0.00     0.031 A 
ATOM     44  C   UNL A   1      39.767  28.826  28.602  1.00  0.00     0.074 A 
ATOM     45  C   UNL A   1      41.843  27.627  29.093  1.00  0.00     0.049 A 
ATOM     46  N   UNL A   1      40.144  29.980  29.041  1.00  0.00    -0.248 NA
ATOM     47  C   UNL A   1      38.359  28.800  28.211  1.00  0.00     0.031 C 
ATOM     48  C   UNL A   1      42.229  28.478  30.216  1.00  0.00     0.029 A 
ATOM     49  N   UNL A   1      43.024  26.966  28.754  1.00  0.00    -0.354 N 
ATOM     50  C   UNL A   1      39.007  30.703  29.320  1.00  0.00     0.074 A 
ATOM     51  C   UNL A   1      37.947  29.992  28.651  1.00  0.00     0.031 C 
ATOM     52  C   UNL A   1      43.567  28.525  30.280  1.00  0.00     0.029 A 
ATOM     53  C   UNL A   1      44.069  27.841  29.102  1.00  0.00     0.049 A 
ATOM     54  H   UNL A   1      43.110  26.071  28.351  1.00  0.00     0.167 HD
ATOM     55  C   UNL A   1      39.074  31.729  30.216  1.00  0.00     0.031 A 
ATOM     56  C   UNL A   1      44.973  28.363  28.222  1.00  0.00     0.031 A 
ATOM     57  C   UNL A   1      40.459  32.067  30.553  1.00  0.00     0.049 A 
ATOM     58  C   UNL A   1      45.046  29.875  28.243  1.00  0.00     0.074 A 
ATOM     59  C   UNL A   1      41.243  31.909  31.683  1.00  0.00     0.029 A 
ATOM     60  N   UNL A   1      41.318  32.465  29.536  1.00  0.00    -0.354 N 
ATOM     61  N   UNL A   1      44.185  30.646  28.845  1.00  0.00    -0.248 NA
ATOM     62  C   UNL A   1      46.061  30.638  27.527  1.00  0.00     0.031 C 
ATOM     63  C   UNL A   1      42.594  32.184  31.325  1.00  0.00     0.029 A 
ATOM     64  C   UNL A   1      42.622  32.533  29.985  1.00  0.00     0.049 A 
ATOM     65  H   UNL A   1      41.034  32.672  28.616  1.00  0.00     0.167 HD
ATOM     66  C   UNL A   1      44.478  31.965  28.599  1.00  0.00     0.074 A 
ATOM     67  C   UNL A   1      45.678  31.903  27.781  1.00  0.00     0.031 C 
ATOM     68  C   UNL A   1      43.678  32.970  29.073  1.00  0.00     0.031 A 
BRANCH  55  69
ATOM     69  C   UNL A   1      37.879  32.282  30.977  1.00  0.00    -0.014 A 
ATOM     70  C   UNL A   1      36.575  31.873  30.624  1.00  0.00     0.010 A 
ATOM     71  C   UNL A   1      37.952  33.278  31.972  1.00  0.00     0.010 A 
ATOM     72  C   UNL A   1      35.425  32.464  31.180  1.00  0.00     0.020 A 
ATOM     73  C   UNL A   1      36.818  33.871  32.543  1.00  0.00     0.020 A 
ATOM     74  C   UNL A   1      35.556  33.475  32.127  1.00  0.00     0.054 A 
BRANCH  74  75
ATOM     75  S   UNL A   1      34.080  34.285  32.794  1.00  0.00     0.124 S 
ATOM     76  O   UNL A   1      33.338  33.162  33.361  1.00  0.00    -0.237 OA
ATOM     77  O   UNL A   1      34.640  35.227  33.758  1.00  0.00    -0.237 OA
ATOM     78  O   UNL A   1      33.461  34.900  31.620  1.00  0.00    -0.744 OA
ENDBRANCH  74  75
ENDBRANCH  55  69
BRANCH  56  79
ATOM     79  C   UNL A   1      45.222  27.515  27.025  1.00  0.00    -0.014 A 
ATOM     80  C   UNL A   1      46.205  26.512  27.142  1.00  0.00     0.010 A 
ATOM     81  C   UNL A   1      44.228  27.392  26.037  1.00  0.00     0.010 A 
ATOM     82  C   UNL A   1      46.079  25.317  26.432  1.00  0.00     0.020 A 
ATOM     83  C   UNL A   1      44.106  26.196  25.317  1.00  0.00     0.020 A 
ATOM     84  C   UNL A   1      44.987  25.143  25.582  1.00  0.00     0.054 A 
BRANCH  84  85
ATOM     85  S   UNL A   1      44.602  23.452  25.033  1.00  0.00     0.124 S 
ATOM     86  O   UNL A   1      44.990  22.650  26.189  1.00  0.00    -0.237 OA
ATOM     87  O   UNL A   1      43.165  23.546  24.785  1.00  0.00    -0.237 OA
ATOM     88  O   UNL A   1      45.430  23.287  23.843  1.00  0.00    -0.744 OA
ENDBRANCH  84  85
ENDBRANCH  56  79
BRANCH  68  89
ATOM     89  C   UNL A   1      43.762  34.461  28.772  1.00  0.00    -0.014 A 
ATOM     90  C   UNL A   1      44.310  35.034  27.616  1.00  0.00     0.010 A 
ATOM     91  C   UNL A   1      43.192  35.372  29.702  1.00  0.00     0.010 A 
ATOM     92  C   UNL A   1      44.297  36.424  27.401  1.00  0.00     0.020 A 
ATOM     93  C   UNL A   1      43.148  36.754  29.489  1.00  0.00     0.020 A 
ATOM     94  C   UNL A   1      43.714  37.275  28.338  1.00  0.00     0.054 A 
BRANCH  94  95
ATOM     95  S   UNL A   1      43.656  39.053  28.008  1.00  0.00     0.124 S 
ATOM     96  O   UNL A   1      44.633  39.571  28.963  1.00  0.00    -0.237 OA
ATOM     97  O   UNL A   1      44.052  39.132  26.603  1.00  0.00    -0.237 OA
ATOM     98  O   UNL A   1      42.266  39.411  28.276  1.00  0.00    -0.744 OA
ENDBRANCH  94  95
ENDBRANCH  68  89
ENDBRANCH  42  43
ENDBRANCH  34  37
ENDBRANCH  32  33
ENDBRANCH  31  32
ENDBRANCH   1  31
TORSDOF 18
ENDMDL
MODEL 3
REMARK VINA RESULT:     -12.6      1.403      2.309
REMARK SMILES Cc1cccc(O[C@H](C)C(=O)NNC(=O)[C@H]2[C@@H]3CC[C@@H](C3)[C@@H]2C(=O)NCCCNC(=O)c2ccc(-c3c4nc(c(-c5ccc(S(=O)(=O)[O-])cc5)c5ccc([nH]5)c(-c5ccc(S(=O)(=O)[O-])cc5)c5nc(c(-c6ccc(S(=O)(=O)[O-])cc6)c6ccc3[nH]6)C=C5)C=C4)cc2)c1
REMARK SMILES IDX 26 1 25 2 23 3 24 4 22 6 16 7 17 8 18 9 21 10 20 11 19 12
REMARK SMILES IDX 14 13 13 14 15 16 12 17 10 18 11 19 8 21 9 22 7 23 6 24 1 25
REMARK SMILES IDX 2 26 3 27 92 28 4 29 5 30 27 31 28 32 29 33 30 34 31 36
REMARK SMILES IDX 32 37 33 38 91 39 34 40 90 41 35 42 36 43 37 44 84 45 38 46
REMARK SMILES IDX 89 47 83 48 85 49 39 50 88 51 82 52 81 53 40 55 70 56 51 57
REMARK SMILES IDX 69 58 52 59 55 60 68 61 86 62 53 63 54 64 67 66 87 67 56 68
REMARK SMILES IDX 41 69 42 70 50 71 43 72 49 73 44 74 45 75 46 76 47 77 48 78
REMARK SMILES IDX 71 79 72 80 80 81 73 82 79 83 74 84 75 85 76 86 77 87 78 88
REMARK SMILES IDX 57 89 58 90 66 91 59 92 65 93 60 94 61 95 62 96 63 97 64 98
REMARK H PARENT 25 5 13 15 12 20 29 35 85 54 55 65
REMARK Flexibility Score: inf
ROOT
ATOM      1  C   UNL A   1      32.089  28.698  27.264  1.00  0.00     0.117 C 
ENDROOT
BRANCH   1   2
ATOM      2  N   UNL A   1      33.117  27.966  26.532  1.00  0.00    -0.356 N 
ATOM      3  C   UNL A   1      32.996  26.848  25.751  1.00  0.00     0.224 C 
ATOM      4  O   UNL A   1      33.995  26.370  25.220  1.00  0.00    -0.275 OA
ATOM      5  H   UNL A   1      34.030  28.327  26.611  1.00  0.00     0.163 HD
BRANCH   3   6
ATOM      6  C   UNL A   1      31.611  26.237  25.585  1.00  0.00     0.094 C 
ATOM      7  C   UNL A   1      31.606  24.737  25.227  1.00  0.00     0.096 C 
ATOM      8  C   UNL A   1      30.624  24.655  24.030  1.00  0.00     0.002 C 
ATOM      9  C   UNL A   1      31.373  25.160  22.780  1.00  0.00     0.005 C 
ATOM     10  C   UNL A   1      29.667  25.823  24.258  1.00  0.00     0.009 C 
ATOM     11  C   UNL A   1      30.796  26.844  24.412  1.00  0.00     0.002 C 
ATOM     12  C   UNL A   1      31.531  26.664  23.067  1.00  0.00     0.005 C 
BRANCH   7  13
ATOM     13  C   UNL A   1      31.341  23.695  26.311  1.00  0.00     0.242 C 
ATOM     14  N   UNL A   1      31.198  22.354  26.108  1.00  0.00    -0.267 N 
ATOM     15  H   UNL A   1      30.801  21.850  26.853  1.00  0.00     0.191 HD
ATOM     16  O   UNL A   1      31.290  24.074  27.489  1.00  0.00    -0.273 OA
BRANCH  14  17
ATOM     17  N   UNL A   1      31.535  21.617  25.004  1.00  0.00    -0.264 N 
ATOM     18  C   UNL A   1      32.767  21.232  24.579  1.00  0.00     0.279 C 
ATOM     19  O   UNL A   1      32.771  20.519  23.563  1.00  0.00    -0.269 OA
ATOM     20  H   UNL A   1      30.782  21.326  24.441  1.00  0.00     0.191 HD
BRANCH  18  21
ATOM     21  C   UNL A   1      34.128  21.646  25.211  1.00  0.00     0.260 C 
ATOM     22  C   UNL A   1      34.249  21.085  26.636  1.00  0.00     0.064 C 
BRANCH  21  23
ATOM     23  O   UNL A   1      35.351  21.850  24.545  1.00  0.00    -0.481 OA
BRANCH  23  24
ATOM     24  C   UNL A   1      36.469  22.407  25.072  1.00  0.00     0.120 A 
ATOM     25  C   UNL A   1      39.789  20.840  26.118  1.00  0.00     0.044 C 
ATOM     26  C   UNL A   1      38.705  21.850  25.882  1.00  0.00    -0.047 A 
ATOM     27  C   UNL A   1      38.840  23.153  26.365  1.00  0.00     0.003 A 
ATOM     28  C   UNL A   1      37.522  21.495  25.225  1.00  0.00     0.049 A 
ATOM     29  C   UNL A   1      37.813  24.079  26.183  1.00  0.00     0.004 A 
ATOM     30  C   UNL A   1      36.630  23.710  25.535  1.00  0.00     0.046 A 
ENDBRANCH  23  24
ENDBRANCH  21  23
ENDBRANCH  18  21
ENDBRANCH  14  17
ENDBRANCH   7  13
ENDBRANCH   3   6
ENDBRANCH   1   2
BRANCH   1  31
ATOM     31  C   UNL A   1      32.300  30.209  27.218  1.00  0.00     0.042 C 
BRANCH  31  32
ATOM     32  C   UNL A   1      33.771  30.583  27.108  1.00  0.00     0.118 C 
BRANCH  32  33
ATOM     33  N   UNL A   1      34.145  31.731  27.925  1.00  0.00    -0.352 N 
ATOM     34  C   UNL A   1      35.133  31.802  28.892  1.00  0.00     0.251 C 
ATOM     35  H   UNL A   1      33.632  32.556  27.771  1.00  0.00     0.163 HD
ATOM     36  O   UNL A   1      35.208  32.752  29.655  1.00  0.00    -0.269 OA
BRANCH  34  37
ATOM     37  C   UNL A   1      36.147  30.727  28.916  1.00  0.00     0.039 A 
ATOM     38  C   UNL A   1      36.201  29.908  30.050  1.00  0.00     0.014 A 
ATOM     39  C   UNL A   1      37.165  30.704  27.967  1.00  0.00     0.014 A 
ATOM     40  C   UNL A   1      37.368  29.200  30.330  1.00  0.00     0.010 A 
ATOM     41  C   UNL A   1      38.351  30.081  28.293  1.00  0.00     0.010 A 
ATOM     42  C   UNL A   1      38.471  29.367  29.496  1.00  0.00    -0.014 A 
BRANCH  42  43
ATOM     43  C   UNL A   1      39.820  28.902  29.801  1.00  0.00     0.031 A 
ATOM     44  C   UNL A   1      40.255  27.556  29.359  1.00  0.00     0.074 A 
ATOM     45  C   UNL A   1      40.732  29.758  30.313  1.00  0.00     0.049 A 
ATOM     46  N   UNL A   1      41.342  26.978  29.746  1.00  0.00    -0.248 NA
ATOM     47  C   UNL A   1      39.440  26.708  28.492  1.00  0.00     0.031 C 
ATOM     48  C   UNL A   1      42.185  29.631  30.231  1.00  0.00     0.029 A 
ATOM     49  N   UNL A   1      40.539  30.807  31.214  1.00  0.00    -0.354 N 
ATOM     50  C   UNL A   1      41.537  25.885  28.934  1.00  0.00     0.074 A 
ATOM     51  C   UNL A   1      40.267  25.680  28.284  1.00  0.00     0.031 C 
ATOM     52  C   UNL A   1      42.736  30.326  31.236  1.00  0.00     0.029 A 
ATOM     53  C   UNL A   1      41.646  30.777  32.082  1.00  0.00     0.049 A 
ATOM     54  H   UNL A   1      39.784  31.438  31.238  1.00  0.00     0.167 HD
ATOM     55  C   UNL A   1      42.795  25.381  28.786  1.00  0.00     0.031 A 
ATOM     56  C   UNL A   1      41.572  30.580  33.430  1.00  0.00     0.031 A 
ATOM     57  C   UNL A   1      43.728  25.954  29.759  1.00  0.00     0.049 A 
ATOM     58  C   UNL A   1      42.421  29.431  33.929  1.00  0.00     0.074 A 
ATOM     59  C   UNL A   1      44.790  26.838  29.675  1.00  0.00     0.029 A 
ATOM     60  N   UNL A   1      43.467  25.789  31.115  1.00  0.00    -0.354 N 
ATOM     61  N   UNL A   1      42.988  28.545  33.160  1.00  0.00    -0.248 NA
ATOM     62  C   UNL A   1      42.642  29.151  35.343  1.00  0.00     0.031 C 
ATOM     63  C   UNL A   1      45.143  27.233  30.997  1.00  0.00     0.029 A 
ATOM     64  C   UNL A   1      44.313  26.566  31.881  1.00  0.00     0.049 A 
ATOM     65  H   UNL A   1      42.771  25.196  31.480  1.00  0.00     0.167 HD
ATOM     66  C   UNL A   1      43.608  27.584  33.920  1.00  0.00     0.074 A 
ATOM     67  C   UNL A   1      43.376  28.025  35.285  1.00  0.00     0.031 C 
ATOM     68  C   UNL A   1      44.223  26.507  33.340  1.00  0.00     0.031 A 
BRANCH  55  69
ATOM     69  C   UNL A   1      43.249  24.537  27.604  1.00  0.00    -0.014 A 
ATOM     70  C   UNL A   1      42.800  23.204  27.485  1.00  0.00     0.010 A 
ATOM     71  C   UNL A   1      44.188  24.949  26.638  1.00  0.00     0.010 A 
ATOM     72  C   UNL A   1      43.305  22.326  26.508  1.00  0.00     0.020 A 
ATOM     73  C   UNL A   1      44.695  24.090  25.652  1.00  0.00     0.020 A 
ATOM     74  C   UNL A   1      44.266  22.773  25.605  1.00  0.00     0.054 A 
BRANCH  74  75
ATOM     75  S   UNL A   1      44.967  21.627  24.391  1.00  0.00     0.124 S 
ATOM     76  O   UNL A   1      44.262  20.384  24.692  1.00  0.00    -0.237 OA
ATOM     77  O   UNL A   1      44.624  22.259  23.120  1.00  0.00    -0.237 OA
ATOM     78  O   UNL A   1      46.395  21.616  24.708  1.00  0.00    -0.744 OA
ENDBRANCH  74  75
ENDBRANCH  55  69
BRANCH  56  79
ATOM     79  C   UNL A   1      40.291  31.021  34.044  1.00  0.00    -0.014 A 
ATOM     80  C   UNL A   1      40.147  32.398  34.312  1.00  0.00     0.010 A 
ATOM     81  C   UNL A   1      39.140  30.222  33.908  1.00  0.00     0.010 A 
ATOM     82  C   UNL A   1      38.890  33.001  34.240  1.00  0.00     0.020 A 
ATOM     83  C   UNL A   1      37.877  30.826  33.844  1.00  0.00     0.020 A 
ATOM     84  C   UNL A   1      37.776  32.218  33.931  1.00  0.00     0.054 A 
BRANCH  84  85
ATOM     85  S   UNL A   1      36.261  33.074  33.403  1.00  0.00     0.124 S 
ATOM     86  O   UNL A   1      35.515  32.011  32.738  1.00  0.00    -0.237 OA
ATOM     87  O   UNL A   1      35.717  33.521  34.683  1.00  0.00    -0.237 OA
ATOM     88  O   UNL A   1      36.759  34.135  32.534  1.00  0.00    -0.744 OA
ENDBRANCH  84  85
ENDBRANCH  56  79
BRANCH  68  89
ATOM     89  C   UNL A   1      44.817  25.282  34.023  1.00  0.00    -0.014 A 
ATOM     90  C   UNL A   1      44.161  24.461  34.950  1.00  0.00     0.010 A 
ATOM     91  C   UNL A   1      46.134  24.882  33.668  1.00  0.00     0.010 A 
ATOM     92  C   UNL A   1      44.775  23.318  35.492  1.00  0.00     0.020 A 
ATOM     93  C   UNL A   1      46.748  23.732  34.177  1.00  0.00     0.020 A 
ATOM     94  C   UNL A   1      46.064  22.959  35.101  1.00  0.00     0.054 A 
BRANCH  94  95
ATOM     95  S   UNL A   1      46.807  21.450  35.766  1.00  0.00     0.124 S 
ATOM     96  O   UNL A   1      45.656  20.789  36.377  1.00  0.00    -0.237 OA
ATOM     97  O   UNL A   1      47.339  20.800  34.569  1.00  0.00    -0.237 OA
ATOM     98  O   UNL A   1      47.817  21.941  36.699  1.00  0.00    -0.744 OA
ENDBRANCH  94  95
ENDBRANCH  68  89
ENDBRANCH  42  43
ENDBRANCH  34  37
ENDBRANCH  32  33
ENDBRANCH  31  32
ENDBRANCH   1  31
TORSDOF 18
ENDMDL
