MODEL 1
REMARK VINA RESULT:     -11.6      0.000      0.000
REMARK SMILES O=C(NCCCNC(=O)[C@@H]1[C@H](C(=O)NCc2ccncc2)[C@H]2C=C[C@@H]1O2)c1ccc(-c2c3nc(c(-c4ccc(S(=O)(=O)[O-])cc4)c4ccc([nH]4)c(-c4ccc(S(=O)(=O)[O-])cc4)c4nc(c(-c5ccc(S(=O)(=O)[O-])cc5)c5ccc2[nH]5)C=C4)C=C3)cc1
REMARK SMILES IDX 5 1 4 2 3 3 1 4 2 5 27 7 28 8 86 9 29 10 85 11 30 12 31 13
REMARK SMILES IDX 32 14 79 15 33 16 84 17 78 18 80 19 34 20 83 21 77 22 76 23
REMARK SMILES IDX 35 25 65 26 46 27 64 28 47 29 50 30 63 31 81 32 48 33 49 34
REMARK SMILES IDX 62 36 82 37 51 38 36 39 37 40 45 41 38 42 44 43 39 44 40 45
REMARK SMILES IDX 41 46 42 47 43 48 66 49 67 50 75 51 68 52 74 53 69 54 70 55
REMARK SMILES IDX 71 56 72 57 73 58 52 59 53 60 61 61 54 62 60 63 55 64 56 65
REMARK SMILES IDX 57 66 58 67 59 68 6 69 7 70 8 71 9 73 10 74 11 75 25 76
REMARK SMILES IDX 22 77 24 78 26 79 23 80 12 81 13 82 14 83 15 85 16 86 17 87
REMARK SMILES IDX 21 88 18 89 20 90 19 91
REMARK H PARENT 3 6 80 24 50 35 7 72 14 84
REMARK Flexibility Score: inf
ROOT
ATOM      1  C   UNL A   1      33.164  28.550  25.515  1.00  0.00     0.042 C 
ENDROOT
BRANCH   1   2
ATOM      2  C   UNL A   1      33.442  28.590  27.008  1.00  0.00     0.118 C 
BRANCH   2   3
ATOM      3  N   UNL A   1      33.401  29.934  27.567  1.00  0.00    -0.352 N 
ATOM      4  O   UNL A   1      34.174  31.813  28.530  1.00  0.00    -0.269 OA
ATOM      5  C   UNL A   1      34.402  30.677  28.148  1.00  0.00     0.251 C 
ATOM      6  H   UNL A   1      32.524  30.378  27.523  1.00  0.00     0.163 HD
BRANCH   5   7
ATOM      7  C   UNL A   1      35.718  30.046  28.368  1.00  0.00     0.039 A 
ATOM      8  C   UNL A   1      36.065  29.524  29.616  1.00  0.00     0.014 A 
ATOM      9  C   UNL A   1      36.643  30.083  27.323  1.00  0.00     0.014 A 
ATOM     10  C   UNL A   1      37.390  29.191  29.870  1.00  0.00     0.010 A 
ATOM     11  C   UNL A   1      37.955  29.682  27.561  1.00  0.00     0.010 A 
ATOM     12  C   UNL A   1      38.347  29.284  28.848  1.00  0.00    -0.014 A 
BRANCH  12  13
ATOM     13  C   UNL A   1      39.765  28.957  29.116  1.00  0.00     0.031 A 
ATOM     14  C   UNL A   1      40.698  30.004  29.650  1.00  0.00     0.074 A 
ATOM     15  C   UNL A   1      40.209  27.720  28.832  1.00  0.00     0.049 A 
ATOM     16  N   UNL A   1      41.993  29.939  29.827  1.00  0.00    -0.248 NA
ATOM     17  C   UNL A   1      40.103  31.298  30.024  1.00  0.00     0.031 C 
ATOM     18  C   UNL A   1      39.384  26.628  28.312  1.00  0.00     0.029 A 
ATOM     19  N   UNL A   1      41.466  27.182  28.920  1.00  0.00    -0.354 N 
ATOM     20  C   UNL A   1      42.374  31.192  30.293  1.00  0.00     0.074 A 
ATOM     21  C   UNL A   1      41.175  31.998  30.371  1.00  0.00     0.031 C 
ATOM     22  C   UNL A   1      40.158  25.550  28.121  1.00  0.00     0.029 A 
ATOM     23  C   UNL A   1      41.536  25.894  28.452  1.00  0.00     0.049 A 
ATOM     24  H   UNL A   1      42.239  27.671  29.282  1.00  0.00     0.167 HD
ATOM     25  C   UNL A   1      43.615  31.628  30.620  1.00  0.00     0.031 A 
ATOM     26  C   UNL A   1      42.598  25.089  28.266  1.00  0.00     0.031 A 
ATOM     27  C   UNL A   1      44.797  30.812  30.542  1.00  0.00     0.049 A 
ATOM     28  C   UNL A   1      43.962  25.590  28.624  1.00  0.00     0.074 A 
ATOM     29  C   UNL A   1      46.098  31.142  30.885  1.00  0.00     0.029 A 
ATOM     30  N   UNL A   1      44.823  29.503  30.084  1.00  0.00    -0.354 N 
ATOM     31  N   UNL A   1      44.304  26.769  29.087  1.00  0.00    -0.248 NA
ATOM     32  C   UNL A   1      45.082  24.660  28.438  1.00  0.00     0.031 C 
ATOM     33  C   UNL A   1      46.915  30.041  30.601  1.00  0.00     0.029 A 
ATOM     34  C   UNL A   1      46.118  29.015  30.116  1.00  0.00     0.049 A 
ATOM     35  H   UNL A   1      44.036  28.996  29.780  1.00  0.00     0.167 HD
ATOM     36  C   UNL A   1      45.682  26.722  29.258  1.00  0.00     0.074 A 
ATOM     37  C   UNL A   1      46.107  25.394  28.856  1.00  0.00     0.031 C 
ATOM     38  C   UNL A   1      46.516  27.691  29.706  1.00  0.00     0.031 A 
BRANCH  25  39
ATOM     39  C   UNL A   1      43.752  33.065  31.045  1.00  0.00    -0.014 A 
ATOM     40  C   UNL A   1      44.022  34.081  30.111  1.00  0.00     0.010 A 
ATOM     41  C   UNL A   1      43.608  33.404  32.402  1.00  0.00     0.010 A 
ATOM     42  C   UNL A   1      44.201  35.401  30.535  1.00  0.00     0.020 A 
ATOM     43  C   UNL A   1      43.767  34.725  32.827  1.00  0.00     0.020 A 
ATOM     44  C   UNL A   1      44.088  35.712  31.893  1.00  0.00     0.054 A 
BRANCH  44  45
ATOM     45  S   UNL A   1      44.351  37.426  32.428  1.00  0.00     0.124 S 
ATOM     46  O   UNL A   1      44.127  38.164  31.186  1.00  0.00    -0.237 OA
ATOM     47  O   UNL A   1      43.329  37.607  33.456  1.00  0.00    -0.237 OA
ATOM     48  O   UNL A   1      45.727  37.428  32.915  1.00  0.00    -0.744 OA
ENDBRANCH  44  45
ENDBRANCH  25  39
BRANCH  26  49
ATOM     49  C   UNL A   1      42.372  23.742  27.687  1.00  0.00    -0.014 A 
ATOM     50  C   UNL A   1      42.565  23.515  26.315  1.00  0.00     0.010 A 
ATOM     51  C   UNL A   1      42.097  22.651  28.535  1.00  0.00     0.010 A 
ATOM     52  C   UNL A   1      42.513  22.216  25.803  1.00  0.00     0.020 A 
ATOM     53  C   UNL A   1      42.064  21.351  28.028  1.00  0.00     0.020 A 
ATOM     54  C   UNL A   1      42.274  21.141  26.664  1.00  0.00     0.054 A 
BRANCH  54  55
ATOM     55  S   UNL A   1      42.349  19.451  26.006  1.00  0.00     0.124 S 
ATOM     56  O   UNL A   1      42.873  18.706  27.145  1.00  0.00    -0.237 OA
ATOM     57  O   UNL A   1      40.955  19.181  25.660  1.00  0.00    -0.237 OA
ATOM     58  O   UNL A   1      43.251  19.571  24.863  1.00  0.00    -0.744 OA
ENDBRANCH  54  55
ENDBRANCH  26  49
BRANCH  38  59
ATOM     59  C   UNL A   1      47.974  27.348  29.805  1.00  0.00    -0.014 A 
ATOM     60  C   UNL A   1      48.860  27.669  28.763  1.00  0.00     0.010 A 
ATOM     61  C   UNL A   1      48.472  26.768  30.985  1.00  0.00     0.010 A 
ATOM     62  C   UNL A   1      50.225  27.406  28.898  1.00  0.00     0.020 A 
ATOM     63  C   UNL A   1      49.838  26.518  31.128  1.00  0.00     0.020 A 
ATOM     64  C   UNL A   1      50.706  26.833  30.079  1.00  0.00     0.054 A 
BRANCH  64  65
ATOM     65  S   UNL A   1      52.491  26.565  30.262  1.00  0.00     0.124 S 
ATOM     66  O   UNL A   1      52.949  27.877  30.710  1.00  0.00    -0.237 OA
ATOM     67  O   UNL A   1      52.558  25.501  31.260  1.00  0.00    -0.237 OA
ATOM     68  O   UNL A   1      52.920  26.178  28.920  1.00  0.00    -0.744 OA
ENDBRANCH  64  65
ENDBRANCH  38  59
ENDBRANCH  12  13
ENDBRANCH   5   7
ENDBRANCH   2   3
ENDBRANCH   1   2
BRANCH   1  69
ATOM     69  C   UNL A   1      33.648  27.290  24.814  1.00  0.00     0.117 C 
BRANCH  69  70
ATOM     70  N   UNL A   1      33.207  26.054  25.451  1.00  0.00    -0.356 N 
ATOM     71  C   UNL A   1      33.813  24.870  25.729  1.00  0.00     0.227 C 
ATOM     72  H   UNL A   1      32.268  26.086  25.745  1.00  0.00     0.163 HD
ATOM     73  O   UNL A   1      33.193  24.109  26.484  1.00  0.00    -0.275 OA
BRANCH  71  74
ATOM     74  C   UNL A   1      35.149  24.394  25.190  1.00  0.00     0.127 C 
ATOM     75  C   UNL A   1      35.082  23.508  23.918  1.00  0.00     0.127 C 
ATOM     76  C   UNL A   1      36.054  23.549  26.079  1.00  0.00     0.155 C 
ATOM     77  C   UNL A   1      35.729  22.199  24.405  1.00  0.00     0.155 C 
ATOM     78  C   UNL A   1      37.407  23.293  25.472  1.00  0.00     0.004 C 
ATOM     79  O   UNL A   1      35.453  22.246  25.833  1.00  0.00    -0.365 OA
ATOM     80  C   UNL A   1      37.214  22.421  24.473  1.00  0.00     0.004 C 
BRANCH  75  81
ATOM     81  C   UNL A   1      33.863  23.299  23.037  1.00  0.00     0.227 C 
ATOM     82  O   UNL A   1      33.734  24.021  22.038  1.00  0.00    -0.275 OA
ATOM     83  N   UNL A   1      32.933  22.333  23.159  1.00  0.00    -0.352 N 
ATOM     84  H   UNL A   1      32.358  22.245  22.364  1.00  0.00     0.163 HD
BRANCH  83  85
ATOM     85  C   UNL A   1      32.601  21.401  24.208  1.00  0.00     0.151 C 
BRANCH  85  86
ATOM     86  C   UNL A   1      32.799  19.960  23.787  1.00  0.00    -0.026 A 
ATOM     87  C   UNL A   1      32.168  19.396  22.669  1.00  0.00     0.025 A 
ATOM     88  C   UNL A   1      33.622  19.124  24.549  1.00  0.00     0.025 A 
ATOM     89  C   UNL A   1      32.370  18.055  22.379  1.00  0.00     0.111 A 
ATOM     90  C   UNL A   1      33.752  17.788  24.190  1.00  0.00     0.111 A 
ATOM     91  N   UNL A   1      33.141  17.237  23.121  1.00  0.00    -0.265 NA
ENDBRANCH  85  86
ENDBRANCH  83  85
ENDBRANCH  75  81
ENDBRANCH  71  74
ENDBRANCH  69  70
ENDBRANCH   1  69
TORSDOF 16
ENDMDL
MODEL 2
REMARK VINA RESULT:     -11.6      1.636      3.007
REMARK SMILES O=C(NCCCNC(=O)[C@@H]1[C@H](C(=O)NCc2ccncc2)[C@H]2C=C[C@@H]1O2)c1ccc(-c2c3nc(c(-c4ccc(S(=O)(=O)[O-])cc4)c4ccc([nH]4)c(-c4ccc(S(=O)(=O)[O-])cc4)c4nc(c(-c5ccc(S(=O)(=O)[O-])cc5)c5ccc2[nH]5)C=C4)C=C3)cc1
REMARK SMILES IDX 5 1 4 2 3 3 1 4 2 5 27 7 28 8 86 9 29 10 85 11 30 12 31 13
REMARK SMILES IDX 32 14 79 15 33 16 84 17 78 18 80 19 34 20 83 21 77 22 76 23
REMARK SMILES IDX 35 25 65 26 46 27 64 28 47 29 50 30 63 31 81 32 48 33 49 34
REMARK SMILES IDX 62 36 82 37 51 38 36 39 37 40 45 41 38 42 44 43 39 44 40 45
REMARK SMILES IDX 41 46 42 47 43 48 66 49 67 50 75 51 68 52 74 53 69 54 70 55
REMARK SMILES IDX 71 56 72 57 73 58 52 59 53 60 61 61 54 62 60 63 55 64 56 65
REMARK SMILES IDX 57 66 58 67 59 68 6 69 7 70 8 71 9 73 10 74 11 75 25 76
REMARK SMILES IDX 22 77 24 78 26 79 23 80 12 81 13 82 14 83 15 85 16 86 17 87
REMARK SMILES IDX 21 88 18 89 20 90 19 91
REMARK H PARENT 3 6 80 24 50 35 7 72 14 84
REMARK Flexibility Score: inf
ROOT
ATOM      1  C   UNL A   1      31.923  28.097  27.444  1.00  0.00     0.042 C 
ENDROOT
BRANCH   1   2
ATOM      2  C   UNL A   1      33.321  28.658  27.252  1.00  0.00     0.118 C 
BRANCH   2   3
ATOM      3  N   UNL A   1      33.412  30.086  27.523  1.00  0.00    -0.352 N 
ATOM      4  O   UNL A   1      34.372  32.046  28.063  1.00  0.00    -0.269 OA
ATOM      5  C   UNL A   1      34.491  30.840  27.919  1.00  0.00     0.251 C 
ATOM      6  H   UNL A   1      32.573  30.588  27.404  1.00  0.00     0.163 HD
BRANCH   5   7
ATOM      7  C   UNL A   1      35.758  30.154  28.241  1.00  0.00     0.039 A 
ATOM      8  C   UNL A   1      35.988  29.631  29.515  1.00  0.00     0.014 A 
ATOM      9  C   UNL A   1      36.757  30.138  27.266  1.00  0.00     0.014 A 
ATOM     10  C   UNL A   1      37.276  29.242  29.868  1.00  0.00     0.010 A 
ATOM     11  C   UNL A   1      38.029  29.682  27.602  1.00  0.00     0.010 A 
ATOM     12  C   UNL A   1      38.307  29.281  28.918  1.00  0.00    -0.014 A 
BRANCH  12  13
ATOM     13  C   UNL A   1      39.685  28.894  29.292  1.00  0.00     0.031 A 
ATOM     14  C   UNL A   1      40.599  29.884  29.956  1.00  0.00     0.074 A 
ATOM     15  C   UNL A   1      40.116  27.657  28.988  1.00  0.00     0.049 A 
ATOM     16  N   UNL A   1      41.870  29.767  30.240  1.00  0.00    -0.248 NA
ATOM     17  C   UNL A   1      40.012  31.178  30.339  1.00  0.00     0.031 C 
ATOM     18  C   UNL A   1      39.308  26.618  28.346  1.00  0.00     0.029 A 
ATOM     19  N   UNL A   1      41.343  27.073  29.158  1.00  0.00    -0.354 N 
ATOM     20  C   UNL A   1      42.246  30.983  30.799  1.00  0.00     0.074 A 
ATOM     21  C   UNL A   1      41.069  31.825  30.811  1.00  0.00     0.031 C 
ATOM     22  C   UNL A   1      40.063  25.525  28.171  1.00  0.00     0.029 A 
ATOM     23  C   UNL A   1      41.416  25.807  28.636  1.00  0.00     0.049 A 
ATOM     24  H   UNL A   1      42.096  27.519  29.610  1.00  0.00     0.167 HD
ATOM     25  C   UNL A   1      43.466  31.362  31.252  1.00  0.00     0.031 A 
ATOM     26  C   UNL A   1      42.466  24.976  28.505  1.00  0.00     0.031 A 
ATOM     27  C   UNL A   1      44.626  30.511  31.238  1.00  0.00     0.049 A 
ATOM     28  C   UNL A   1      43.808  25.413  29.004  1.00  0.00     0.074 A 
ATOM     29  C   UNL A   1      45.900  30.780  31.708  1.00  0.00     0.029 A 
ATOM     30  N   UNL A   1      44.653  29.224  30.721  1.00  0.00    -0.354 N 
ATOM     31  N   UNL A   1      44.143  26.557  29.551  1.00  0.00    -0.248 NA
ATOM     32  C   UNL A   1      44.912  24.455  28.871  1.00  0.00     0.031 C 
ATOM     33  C   UNL A   1      46.706  29.666  31.443  1.00  0.00     0.029 A 
ATOM     34  C   UNL A   1      45.925  28.691  30.841  1.00  0.00     0.049 A 
ATOM     35  H   UNL A   1      43.881  28.758  30.325  1.00  0.00     0.167 HD
ATOM     36  C   UNL A   1      45.498  26.456  29.838  1.00  0.00     0.074 A 
ATOM     37  C   UNL A   1      45.917  25.134  29.411  1.00  0.00     0.031 C 
ATOM     38  C   UNL A   1      46.318  27.374  30.404  1.00  0.00     0.031 A 
BRANCH  25  39
ATOM     39  C   UNL A   1      43.607  32.772  31.756  1.00  0.00    -0.014 A 
ATOM     40  C   UNL A   1      43.479  33.076  33.124  1.00  0.00     0.010 A 
ATOM     41  C   UNL A   1      43.871  33.812  30.847  1.00  0.00     0.010 A 
ATOM     42  C   UNL A   1      43.557  34.400  33.564  1.00  0.00     0.020 A 
ATOM     43  C   UNL A   1      43.970  35.134  31.285  1.00  0.00     0.020 A 
ATOM     44  C   UNL A   1      43.786  35.423  32.639  1.00  0.00     0.054 A 
BRANCH  44  45
ATOM     45  S   UNL A   1      43.857  37.140  33.225  1.00  0.00     0.124 S 
ATOM     46  O   UNL A   1      42.655  37.222  34.052  1.00  0.00    -0.237 OA
ATOM     47  O   UNL A   1      45.122  37.183  33.954  1.00  0.00    -0.237 OA
ATOM     48  O   UNL A   1      43.823  37.926  31.995  1.00  0.00    -0.744 OA
ENDBRANCH  44  45
ENDBRANCH  25  39
BRANCH  26  49
ATOM     49  C   UNL A   1      42.252  23.665  27.844  1.00  0.00    -0.014 A 
ATOM     50  C   UNL A   1      42.597  23.483  26.494  1.00  0.00     0.010 A 
ATOM     51  C   UNL A   1      41.832  22.556  28.604  1.00  0.00     0.010 A 
ATOM     52  C   UNL A   1      42.549  22.209  25.922  1.00  0.00     0.020 A 
ATOM     53  C   UNL A   1      41.802  21.279  28.039  1.00  0.00     0.020 A 
ATOM     54  C   UNL A   1      42.164  21.113  26.701  1.00  0.00     0.054 A 
BRANCH  54  55
ATOM     55  S   UNL A   1      42.243  19.449  25.981  1.00  0.00     0.124 S 
ATOM     56  O   UNL A   1      40.862  19.238  25.557  1.00  0.00    -0.237 OA
ATOM     57  O   UNL A   1      43.217  19.613  24.904  1.00  0.00    -0.237 OA
ATOM     58  O   UNL A   1      42.694  18.618  27.093  1.00  0.00    -0.744 OA
ENDBRANCH  54  55
ENDBRANCH  26  49
BRANCH  38  59
ATOM     59  C   UNL A   1      47.750  26.978  30.612  1.00  0.00    -0.014 A 
ATOM     60  C   UNL A   1      48.724  27.269  29.644  1.00  0.00     0.010 A 
ATOM     61  C   UNL A   1      48.135  26.376  31.824  1.00  0.00     0.010 A 
ATOM     62  C   UNL A   1      50.065  26.956  29.880  1.00  0.00     0.020 A 
ATOM     63  C   UNL A   1      49.476  26.076  32.069  1.00  0.00     0.020 A 
ATOM     64  C   UNL A   1      50.433  26.362  31.092  1.00  0.00     0.054 A 
BRANCH  64  65
ATOM     65  S   UNL A   1      52.188  26.029  31.410  1.00  0.00     0.124 S 
ATOM     66  O   UNL A   1      52.492  26.992  32.463  1.00  0.00    -0.237 OA
ATOM     67  O   UNL A   1      52.181  24.627  31.821  1.00  0.00    -0.237 OA
ATOM     68  O   UNL A   1      52.825  26.289  30.121  1.00  0.00    -0.744 OA
ENDBRANCH  64  65
ENDBRANCH  38  59
ENDBRANCH  12  13
ENDBRANCH   5   7
ENDBRANCH   2   3
ENDBRANCH   1   2
BRANCH   1  69
ATOM     69  C   UNL A   1      31.421  27.238  26.292  1.00  0.00     0.117 C 
BRANCH  69  70
ATOM     70  N   UNL A   1      31.141  25.857  26.666  1.00  0.00    -0.356 N 
ATOM     71  C   UNL A   1      31.864  24.707  26.632  1.00  0.00     0.227 C 
ATOM     72  H   UNL A   1      30.231  25.730  27.021  1.00  0.00     0.163 HD
ATOM     73  O   UNL A   1      31.378  23.743  27.238  1.00  0.00    -0.275 OA
BRANCH  71  74
ATOM     74  C   UNL A   1      33.184  24.495  25.913  1.00  0.00     0.127 C 
ATOM     75  C   UNL A   1      33.080  23.917  24.477  1.00  0.00     0.127 C 
ATOM     76  C   UNL A   1      34.224  23.562  26.523  1.00  0.00     0.155 C 
ATOM     77  C   UNL A   1      33.866  22.599  24.605  1.00  0.00     0.155 C 
ATOM     78  C   UNL A   1      35.537  23.579  25.787  1.00  0.00     0.004 C 
ATOM     79  O   UNL A   1      33.708  22.296  26.019  1.00  0.00    -0.365 OA
ATOM     80  C   UNL A   1      35.330  22.941  24.628  1.00  0.00     0.004 C 
BRANCH  75  81
ATOM     81  C   UNL A   1      31.812  23.797  23.651  1.00  0.00     0.227 C 
ATOM     82  O   UNL A   1      30.948  22.988  24.021  1.00  0.00    -0.275 OA
ATOM     83  N   UNL A   1      31.460  24.553  22.595  1.00  0.00    -0.352 N 
ATOM     84  H   UNL A   1      30.513  24.457  22.346  1.00  0.00     0.163 HD
BRANCH  83  85
ATOM     85  C   UNL A   1      32.180  25.474  21.750  1.00  0.00     0.151 C 
BRANCH  85  86
ATOM     86  C   UNL A   1      32.369  26.829  22.399  1.00  0.00    -0.026 A 
ATOM     87  C   UNL A   1      33.593  27.256  22.934  1.00  0.00     0.025 A 
ATOM     88  C   UNL A   1      31.282  27.703  22.507  1.00  0.00     0.025 A 
ATOM     89  C   UNL A   1      33.670  28.496  23.549  1.00  0.00     0.111 A 
ATOM     90  C   UNL A   1      31.451  28.920  23.155  1.00  0.00     0.111 A 
ATOM     91  N   UNL A   1      32.623  29.333  23.680  1.00  0.00    -0.265 NA
ENDBRANCH  85  86
ENDBRANCH  83  85
ENDBRANCH  75  81
ENDBRANCH  71  74
ENDBRANCH  69  70
ENDBRANCH   1  69
TORSDOF 16
ENDMDL
MODEL 3
REMARK VINA RESULT:     -11.4      3.069      9.625
REMARK SMILES O=C(NCCCNC(=O)[C@@H]1[C@H](C(=O)NCc2ccncc2)[C@H]2C=C[C@@H]1O2)c1ccc(-c2c3nc(c(-c4ccc(S(=O)(=O)[O-])cc4)c4ccc([nH]4)c(-c4ccc(S(=O)(=O)[O-])cc4)c4nc(c(-c5ccc(S(=O)(=O)[O-])cc5)c5ccc2[nH]5)C=C4)C=C3)cc1
REMARK SMILES IDX 5 1 4 2 3 3 1 4 2 5 27 7 28 8 86 9 29 10 85 11 30 12 31 13
REMARK SMILES IDX 32 14 79 15 33 16 84 17 78 18 80 19 34 20 83 21 77 22 76 23
REMARK SMILES IDX 35 25 65 26 46 27 64 28 47 29 50 30 63 31 81 32 48 33 49 34
REMARK SMILES IDX 62 36 82 37 51 38 36 39 37 40 45 41 38 42 44 43 39 44 40 45
REMARK SMILES IDX 41 46 42 47 43 48 66 49 67 50 75 51 68 52 74 53 69 54 70 55
REMARK SMILES IDX 71 56 72 57 73 58 52 59 53 60 61 61 54 62 60 63 55 64 56 65
REMARK SMILES IDX 57 66 58 67 59 68 6 69 7 70 8 71 9 73 10 74 11 75 25 76
REMARK SMILES IDX 22 77 24 78 26 79 23 80 12 81 13 82 14 83 15 85 16 86 17 87
REMARK SMILES IDX 21 88 18 89 20 90 19 91
REMARK H PARENT 3 6 80 24 50 35 7 72 14 84
REMARK Flexibility Score: inf
ROOT
ATOM      1  C   UNL A   1      35.554  22.846  25.518  1.00  0.00     0.042 C 
ENDROOT
BRANCH   1   2
ATOM      2  C   UNL A   1      36.892  23.511  25.249  1.00  0.00     0.118 C 
BRANCH   2   3
ATOM      3  N   UNL A   1      38.032  22.652  25.535  1.00  0.00    -0.352 N 
ATOM      4  O   UNL A   1      40.002  22.033  26.424  1.00  0.00    -0.269 OA
ATOM      5  C   UNL A   1      39.165  22.907  26.271  1.00  0.00     0.251 C 
ATOM      6  H   UNL A   1      37.985  21.751  25.141  1.00  0.00     0.163 HD
BRANCH   5   7
ATOM      7  C   UNL A   1      39.379  24.270  26.796  1.00  0.00     0.039 A 
ATOM      8  C   UNL A   1      40.079  25.224  26.054  1.00  0.00     0.014 A 
ATOM      9  C   UNL A   1      38.952  24.543  28.097  1.00  0.00     0.014 A 
ATOM     10  C   UNL A   1      40.501  26.394  26.676  1.00  0.00     0.010 A 
ATOM     11  C   UNL A   1      39.317  25.747  28.694  1.00  0.00     0.010 A 
ATOM     12  C   UNL A   1      40.136  26.655  28.006  1.00  0.00    -0.014 A 
BRANCH  12  13
ATOM     13  C   UNL A   1      40.602  27.885  28.683  1.00  0.00     0.031 A 
ATOM     14  C   UNL A   1      41.973  27.944  29.290  1.00  0.00     0.074 A 
ATOM     15  C   UNL A   1      39.760  28.928  28.782  1.00  0.00     0.049 A 
ATOM     16  N   UNL A   1      42.506  28.884  30.028  1.00  0.00    -0.248 NA
ATOM     17  C   UNL A   1      42.859  26.794  29.047  1.00  0.00     0.031 C 
ATOM     18  C   UNL A   1      38.406  28.974  28.225  1.00  0.00     0.029 A 
ATOM     19  N   UNL A   1      39.910  30.139  29.404  1.00  0.00    -0.354 N 
ATOM     20  C   UNL A   1      43.772  28.423  30.372  1.00  0.00     0.074 A 
ATOM     21  C   UNL A   1      43.928  27.120  29.763  1.00  0.00     0.031 C 
ATOM     22  C   UNL A   1      37.847  30.152  28.535  1.00  0.00     0.029 A 
ATOM     23  C   UNL A   1      38.780  30.916  29.356  1.00  0.00     0.049 A 
ATOM     24  H   UNL A   1      40.745  30.423  29.841  1.00  0.00     0.167 HD
ATOM     25  C   UNL A   1      44.713  29.034  31.132  1.00  0.00     0.031 A 
ATOM     26  C   UNL A   1      38.504  32.094  29.944  1.00  0.00     0.031 A 
ATOM     27  C   UNL A   1      44.545  30.333  31.726  1.00  0.00     0.049 A 
ATOM     28  C   UNL A   1      39.553  32.749  30.788  1.00  0.00     0.074 A 
ATOM     29  C   UNL A   1      45.449  31.060  32.482  1.00  0.00     0.029 A 
ATOM     30  N   UNL A   1      43.391  31.098  31.635  1.00  0.00    -0.354 N 
ATOM     31  N   UNL A   1      40.754  32.313  31.084  1.00  0.00    -0.248 NA
ATOM     32  C   UNL A   1      39.215  34.051  31.376  1.00  0.00     0.031 C 
ATOM     33  C   UNL A   1      44.827  32.251  32.877  1.00  0.00     0.029 A 
ATOM     34  C   UNL A   1      43.551  32.281  32.336  1.00  0.00     0.049 A 
ATOM     35  H   UNL A   1      42.579  30.838  31.144  1.00  0.00     0.167 HD
ATOM     36  C   UNL A   1      41.324  33.292  31.888  1.00  0.00     0.074 A 
ATOM     37  C   UNL A   1      40.336  34.347  32.023  1.00  0.00     0.031 C 
ATOM     38  C   UNL A   1      42.551  33.313  32.459  1.00  0.00     0.031 A 
BRANCH  25  39
ATOM     39  C   UNL A   1      45.985  28.274  31.395  1.00  0.00    -0.014 A 
ATOM     40  C   UNL A   1      46.121  27.444  32.523  1.00  0.00     0.010 A 
ATOM     41  C   UNL A   1      47.063  28.394  30.500  1.00  0.00     0.010 A 
ATOM     42  C   UNL A   1      47.331  26.793  32.779  1.00  0.00     0.020 A 
ATOM     43  C   UNL A   1      48.268  27.728  30.742  1.00  0.00     0.020 A 
ATOM     44  C   UNL A   1      48.402  26.952  31.894  1.00  0.00     0.054 A 
BRANCH  44  45
ATOM     45  S   UNL A   1      49.974  26.120  32.257  1.00  0.00     0.124 S 
ATOM     46  O   UNL A   1      50.649  26.181  30.963  1.00  0.00    -0.237 OA
ATOM     47  O   UNL A   1      50.552  26.957  33.305  1.00  0.00    -0.237 OA
ATOM     48  O   UNL A   1      49.566  24.784  32.686  1.00  0.00    -0.744 OA
ENDBRANCH  44  45
ENDBRANCH  25  39
BRANCH  26  49
ATOM     49  C   UNL A   1      37.156  32.682  29.751  1.00  0.00    -0.014 A 
ATOM     50  C   UNL A   1      36.197  32.618  30.775  1.00  0.00     0.010 A 
ATOM     51  C   UNL A   1      36.877  33.432  28.591  1.00  0.00     0.010 A 
ATOM     52  C   UNL A   1      34.991  33.313  30.654  1.00  0.00     0.020 A 
ATOM     53  C   UNL A   1      35.682  34.144  28.477  1.00  0.00     0.020 A 
ATOM     54  C   UNL A   1      34.746  34.082  29.512  1.00  0.00     0.054 A 
BRANCH  54  55
ATOM     55  S   UNL A   1      33.238  35.089  29.435  1.00  0.00     0.124 S 
ATOM     56  O   UNL A   1      33.768  36.397  29.066  1.00  0.00    -0.237 OA
ATOM     57  O   UNL A   1      32.453  34.410  28.405  1.00  0.00    -0.237 OA
ATOM     58  O   UNL A   1      32.692  34.988  30.786  1.00  0.00    -0.744 OA
ENDBRANCH  54  55
ENDBRANCH  26  49
BRANCH  38  59
ATOM     59  C   UNL A   1      42.908  34.524  33.272  1.00  0.00    -0.014 A 
ATOM     60  C   UNL A   1      42.709  34.540  34.662  1.00  0.00     0.010 A 
ATOM     61  C   UNL A   1      43.518  35.625  32.646  1.00  0.00     0.010 A 
ATOM     62  C   UNL A   1      43.109  35.647  35.415  1.00  0.00     0.020 A 
ATOM     63  C   UNL A   1      43.932  36.726  33.398  1.00  0.00     0.020 A 
ATOM     64  C   UNL A   1      43.718  36.732  34.779  1.00  0.00     0.054 A 
BRANCH  64  65
ATOM     65  S   UNL A   1      44.295  38.129  35.783  1.00  0.00     0.124 S 
ATOM     66  O   UNL A   1      43.928  39.271  34.951  1.00  0.00    -0.237 OA
ATOM     67  O   UNL A   1      43.529  37.979  37.018  1.00  0.00    -0.237 OA
ATOM     68  O   UNL A   1      45.729  37.887  35.916  1.00  0.00    -0.744 OA
ENDBRANCH  64  65
ENDBRANCH  38  59
ENDBRANCH  12  13
ENDBRANCH   5   7
ENDBRANCH   2   3
ENDBRANCH   1   2
BRANCH   1  69
ATOM     69  C   UNL A   1      34.424  23.807  25.858  1.00  0.00     0.117 C 
BRANCH  69  70
ATOM     70  N   UNL A   1      34.109  24.746  24.787  1.00  0.00    -0.356 N 
ATOM     71  C   UNL A   1      33.854  26.080  24.751  1.00  0.00     0.227 C 
ATOM     72  H   UNL A   1      34.073  24.322  23.900  1.00  0.00     0.163 HD
ATOM     73  O   UNL A   1      33.838  26.598  23.626  1.00  0.00    -0.275 OA
BRANCH  71  74
ATOM     74  C   UNL A   1      33.572  26.977  25.943  1.00  0.00     0.127 C 
ATOM     75  C   UNL A   1      32.078  27.122  26.334  1.00  0.00     0.127 C 
ATOM     76  C   UNL A   1      33.999  28.439  25.895  1.00  0.00     0.155 C 
ATOM     77  C   UNL A   1      31.850  28.635  26.171  1.00  0.00     0.155 C 
ATOM     78  C   UNL A   1      33.803  29.155  27.204  1.00  0.00     0.004 C 
ATOM     79  O   UNL A   1      32.854  28.980  25.176  1.00  0.00    -0.365 OA
ATOM     80  C   UNL A   1      32.482  29.322  27.350  1.00  0.00     0.004 C 
BRANCH  75  81
ATOM     81  C   UNL A   1      30.932  26.270  25.819  1.00  0.00     0.227 C 
ATOM     82  O   UNL A   1      30.507  25.360  26.546  1.00  0.00    -0.275 OA
ATOM     83  N   UNL A   1      30.237  26.451  24.680  1.00  0.00    -0.352 N 
ATOM     84  H   UNL A   1      29.404  25.928  24.645  1.00  0.00     0.163 HD
BRANCH  83  85
ATOM     85  C   UNL A   1      30.457  27.250  23.500  1.00  0.00     0.151 C 
BRANCH  85  86
ATOM     86  C   UNL A   1      29.403  28.323  23.320  1.00  0.00    -0.026 A 
ATOM     87  C   UNL A   1      29.706  29.690  23.266  1.00  0.00     0.025 A 
ATOM     88  C   UNL A   1      28.055  27.960  23.230  1.00  0.00     0.025 A 
ATOM     89  C   UNL A   1      28.675  30.610  23.142  1.00  0.00     0.111 A 
ATOM     90  C   UNL A   1      27.090  28.953  23.124  1.00  0.00     0.111 A 
ATOM     91  N   UNL A   1      27.373  30.271  23.080  1.00  0.00    -0.265 NA
ENDBRANCH  85  86
ENDBRANCH  83  85
ENDBRANCH  75  81
ENDBRANCH  71  74
ENDBRANCH  69  70
ENDBRANCH   1  69
TORSDOF 16
ENDMDL
