MODEL 1
REMARK VINA RESULT:     -12.0      0.000      0.000
REMARK SMILES C[NH+]1CCN(C(=O)c2ccc3c(c2)N(CC(=O)NCCCNC(=O)c2ccc(-c4c5nc(c(-c6ccc(S(=O)(=O)[O-])cc6)c6ccc([nH]6)c(-c6ccc(S(=O)(=O)[O-])cc6)c6nc(c(-c7ccc(S(=O)(=O)[O-])cc7)c7ccc4[nH]7)C=C6)C=C5)cc2)C(=O)CO3)CC1
REMARK SMILES IDX 20 1 19 2 18 3 16 4 17 5 15 7 14 8 8 9 9 10 13 11 10 12
REMARK SMILES IDX 12 13 11 14 88 15 85 16 87 17 86 18 6 19 1 20 2 21 3 22
REMARK SMILES IDX 90 23 4 25 89 26 5 27 7 28 21 29 22 30 23 31 24 33 25 34
REMARK SMILES IDX 26 35 84 36 27 37 83 38 28 39 29 40 30 41 77 42 31 43 82 44
REMARK SMILES IDX 76 45 78 46 32 47 81 48 75 49 74 50 33 52 63 53 44 54 62 55
REMARK SMILES IDX 45 56 48 57 61 58 79 59 46 60 47 61 60 63 80 64 49 65 34 66
REMARK SMILES IDX 35 67 43 68 36 69 42 70 37 71 38 72 39 73 40 74 41 75 64 76
REMARK SMILES IDX 65 77 73 78 66 79 72 80 67 81 68 82 69 83 70 84 71 85 50 86
REMARK SMILES IDX 51 87 59 88 52 89 58 90 53 91 54 92 55 93 56 94 57 95
REMARK H PARENT 18 6 2 24 22 32 78 51 48 62
REMARK Flexibility Score: inf
ROOT
ATOM      1  C   UNL A   1      34.260  27.758  26.159  1.00  0.00     0.042 C 
ENDROOT
BRANCH   1   2
ATOM      2  C   UNL A   1      33.542  27.219  24.925  1.00  0.00     0.117 C 
BRANCH   2   3
ATOM      3  N   UNL A   1      33.969  27.871  23.702  1.00  0.00    -0.354 N 
ATOM      4  C   UNL A   1      33.659  27.567  22.411  1.00  0.00     0.240 C 
ATOM      5  O   UNL A   1      34.020  28.361  21.536  1.00  0.00    -0.273 OA
ATOM      6  H   UNL A   1      34.567  28.643  23.822  1.00  0.00     0.163 HD
BRANCH   4   7
ATOM      7  C   UNL A   1      32.832  26.328  22.047  1.00  0.00     0.225 C 
BRANCH   7   8
ATOM      8  N   UNL A   1      31.664  26.102  22.899  1.00  0.00    -0.296 N 
ATOM      9  C   UNL A   1      32.453  22.887  24.666  1.00  0.00     0.042 A 
ATOM     10  C   UNL A   1      31.444  22.858  25.628  1.00  0.00     0.018 A 
ATOM     11  C   UNL A   1      32.512  23.923  23.722  1.00  0.00     0.044 A 
ATOM     12  C   UNL A   1      30.513  23.892  25.674  1.00  0.00     0.049 A 
ATOM     13  C   UNL A   1      31.591  24.978  23.772  1.00  0.00     0.087 A 
ATOM     14  C   UNL A   1      30.583  24.937  24.749  1.00  0.00     0.143 A 
ATOM     15  O   UNL A   1      29.657  25.929  24.918  1.00  0.00    -0.482 OA
ATOM     16  C   UNL A   1      30.613  27.009  22.851  1.00  0.00     0.265 C 
ATOM     17  C   UNL A   1      29.423  26.676  23.742  1.00  0.00     0.330 C 
ATOM     18  O   UNL A   1      30.593  27.985  22.101  1.00  0.00    -0.270 OA
BRANCH   9  19
ATOM     19  C   UNL A   1      33.422  21.772  24.625  1.00  0.00     0.254 C 
ATOM     20  C   UNL A   1      38.758  22.668  26.009  1.00  0.00     0.332 C 
ATOM     21  N   UNL A   1      37.378  22.227  26.198  1.00  0.00    -0.334 N 
ATOM     22  C   UNL A   1      37.016  21.201  25.196  1.00  0.00     0.283 C 
ATOM     23  C   UNL A   1      36.452  23.373  26.081  1.00  0.00     0.283 C 
ATOM     24  H   UNL A   1      37.301  21.822  27.131  1.00  0.00     0.347 HD
ATOM     25  C   UNL A   1      35.546  20.748  25.316  1.00  0.00     0.181 C 
ATOM     26  C   UNL A   1      34.984  22.944  26.266  1.00  0.00     0.181 C 
ATOM     27  N   UNL A   1      34.619  21.882  25.320  1.00  0.00    -0.327 N 
ATOM     28  O   UNL A   1      33.101  20.780  23.971  1.00  0.00    -0.269 OA
ENDBRANCH   9  19
ENDBRANCH   7   8
ENDBRANCH   4   7
ENDBRANCH   2   3
ENDBRANCH   1   2
BRANCH   1  29
ATOM     29  C   UNL A   1      33.327  28.216  27.279  1.00  0.00     0.118 C 
BRANCH  29  30
ATOM     30  N   UNL A   1      33.292  29.664  27.429  1.00  0.00    -0.352 N 
ATOM     31  C   UNL A   1      34.231  30.533  27.924  1.00  0.00     0.251 C 
ATOM     32  H   UNL A   1      32.457  30.090  27.126  1.00  0.00     0.163 HD
ATOM     33  O   UNL A   1      33.911  31.705  28.127  1.00  0.00    -0.269 OA
BRANCH  31  34
ATOM     34  C   UNL A   1      35.607  30.083  28.230  1.00  0.00     0.039 A 
ATOM     35  C   UNL A   1      36.564  30.109  27.211  1.00  0.00     0.014 A 
ATOM     36  C   UNL A   1      35.950  29.596  29.493  1.00  0.00     0.014 A 
ATOM     37  C   UNL A   1      37.877  29.709  27.476  1.00  0.00     0.010 A 
ATOM     38  C   UNL A   1      37.275  29.261  29.775  1.00  0.00     0.010 A 
ATOM     39  C   UNL A   1      38.253  29.314  28.769  1.00  0.00    -0.014 A 
BRANCH  39  40
ATOM     40  C   UNL A   1      39.662  28.968  29.092  1.00  0.00     0.031 A 
ATOM     41  C   UNL A   1      40.579  29.996  29.701  1.00  0.00     0.074 A 
ATOM     42  C   UNL A   1      40.136  27.747  28.775  1.00  0.00     0.049 A 
ATOM     43  N   UNL A   1      41.853  29.898  29.984  1.00  0.00    -0.248 NA
ATOM     44  C   UNL A   1      39.994  31.311  30.012  1.00  0.00     0.031 C 
ATOM     45  C   UNL A   1      39.361  26.673  28.147  1.00  0.00     0.029 A 
ATOM     46  N   UNL A   1      41.388  27.203  28.927  1.00  0.00    -0.354 N 
ATOM     47  C   UNL A   1      42.227  31.139  30.487  1.00  0.00     0.074 A 
ATOM     48  C   UNL A   1      41.055  31.987  30.431  1.00  0.00     0.031 C 
ATOM     49  C   UNL A   1      40.147  25.597  27.987  1.00  0.00     0.029 A 
ATOM     50  C   UNL A   1      41.491  25.914  28.460  1.00  0.00     0.049 A 
ATOM     51  H   UNL A   1      42.140  27.691  29.333  1.00  0.00     0.167 HD
ATOM     52  C   UNL A   1      43.431  31.534  30.967  1.00  0.00     0.031 A 
ATOM     53  C   UNL A   1      42.549  25.081  28.406  1.00  0.00     0.031 A 
ATOM     54  C   UNL A   1      44.592  30.685  31.034  1.00  0.00     0.049 A 
ATOM     55  C   UNL A   1      43.878  25.545  28.938  1.00  0.00     0.074 A 
ATOM     56  C   UNL A   1      45.840  30.976  31.556  1.00  0.00     0.029 A 
ATOM     57  N   UNL A   1      44.650  29.382  30.565  1.00  0.00    -0.354 N 
ATOM     58  N   UNL A   1      44.193  26.703  29.468  1.00  0.00    -0.248 NA
ATOM     59  C   UNL A   1      44.989  24.587  28.875  1.00  0.00     0.031 C 
ATOM     60  C   UNL A   1      46.668  29.867  31.356  1.00  0.00     0.029 A 
ATOM     61  C   UNL A   1      45.919  28.863  30.763  1.00  0.00     0.049 A 
ATOM     62  H   UNL A   1      43.900  28.897  30.151  1.00  0.00     0.167 HD
ATOM     63  C   UNL A   1      45.533  26.602  29.826  1.00  0.00     0.074 A 
ATOM     64  C   UNL A   1      45.962  25.266  29.467  1.00  0.00     0.031 C 
ATOM     65  C   UNL A   1      46.334  27.531  30.402  1.00  0.00     0.031 A 
BRANCH  52  66
ATOM     66  C   UNL A   1      43.558  32.954  31.455  1.00  0.00    -0.014 A 
ATOM     67  C   UNL A   1      43.330  33.282  32.804  1.00  0.00     0.010 A 
ATOM     68  C   UNL A   1      43.962  33.965  30.564  1.00  0.00     0.010 A 
ATOM     69  C   UNL A   1      43.465  34.601  33.245  1.00  0.00     0.020 A 
ATOM     70  C   UNL A   1      44.127  35.282  31.008  1.00  0.00     0.020 A 
ATOM     71  C   UNL A   1      43.862  35.593  32.343  1.00  0.00     0.054 A 
BRANCH  71  72
ATOM     72  S   UNL A   1      44.055  37.291  32.950  1.00  0.00     0.124 S 
ATOM     73  O   UNL A   1      43.926  38.067  31.719  1.00  0.00    -0.237 OA
ATOM     74  O   UNL A   1      42.948  37.423  33.892  1.00  0.00    -0.237 OA
ATOM     75  O   UNL A   1      45.387  37.295  33.551  1.00  0.00    -0.744 OA
ENDBRANCH  71  72
ENDBRANCH  52  66
BRANCH  53  76
ATOM     76  C   UNL A   1      42.393  23.717  27.831  1.00  0.00    -0.014 A 
ATOM     77  C   UNL A   1      42.763  23.456  26.500  1.00  0.00     0.010 A 
ATOM     78  C   UNL A   1      41.880  22.667  28.616  1.00  0.00     0.010 A 
ATOM     79  C   UNL A   1      42.602  22.178  25.958  1.00  0.00     0.020 A 
ATOM     80  C   UNL A   1      41.745  21.382  28.085  1.00  0.00     0.020 A 
ATOM     81  C   UNL A   1      42.095  21.148  26.755  1.00  0.00     0.054 A 
BRANCH  81  82
ATOM     82  S   UNL A   1      41.938  19.486  26.044  1.00  0.00     0.124 S 
ATOM     83  O   UNL A   1      42.788  19.581  24.862  1.00  0.00    -0.237 OA
ATOM     84  O   UNL A   1      42.441  18.634  27.119  1.00  0.00    -0.237 OA
ATOM     85  O   UNL A   1      40.507  19.362  25.780  1.00  0.00    -0.744 OA
ENDBRANCH  81  82
ENDBRANCH  53  76
BRANCH  65  86
ATOM     86  C   UNL A   1      47.750  27.130  30.716  1.00  0.00    -0.014 A 
ATOM     87  C   UNL A   1      48.797  27.376  29.812  1.00  0.00     0.010 A 
ATOM     88  C   UNL A   1      48.043  26.542  31.961  1.00  0.00     0.010 A 
ATOM     89  C   UNL A   1      50.108  27.016  30.135  1.00  0.00     0.020 A 
ATOM     90  C   UNL A   1      49.357  26.206  32.298  1.00  0.00     0.020 A 
ATOM     91  C   UNL A   1      50.380  26.434  31.376  1.00  0.00     0.054 A 
BRANCH  91  92
ATOM     92  S   UNL A   1      52.096  26.016  31.790  1.00  0.00     0.124 S 
ATOM     93  O   UNL A   1      51.990  24.603  32.138  1.00  0.00    -0.237 OA
ATOM     94  O   UNL A   1      52.805  26.306  30.546  1.00  0.00    -0.237 OA
ATOM     95  O   UNL A   1      52.412  26.910  32.902  1.00  0.00    -0.744 OA
ENDBRANCH  91  92
ENDBRANCH  65  86
ENDBRANCH  39  40
ENDBRANCH  31  34
ENDBRANCH  29  30
ENDBRANCH   1  29
TORSDOF 15
ENDMDL
MODEL 2
REMARK VINA RESULT:     -11.7      3.000      3.897
REMARK SMILES C[NH+]1CCN(C(=O)c2ccc3c(c2)N(CC(=O)NCCCNC(=O)c2ccc(-c4c5nc(c(-c6ccc(S(=O)(=O)[O-])cc6)c6ccc([nH]6)c(-c6ccc(S(=O)(=O)[O-])cc6)c6nc(c(-c7ccc(S(=O)(=O)[O-])cc7)c7ccc4[nH]7)C=C6)C=C5)cc2)C(=O)CO3)CC1
REMARK SMILES IDX 20 1 19 2 18 3 16 4 17 5 15 7 14 8 8 9 9 10 13 11 10 12
REMARK SMILES IDX 12 13 11 14 88 15 85 16 87 17 86 18 6 19 1 20 2 21 3 22
REMARK SMILES IDX 90 23 4 25 89 26 5 27 7 28 21 29 22 30 23 31 24 33 25 34
REMARK SMILES IDX 26 35 84 36 27 37 83 38 28 39 29 40 30 41 77 42 31 43 82 44
REMARK SMILES IDX 76 45 78 46 32 47 81 48 75 49 74 50 33 52 63 53 44 54 62 55
REMARK SMILES IDX 45 56 48 57 61 58 79 59 46 60 47 61 60 63 80 64 49 65 34 66
REMARK SMILES IDX 35 67 43 68 36 69 42 70 37 71 38 72 39 73 40 74 41 75 64 76
REMARK SMILES IDX 65 77 73 78 66 79 72 80 67 81 68 82 69 83 70 84 71 85 50 86
REMARK SMILES IDX 51 87 59 88 52 89 58 90 53 91 54 92 55 93 56 94 57 95
REMARK H PARENT 18 6 2 24 22 32 78 51 48 62
REMARK Flexibility Score: inf
ROOT
ATOM      1  C   UNL A   1      34.412  32.685  28.461  1.00  0.00     0.042 C 
ENDROOT
BRANCH   1   2
ATOM      2  C   UNL A   1      33.514  31.707  27.709  1.00  0.00     0.117 C 
BRANCH   2   3
ATOM      3  N   UNL A   1      34.160  30.433  27.461  1.00  0.00    -0.354 N 
ATOM      4  C   UNL A   1      33.599  29.221  27.192  1.00  0.00     0.240 C 
ATOM      5  O   UNL A   1      34.356  28.303  26.863  1.00  0.00    -0.273 OA
ATOM      6  H   UNL A   1      35.143  30.446  27.491  1.00  0.00     0.163 HD
BRANCH   4   7
ATOM      7  C   UNL A   1      32.080  29.009  27.221  1.00  0.00     0.225 C 
BRANCH   7   8
ATOM      8  N   UNL A   1      31.489  28.640  25.935  1.00  0.00    -0.296 N 
ATOM      9  C   UNL A   1      31.397  24.891  26.031  1.00  0.00     0.042 A 
ATOM     10  C   UNL A   1      30.608  24.616  24.913  1.00  0.00     0.018 A 
ATOM     11  C   UNL A   1      31.742  26.211  26.355  1.00  0.00     0.044 A 
ATOM     12  C   UNL A   1      30.127  25.669  24.141  1.00  0.00     0.049 A 
ATOM     13  C   UNL A   1      31.247  27.279  25.593  1.00  0.00     0.087 A 
ATOM     14  C   UNL A   1      30.451  26.986  24.474  1.00  0.00     0.143 A 
ATOM     15  O   UNL A   1      29.882  27.945  23.684  1.00  0.00    -0.482 OA
ATOM     16  C   UNL A   1      31.156  29.647  25.037  1.00  0.00     0.265 C 
ATOM     17  C   UNL A   1      30.581  29.173  23.709  1.00  0.00     0.330 C 
ATOM     18  O   UNL A   1      31.363  30.842  25.251  1.00  0.00    -0.270 OA
BRANCH   9  19
ATOM     19  C   UNL A   1      31.909  23.758  26.829  1.00  0.00     0.254 C 
ATOM     20  C   UNL A   1      36.634  21.196  25.308  1.00  0.00     0.332 C 
ATOM     21  N   UNL A   1      35.787  22.106  26.076  1.00  0.00    -0.334 N 
ATOM     22  C   UNL A   1      34.707  21.363  26.761  1.00  0.00     0.283 C 
ATOM     23  C   UNL A   1      35.192  23.127  25.188  1.00  0.00     0.283 C 
ATOM     24  H   UNL A   1      36.371  22.564  26.776  1.00  0.00     0.347 HD
ATOM     25  C   UNL A   1      33.749  22.290  27.536  1.00  0.00     0.181 C 
ATOM     26  C   UNL A   1      34.285  24.101  25.962  1.00  0.00     0.181 C 
ATOM     27  N   UNL A   1      33.239  23.379  26.700  1.00  0.00    -0.327 N 
ATOM     28  O   UNL A   1      31.114  23.208  27.590  1.00  0.00    -0.269 OA
ENDBRANCH   9  19
ENDBRANCH   7   8
ENDBRANCH   4   7
ENDBRANCH   2   3
ENDBRANCH   1   2
BRANCH   1  29
ATOM     29  C   UNL A   1      35.718  32.077  28.969  1.00  0.00     0.118 C 
BRANCH  29  30
ATOM     30  N   UNL A   1      35.601  31.530  30.314  1.00  0.00    -0.352 N 
ATOM     31  C   UNL A   1      36.447  30.715  31.023  1.00  0.00     0.251 C 
ATOM     32  H   UNL A   1      34.778  31.785  30.792  1.00  0.00     0.163 HD
ATOM     33  O   UNL A   1      36.055  30.225  32.082  1.00  0.00    -0.269 OA
BRANCH  31  34
ATOM     34  C   UNL A   1      37.808  30.409  30.530  1.00  0.00     0.039 A 
ATOM     35  C   UNL A   1      38.839  30.247  31.461  1.00  0.00     0.014 A 
ATOM     36  C   UNL A   1      38.087  30.325  29.164  1.00  0.00     0.014 A 
ATOM     37  C   UNL A   1      40.131  29.938  31.025  1.00  0.00     0.010 A 
ATOM     38  C   UNL A   1      39.359  29.950  28.733  1.00  0.00     0.010 A 
ATOM     39  C   UNL A   1      40.395  29.752  29.660  1.00  0.00    -0.014 A 
BRANCH  39  40
ATOM     40  C   UNL A   1      41.741  29.338  29.184  1.00  0.00     0.031 A 
ATOM     41  C   UNL A   1      42.859  30.343  29.088  1.00  0.00     0.074 A 
ATOM     42  C   UNL A   1      41.939  28.069  28.773  1.00  0.00     0.049 A 
ATOM     43  N   UNL A   1      44.075  30.181  28.630  1.00  0.00    -0.248 NA
ATOM     44  C   UNL A   1      42.567  31.711  29.545  1.00  0.00     0.031 C 
ATOM     45  C   UNL A   1      40.928  27.008  28.780  1.00  0.00     0.029 A 
ATOM     46  N   UNL A   1      43.057  27.457  28.261  1.00  0.00    -0.354 N 
ATOM     47  C   UNL A   1      44.685  31.427  28.725  1.00  0.00     0.074 A 
ATOM     48  C   UNL A   1      43.693  32.343  29.245  1.00  0.00     0.031 C 
ATOM     49  C   UNL A   1      41.477  25.874  28.315  1.00  0.00     0.029 A 
ATOM     50  C   UNL A   1      42.862  26.134  27.937  1.00  0.00     0.049 A 
ATOM     51  H   UNL A   1      43.916  27.920  28.138  1.00  0.00     0.167 HD
ATOM     52  C   UNL A   1      45.959  31.773  28.423  1.00  0.00     0.031 A 
ATOM     53  C   UNL A   1      43.698  25.232  27.388  1.00  0.00     0.031 A 
ATOM     54  C   UNL A   1      46.948  30.857  27.918  1.00  0.00     0.049 A 
ATOM     55  C   UNL A   1      45.106  25.644  27.053  1.00  0.00     0.074 A 
ATOM     56  C   UNL A   1      48.281  31.101  27.636  1.00  0.00     0.029 A 
ATOM     57  N   UNL A   1      46.714  29.524  27.619  1.00  0.00    -0.354 N 
ATOM     58  N   UNL A   1      45.681  26.812  27.211  1.00  0.00    -0.248 NA
ATOM     59  C   UNL A   1      45.980  24.612  26.479  1.00  0.00     0.031 C 
ATOM     60  C   UNL A   1      48.841  29.929  27.118  1.00  0.00     0.029 A 
ATOM     61  C   UNL A   1      47.872  28.938  27.133  1.00  0.00     0.049 A 
ATOM     62  H   UNL A   1      45.853  29.062  27.734  1.00  0.00     0.167 HD
ATOM     63  C   UNL A   1      46.993  26.648  26.779  1.00  0.00     0.074 A 
ATOM     64  C   UNL A   1      47.129  25.265  26.369  1.00  0.00     0.031 C 
ATOM     65  C   UNL A   1      47.995  27.560  26.729  1.00  0.00     0.031 A 
BRANCH  52  66
ATOM     66  C   UNL A   1      46.360  33.212  28.625  1.00  0.00    -0.014 A 
ATOM     67  C   UNL A   1      46.943  33.641  29.830  1.00  0.00     0.010 A 
ATOM     68  C   UNL A   1      46.197  34.136  27.577  1.00  0.00     0.010 A 
ATOM     69  C   UNL A   1      47.323  34.976  29.998  1.00  0.00     0.020 A 
ATOM     70  C   UNL A   1      46.601  35.467  27.731  1.00  0.00     0.020 A 
ATOM     71  C   UNL A   1      47.147  35.881  28.947  1.00  0.00     0.054 A 
BRANCH  71  72
ATOM     72  S   UNL A   1      47.673  37.600  29.184  1.00  0.00     0.124 S 
ATOM     73  O   UNL A   1      46.971  38.282  28.099  1.00  0.00    -0.237 OA
ATOM     74  O   UNL A   1      47.191  37.901  30.529  1.00  0.00    -0.237 OA
ATOM     75  O   UNL A   1      49.126  37.541  29.044  1.00  0.00    -0.744 OA
ENDBRANCH  71  72
ENDBRANCH  52  66
BRANCH  53  76
ATOM     76  C   UNL A   1      43.227  23.845  27.124  1.00  0.00    -0.014 A 
ATOM     77  C   UNL A   1      42.873  23.445  25.823  1.00  0.00     0.010 A 
ATOM     78  C   UNL A   1      43.137  22.911  28.173  1.00  0.00     0.010 A 
ATOM     79  C   UNL A   1      42.417  22.147  25.580  1.00  0.00     0.020 A 
ATOM     80  C   UNL A   1      42.709  21.604  27.929  1.00  0.00     0.020 A 
ATOM     81  C   UNL A   1      42.339  21.234  26.635  1.00  0.00     0.054 A 
BRANCH  81  82
ATOM     82  S   UNL A   1      41.788  19.539  26.289  1.00  0.00     0.124 S 
ATOM     83  O   UNL A   1      42.525  19.225  25.069  1.00  0.00    -0.237 OA
ATOM     84  O   UNL A   1      42.211  18.819  27.487  1.00  0.00    -0.237 OA
ATOM     85  O   UNL A   1      40.342  19.677  26.132  1.00  0.00    -0.744 OA
ENDBRANCH  81  82
ENDBRANCH  53  76
BRANCH  65  86
ATOM     86  C   UNL A   1      49.341  27.089  26.247  1.00  0.00    -0.014 A 
ATOM     87  C   UNL A   1      50.181  26.316  27.067  1.00  0.00     0.010 A 
ATOM     88  C   UNL A   1      49.747  27.381  24.932  1.00  0.00     0.010 A 
ATOM     89  C   UNL A   1      51.416  25.869  26.591  1.00  0.00     0.020 A 
ATOM     90  C   UNL A   1      50.969  26.912  24.443  1.00  0.00     0.020 A 
ATOM     91  C   UNL A   1      51.802  26.170  25.281  1.00  0.00     0.054 A 
BRANCH  91  92
ATOM     92  S   UNL A   1      53.390  25.540  24.671  1.00  0.00     0.124 S 
ATOM     93  O   UNL A   1      53.450  24.218  25.288  1.00  0.00    -0.237 OA
ATOM     94  O   UNL A   1      53.204  25.550  23.222  1.00  0.00    -0.237 OA
ATOM     95  O   UNL A   1      54.363  26.508  25.174  1.00  0.00    -0.744 OA
ENDBRANCH  91  92
ENDBRANCH  65  86
ENDBRANCH  39  40
ENDBRANCH  31  34
ENDBRANCH  29  30
ENDBRANCH   1  29
TORSDOF 15
ENDMDL
MODEL 3
REMARK VINA RESULT:     -11.5      4.221     10.084
REMARK SMILES C[NH+]1CCN(C(=O)c2ccc3c(c2)N(CC(=O)NCCCNC(=O)c2ccc(-c4c5nc(c(-c6ccc(S(=O)(=O)[O-])cc6)c6ccc([nH]6)c(-c6ccc(S(=O)(=O)[O-])cc6)c6nc(c(-c7ccc(S(=O)(=O)[O-])cc7)c7ccc4[nH]7)C=C6)C=C5)cc2)C(=O)CO3)CC1
REMARK SMILES IDX 20 1 19 2 18 3 16 4 17 5 15 7 14 8 8 9 9 10 13 11 10 12
REMARK SMILES IDX 12 13 11 14 88 15 85 16 87 17 86 18 6 19 1 20 2 21 3 22
REMARK SMILES IDX 90 23 4 25 89 26 5 27 7 28 21 29 22 30 23 31 24 33 25 34
REMARK SMILES IDX 26 35 84 36 27 37 83 38 28 39 29 40 30 41 77 42 31 43 82 44
REMARK SMILES IDX 76 45 78 46 32 47 81 48 75 49 74 50 33 52 63 53 44 54 62 55
REMARK SMILES IDX 45 56 48 57 61 58 79 59 46 60 47 61 60 63 80 64 49 65 34 66
REMARK SMILES IDX 35 67 43 68 36 69 42 70 37 71 38 72 39 73 40 74 41 75 64 76
REMARK SMILES IDX 65 77 73 78 66 79 72 80 67 81 68 82 69 83 70 84 71 85 50 86
REMARK SMILES IDX 51 87 59 88 52 89 58 90 53 91 54 92 55 93 56 94 57 95
REMARK H PARENT 18 6 2 24 22 32 78 51 48 62
REMARK Flexibility Score: inf
ROOT
ATOM      1  C   UNL A   1      40.642  21.434  26.605  1.00  0.00     0.042 C 
ENDROOT
BRANCH   1   2
ATOM      2  C   UNL A   1      39.248  21.363  25.987  1.00  0.00     0.117 C 
BRANCH   2   3
ATOM      3  N   UNL A   1      38.471  22.564  26.222  1.00  0.00    -0.354 N 
ATOM      4  C   UNL A   1      37.404  23.049  25.528  1.00  0.00     0.240 C 
ATOM      5  O   UNL A   1      36.804  24.016  26.007  1.00  0.00    -0.273 OA
ATOM      6  H   UNL A   1      38.754  23.106  26.993  1.00  0.00     0.163 HD
BRANCH   4   7
ATOM      7  C   UNL A   1      36.909  22.385  24.238  1.00  0.00     0.225 C 
BRANCH   7   8
ATOM      8  N   UNL A   1      35.550  21.849  24.308  1.00  0.00    -0.296 N 
ATOM      9  C   UNL A   1      33.430  24.590  22.870  1.00  0.00     0.042 A 
ATOM     10  C   UNL A   1      32.206  23.934  22.731  1.00  0.00     0.018 A 
ATOM     11  C   UNL A   1      34.532  23.934  23.437  1.00  0.00     0.044 A 
ATOM     12  C   UNL A   1      32.096  22.603  23.122  1.00  0.00     0.049 A 
ATOM     13  C   UNL A   1      34.436  22.588  23.816  1.00  0.00     0.087 A 
ATOM     14  C   UNL A   1      33.199  21.941  23.666  1.00  0.00     0.143 A 
ATOM     15  O   UNL A   1      32.999  20.621  23.964  1.00  0.00    -0.482 OA
ATOM     16  C   UNL A   1      35.353  20.590  24.862  1.00  0.00     0.265 C 
ATOM     17  C   UNL A   1      33.904  20.126  24.929  1.00  0.00     0.330 C 
ATOM     18  O   UNL A   1      36.263  19.906  25.333  1.00  0.00    -0.270 OA
BRANCH   9  19
ATOM     19  C   UNL A   1      33.521  26.008  22.463  1.00  0.00     0.254 C 
ATOM     20  C   UNL A   1      32.081  30.032  26.059  1.00  0.00     0.332 C 
ATOM     21  N   UNL A   1      32.984  29.159  25.312  1.00  0.00    -0.334 N 
ATOM     22  C   UNL A   1      32.802  29.341  23.856  1.00  0.00     0.283 C 
ATOM     23  C   UNL A   1      32.736  27.744  25.662  1.00  0.00     0.283 C 
ATOM     24  H   UNL A   1      33.941  29.407  25.561  1.00  0.00     0.347 HD
ATOM     25  C   UNL A   1      33.691  28.394  23.024  1.00  0.00     0.181 C 
ATOM     26  C   UNL A   1      33.665  26.791  24.887  1.00  0.00     0.181 C 
ATOM     27  N   UNL A   1      33.545  26.997  23.437  1.00  0.00    -0.327 N 
ATOM     28  O   UNL A   1      33.584  26.237  21.256  1.00  0.00    -0.269 OA
ENDBRANCH   9  19
ENDBRANCH   7   8
ENDBRANCH   4   7
ENDBRANCH   2   3
ENDBRANCH   1   2
BRANCH   1  29
ATOM     29  C   UNL A   1      41.068  22.836  27.038  1.00  0.00     0.118 C 
BRANCH  29  30
ATOM     30  N   UNL A   1      41.914  23.498  26.055  1.00  0.00    -0.352 N 
ATOM     31  C   UNL A   1      42.286  24.814  25.939  1.00  0.00     0.251 C 
ATOM     32  H   UNL A   1      42.279  22.905  25.359  1.00  0.00     0.163 HD
ATOM     33  O   UNL A   1      42.863  25.183  24.916  1.00  0.00    -0.269 OA
BRANCH  31  34
ATOM     34  C   UNL A   1      41.993  25.790  27.011  1.00  0.00     0.039 A 
ATOM     35  C   UNL A   1      40.927  25.536  27.880  1.00  0.00     0.014 A 
ATOM     36  C   UNL A   1      42.728  26.972  27.140  1.00  0.00     0.014 A 
ATOM     37  C   UNL A   1      40.641  26.431  28.914  1.00  0.00     0.010 A 
ATOM     38  C   UNL A   1      42.485  27.830  28.213  1.00  0.00     0.010 A 
ATOM     39  C   UNL A   1      41.438  27.569  29.112  1.00  0.00    -0.014 A 
BRANCH  39  40
ATOM     40  C   UNL A   1      41.204  28.487  30.257  1.00  0.00     0.031 A 
ATOM     41  C   UNL A   1      42.025  28.362  31.514  1.00  0.00     0.074 A 
ATOM     42  C   UNL A   1      40.207  29.392  30.192  1.00  0.00     0.049 A 
ATOM     43  N   UNL A   1      41.916  29.025  32.638  1.00  0.00    -0.248 NA
ATOM     44  C   UNL A   1      43.090  27.346  31.517  1.00  0.00     0.031 C 
ATOM     45  C   UNL A   1      39.316  29.588  29.045  1.00  0.00     0.029 A 
ATOM     46  N   UNL A   1      39.767  30.310  31.113  1.00  0.00    -0.354 N 
ATOM     47  C   UNL A   1      42.882  28.496  33.486  1.00  0.00     0.074 A 
ATOM     48  C   UNL A   1      43.540  27.429  32.762  1.00  0.00     0.031 C 
ATOM     49  C   UNL A   1      38.451  30.577  29.324  1.00  0.00     0.029 A 
ATOM     50  C   UNL A   1      38.696  31.057  30.680  1.00  0.00     0.049 A 
ATOM     51  H   UNL A   1      40.180  30.424  31.999  1.00  0.00     0.167 HD
ATOM     52  C   UNL A   1      43.205  28.873  34.747  1.00  0.00     0.031 A 
ATOM     53  C   UNL A   1      37.981  32.012  31.306  1.00  0.00     0.031 A 
ATOM     54  C   UNL A   1      42.558  29.944  35.460  1.00  0.00     0.049 A 
ATOM     55  C   UNL A   1      38.354  32.408  32.709  1.00  0.00     0.074 A 
ATOM     56  C   UNL A   1      42.853  30.438  36.719  1.00  0.00     0.029 A 
ATOM     57  N   UNL A   1      41.489  30.684  34.981  1.00  0.00    -0.354 N 
ATOM     58  N   UNL A   1      39.313  31.937  33.469  1.00  0.00    -0.248 NA
ATOM     59  C   UNL A   1      37.556  33.472  33.332  1.00  0.00     0.031 C 
ATOM     60  C   UNL A   1      41.929  31.443  37.022  1.00  0.00     0.029 A 
ATOM     61  C   UNL A   1      41.096  31.615  35.928  1.00  0.00     0.049 A 
ATOM     62  H   UNL A   1      41.070  30.565  34.098  1.00  0.00     0.167 HD
ATOM     63  C   UNL A   1      39.250  32.667  34.652  1.00  0.00     0.074 A 
ATOM     64  C   UNL A   1      38.169  33.620  34.498  1.00  0.00     0.031 C 
ATOM     65  C   UNL A   1      40.019  32.559  35.763  1.00  0.00     0.031 A 
BRANCH  52  66
ATOM     66  C   UNL A   1      44.307  28.118  35.443  1.00  0.00    -0.014 A 
ATOM     67  C   UNL A   1      44.027  26.992  36.239  1.00  0.00     0.010 A 
ATOM     68  C   UNL A   1      45.646  28.507  35.258  1.00  0.00     0.010 A 
ATOM     69  C   UNL A   1      45.061  26.293  36.867  1.00  0.00     0.020 A 
ATOM     70  C   UNL A   1      46.686  27.794  35.862  1.00  0.00     0.020 A 
ATOM     71  C   UNL A   1      46.385  26.700  36.676  1.00  0.00     0.054 A 
BRANCH  71  72
ATOM     72  S   UNL A   1      47.708  25.758  37.482  1.00  0.00     0.124 S 
ATOM     73  O   UNL A   1      48.398  26.798  38.242  1.00  0.00    -0.237 OA
ATOM     74  O   UNL A   1      46.968  24.785  38.281  1.00  0.00    -0.237 OA
ATOM     75  O   UNL A   1      48.465  25.197  36.365  1.00  0.00    -0.744 OA
ENDBRANCH  71  72
ENDBRANCH  52  66
BRANCH  53  76
ATOM     76  C   UNL A   1      36.842  32.667  30.607  1.00  0.00    -0.014 A 
ATOM     77  C   UNL A   1      37.035  33.859  29.887  1.00  0.00     0.010 A 
ATOM     78  C   UNL A   1      35.557  32.097  30.651  1.00  0.00     0.010 A 
ATOM     79  C   UNL A   1      35.961  34.480  29.244  1.00  0.00     0.020 A 
ATOM     80  C   UNL A   1      34.486  32.700  29.986  1.00  0.00     0.020 A 
ATOM     81  C   UNL A   1      34.693  33.895  29.296  1.00  0.00     0.054 A 
BRANCH  81  82
ATOM     82  S   UNL A   1      33.322  34.694  28.415  1.00  0.00     0.124 S 
ATOM     83  O   UNL A   1      34.023  35.423  27.363  1.00  0.00    -0.237 OA
ATOM     84  O   UNL A   1      32.524  33.554  27.973  1.00  0.00    -0.237 OA
ATOM     85  O   UNL A   1      32.694  35.523  29.442  1.00  0.00    -0.744 OA
ENDBRANCH  81  82
ENDBRANCH  53  76
BRANCH  65  86
ATOM     86  C   UNL A   1      39.747  33.516  36.892  1.00  0.00    -0.014 A 
ATOM     87  C   UNL A   1      38.877  33.179  37.943  1.00  0.00     0.010 A 
ATOM     88  C   UNL A   1      40.416  34.754  36.927  1.00  0.00     0.010 A 
ATOM     89  C   UNL A   1      38.658  34.074  38.993  1.00  0.00     0.020 A 
ATOM     90  C   UNL A   1      40.222  35.640  37.989  1.00  0.00     0.020 A 
ATOM     91  C   UNL A   1      39.332  35.299  39.010  1.00  0.00     0.054 A 
BRANCH  91  92
ATOM     92  S   UNL A   1      39.065  36.425  40.407  1.00  0.00     0.124 S 
ATOM     93  O   UNL A   1      38.606  37.638  39.737  1.00  0.00    -0.237 OA
ATOM     94  O   UNL A   1      38.057  35.723  41.197  1.00  0.00    -0.237 OA
ATOM     95  O   UNL A   1      40.383  36.519  41.032  1.00  0.00    -0.744 OA
ENDBRANCH  91  92
ENDBRANCH  65  86
ENDBRANCH  39  40
ENDBRANCH  31  34
ENDBRANCH  29  30
ENDBRANCH   1  29
TORSDOF 15
ENDMDL
