MODEL 1
REMARK VINA RESULT:      -9.6      0.000      0.000
REMARK SMILES C[C@@H](C(=O)NCCCNC(=O)c1ccc(-c2c3nc(c(-c4ccc(S(=O)(=O)[O-])cc4)c4ccc([nH]4)c(-c4ccc(S(=O)(=O)[O-])cc4)c4nc(c(-c5ccc(S(=O)(=O)[O-])cc5)c5ccc2[nH]5)C=C4)C=C3)cc1)[C@H](C)[N@@H+](C)[C@@H](C)C1CC1
REMARK SMILES IDX 6 1 5 2 3 3 4 4 2 6 1 7 72 8 73 9 74 10 75 11 76 13 77 14
REMARK SMILES IDX 78 15 79 16 80 17 7 18 8 19 9 20 10 21 11 23 12 24 13 25
REMARK SMILES IDX 71 26 14 27 70 28 15 29 16 30 17 31 64 32 18 33 69 34 63 35
REMARK SMILES IDX 65 36 19 37 68 38 62 39 61 40 20 42 50 43 31 44 49 45 32 46
REMARK SMILES IDX 35 47 48 48 66 49 33 50 34 51 47 53 67 54 36 55 21 56 22 57
REMARK SMILES IDX 30 58 23 59 29 60 24 61 25 62 26 63 27 64 28 65 51 66 52 67
REMARK SMILES IDX 60 68 53 69 59 70 54 71 55 72 56 73 57 74 58 75 37 76 38 77
REMARK SMILES IDX 46 78 39 79 45 80 40 81 41 82 42 83 43 84 44 85
REMARK H PARENT 5 5 74 12 9 22 65 41 35 52
REMARK Flexibility Score: inf
ROOT
ATOM      1  C   UNL A   1      31.798  28.606  25.249  1.00  0.00     0.117 C 
ENDROOT
BRANCH   1   2
ATOM      2  N   UNL A   1      31.492  28.707  23.837  1.00  0.00    -0.356 N 
ATOM      3  C   UNL A   1      30.975  27.826  22.944  1.00  0.00     0.228 C 
ATOM      4  O   UNL A   1      30.397  28.363  21.995  1.00  0.00    -0.275 OA
ATOM      5  H   UNL A   1      31.700  29.587  23.448  1.00  0.00     0.163 HD
BRANCH   3   6
ATOM      6  C   UNL A   1      30.996  26.298  23.122  1.00  0.00     0.133 C 
ATOM      7  C   UNL A   1      29.996  25.680  24.098  1.00  0.00     0.024 C 
BRANCH   6   8
ATOM      8  C   UNL A   1      32.469  25.758  23.315  1.00  0.00     0.193 C 
ATOM      9  C   UNL A   1      33.370  26.103  22.108  1.00  0.00     0.076 C 
BRANCH   8  10
ATOM     10  N   UNL A   1      32.818  24.383  23.725  1.00  0.00    -0.332 N 
ATOM     11  C   UNL A   1      33.028  23.490  22.585  1.00  0.00     0.333 C 
ATOM     12  H   UNL A   1      31.938  24.277  24.230  1.00  0.00     0.348 HD
BRANCH  10  13
ATOM     13  C   UNL A   1      33.538  23.984  24.932  1.00  0.00     0.184 C 
ATOM     14  C   UNL A   1      34.937  24.544  25.173  1.00  0.00     0.075 C 
BRANCH  13  15
ATOM     15  C   UNL A   1      32.656  24.133  26.148  1.00  0.00     0.047 C 
ATOM     16  C   UNL A   1      31.478  23.206  26.343  1.00  0.00     0.010 C 
ATOM     17  C   UNL A   1      32.678  23.083  27.237  1.00  0.00     0.010 C 
ENDBRANCH  13  15
ENDBRANCH  10  13
ENDBRANCH   8  10
ENDBRANCH   6   8
ENDBRANCH   3   6
ENDBRANCH   1   2
BRANCH   1  18
ATOM     18  C   UNL A   1      33.220  28.134  25.546  1.00  0.00     0.042 C 
BRANCH  18  19
ATOM     19  C   UNL A   1      33.702  28.349  26.979  1.00  0.00     0.118 C 
BRANCH  19  20
ATOM     20  N   UNL A   1      33.629  29.737  27.409  1.00  0.00    -0.352 N 
ATOM     21  C   UNL A   1      34.507  30.521  28.109  1.00  0.00     0.251 C 
ATOM     22  H   UNL A   1      32.798  30.195  27.148  1.00  0.00     0.163 HD
ATOM     23  O   UNL A   1      34.120  31.626  28.498  1.00  0.00    -0.269 OA
BRANCH  21  24
ATOM     24  C   UNL A   1      35.884  30.079  28.429  1.00  0.00     0.039 A 
ATOM     25  C   UNL A   1      36.852  30.152  27.420  1.00  0.00     0.014 A 
ATOM     26  C   UNL A   1      36.227  29.528  29.668  1.00  0.00     0.014 A 
ATOM     27  C   UNL A   1      38.160  29.730  27.669  1.00  0.00     0.010 A 
ATOM     28  C   UNL A   1      37.552  29.176  29.940  1.00  0.00     0.010 A 
ATOM     29  C   UNL A   1      38.533  29.269  28.942  1.00  0.00    -0.014 A 
BRANCH  29  30
ATOM     30  C   UNL A   1      39.947  28.903  29.228  1.00  0.00     0.031 A 
ATOM     31  C   UNL A   1      40.877  29.869  29.911  1.00  0.00     0.074 A 
ATOM     32  C   UNL A   1      40.403  27.692  28.847  1.00  0.00     0.049 A 
ATOM     33  N   UNL A   1      42.128  29.700  30.264  1.00  0.00    -0.248 NA
ATOM     34  C   UNL A   1      40.344  31.205  30.223  1.00  0.00     0.031 C 
ATOM     35  C   UNL A   1      39.621  26.682  28.128  1.00  0.00     0.029 A 
ATOM     36  N   UNL A   1      41.631  27.102  29.015  1.00  0.00    -0.354 N 
ATOM     37  C   UNL A   1      42.532  30.904  30.830  1.00  0.00     0.074 A 
ATOM     38  C   UNL A   1      41.410  31.812  30.730  1.00  0.00     0.031 C 
ATOM     39  C   UNL A   1      40.375  25.586  27.951  1.00  0.00     0.029 A 
ATOM     40  C   UNL A   1      41.701  25.824  28.514  1.00  0.00     0.049 A 
ATOM     41  H   UNL A   1      42.389  27.551  29.453  1.00  0.00     0.167 HD
ATOM     42  C   UNL A   1      43.720  31.220  31.401  1.00  0.00     0.031 A 
ATOM     43  C   UNL A   1      42.714  24.935  28.509  1.00  0.00     0.031 A 
ATOM     44  C   UNL A   1      44.837  30.317  31.505  1.00  0.00     0.049 A 
ATOM     45  C   UNL A   1      44.017  25.304  29.162  1.00  0.00     0.074 A 
ATOM     46  C   UNL A   1      46.064  30.529  32.110  1.00  0.00     0.029 A 
ATOM     47  N   UNL A   1      44.866  29.029  30.990  1.00  0.00    -0.354 N 
ATOM     48  N   UNL A   1      44.354  26.425  29.753  1.00  0.00    -0.248 NA
ATOM     49  C   UNL A   1      45.070  24.280  29.160  1.00  0.00     0.031 C 
ATOM     50  C   UNL A   1      46.850  29.385  31.923  1.00  0.00     0.029 A 
ATOM     51  C   UNL A   1      46.095  28.443  31.246  1.00  0.00     0.049 A 
ATOM     52  H   UNL A   1      44.121  28.595  30.513  1.00  0.00     0.167 HD
ATOM     53  C   UNL A   1      45.654  26.235  30.206  1.00  0.00     0.074 A 
ATOM     54  C   UNL A   1      46.031  24.884  29.844  1.00  0.00     0.031 C 
ATOM     55  C   UNL A   1      46.464  27.104  30.861  1.00  0.00     0.031 A 
BRANCH  42  56
ATOM     56  C   UNL A   1      43.873  32.612  31.960  1.00  0.00    -0.014 A 
ATOM     57  C   UNL A   1      44.303  33.676  31.146  1.00  0.00     0.010 A 
ATOM     58  C   UNL A   1      43.547  32.869  33.304  1.00  0.00     0.010 A 
ATOM     59  C   UNL A   1      44.446  34.961  31.675  1.00  0.00     0.020 A 
ATOM     60  C   UNL A   1      43.663  34.160  33.831  1.00  0.00     0.020 A 
ATOM     61  C   UNL A   1      44.131  35.194  33.016  1.00  0.00     0.054 A 
BRANCH  61  62
ATOM     62  S   UNL A   1      44.310  36.876  33.674  1.00  0.00     0.124 S 
ATOM     63  O   UNL A   1      44.499  36.622  35.100  1.00  0.00    -0.237 OA
ATOM     64  O   UNL A   1      45.486  37.374  32.963  1.00  0.00    -0.237 OA
ATOM     65  O   UNL A   1      43.051  37.524  33.317  1.00  0.00    -0.744 OA
ENDBRANCH  61  62
ENDBRANCH  42  56
BRANCH  43  66
ATOM     66  C   UNL A   1      42.522  23.598  27.887  1.00  0.00    -0.014 A 
ATOM     67  C   UNL A   1      42.995  23.339  26.589  1.00  0.00     0.010 A 
ATOM     68  C   UNL A   1      41.885  22.569  28.602  1.00  0.00     0.010 A 
ATOM     69  C   UNL A   1      42.822  22.078  26.011  1.00  0.00     0.020 A 
ATOM     70  C   UNL A   1      41.732  21.300  28.038  1.00  0.00     0.020 A 
ATOM     71  C   UNL A   1      42.193  21.065  26.741  1.00  0.00     0.054 A 
BRANCH  71  72
ATOM     72  S   UNL A   1      42.034  19.416  25.998  1.00  0.00     0.124 S 
ATOM     73  O   UNL A   1      42.563  18.557  27.051  1.00  0.00    -0.237 OA
ATOM     74  O   UNL A   1      40.597  19.315  25.756  1.00  0.00    -0.237 OA
ATOM     75  O   UNL A   1      42.854  19.509  24.792  1.00  0.00    -0.744 OA
ENDBRANCH  71  72
ENDBRANCH  43  66
BRANCH  55  76
ATOM     76  C   UNL A   1      47.836  26.609  31.236  1.00  0.00    -0.014 A 
ATOM     77  C   UNL A   1      48.939  26.819  30.389  1.00  0.00     0.010 A 
ATOM     78  C   UNL A   1      48.026  25.933  32.455  1.00  0.00     0.010 A 
ATOM     79  C   UNL A   1      50.198  26.320  30.732  1.00  0.00     0.020 A 
ATOM     80  C   UNL A   1      49.289  25.456  32.814  1.00  0.00     0.020 A 
ATOM     81  C   UNL A   1      50.364  25.633  31.939  1.00  0.00     0.054 A 
BRANCH  81  82
ATOM     82  S   UNL A   1      52.008  25.000  32.369  1.00  0.00     0.124 S 
ATOM     83  O   UNL A   1      51.797  23.556  32.324  1.00  0.00    -0.237 OA
ATOM     84  O   UNL A   1      52.851  25.544  31.306  1.00  0.00    -0.237 OA
ATOM     85  O   UNL A   1      52.255  25.555  33.697  1.00  0.00    -0.744 OA
ENDBRANCH  81  82
ENDBRANCH  55  76
ENDBRANCH  29  30
ENDBRANCH  21  24
ENDBRANCH  19  20
ENDBRANCH  18  19
ENDBRANCH   1  18
TORSDOF 17
ENDMDL
MODEL 2
REMARK VINA RESULT:      -9.3      3.176      3.953
REMARK SMILES C[C@@H](C(=O)NCCCNC(=O)c1ccc(-c2c3nc(c(-c4ccc(S(=O)(=O)[O-])cc4)c4ccc([nH]4)c(-c4ccc(S(=O)(=O)[O-])cc4)c4nc(c(-c5ccc(S(=O)(=O)[O-])cc5)c5ccc2[nH]5)C=C4)C=C3)cc1)[C@H](C)[N@@H+](C)[C@@H](C)C1CC1
REMARK SMILES IDX 6 1 5 2 3 3 4 4 2 6 1 7 72 8 73 9 74 10 75 11 76 13 77 14
REMARK SMILES IDX 78 15 79 16 80 17 7 18 8 19 9 20 10 21 11 23 12 24 13 25
REMARK SMILES IDX 71 26 14 27 70 28 15 29 16 30 17 31 64 32 18 33 69 34 63 35
REMARK SMILES IDX 65 36 19 37 68 38 62 39 61 40 20 42 50 43 31 44 49 45 32 46
REMARK SMILES IDX 35 47 48 48 66 49 33 50 34 51 47 53 67 54 36 55 21 56 22 57
REMARK SMILES IDX 30 58 23 59 29 60 24 61 25 62 26 63 27 64 28 65 51 66 52 67
REMARK SMILES IDX 60 68 53 69 59 70 54 71 55 72 56 73 57 74 58 75 37 76 38 77
REMARK SMILES IDX 46 78 39 79 45 80 40 81 41 82 42 83 43 84 44 85
REMARK H PARENT 5 5 74 12 9 22 65 41 35 52
REMARK Flexibility Score: inf
ROOT
ATOM      1  C   UNL A   1      33.481  30.136  26.725  1.00  0.00     0.117 C 
ENDROOT
BRANCH   1   2
ATOM      2  N   UNL A   1      33.507  29.718  25.339  1.00  0.00    -0.356 N 
ATOM      3  C   UNL A   1      32.731  28.866  24.622  1.00  0.00     0.228 C 
ATOM      4  O   UNL A   1      32.706  29.116  23.413  1.00  0.00    -0.275 OA
ATOM      5  H   UNL A   1      34.227  30.135  24.813  1.00  0.00     0.163 HD
BRANCH   3   6
ATOM      6  C   UNL A   1      31.868  27.752  25.239  1.00  0.00     0.133 C 
ATOM      7  C   UNL A   1      32.460  26.952  26.399  1.00  0.00     0.024 C 
BRANCH   6   8
ATOM      8  C   UNL A   1      31.216  26.842  24.123  1.00  0.00     0.193 C 
ATOM      9  C   UNL A   1      29.689  26.703  24.315  1.00  0.00     0.076 C 
BRANCH   8  10
ATOM     10  N   UNL A   1      31.715  25.511  23.721  1.00  0.00    -0.332 N 
ATOM     11  C   UNL A   1      30.655  24.504  23.662  1.00  0.00     0.333 C 
ATOM     12  H   UNL A   1      32.340  25.468  24.525  1.00  0.00     0.348 HD
BRANCH  10  13
ATOM     13  C   UNL A   1      32.851  25.230  22.846  1.00  0.00     0.184 C 
ATOM     14  C   UNL A   1      33.142  26.180  21.689  1.00  0.00     0.075 C 
BRANCH  13  15
ATOM     15  C   UNL A   1      34.088  24.941  23.661  1.00  0.00     0.047 C 
ATOM     16  C   UNL A   1      34.017  23.979  24.825  1.00  0.00     0.010 C 
ATOM     17  C   UNL A   1      34.755  23.586  23.578  1.00  0.00     0.010 C 
ENDBRANCH  13  15
ENDBRANCH  10  13
ENDBRANCH   8  10
ENDBRANCH   6   8
ENDBRANCH   3   6
ENDBRANCH   1   2
BRANCH   1  18
ATOM     18  C   UNL A   1      34.857  30.458  27.303  1.00  0.00     0.042 C 
BRANCH  18  19
ATOM     19  C   UNL A   1      35.279  29.624  28.512  1.00  0.00     0.118 C 
BRANCH  19  20
ATOM     20  N   UNL A   1      35.507  30.420  29.708  1.00  0.00    -0.352 N 
ATOM     21  C   UNL A   1      36.632  30.630  30.462  1.00  0.00     0.251 C 
ATOM     22  H   UNL A   1      34.708  30.893  30.035  1.00  0.00     0.163 HD
ATOM     23  O   UNL A   1      36.510  31.216  31.541  1.00  0.00    -0.269 OA
BRANCH  21  24
ATOM     24  C   UNL A   1      37.971  30.162  30.036  1.00  0.00     0.039 A 
ATOM     25  C   UNL A   1      38.327  30.317  28.691  1.00  0.00     0.014 A 
ATOM     26  C   UNL A   1      38.850  29.511  30.905  1.00  0.00     0.014 A 
ATOM     27  C   UNL A   1      39.573  29.876  28.238  1.00  0.00     0.010 A 
ATOM     28  C   UNL A   1      40.125  29.137  30.469  1.00  0.00     0.010 A 
ATOM     29  C   UNL A   1      40.498  29.311  29.129  1.00  0.00    -0.014 A 
BRANCH  29  30
ATOM     30  C   UNL A   1      41.856  28.922  28.661  1.00  0.00     0.031 A 
ATOM     31  C   UNL A   1      42.977  29.926  28.603  1.00  0.00     0.074 A 
ATOM     32  C   UNL A   1      42.076  27.652  28.262  1.00  0.00     0.049 A 
ATOM     33  N   UNL A   1      44.226  29.748  28.250  1.00  0.00    -0.248 NA
ATOM     34  C   UNL A   1      42.651  31.314  28.968  1.00  0.00     0.031 C 
ATOM     35  C   UNL A   1      41.064  26.593  28.217  1.00  0.00     0.029 A 
ATOM     36  N   UNL A   1      43.221  27.033  27.825  1.00  0.00    -0.354 N 
ATOM     37  C   UNL A   1      44.832  30.996  28.344  1.00  0.00     0.074 A 
ATOM     38  C   UNL A   1      43.802  31.933  28.739  1.00  0.00     0.031 C 
ATOM     39  C   UNL A   1      41.640  25.450  27.814  1.00  0.00     0.029 A 
ATOM     40  C   UNL A   1      43.053  25.699  27.542  1.00  0.00     0.049 A 
ATOM     41  H   UNL A   1      44.081  27.501  27.724  1.00  0.00     0.167 HD
ATOM     42  C   UNL A   1      46.130  31.330  28.142  1.00  0.00     0.031 A 
ATOM     43  C   UNL A   1      43.933  24.772  27.116  1.00  0.00     0.031 A 
ATOM     44  C   UNL A   1      47.157  30.398  27.754  1.00  0.00     0.049 A 
ATOM     45  C   UNL A   1      45.370  25.163  26.914  1.00  0.00     0.074 A 
ATOM     46  C   UNL A   1      48.510  30.631  27.574  1.00  0.00     0.029 A 
ATOM     47  N   UNL A   1      46.947  29.054  27.482  1.00  0.00    -0.354 N 
ATOM     48  N   UNL A   1      45.936  26.336  27.076  1.00  0.00    -0.248 NA
ATOM     49  C   UNL A   1      46.291  24.101  26.488  1.00  0.00     0.031 C 
ATOM     50  C   UNL A   1      49.109  29.438  27.152  1.00  0.00     0.029 A 
ATOM     51  C   UNL A   1      48.139  28.451  27.117  1.00  0.00     0.049 A 
ATOM     52  H   UNL A   1      46.077  28.596  27.541  1.00  0.00     0.167 HD
ATOM     53  C   UNL A   1      47.281  26.148  26.784  1.00  0.00     0.074 A 
ATOM     54  C   UNL A   1      47.449  24.745  26.463  1.00  0.00     0.031 C 
ATOM     55  C   UNL A   1      48.288  27.057  26.780  1.00  0.00     0.031 A 
BRANCH  42  56
ATOM     56  C   UNL A   1      46.514  32.774  28.339  1.00  0.00    -0.014 A 
ATOM     57  C   UNL A   1      46.966  33.239  29.588  1.00  0.00     0.010 A 
ATOM     58  C   UNL A   1      46.460  33.670  27.257  1.00  0.00     0.010 A 
ATOM     59  C   UNL A   1      47.315  34.581  29.762  1.00  0.00     0.020 A 
ATOM     60  C   UNL A   1      46.834  35.008  27.419  1.00  0.00     0.020 A 
ATOM     61  C   UNL A   1      47.242  35.458  28.677  1.00  0.00     0.054 A 
BRANCH  61  62
ATOM     62  S   UNL A   1      47.716  37.192  28.926  1.00  0.00     0.124 S 
ATOM     63  O   UNL A   1      47.130  37.480  30.232  1.00  0.00    -0.237 OA
ATOM     64  O   UNL A   1      49.177  37.133  28.893  1.00  0.00    -0.237 OA
ATOM     65  O   UNL A   1      47.100  37.886  27.798  1.00  0.00    -0.744 OA
ENDBRANCH  61  62
ENDBRANCH  42  56
BRANCH  43  66
ATOM     66  C   UNL A   1      43.481  23.375  26.880  1.00  0.00    -0.014 A 
ATOM     67  C   UNL A   1      43.564  22.804  25.598  1.00  0.00     0.010 A 
ATOM     68  C   UNL A   1      42.986  22.601  27.945  1.00  0.00     0.010 A 
ATOM     69  C   UNL A   1      43.147  21.487  25.383  1.00  0.00     0.020 A 
ATOM     70  C   UNL A   1      42.592  21.277  27.738  1.00  0.00     0.020 A 
ATOM     71  C   UNL A   1      42.665  20.731  26.456  1.00  0.00     0.054 A 
BRANCH  71  72
ATOM     72  S   UNL A   1      42.189  19.003  26.168  1.00  0.00     0.124 S 
ATOM     73  O   UNL A   1      42.510  18.383  27.448  1.00  0.00    -0.237 OA
ATOM     74  O   UNL A   1      40.766  19.114  25.855  1.00  0.00    -0.237 OA
ATOM     75  O   UNL A   1      43.034  18.601  25.046  1.00  0.00    -0.744 OA
ENDBRANCH  71  72
ENDBRANCH  43  66
BRANCH  55  76
ATOM     76  C   UNL A   1      49.662  26.554  26.425  1.00  0.00    -0.014 A 
ATOM     77  C   UNL A   1      50.161  26.669  25.116  1.00  0.00     0.010 A 
ATOM     78  C   UNL A   1      50.468  25.965  27.417  1.00  0.00     0.010 A 
ATOM     79  C   UNL A   1      51.423  26.162  24.792  1.00  0.00     0.020 A 
ATOM     80  C   UNL A   1      51.741  25.482  27.104  1.00  0.00     0.020 A 
ATOM     81  C   UNL A   1      52.202  25.564  25.788  1.00  0.00     0.054 A 
BRANCH  81  82
ATOM     82  S   UNL A   1      53.839  24.919  25.349  1.00  0.00     0.124 S 
ATOM     83  O   UNL A   1      54.617  25.232  26.544  1.00  0.00    -0.237 OA
ATOM     84  O   UNL A   1      53.577  23.499  25.125  1.00  0.00    -0.237 OA
ATOM     85  O   UNL A   1      54.199  25.676  24.153  1.00  0.00    -0.744 OA
ENDBRANCH  81  82
ENDBRANCH  55  76
ENDBRANCH  29  30
ENDBRANCH  21  24
ENDBRANCH  19  20
ENDBRANCH  18  19
ENDBRANCH   1  18
TORSDOF 17
ENDMDL
MODEL 3
REMARK VINA RESULT:      -9.3      4.546     10.467
REMARK SMILES C[C@@H](C(=O)NCCCNC(=O)c1ccc(-c2c3nc(c(-c4ccc(S(=O)(=O)[O-])cc4)c4ccc([nH]4)c(-c4ccc(S(=O)(=O)[O-])cc4)c4nc(c(-c5ccc(S(=O)(=O)[O-])cc5)c5ccc2[nH]5)C=C4)C=C3)cc1)[C@H](C)[N@@H+](C)[C@@H](C)C1CC1
REMARK SMILES IDX 6 1 5 2 3 3 4 4 2 6 1 7 72 8 73 9 74 10 75 11 76 13 77 14
REMARK SMILES IDX 78 15 79 16 80 17 7 18 8 19 9 20 10 21 11 23 12 24 13 25
REMARK SMILES IDX 71 26 14 27 70 28 15 29 16 30 17 31 64 32 18 33 69 34 63 35
REMARK SMILES IDX 65 36 19 37 68 38 62 39 61 40 20 42 50 43 31 44 49 45 32 46
REMARK SMILES IDX 35 47 48 48 66 49 33 50 34 51 47 53 67 54 36 55 21 56 22 57
REMARK SMILES IDX 30 58 23 59 29 60 24 61 25 62 26 63 27 64 28 65 51 66 52 67
REMARK SMILES IDX 60 68 53 69 59 70 54 71 55 72 56 73 57 74 58 75 37 76 38 77
REMARK SMILES IDX 46 78 39 79 45 80 40 81 41 82 42 83 43 84 44 85
REMARK H PARENT 5 5 74 12 9 22 65 41 35 52
REMARK Flexibility Score: inf
ROOT
ATOM      1  C   UNL A   1      39.463  21.789  26.471  1.00  0.00     0.117 C 
ENDROOT
BRANCH   1   2
ATOM      2  N   UNL A   1      38.680  22.564  25.531  1.00  0.00    -0.356 N 
ATOM      3  C   UNL A   1      37.344  22.667  25.314  1.00  0.00     0.228 C 
ATOM      4  O   UNL A   1      37.005  23.743  24.812  1.00  0.00    -0.275 OA
ATOM      5  H   UNL A   1      39.222  23.127  24.933  1.00  0.00     0.163 HD
BRANCH   3   6
ATOM      6  C   UNL A   1      36.312  21.608  25.739  1.00  0.00     0.133 C 
ATOM      7  C   UNL A   1      36.276  20.295  24.959  1.00  0.00     0.024 C 
BRANCH   6   8
ATOM      8  C   UNL A   1      34.882  22.247  25.951  1.00  0.00     0.193 C 
ATOM      9  C   UNL A   1      34.039  21.446  26.966  1.00  0.00     0.076 C 
BRANCH   8  10
ATOM     10  N   UNL A   1      33.967  22.647  24.862  1.00  0.00    -0.332 N 
ATOM     11  C   UNL A   1      33.069  21.567  24.453  1.00  0.00     0.333 C 
ATOM     12  H   UNL A   1      34.748  22.851  24.239  1.00  0.00     0.348 HD
BRANCH  10  13
ATOM     13  C   UNL A   1      33.439  23.986  24.610  1.00  0.00     0.184 C 
ATOM     14  C   UNL A   1      32.027  24.126  24.049  1.00  0.00     0.075 C 
BRANCH  13  15
ATOM     15  C   UNL A   1      33.659  24.877  25.808  1.00  0.00     0.047 C 
ATOM     16  C   UNL A   1      34.040  26.327  25.609  1.00  0.00     0.010 C 
ATOM     17  C   UNL A   1      32.674  25.980  26.126  1.00  0.00     0.010 C 
ENDBRANCH  13  15
ENDBRANCH  10  13
ENDBRANCH   8  10
ENDBRANCH   6   8
ENDBRANCH   3   6
ENDBRANCH   1   2
BRANCH   1  18
ATOM     18  C   UNL A   1      40.970  21.862  26.234  1.00  0.00     0.042 C 
BRANCH  18  19
ATOM     19  C   UNL A   1      41.671  23.089  26.815  1.00  0.00     0.118 C 
BRANCH  19  20
ATOM     20  N   UNL A   1      42.049  24.066  25.805  1.00  0.00    -0.352 N 
ATOM     21  C   UNL A   1      42.045  25.436  25.817  1.00  0.00     0.251 C 
ATOM     22  H   UNL A   1      42.367  23.671  24.962  1.00  0.00     0.163 HD
ATOM     23  O   UNL A   1      42.251  26.029  24.754  1.00  0.00    -0.269 OA
BRANCH  21  24
ATOM     24  C   UNL A   1      41.782  26.219  27.046  1.00  0.00     0.039 A 
ATOM     25  C   UNL A   1      42.623  27.301  27.333  1.00  0.00     0.014 A 
ATOM     26  C   UNL A   1      40.781  25.870  27.958  1.00  0.00     0.014 A 
ATOM     27  C   UNL A   1      42.426  28.058  28.491  1.00  0.00     0.010 A 
ATOM     28  C   UNL A   1      40.537  26.672  29.077  1.00  0.00     0.010 A 
ATOM     29  C   UNL A   1      41.360  27.772  29.358  1.00  0.00    -0.014 A 
BRANCH  29  30
ATOM     30  C   UNL A   1      41.100  28.634  30.543  1.00  0.00     0.031 A 
ATOM     31  C   UNL A   1      41.941  28.520  31.787  1.00  0.00     0.074 A 
ATOM     32  C   UNL A   1      40.078  29.514  30.505  1.00  0.00     0.049 A 
ATOM     33  N   UNL A   1      41.871  29.215  32.896  1.00  0.00    -0.248 NA
ATOM     34  C   UNL A   1      42.984  27.482  31.798  1.00  0.00     0.031 C 
ATOM     35  C   UNL A   1      39.152  29.686  29.383  1.00  0.00     0.029 A 
ATOM     36  N   UNL A   1      39.651  30.433  31.431  1.00  0.00    -0.354 N 
ATOM     37  C   UNL A   1      42.850  28.696  33.736  1.00  0.00     0.074 A 
ATOM     38  C   UNL A   1      43.468  27.595  33.028  1.00  0.00     0.031 C 
ATOM     39  C   UNL A   1      38.292  30.675  29.670  1.00  0.00     0.029 A 
ATOM     40  C   UNL A   1      38.582  31.186  31.006  1.00  0.00     0.049 A 
ATOM     41  H   UNL A   1      40.069  30.542  32.315  1.00  0.00     0.167 HD
ATOM     42  C   UNL A   1      43.217  29.109  34.974  1.00  0.00     0.031 A 
ATOM     43  C   UNL A   1      37.911  32.182  31.616  1.00  0.00     0.031 A 
ATOM     44  C   UNL A   1      42.606  30.207  35.678  1.00  0.00     0.049 A 
ATOM     45  C   UNL A   1      38.346  32.632  32.982  1.00  0.00     0.074 A 
ATOM     46  C   UNL A   1      42.941  30.732  36.914  1.00  0.00     0.029 A 
ATOM     47  N   UNL A   1      41.531  30.947  35.211  1.00  0.00    -0.354 N 
ATOM     48  N   UNL A   1      39.321  32.172  33.730  1.00  0.00    -0.248 NA
ATOM     49  C   UNL A   1      37.601  33.749  33.579  1.00  0.00     0.031 C 
ATOM     50  C   UNL A   1      42.041  31.762  37.213  1.00  0.00     0.029 A 
ATOM     51  C   UNL A   1      41.177  31.911  36.141  1.00  0.00     0.049 A 
ATOM     52  H   UNL A   1      41.083  30.809  34.344  1.00  0.00     0.167 HD
ATOM     53  C   UNL A   1      39.313  32.952  34.880  1.00  0.00     0.074 A 
ATOM     54  C   UNL A   1      38.256  33.929  34.717  1.00  0.00     0.031 C 
ATOM     55  C   UNL A   1      40.109  32.865  35.975  1.00  0.00     0.031 A 
BRANCH  42  56
ATOM     56  C   UNL A   1      44.340  28.364  35.650  1.00  0.00    -0.014 A 
ATOM     57  C   UNL A   1      44.079  27.246  36.463  1.00  0.00     0.010 A 
ATOM     58  C   UNL A   1      45.673  28.760  35.440  1.00  0.00     0.010 A 
ATOM     59  C   UNL A   1      45.126  26.565  37.090  1.00  0.00     0.020 A 
ATOM     60  C   UNL A   1      46.726  28.064  36.043  1.00  0.00     0.020 A 
ATOM     61  C   UNL A   1      46.444  26.981  36.880  1.00  0.00     0.054 A 
BRANCH  61  62
ATOM     62  S   UNL A   1      47.786  26.070  37.691  1.00  0.00     0.124 S 
ATOM     63  O   UNL A   1      48.458  27.128  38.440  1.00  0.00    -0.237 OA
ATOM     64  O   UNL A   1      47.064  25.090  38.501  1.00  0.00    -0.237 OA
ATOM     65  O   UNL A   1      48.549  25.511  36.579  1.00  0.00    -0.744 OA
ENDBRANCH  61  62
ENDBRANCH  42  56
BRANCH  43  66
ATOM     66  C   UNL A   1      36.770  32.839  30.922  1.00  0.00    -0.014 A 
ATOM     67  C   UNL A   1      35.445  32.545  31.289  1.00  0.00     0.010 A 
ATOM     68  C   UNL A   1      37.007  33.780  29.905  1.00  0.00     0.010 A 
ATOM     69  C   UNL A   1      34.377  33.172  30.641  1.00  0.00     0.020 A 
ATOM     70  C   UNL A   1      35.943  34.428  29.273  1.00  0.00     0.020 A 
ATOM     71  C   UNL A   1      34.633  34.112  29.638  1.00  0.00     0.054 A 
BRANCH  71  72
ATOM     72  S   UNL A   1      33.234  34.961  28.853  1.00  0.00     0.124 S 
ATOM     73  O   UNL A   1      32.716  33.931  27.961  1.00  0.00    -0.237 OA
ATOM     74  O   UNL A   1      32.387  35.297  29.996  1.00  0.00    -0.237 OA
ATOM     75  O   UNL A   1      33.859  36.106  28.196  1.00  0.00    -0.744 OA
ENDBRANCH  71  72
ENDBRANCH  43  66
BRANCH  55  76
ATOM     76  C   UNL A   1      39.869  33.863  37.076  1.00  0.00    -0.014 A 
ATOM     77  C   UNL A   1      40.455  35.141  37.037  1.00  0.00     0.010 A 
ATOM     78  C   UNL A   1      39.038  33.523  38.159  1.00  0.00     0.010 A 
ATOM     79  C   UNL A   1      40.255  36.044  38.084  1.00  0.00     0.020 A 
ATOM     80  C   UNL A   1      38.812  34.433  39.195  1.00  0.00     0.020 A 
ATOM     81  C   UNL A   1      39.440  35.680  39.162  1.00  0.00     0.054 A 
BRANCH  81  82
ATOM     82  S   UNL A   1      39.186  36.869  40.508  1.00  0.00     0.124 S 
ATOM     83  O   UNL A   1      38.395  36.089  41.455  1.00  0.00    -0.237 OA
ATOM     84  O   UNL A   1      40.551  37.173  40.932  1.00  0.00    -0.237 OA
ATOM     85  O   UNL A   1      38.480  37.973  39.864  1.00  0.00    -0.744 OA
ENDBRANCH  81  82
ENDBRANCH  55  76
ENDBRANCH  29  30
ENDBRANCH  21  24
ENDBRANCH  19  20
ENDBRANCH  18  19
ENDBRANCH   1  18
TORSDOF 17
ENDMDL
