MODEL 1
REMARK VINA RESULT:     -10.5      0.000      0.000
REMARK SMILES CC(C)[C@H](NC(=O)OCc1ccccc1)C(=O)NCC(=O)NCCCNC(=O)c1ccc(-c2c3nc(c(-c4ccc(S(=O)(=O)[O-])cc4)c4ccc([nH]4)c(-c4ccc(S(=O)(=O)[O-])cc4)c4nc(c(-c5ccc(S(=O)(=O)[O-])cc5)c5ccc2[nH]5)C=C4)C=C3)cc1
REMARK SMILES IDX 20 1 21 2 22 3 19 5 18 6 16 7 17 8 4 10 2 11 1 12 3 13 5 14
REMARK SMILES IDX 6 15 7 17 8 18 9 19 10 20 11 21 15 22 12 23 14 24 13 25
REMARK SMILES IDX 23 26 24 27 25 28 26 29 27 30 28 32 29 33 30 34 88 35 31 36
REMARK SMILES IDX 87 37 32 38 33 39 34 40 81 41 35 42 86 43 80 44 82 45 36 46
REMARK SMILES IDX 85 47 79 48 78 49 37 51 67 52 48 53 66 54 49 55 52 56 65 57
REMARK SMILES IDX 83 58 50 59 51 60 64 62 84 63 53 64 38 65 39 66 47 67 40 68
REMARK SMILES IDX 46 69 41 70 42 71 43 72 44 73 45 74 68 75 69 76 77 77 70 78
REMARK SMILES IDX 76 79 71 80 72 81 73 82 74 83 75 84 54 85 55 86 63 87 56 88
REMARK SMILES IDX 62 89 57 90 58 91 59 92 60 93 61 94
REMARK H PARENT 22 4 18 9 5 16 26 31 82 50 52 61
REMARK Flexibility Score: inf
ROOT
ATOM      1  C   UNL A   1      33.149  26.419  26.223  1.00  0.00     0.239 C 
ATOM      2  O   UNL A   1      33.587  25.274  26.056  1.00  0.00    -0.273 OA
ATOM      3  N   UNL A   1      34.039  27.442  26.102  1.00  0.00    -0.355 N 
ATOM      4  H   UNL A   1      34.987  27.180  26.155  1.00  0.00     0.163 HD
ENDROOT
BRANCH   1   5
ATOM      5  C   UNL A   1      31.630  26.635  26.387  1.00  0.00     0.216 C 
BRANCH   5   6
ATOM      6  N   UNL A   1      30.743  25.977  25.452  1.00  0.00    -0.345 N 
ATOM      7  C   UNL A   1      30.475  26.193  24.140  1.00  0.00     0.243 C 
ATOM      8  O   UNL A   1      29.640  25.432  23.633  1.00  0.00    -0.273 OA
ATOM      9  H   UNL A   1      30.237  25.229  25.843  1.00  0.00     0.164 HD
BRANCH   7  10
ATOM     10  C   UNL A   1      31.099  27.324  23.270  1.00  0.00     0.177 C 
BRANCH  10  11
ATOM     11  C   UNL A   1      30.335  28.661  23.228  1.00  0.00     0.015 C 
ATOM     12  C   UNL A   1      30.739  29.573  24.392  1.00  0.00     0.010 C 
ATOM     13  C   UNL A   1      30.624  29.390  21.907  1.00  0.00     0.010 C 
ENDBRANCH  10  11
BRANCH  10  14
ATOM     14  N   UNL A   1      31.635  26.828  21.995  1.00  0.00    -0.309 N 
ATOM     15  C   UNL A   1      32.649  25.970  21.713  1.00  0.00     0.408 C 
ATOM     16  H   UNL A   1      31.175  27.184  21.201  1.00  0.00     0.167 HD
ATOM     17  O   UNL A   1      33.122  25.932  20.581  1.00  0.00    -0.225 OA
BRANCH  15  18
ATOM     18  O   UNL A   1      33.096  25.262  22.769  1.00  0.00    -0.445 OA
BRANCH  18  19
ATOM     19  C   UNL A   1      32.894  23.842  22.710  1.00  0.00     0.270 C 
BRANCH  19  20
ATOM     20  C   UNL A   1      33.992  23.079  23.400  1.00  0.00    -0.011 A 
ATOM     21  C   UNL A   1      33.723  21.880  24.072  1.00  0.00     0.007 A 
ATOM     22  C   UNL A   1      35.312  23.548  23.342  1.00  0.00     0.007 A 
ATOM     23  C   UNL A   1      34.759  21.167  24.676  1.00  0.00     0.000 A 
ATOM     24  C   UNL A   1      36.346  22.831  23.939  1.00  0.00     0.000 A 
ATOM     25  C   UNL A   1      36.070  21.640  24.605  1.00  0.00     0.000 A 
ENDBRANCH  19  20
ENDBRANCH  18  19
ENDBRANCH  15  18
ENDBRANCH  10  14
ENDBRANCH   7  10
ENDBRANCH   5   6
ENDBRANCH   1   5
BRANCH   3  26
ATOM     26  C   UNL A   1      33.804  28.855  25.906  1.00  0.00     0.117 C 
BRANCH  26  27
ATOM     27  C   UNL A   1      34.048  29.705  27.134  1.00  0.00     0.042 C 
BRANCH  27  28
ATOM     28  C   UNL A   1      35.384  29.415  27.799  1.00  0.00     0.118 C 
BRANCH  28  29
ATOM     29  N   UNL A   1      35.572  30.145  29.050  1.00  0.00    -0.352 N 
ATOM     30  C   UNL A   1      36.691  30.289  29.835  1.00  0.00     0.251 C 
ATOM     31  H   UNL A   1      34.769  30.607  29.385  1.00  0.00     0.163 HD
ATOM     32  O   UNL A   1      36.602  30.836  30.931  1.00  0.00    -0.269 OA
BRANCH  30  33
ATOM     33  C   UNL A   1      37.992  29.757  29.377  1.00  0.00     0.039 A 
ATOM     34  C   UNL A   1      38.290  29.772  28.012  1.00  0.00     0.014 A 
ATOM     35  C   UNL A   1      38.926  29.270  30.292  1.00  0.00     0.014 A 
ATOM     36  C   UNL A   1      39.560  29.386  27.579  1.00  0.00     0.010 A 
ATOM     37  C   UNL A   1      40.219  28.991  29.873  1.00  0.00     0.010 A 
ATOM     38  C   UNL A   1      40.551  29.043  28.512  1.00  0.00    -0.014 A 
BRANCH  38  39
ATOM     39  C   UNL A   1      41.943  28.740  28.097  1.00  0.00     0.031 A 
ATOM     40  C   UNL A   1      42.322  27.336  27.706  1.00  0.00     0.074 A 
ATOM     41  C   UNL A   1      42.884  29.704  28.162  1.00  0.00     0.049 A 
ATOM     42  N   UNL A   1      43.502  26.853  27.412  1.00  0.00    -0.248 NA
ATOM     43  C   UNL A   1      41.241  26.337  27.679  1.00  0.00     0.031 C 
ATOM     44  C   UNL A   1      42.654  31.089  28.582  1.00  0.00     0.029 A 
ATOM     45  N   UNL A   1      44.227  29.663  27.885  1.00  0.00    -0.354 N 
ATOM     46  C   UNL A   1      43.308  25.493  27.196  1.00  0.00     0.074 A 
ATOM     47  C   UNL A   1      41.911  25.218  27.445  1.00  0.00     0.031 C 
ATOM     48  C   UNL A   1      43.808  31.770  28.505  1.00  0.00     0.029 A 
ATOM     49  C   UNL A   1      44.867  30.865  28.073  1.00  0.00     0.049 A 
ATOM     50  H   UNL A   1      44.689  28.849  27.579  1.00  0.00     0.167 HD
ATOM     51  C   UNL A   1      44.208  24.559  26.805  1.00  0.00     0.031 A 
ATOM     52  C   UNL A   1      46.163  31.201  27.924  1.00  0.00     0.031 A 
ATOM     53  C   UNL A   1      45.591  24.844  26.532  1.00  0.00     0.049 A 
ATOM     54  C   UNL A   1      47.140  30.153  27.466  1.00  0.00     0.074 A 
ATOM     55  C   UNL A   1      46.568  23.985  26.060  1.00  0.00     0.029 A 
ATOM     56  N   UNL A   1      46.192  26.082  26.704  1.00  0.00    -0.354 N 
ATOM     57  N   UNL A   1      46.924  28.888  27.200  1.00  0.00    -0.248 NA
ATOM     58  C   UNL A   1      48.532  30.583  27.279  1.00  0.00     0.031 C 
ATOM     59  C   UNL A   1      47.773  24.695  25.989  1.00  0.00     0.029 A 
ATOM     60  C   UNL A   1      47.533  26.007  26.366  1.00  0.00     0.049 A 
ATOM     61  H   UNL A   1      45.733  26.893  27.019  1.00  0.00     0.167 HD
ATOM     62  C   UNL A   1      48.149  28.373  26.791  1.00  0.00     0.074 A 
ATOM     63  C   UNL A   1      49.096  29.469  26.831  1.00  0.00     0.031 C 
ATOM     64  C   UNL A   1      48.461  27.108  26.416  1.00  0.00     0.031 A 
BRANCH  51  65
ATOM     65  C   UNL A   1      43.718  23.144  26.653  1.00  0.00    -0.014 A 
ATOM     66  C   UNL A   1      43.157  22.448  27.739  1.00  0.00     0.010 A 
ATOM     67  C   UNL A   1      43.798  22.508  25.401  1.00  0.00     0.010 A 
ATOM     68  C   UNL A   1      42.734  21.125  27.590  1.00  0.00     0.020 A 
ATOM     69  C   UNL A   1      43.348  21.194  25.240  1.00  0.00     0.020 A 
ATOM     70  C   UNL A   1      42.836  20.504  26.341  1.00  0.00     0.054 A 
BRANCH  70  71
ATOM     71  S   UNL A   1      42.267  18.790  26.173  1.00  0.00     0.124 S 
ATOM     72  O   UNL A   1      42.384  18.299  27.544  1.00  0.00    -0.237 OA
ATOM     73  O   UNL A   1      40.903  18.951  25.679  1.00  0.00    -0.237 OA
ATOM     74  O   UNL A   1      43.206  18.205  25.219  1.00  0.00    -0.744 OA
ENDBRANCH  70  71
ENDBRANCH  51  65
BRANCH  52  75
ATOM     75  C   UNL A   1      46.601  32.599  28.186  1.00  0.00    -0.014 A 
ATOM     76  C   UNL A   1      46.560  33.561  27.162  1.00  0.00     0.010 A 
ATOM     77  C   UNL A   1      47.032  32.984  29.469  1.00  0.00     0.010 A 
ATOM     78  C   UNL A   1      46.955  34.878  27.411  1.00  0.00     0.020 A 
ATOM     79  C   UNL A   1      47.402  34.306  29.728  1.00  0.00     0.020 A 
ATOM     80  C   UNL A   1      47.371  35.244  28.694  1.00  0.00     0.054 A 
BRANCH  80  81
ATOM     81  S   UNL A   1      47.819  36.974  29.009  1.00  0.00     0.124 S 
ATOM     82  O   UNL A   1      48.673  37.279  27.866  1.00  0.00    -0.237 OA
ATOM     83  O   UNL A   1      46.518  37.641  29.023  1.00  0.00    -0.237 OA
ATOM     84  O   UNL A   1      48.496  36.921  30.303  1.00  0.00    -0.744 OA
ENDBRANCH  80  81
ENDBRANCH  52  75
BRANCH  64  85
ATOM     85  C   UNL A   1      49.880  26.844  25.992  1.00  0.00    -0.014 A 
ATOM     86  C   UNL A   1      50.293  27.057  24.666  1.00  0.00     0.010 A 
ATOM     87  C   UNL A   1      50.825  26.432  26.950  1.00  0.00     0.010 A 
ATOM     88  C   UNL A   1      51.622  26.833  24.297  1.00  0.00     0.020 A 
ATOM     89  C   UNL A   1      52.160  26.234  26.591  1.00  0.00     0.020 A 
ATOM     90  C   UNL A   1      52.546  26.422  25.263  1.00  0.00     0.054 A 
BRANCH  90  91
ATOM     91  S   UNL A   1      54.275  26.182  24.770  1.00  0.00     0.124 S 
ATOM     92  O   UNL A   1      54.971  27.142  25.622  1.00  0.00    -0.237 OA
ATOM     93  O   UNL A   1      54.508  24.776  25.086  1.00  0.00    -0.237 OA
ATOM     94  O   UNL A   1      54.276  26.501  23.343  1.00  0.00    -0.744 OA
ENDBRANCH  90  91
ENDBRANCH  64  85
ENDBRANCH  38  39
ENDBRANCH  30  33
ENDBRANCH  28  29
ENDBRANCH  27  28
ENDBRANCH  26  27
ENDBRANCH   3  26
TORSDOF 20
ENDMDL
MODEL 2
REMARK VINA RESULT:     -10.5      4.645     11.199
REMARK SMILES CC(C)[C@H](NC(=O)OCc1ccccc1)C(=O)NCC(=O)NCCCNC(=O)c1ccc(-c2c3nc(c(-c4ccc(S(=O)(=O)[O-])cc4)c4ccc([nH]4)c(-c4ccc(S(=O)(=O)[O-])cc4)c4nc(c(-c5ccc(S(=O)(=O)[O-])cc5)c5ccc2[nH]5)C=C4)C=C3)cc1
REMARK SMILES IDX 20 1 21 2 22 3 19 5 18 6 16 7 17 8 4 10 2 11 1 12 3 13 5 14
REMARK SMILES IDX 6 15 7 17 8 18 9 19 10 20 11 21 15 22 12 23 14 24 13 25
REMARK SMILES IDX 23 26 24 27 25 28 26 29 27 30 28 32 29 33 30 34 88 35 31 36
REMARK SMILES IDX 87 37 32 38 33 39 34 40 81 41 35 42 86 43 80 44 82 45 36 46
REMARK SMILES IDX 85 47 79 48 78 49 37 51 67 52 48 53 66 54 49 55 52 56 65 57
REMARK SMILES IDX 83 58 50 59 51 60 64 62 84 63 53 64 38 65 39 66 47 67 40 68
REMARK SMILES IDX 46 69 41 70 42 71 43 72 44 73 45 74 68 75 69 76 77 77 70 78
REMARK SMILES IDX 76 79 71 80 72 81 73 82 74 83 75 84 54 85 55 86 63 87 56 88
REMARK SMILES IDX 62 89 57 90 58 91 59 92 60 93 61 94
REMARK H PARENT 22 4 18 9 5 16 26 31 82 50 52 61
REMARK Flexibility Score: inf
ROOT
ATOM      1  C   UNL A   1      37.997  34.558  31.284  1.00  0.00     0.239 C 
ATOM      2  O   UNL A   1      39.001  34.457  30.568  1.00  0.00    -0.273 OA
ATOM      3  N   UNL A   1      36.808  34.194  30.730  1.00  0.00    -0.355 N 
ATOM      4  H   UNL A   1      36.806  34.137  29.747  1.00  0.00     0.163 HD
ENDROOT
BRANCH   1   5
ATOM      5  C   UNL A   1      38.159  34.918  32.776  1.00  0.00     0.216 C 
BRANCH   5   6
ATOM      6  N   UNL A   1      39.271  34.340  33.500  1.00  0.00    -0.345 N 
ATOM      7  C   UNL A   1      39.333  33.496  34.560  1.00  0.00     0.243 C 
ATOM      8  O   UNL A   1      40.473  33.198  34.940  1.00  0.00    -0.273 OA
ATOM      9  H   UNL A   1      40.153  34.612  33.156  1.00  0.00     0.164 HD
BRANCH   7  10
ATOM     10  C   UNL A   1      38.103  32.930  35.329  1.00  0.00     0.177 C 
BRANCH  10  11
ATOM     11  C   UNL A   1      38.359  32.430  36.764  1.00  0.00     0.015 C 
ATOM     12  C   UNL A   1      37.437  33.126  37.771  1.00  0.00     0.010 C 
ATOM     13  C   UNL A   1      38.121  30.914  36.842  1.00  0.00     0.010 C 
ENDBRANCH  10  11
BRANCH  10  14
ATOM     14  N   UNL A   1      37.241  32.095  34.482  1.00  0.00    -0.309 N 
ATOM     15  C   UNL A   1      37.525  31.240  33.465  1.00  0.00     0.408 C 
ATOM     16  H   UNL A   1      36.281  32.170  34.689  1.00  0.00     0.167 HD
ATOM     17  O   UNL A   1      36.636  30.882  32.700  1.00  0.00    -0.225 OA
BRANCH  15  18
ATOM     18  O   UNL A   1      38.828  30.909  33.358  1.00  0.00    -0.445 OA
BRANCH  18  19
ATOM     19  C   UNL A   1      39.114  29.513  33.191  1.00  0.00     0.270 C 
BRANCH  19  20
ATOM     20  C   UNL A   1      40.557  29.188  33.467  1.00  0.00    -0.011 A 
ATOM     21  C   UNL A   1      41.138  28.015  32.970  1.00  0.00     0.007 A 
ATOM     22  C   UNL A   1      41.347  30.085  34.199  1.00  0.00     0.007 A 
ATOM     23  C   UNL A   1      42.486  27.747  33.205  1.00  0.00     0.000 A 
ATOM     24  C   UNL A   1      42.696  29.819  34.426  1.00  0.00     0.000 A 
ATOM     25  C   UNL A   1      43.266  28.650  33.929  1.00  0.00     0.000 A 
ENDBRANCH  19  20
ENDBRANCH  18  19
ENDBRANCH  15  18
ENDBRANCH  10  14
ENDBRANCH   7  10
ENDBRANCH   5   6
ENDBRANCH   1   5
BRANCH   3  26
ATOM     26  C   UNL A   1      35.549  33.877  31.365  1.00  0.00     0.117 C 
BRANCH  26  27
ATOM     27  C   UNL A   1      34.751  32.796  30.667  1.00  0.00     0.042 C 
BRANCH  27  28
ATOM     28  C   UNL A   1      35.015  32.739  29.171  1.00  0.00     0.118 C 
BRANCH  28  29
ATOM     29  N   UNL A   1      34.192  31.750  28.481  1.00  0.00    -0.352 N 
ATOM     30  C   UNL A   1      34.518  30.508  27.990  1.00  0.00     0.251 C 
ATOM     31  H   UNL A   1      33.253  32.015  28.344  1.00  0.00     0.163 HD
ATOM     32  O   UNL A   1      33.703  29.885  27.314  1.00  0.00    -0.269 OA
BRANCH  30  33
ATOM     33  C   UNL A   1      35.857  29.938  28.247  1.00  0.00     0.039 A 
ATOM     34  C   UNL A   1      36.835  30.023  27.253  1.00  0.00     0.014 A 
ATOM     35  C   UNL A   1      36.157  29.346  29.475  1.00  0.00     0.014 A 
ATOM     36  C   UNL A   1      38.136  29.598  27.527  1.00  0.00     0.010 A 
ATOM     37  C   UNL A   1      37.472  29.025  29.782  1.00  0.00     0.010 A 
ATOM     38  C   UNL A   1      38.476  29.145  28.812  1.00  0.00    -0.014 A 
BRANCH  38  39
ATOM     39  C   UNL A   1      39.873  28.796  29.172  1.00  0.00     0.031 A 
ATOM     40  C   UNL A   1      40.760  29.821  29.827  1.00  0.00     0.074 A 
ATOM     41  C   UNL A   1      40.370  27.591  28.827  1.00  0.00     0.049 A 
ATOM     42  N   UNL A   1      42.031  29.741  30.125  1.00  0.00    -0.248 NA
ATOM     43  C   UNL A   1      40.147  31.120  30.154  1.00  0.00     0.031 C 
ATOM     44  C   UNL A   1      39.628  26.532  28.136  1.00  0.00     0.029 A 
ATOM     45  N   UNL A   1      41.622  27.056  29.000  1.00  0.00    -0.354 N 
ATOM     46  C   UNL A   1      42.375  30.985  30.645  1.00  0.00     0.074 A 
ATOM     47  C   UNL A   1      41.194  31.816  30.572  1.00  0.00     0.031 C 
ATOM     48  C   UNL A   1      40.429  25.467  27.972  1.00  0.00     0.029 A 
ATOM     49  C   UNL A   1      41.751  25.780  28.506  1.00  0.00     0.049 A 
ATOM     50  H   UNL A   1      42.358  27.541  29.437  1.00  0.00     0.167 HD
ATOM     51  C   UNL A   1      43.560  31.392  31.157  1.00  0.00     0.031 A 
ATOM     52  C   UNL A   1      42.814  24.954  28.477  1.00  0.00     0.031 A 
ATOM     53  C   UNL A   1      44.723  30.551  31.252  1.00  0.00     0.049 A 
ATOM     54  C   UNL A   1      44.115  25.419  29.072  1.00  0.00     0.074 A 
ATOM     55  C   UNL A   1      45.951  30.844  31.821  1.00  0.00     0.029 A 
ATOM     56  N   UNL A   1      44.802  29.254  30.770  1.00  0.00    -0.354 N 
ATOM     57  N   UNL A   1      44.400  26.575  29.622  1.00  0.00    -0.248 NA
ATOM     58  C   UNL A   1      45.231  24.465  29.053  1.00  0.00     0.031 C 
ATOM     59  C   UNL A   1      46.787  29.736  31.642  1.00  0.00     0.029 A 
ATOM     60  C   UNL A   1      46.064  28.737  31.010  1.00  0.00     0.049 A 
ATOM     61  H   UNL A   1      44.069  28.772  30.324  1.00  0.00     0.167 HD
ATOM     62  C   UNL A   1      45.724  26.479  30.036  1.00  0.00     0.074 A 
ATOM     63  C   UNL A   1      46.176  25.149  29.685  1.00  0.00     0.031 C 
ATOM     64  C   UNL A   1      46.496  27.410  30.650  1.00  0.00     0.031 A 
BRANCH  51  65
ATOM     65  C   UNL A   1      43.652  32.812  31.650  1.00  0.00    -0.014 A 
ATOM     66  C   UNL A   1      43.684  33.103  33.026  1.00  0.00     0.010 A 
ATOM     67  C   UNL A   1      43.728  33.869  30.726  1.00  0.00     0.010 A 
ATOM     68  C   UNL A   1      43.738  34.427  33.469  1.00  0.00     0.020 A 
ATOM     69  C   UNL A   1      43.814  35.194  31.165  1.00  0.00     0.020 A 
ATOM     70  C   UNL A   1      43.798  35.465  32.534  1.00  0.00     0.054 A 
BRANCH  70  71
ATOM     71  S   UNL A   1      43.881  37.174  33.137  1.00  0.00     0.124 S 
ATOM     72  O   UNL A   1      42.648  37.279  33.914  1.00  0.00    -0.237 OA
ATOM     73  O   UNL A   1      45.115  37.180  33.918  1.00  0.00    -0.237 OA
ATOM     74  O   UNL A   1      43.918  37.972  31.914  1.00  0.00    -0.744 OA
ENDBRANCH  70  71
ENDBRANCH  51  65
BRANCH  52  75
ATOM     75  C   UNL A   1      42.683  23.595  27.885  1.00  0.00    -0.014 A 
ATOM     76  C   UNL A   1      41.954  22.596  28.554  1.00  0.00     0.010 A 
ATOM     77  C   UNL A   1      43.258  23.302  26.634  1.00  0.00     0.010 A 
ATOM     78  C   UNL A   1      41.815  21.324  27.991  1.00  0.00     0.020 A 
ATOM     79  C   UNL A   1      43.098  22.039  26.057  1.00  0.00     0.020 A 
ATOM     80  C   UNL A   1      42.385  21.054  26.744  1.00  0.00     0.054 A 
BRANCH  80  81
ATOM     81  S   UNL A   1      42.138  19.415  26.005  1.00  0.00     0.124 S 
ATOM     82  O   UNL A   1      42.950  19.502  24.796  1.00  0.00    -0.237 OA
ATOM     83  O   UNL A   1      42.642  18.520  27.044  1.00  0.00    -0.237 OA
ATOM     84  O   UNL A   1      40.694  19.353  25.787  1.00  0.00    -0.744 OA
ENDBRANCH  80  81
ENDBRANCH  52  75
BRANCH  64  85
ATOM     85  C   UNL A   1      47.902  27.013  31.009  1.00  0.00    -0.014 A 
ATOM     86  C   UNL A   1      48.965  27.214  30.111  1.00  0.00     0.010 A 
ATOM     87  C   UNL A   1      48.169  26.484  32.285  1.00  0.00     0.010 A 
ATOM     88  C   UNL A   1      50.268  26.865  30.473  1.00  0.00     0.020 A 
ATOM     89  C   UNL A   1      49.475  26.160  32.660  1.00  0.00     0.020 A 
ATOM     90  C   UNL A   1      50.514  26.339  31.746  1.00  0.00     0.054 A 
BRANCH  90  91
ATOM     91  S   UNL A   1      52.221  25.935  32.209  1.00  0.00     0.124 S 
ATOM     92  O   UNL A   1      52.205  24.476  32.187  1.00  0.00    -0.237 OA
ATOM     93  O   UNL A   1      53.000  26.572  31.151  1.00  0.00    -0.237 OA
ATOM     94  O   UNL A   1      52.371  26.537  33.532  1.00  0.00    -0.744 OA
ENDBRANCH  90  91
ENDBRANCH  64  85
ENDBRANCH  38  39
ENDBRANCH  30  33
ENDBRANCH  28  29
ENDBRANCH  27  28
ENDBRANCH  26  27
ENDBRANCH   3  26
TORSDOF 20
ENDMDL
MODEL 3
REMARK VINA RESULT:     -10.5      6.539     12.096
REMARK SMILES CC(C)[C@H](NC(=O)OCc1ccccc1)C(=O)NCC(=O)NCCCNC(=O)c1ccc(-c2c3nc(c(-c4ccc(S(=O)(=O)[O-])cc4)c4ccc([nH]4)c(-c4ccc(S(=O)(=O)[O-])cc4)c4nc(c(-c5ccc(S(=O)(=O)[O-])cc5)c5ccc2[nH]5)C=C4)C=C3)cc1
REMARK SMILES IDX 20 1 21 2 22 3 19 5 18 6 16 7 17 8 4 10 2 11 1 12 3 13 5 14
REMARK SMILES IDX 6 15 7 17 8 18 9 19 10 20 11 21 15 22 12 23 14 24 13 25
REMARK SMILES IDX 23 26 24 27 25 28 26 29 27 30 28 32 29 33 30 34 88 35 31 36
REMARK SMILES IDX 87 37 32 38 33 39 34 40 81 41 35 42 86 43 80 44 82 45 36 46
REMARK SMILES IDX 85 47 79 48 78 49 37 51 67 52 48 53 66 54 49 55 52 56 65 57
REMARK SMILES IDX 83 58 50 59 51 60 64 62 84 63 53 64 38 65 39 66 47 67 40 68
REMARK SMILES IDX 46 69 41 70 42 71 43 72 44 73 45 74 68 75 69 76 77 77 70 78
REMARK SMILES IDX 76 79 71 80 72 81 73 82 74 83 75 84 54 85 55 86 63 87 56 88
REMARK SMILES IDX 62 89 57 90 58 91 59 92 60 93 61 94
REMARK H PARENT 22 4 18 9 5 16 26 31 82 50 52 61
REMARK Flexibility Score: inf
ROOT
ATOM      1  C   UNL A   1      37.328  22.898  25.344  1.00  0.00     0.239 C 
ATOM      2  O   UNL A   1      36.662  23.910  25.090  1.00  0.00    -0.273 OA
ATOM      3  N   UNL A   1      38.658  23.080  25.575  1.00  0.00    -0.355 N 
ATOM      4  H   UNL A   1      39.022  23.941  25.266  1.00  0.00     0.163 HD
ENDROOT
BRANCH   1   5
ATOM      5  C   UNL A   1      36.612  21.547  25.549  1.00  0.00     0.216 C 
BRANCH   5   6
ATOM      6  N   UNL A   1      35.618  21.454  26.596  1.00  0.00    -0.345 N 
ATOM      7  C   UNL A   1      34.262  21.410  26.569  1.00  0.00     0.243 C 
ATOM      8  O   UNL A   1      33.708  21.334  27.673  1.00  0.00    -0.273 OA
ATOM      9  H   UNL A   1      35.999  21.415  27.503  1.00  0.00     0.164 HD
BRANCH   7  10
ATOM     10  C   UNL A   1      33.388  21.488  25.283  1.00  0.00     0.177 C 
BRANCH  10  11
ATOM     11  C   UNL A   1      32.914  20.148  24.690  1.00  0.00     0.015 C 
ATOM     12  C   UNL A   1      32.360  20.328  23.272  1.00  0.00     0.010 C 
ATOM     13  C   UNL A   1      34.085  19.153  24.639  1.00  0.00     0.010 C 
ENDBRANCH  10  11
BRANCH  10  14
ATOM     14  N   UNL A   1      33.868  22.500  24.332  1.00  0.00    -0.309 N 
ATOM     15  C   UNL A   1      33.575  23.819  24.189  1.00  0.00     0.408 C 
ATOM     16  H   UNL A   1      34.520  22.159  23.679  1.00  0.00     0.167 HD
ATOM     17  O   UNL A   1      33.856  24.399  23.146  1.00  0.00    -0.225 OA
BRANCH  15  18
ATOM     18  O   UNL A   1      32.916  24.363  25.232  1.00  0.00    -0.445 OA
BRANCH  18  19
ATOM     19  C   UNL A   1      32.062  25.476  24.929  1.00  0.00     0.270 C 
BRANCH  19  20
ATOM     20  C   UNL A   1      32.380  26.685  25.767  1.00  0.00    -0.011 A 
ATOM     21  C   UNL A   1      31.421  27.237  26.626  1.00  0.00     0.007 A 
ATOM     22  C   UNL A   1      33.662  27.250  25.721  1.00  0.00     0.007 A 
ATOM     23  C   UNL A   1      31.744  28.337  27.422  1.00  0.00     0.000 A 
ATOM     24  C   UNL A   1      33.985  28.343  26.522  1.00  0.00     0.000 A 
ATOM     25  C   UNL A   1      33.026  28.886  27.373  1.00  0.00     0.000 A 
ENDBRANCH  19  20
ENDBRANCH  18  19
ENDBRANCH  15  18
ENDBRANCH  10  14
ENDBRANCH   7  10
ENDBRANCH   5   6
ENDBRANCH   1   5
BRANCH   3  26
ATOM     26  C   UNL A   1      39.616  22.202  26.207  1.00  0.00     0.117 C 
BRANCH  26  27
ATOM     27  C   UNL A   1      40.075  22.660  27.576  1.00  0.00     0.042 C 
BRANCH  27  28
ATOM     28  C   UNL A   1      41.386  23.427  27.535  1.00  0.00     0.118 C 
BRANCH  28  29
ATOM     29  N   UNL A   1      41.564  24.193  26.305  1.00  0.00    -0.352 N 
ATOM     30  C   UNL A   1      41.384  25.534  26.059  1.00  0.00     0.251 C 
ATOM     31  H   UNL A   1      41.860  23.666  25.528  1.00  0.00     0.163 HD
ATOM     32  O   UNL A   1      41.457  25.958  24.908  1.00  0.00    -0.269 OA
BRANCH  30  33
ATOM     33  C   UNL A   1      41.070  26.456  27.170  1.00  0.00     0.039 A 
ATOM     34  C   UNL A   1      40.075  26.104  28.085  1.00  0.00     0.014 A 
ATOM     35  C   UNL A   1      41.774  27.651  27.326  1.00  0.00     0.014 A 
ATOM     36  C   UNL A   1      39.853  26.907  29.206  1.00  0.00     0.010 A 
ATOM     37  C   UNL A   1      41.628  28.389  28.493  1.00  0.00     0.010 A 
ATOM     38  C   UNL A   1      40.665  28.027  29.445  1.00  0.00    -0.014 A 
BRANCH  38  39
ATOM     39  C   UNL A   1      40.535  28.836  30.682  1.00  0.00     0.031 A 
ATOM     40  C   UNL A   1      39.490  29.916  30.769  1.00  0.00     0.074 A 
ATOM     41  C   UNL A   1      41.416  28.662  31.689  1.00  0.00     0.049 A 
ATOM     42  N   UNL A   1      39.286  30.792  31.719  1.00  0.00    -0.248 NA
ATOM     43  C   UNL A   1      38.580  30.055  29.619  1.00  0.00     0.031 C 
ATOM     44  C   UNL A   1      42.511  27.688  31.701  1.00  0.00     0.029 A 
ATOM     45  N   UNL A   1      41.536  29.308  32.894  1.00  0.00    -0.354 N 
ATOM     46  C   UNL A   1      38.249  31.601  31.269  1.00  0.00     0.074 A 
ATOM     47  C   UNL A   1      37.901  31.147  29.941  1.00  0.00     0.031 C 
ATOM     48  C   UNL A   1      43.170  27.780  32.867  1.00  0.00     0.029 A 
ATOM     49  C   UNL A   1      42.575  28.846  33.667  1.00  0.00     0.049 A 
ATOM     50  H   UNL A   1      40.935  30.033  33.178  1.00  0.00     0.167 HD
ATOM     51  C   UNL A   1      37.626  32.617  31.912  1.00  0.00     0.031 A 
ATOM     52  C   UNL A   1      43.007  29.239  34.880  1.00  0.00     0.031 A 
ATOM     53  C   UNL A   1      37.957  33.045  33.244  1.00  0.00     0.049 A 
ATOM     54  C   UNL A   1      42.285  30.354  35.585  1.00  0.00     0.074 A 
ATOM     55  C   UNL A   1      37.338  34.016  34.014  1.00  0.00     0.029 A 
ATOM     56  N   UNL A   1      38.994  32.530  34.005  1.00  0.00    -0.354 N 
ATOM     57  N   UNL A   1      41.261  31.061  35.172  1.00  0.00    -0.248 NA
ATOM     58  C   UNL A   1      42.771  30.716  36.923  1.00  0.00     0.031 C 
ATOM     59  C   UNL A   1      38.032  34.117  35.225  1.00  0.00     0.029 A 
ATOM     60  C   UNL A   1      39.048  33.174  35.230  1.00  0.00     0.049 A 
ATOM     61  H   UNL A   1      39.602  31.811  33.718  1.00  0.00     0.167 HD
ATOM     62  C   UNL A   1      40.964  31.937  36.209  1.00  0.00     0.074 A 
ATOM     63  C   UNL A   1      41.907  31.660  37.273  1.00  0.00     0.031 C 
ATOM     64  C   UNL A   1      39.997  32.886  36.275  1.00  0.00     0.031 A 
BRANCH  51  65
ATOM     65  C   UNL A   1      36.524  33.331  31.176  1.00  0.00    -0.014 A 
ATOM     66  C   UNL A   1      35.201  33.320  31.656  1.00  0.00     0.010 A 
ATOM     67  C   UNL A   1      36.816  34.041  29.997  1.00  0.00     0.010 A 
ATOM     68  C   UNL A   1      34.184  33.963  30.946  1.00  0.00     0.020 A 
ATOM     69  C   UNL A   1      35.806  34.711  29.299  1.00  0.00     0.020 A 
ATOM     70  C   UNL A   1      34.493  34.650  29.769  1.00  0.00     0.054 A 
BRANCH  70  71
ATOM     71  S   UNL A   1      33.155  35.486  28.873  1.00  0.00     0.124 S 
ATOM     72  O   UNL A   1      32.498  34.367  28.201  1.00  0.00    -0.237 OA
ATOM     73  O   UNL A   1      32.387  36.108  29.949  1.00  0.00    -0.237 OA
ATOM     74  O   UNL A   1      33.855  36.418  27.993  1.00  0.00    -0.744 OA
ENDBRANCH  70  71
ENDBRANCH  51  65
BRANCH  52  75
ATOM     75  C   UNL A   1      44.167  28.553  35.512  1.00  0.00    -0.014 A 
ATOM     76  C   UNL A   1      45.458  29.099  35.409  1.00  0.00     0.010 A 
ATOM     77  C   UNL A   1      43.982  27.368  36.248  1.00  0.00     0.010 A 
ATOM     78  C   UNL A   1      46.546  28.466  36.018  1.00  0.00     0.020 A 
ATOM     79  C   UNL A   1      45.063  26.746  36.878  1.00  0.00     0.020 A 
ATOM     80  C   UNL A   1      46.341  27.294  36.751  1.00  0.00     0.054 A 
BRANCH  80  81
ATOM     81  S   UNL A   1      47.758  26.524  37.584  1.00  0.00     0.124 S 
ATOM     82  O   UNL A   1      47.137  25.952  38.773  1.00  0.00    -0.237 OA
ATOM     83  O   UNL A   1      48.226  25.562  36.587  1.00  0.00    -0.237 OA
ATOM     84  O   UNL A   1      48.663  27.646  37.826  1.00  0.00    -0.744 OA
ENDBRANCH  80  81
ENDBRANCH  52  75
BRANCH  64  85
ATOM     85  C   UNL A   1      39.891  33.677  37.550  1.00  0.00    -0.014 A 
ATOM     86  C   UNL A   1      39.035  33.271  38.588  1.00  0.00     0.010 A 
ATOM     87  C   UNL A   1      40.704  34.811  37.732  1.00  0.00     0.010 A 
ATOM     88  C   UNL A   1      38.972  34.002  39.777  1.00  0.00     0.020 A 
ATOM     89  C   UNL A   1      40.664  35.529  38.929  1.00  0.00     0.020 A 
ATOM     90  C   UNL A   1      39.787  35.127  39.939  1.00  0.00     0.054 A 
BRANCH  90  91
ATOM     91  S   UNL A   1      39.720  36.035  41.508  1.00  0.00     0.124 S 
ATOM     92  O   UNL A   1      38.366  35.745  41.969  1.00  0.00    -0.237 OA
ATOM     93  O   UNL A   1      40.794  35.418  42.282  1.00  0.00    -0.237 OA
ATOM     94  O   UNL A   1      39.962  37.422  41.116  1.00  0.00    -0.744 OA
ENDBRANCH  90  91
ENDBRANCH  64  85
ENDBRANCH  38  39
ENDBRANCH  30  33
ENDBRANCH  28  29
ENDBRANCH  27  28
ENDBRANCH  26  27
ENDBRANCH   3  26
TORSDOF 20
ENDMDL
