MODEL 1
REMARK VINA RESULT:     -11.8      0.000      0.000
REMARK SMILES Cn1cc(S(=O)(=O)N2CCC(C(=O)NCCCNC(=O)c3ccc(-c4c5nc(c(-c6ccc(S(=O)(=O)[O-])cc6)c6ccc([nH]6)c(-c6ccc(S(=O)(=O)[O-])cc6)c6nc(c(-c7ccc(S(=O)(=O)[O-])cc7)c7ccc4[nH]7)C=C6)C=C5)cc3)CC2)cc1C(=O)N1CCCCC1
REMARK SMILES IDX 16 1 15 2 14 3 12 4 13 5 11 7 8 8 9 9 82 10 10 11 81 12 5 13
REMARK SMILES IDX 6 14 7 15 4 16 1 17 2 18 3 19 84 20 83 21 85 22 86 23 87 24
REMARK SMILES IDX 88 25 92 26 89 27 91 28 90 29 17 30 18 31 19 32 20 34 21 35
REMARK SMILES IDX 22 36 80 37 23 38 79 39 24 40 25 41 26 42 73 43 27 44 78 45
REMARK SMILES IDX 72 46 74 47 28 48 77 49 71 50 70 51 29 53 59 54 40 55 58 56
REMARK SMILES IDX 41 57 44 58 57 59 75 60 42 61 43 62 56 64 76 65 45 66 30 67
REMARK SMILES IDX 31 68 39 69 32 70 38 71 33 72 34 73 35 74 36 75 37 76 60 77
REMARK SMILES IDX 61 78 69 79 62 80 68 81 63 82 64 83 65 84 66 85 67 86 46 87
REMARK SMILES IDX 47 88 55 89 48 90 54 91 49 92 50 93 51 94 52 95 53 96
REMARK H PARENT 14 6 18 33 74 52 44 63
REMARK Flexibility Score: inf
ROOT
ATOM      1  C   UNL A   1      38.976  23.703  26.879  1.00  0.00     0.042 C 
ENDROOT
BRANCH   1   2
ATOM      2  C   UNL A   1      38.425  23.426  25.488  1.00  0.00     0.117 C 
BRANCH   2   3
ATOM      3  N   UNL A   1      37.971  22.051  25.340  1.00  0.00    -0.356 N 
ATOM      4  C   UNL A   1      36.738  21.524  25.131  1.00  0.00     0.223 C 
ATOM      5  O   UNL A   1      36.645  20.296  25.059  1.00  0.00    -0.275 OA
ATOM      6  H   UNL A   1      38.690  21.381  25.403  1.00  0.00     0.163 HD
BRANCH   4   7
ATOM      7  C   UNL A   1      35.507  22.393  24.949  1.00  0.00     0.081 C 
ATOM      8  N   UNL A   1      32.866  23.278  25.649  1.00  0.00    -0.198 NA
ATOM      9  C   UNL A   1      33.053  22.499  24.399  1.00  0.00     0.103 C 
ATOM     10  C   UNL A   1      34.016  24.126  26.028  1.00  0.00     0.103 C 
ATOM     11  C   UNL A   1      34.272  21.598  24.526  1.00  0.00     0.030 C 
ATOM     12  C   UNL A   1      35.277  23.290  26.166  1.00  0.00     0.030 C 
BRANCH   8  13
ATOM     13  S   UNL A   1      31.333  24.007  25.832  1.00  0.00     0.244 S 
ATOM     14  O   UNL A   1      31.047  24.144  27.246  1.00  0.00    -0.207 OA
ATOM     15  O   UNL A   1      30.408  23.369  24.923  1.00  0.00    -0.207 OA
BRANCH  13  16
ATOM     16  C   UNL A   1      31.382  25.647  25.271  1.00  0.00     0.101 A 
ATOM     17  C   UNL A   1      32.054  28.097  22.713  1.00  0.00     0.150 C 
ATOM     18  N   UNL A   1      31.678  27.398  23.923  1.00  0.00    -0.345 N 
ATOM     19  C   UNL A   1      31.492  26.037  23.953  1.00  0.00     0.107 A 
ATOM     20  C   UNL A   1      31.622  27.912  25.206  1.00  0.00     0.108 A 
ATOM     21  C   UNL A   1      31.405  26.827  26.044  1.00  0.00     0.055 A 
BRANCH  20  22
ATOM     22  C   UNL A   1      31.949  29.250  25.674  1.00  0.00     0.270 C 
ATOM     23  O   UNL A   1      31.407  30.233  25.169  1.00  0.00    -0.267 OA
ATOM     24  N   UNL A   1      32.847  29.405  26.722  1.00  0.00    -0.337 N 
ATOM     25  C   UNL A   1      32.719  30.585  27.569  1.00  0.00     0.120 C 
ATOM     26  C   UNL A   1      34.008  28.551  26.958  1.00  0.00     0.120 C 
ATOM     27  C   UNL A   1      33.988  31.425  27.565  1.00  0.00     0.022 C 
ATOM     28  C   UNL A   1      35.301  29.371  26.971  1.00  0.00     0.022 C 
ATOM     29  C   UNL A   1      35.198  30.566  27.919  1.00  0.00     0.004 C 
ENDBRANCH  20  22
ENDBRANCH  13  16
ENDBRANCH   8  13
ENDBRANCH   4   7
ENDBRANCH   2   3
ENDBRANCH   1   2
BRANCH   1  30
ATOM     30  C   UNL A   1      40.496  23.719  26.942  1.00  0.00     0.118 C 
BRANCH  30  31
ATOM     31  N   UNL A   1      41.086  24.600  25.943  1.00  0.00    -0.352 N 
ATOM     32  C   UNL A   1      41.361  25.945  26.007  1.00  0.00     0.251 C 
ATOM     33  H   UNL A   1      41.323  24.166  25.091  1.00  0.00     0.163 HD
ATOM     34  O   UNL A   1      41.666  26.552  24.984  1.00  0.00    -0.269 OA
BRANCH  32  35
ATOM     35  C   UNL A   1      41.270  26.659  27.297  1.00  0.00     0.039 A 
ATOM     36  C   UNL A   1      41.957  27.867  27.456  1.00  0.00     0.014 A 
ATOM     37  C   UNL A   1      40.514  26.138  28.349  1.00  0.00     0.014 A 
ATOM     38  C   UNL A   1      41.817  28.592  28.642  1.00  0.00     0.010 A 
ATOM     39  C   UNL A   1      40.315  26.896  29.498  1.00  0.00     0.010 A 
ATOM     40  C   UNL A   1      40.961  28.132  29.655  1.00  0.00    -0.014 A 
BRANCH  40  41
ATOM     41  C   UNL A   1      40.710  28.920  30.887  1.00  0.00     0.031 A 
ATOM     42  C   UNL A   1      39.629  29.966  30.904  1.00  0.00     0.074 A 
ATOM     43  C   UNL A   1      41.519  28.765  31.954  1.00  0.00     0.049 A 
ATOM     44  N   UNL A   1      39.355  30.853  31.824  1.00  0.00    -0.248 NA
ATOM     45  C   UNL A   1      38.764  30.042  29.716  1.00  0.00     0.031 C 
ATOM     46  C   UNL A   1      42.626  27.810  32.051  1.00  0.00     0.029 A 
ATOM     47  N   UNL A   1      41.545  29.425  33.157  1.00  0.00    -0.354 N 
ATOM     48  C   UNL A   1      38.309  31.613  31.316  1.00  0.00     0.074 A 
ATOM     49  C   UNL A   1      38.019  31.103  29.993  1.00  0.00     0.031 C 
ATOM     50  C   UNL A   1      43.212  27.936  33.253  1.00  0.00     0.029 A 
ATOM     51  C   UNL A   1      42.553  29.006  33.993  1.00  0.00     0.049 A 
ATOM     52  H   UNL A   1      40.903  30.131  33.398  1.00  0.00     0.167 HD
ATOM     53  C   UNL A   1      37.641  32.635  31.901  1.00  0.00     0.031 A 
ATOM     54  C   UNL A   1      42.919  29.447  35.212  1.00  0.00     0.031 A 
ATOM     55  C   UNL A   1      37.912  33.123  33.226  1.00  0.00     0.049 A 
ATOM     56  C   UNL A   1      42.161  30.580  35.844  1.00  0.00     0.074 A 
ATOM     57  C   UNL A   1      37.248  34.111  33.932  1.00  0.00     0.029 A 
ATOM     58  N   UNL A   1      38.926  32.655  34.048  1.00  0.00    -0.354 N 
ATOM     59  N   UNL A   1      41.145  31.257  35.364  1.00  0.00    -0.248 NA
ATOM     60  C   UNL A   1      42.598  31.009  37.180  1.00  0.00     0.031 C 
ATOM     61  C   UNL A   1      37.883  34.265  35.169  1.00  0.00     0.029 A 
ATOM     62  C   UNL A   1      38.918  33.346  35.247  1.00  0.00     0.049 A 
ATOM     63  H   UNL A   1      39.558  31.938  33.813  1.00  0.00     0.167 HD
ATOM     64  C   UNL A   1      40.812  32.181  36.347  1.00  0.00     0.074 A 
ATOM     65  C   UNL A   1      41.725  31.970  37.451  1.00  0.00     0.031 C 
ATOM     66  C   UNL A   1      39.835  33.122  36.334  1.00  0.00     0.031 A 
BRANCH  53  67
ATOM     67  C   UNL A   1      36.554  33.297  31.101  1.00  0.00    -0.014 A 
ATOM     68  C   UNL A   1      36.817  33.839  29.830  1.00  0.00     0.010 A 
ATOM     69  C   UNL A   1      35.246  33.359  31.615  1.00  0.00     0.010 A 
ATOM     70  C   UNL A   1      35.804  34.473  29.108  1.00  0.00     0.020 A 
ATOM     71  C   UNL A   1      34.224  33.971  30.885  1.00  0.00     0.020 A 
ATOM     72  C   UNL A   1      34.514  34.542  29.643  1.00  0.00     0.054 A 
BRANCH  72  73
ATOM     73  S   UNL A   1      33.212  35.361  28.683  1.00  0.00     0.124 S 
ATOM     74  O   UNL A   1      32.594  34.231  27.992  1.00  0.00    -0.237 OA
ATOM     75  O   UNL A   1      32.392  35.986  29.717  1.00  0.00    -0.237 OA
ATOM     76  O   UNL A   1      33.945  36.290  27.828  1.00  0.00    -0.744 OA
ENDBRANCH  72  73
ENDBRANCH  53  67
BRANCH  54  77
ATOM     77  C   UNL A   1      44.059  28.806  35.917  1.00  0.00    -0.014 A 
ATOM     78  C   UNL A   1      45.369  29.274  35.714  1.00  0.00     0.010 A 
ATOM     79  C   UNL A   1      43.841  27.743  36.811  1.00  0.00     0.010 A 
ATOM     80  C   UNL A   1      46.443  28.683  36.386  1.00  0.00     0.020 A 
ATOM     81  C   UNL A   1      44.911  27.163  37.499  1.00  0.00     0.020 A 
ATOM     82  C   UNL A   1      46.207  27.631  37.275  1.00  0.00     0.054 A 
BRANCH  82  83
ATOM     83  S   UNL A   1      47.608  26.916  38.180  1.00  0.00     0.124 S 
ATOM     84  O   UNL A   1      48.576  28.007  38.149  1.00  0.00    -0.237 OA
ATOM     85  O   UNL A   1      47.026  26.622  39.488  1.00  0.00    -0.237 OA
ATOM     86  O   UNL A   1      47.960  25.740  37.387  1.00  0.00    -0.744 OA
ENDBRANCH  82  83
ENDBRANCH  54  77
BRANCH  66  87
ATOM     87  C   UNL A   1      39.689  33.981  37.558  1.00  0.00    -0.014 A 
ATOM     88  C   UNL A   1      38.916  33.555  38.651  1.00  0.00     0.010 A 
ATOM     89  C   UNL A   1      40.392  35.197  37.641  1.00  0.00     0.010 A 
ATOM     90  C   UNL A   1      38.834  34.339  39.803  1.00  0.00     0.020 A 
ATOM     91  C   UNL A   1      40.327  35.974  38.800  1.00  0.00     0.020 A 
ATOM     92  C   UNL A   1      39.540  35.545  39.871  1.00  0.00     0.054 A 
BRANCH  92  93
ATOM     93  S   UNL A   1      39.471  36.517  41.401  1.00  0.00     0.124 S 
ATOM     94  O   UNL A   1      39.054  37.827  40.910  1.00  0.00    -0.237 OA
ATOM     95  O   UNL A   1      38.477  35.799  42.196  1.00  0.00    -0.237 OA
ATOM     96  O   UNL A   1      40.837  36.448  41.916  1.00  0.00    -0.744 OA
ENDBRANCH  92  93
ENDBRANCH  66  87
ENDBRANCH  40  41
ENDBRANCH  32  35
ENDBRANCH  30  31
ENDBRANCH   1  30
TORSDOF 16
ENDMDL
MODEL 2
REMARK VINA RESULT:     -11.8      4.777     11.988
REMARK SMILES Cn1cc(S(=O)(=O)N2CCC(C(=O)NCCCNC(=O)c3ccc(-c4c5nc(c(-c6ccc(S(=O)(=O)[O-])cc6)c6ccc([nH]6)c(-c6ccc(S(=O)(=O)[O-])cc6)c6nc(c(-c7ccc(S(=O)(=O)[O-])cc7)c7ccc4[nH]7)C=C6)C=C5)cc3)CC2)cc1C(=O)N1CCCCC1
REMARK SMILES IDX 16 1 15 2 14 3 12 4 13 5 11 7 8 8 9 9 82 10 10 11 81 12 5 13
REMARK SMILES IDX 6 14 7 15 4 16 1 17 2 18 3 19 84 20 83 21 85 22 86 23 87 24
REMARK SMILES IDX 88 25 92 26 89 27 91 28 90 29 17 30 18 31 19 32 20 34 21 35
REMARK SMILES IDX 22 36 80 37 23 38 79 39 24 40 25 41 26 42 73 43 27 44 78 45
REMARK SMILES IDX 72 46 74 47 28 48 77 49 71 50 70 51 29 53 59 54 40 55 58 56
REMARK SMILES IDX 41 57 44 58 57 59 75 60 42 61 43 62 56 64 76 65 45 66 30 67
REMARK SMILES IDX 31 68 39 69 32 70 38 71 33 72 34 73 35 74 36 75 37 76 60 77
REMARK SMILES IDX 61 78 69 79 62 80 68 81 63 82 64 83 65 84 66 85 67 86 46 87
REMARK SMILES IDX 47 88 55 89 48 90 54 91 49 92 50 93 51 94 52 95 53 96
REMARK H PARENT 14 6 18 33 74 52 44 63
REMARK Flexibility Score: inf
ROOT
ATOM      1  C   UNL A   1      35.586  33.157  29.748  1.00  0.00     0.042 C 
ENDROOT
BRANCH   1   2
ATOM      2  C   UNL A   1      34.856  34.285  30.463  1.00  0.00     0.117 C 
BRANCH   2   3
ATOM      3  N   UNL A   1      33.903  33.786  31.444  1.00  0.00    -0.356 N 
ATOM      4  C   UNL A   1      34.065  33.349  32.720  1.00  0.00     0.223 C 
ATOM      5  O   UNL A   1      33.061  32.964  33.324  1.00  0.00    -0.275 OA
ATOM      6  H   UNL A   1      32.972  33.762  31.126  1.00  0.00     0.163 HD
BRANCH   4   7
ATOM      7  C   UNL A   1      35.415  33.360  33.413  1.00  0.00     0.081 C 
ATOM      8  N   UNL A   1      38.273  33.640  33.459  1.00  0.00    -0.198 NA
ATOM      9  C   UNL A   1      37.681  32.291  33.649  1.00  0.00     0.103 C 
ATOM     10  C   UNL A   1      37.447  34.756  33.970  1.00  0.00     0.103 C 
ATOM     11  C   UNL A   1      36.326  32.218  32.964  1.00  0.00     0.030 C 
ATOM     12  C   UNL A   1      36.069  34.740  33.332  1.00  0.00     0.030 C 
BRANCH   8  13
ATOM     13  S   UNL A   1      39.943  33.759  33.793  1.00  0.00     0.244 S 
ATOM     14  O   UNL A   1      40.138  34.714  34.865  1.00  0.00    -0.207 OA
ATOM     15  O   UNL A   1      40.657  33.860  32.540  1.00  0.00    -0.207 OA
BRANCH  13  16
ATOM     16  C   UNL A   1      40.523  32.271  34.468  1.00  0.00     0.101 A 
ATOM     17  C   UNL A   1      42.471  30.442  36.888  1.00  0.00     0.150 C 
ATOM     18  N   UNL A   1      41.597  30.851  35.810  1.00  0.00    -0.345 N 
ATOM     19  C   UNL A   1      41.115  32.134  35.705  1.00  0.00     0.107 A 
ATOM     20  C   UNL A   1      41.267  30.128  34.678  1.00  0.00     0.108 A 
ATOM     21  C   UNL A   1      40.568  31.001  33.855  1.00  0.00     0.055 A 
BRANCH  20  22
ATOM     22  C   UNL A   1      41.722  28.809  34.265  1.00  0.00     0.270 C 
ATOM     23  O   UNL A   1      40.985  27.831  34.393  1.00  0.00    -0.267 OA
ATOM     24  N   UNL A   1      42.979  28.672  33.689  1.00  0.00    -0.337 N 
ATOM     25  C   UNL A   1      43.191  27.571  32.757  1.00  0.00     0.120 C 
ATOM     26  C   UNL A   1      44.154  29.458  34.054  1.00  0.00     0.120 C 
ATOM     27  C   UNL A   1      44.308  26.646  33.218  1.00  0.00     0.022 C 
ATOM     28  C   UNL A   1      45.301  28.553  34.512  1.00  0.00     0.022 C 
ATOM     29  C   UNL A   1      45.579  27.443  33.499  1.00  0.00     0.004 C 
ENDBRANCH  20  22
ENDBRANCH  13  16
ENDBRANCH   8  13
ENDBRANCH   4   7
ENDBRANCH   2   3
ENDBRANCH   1   2
BRANCH   1  30
ATOM     30  C   UNL A   1      35.182  32.995  28.290  1.00  0.00     0.118 C 
BRANCH  30  31
ATOM     31  N   UNL A   1      34.260  31.886  28.087  1.00  0.00    -0.352 N 
ATOM     32  C   UNL A   1      34.515  30.544  27.934  1.00  0.00     0.251 C 
ATOM     33  H   UNL A   1      33.307  32.135  28.055  1.00  0.00     0.163 HD
ATOM     34  O   UNL A   1      33.617  29.793  27.564  1.00  0.00    -0.269 OA
BRANCH  32  35
ATOM     35  C   UNL A   1      35.869  30.014  28.194  1.00  0.00     0.039 A 
ATOM     36  C   UNL A   1      36.812  30.020  27.163  1.00  0.00     0.014 A 
ATOM     37  C   UNL A   1      36.207  29.506  29.451  1.00  0.00     0.014 A 
ATOM     38  C   UNL A   1      38.118  29.595  27.416  1.00  0.00     0.010 A 
ATOM     39  C   UNL A   1      37.525  29.155  29.722  1.00  0.00     0.010 A 
ATOM     40  C   UNL A   1      38.495  29.199  28.710  1.00  0.00    -0.014 A 
BRANCH  40  41
ATOM     41  C   UNL A   1      39.895  28.834  29.041  1.00  0.00     0.031 A 
ATOM     42  C   UNL A   1      40.822  29.863  29.627  1.00  0.00     0.074 A 
ATOM     43  C   UNL A   1      40.358  27.609  28.722  1.00  0.00     0.049 A 
ATOM     44  N   UNL A   1      42.108  29.784  29.846  1.00  0.00    -0.248 NA
ATOM     45  C   UNL A   1      40.228  31.161  29.986  1.00  0.00     0.031 C 
ATOM     46  C   UNL A   1      39.570  26.533  28.116  1.00  0.00     0.029 A 
ATOM     47  N   UNL A   1      41.614  27.070  28.846  1.00  0.00    -0.354 N 
ATOM     48  C   UNL A   1      42.484  31.028  30.337  1.00  0.00     0.074 A 
ATOM     49  C   UNL A   1      41.296  31.854  30.354  1.00  0.00     0.031 C 
ATOM     50  C   UNL A   1      40.356  25.459  27.936  1.00  0.00     0.029 A 
ATOM     51  C   UNL A   1      41.710  25.783  28.372  1.00  0.00     0.049 A 
ATOM     52  H   UNL A   1      42.374  27.558  29.237  1.00  0.00     0.167 HD
ATOM     53  C   UNL A   1      43.706  31.443  30.748  1.00  0.00     0.031 A 
ATOM     54  C   UNL A   1      42.773  24.961  28.279  1.00  0.00     0.031 A 
ATOM     55  C   UNL A   1      44.881  30.614  30.757  1.00  0.00     0.049 A 
ATOM     56  C   UNL A   1      44.118  25.441  28.746  1.00  0.00     0.074 A 
ATOM     57  C   UNL A   1      46.149  30.923  31.214  1.00  0.00     0.029 A 
ATOM     58  N   UNL A   1      44.928  29.309  30.290  1.00  0.00    -0.354 N 
ATOM     59  N   UNL A   1      44.445  26.609  29.248  1.00  0.00    -0.248 NA
ATOM     60  C   UNL A   1      45.238  24.497  28.632  1.00  0.00     0.031 C 
ATOM     61  C   UNL A   1      46.975  29.815  30.993  1.00  0.00     0.029 A 
ATOM     62  C   UNL A   1      46.210  28.805  30.432  1.00  0.00     0.049 A 
ATOM     63  H   UNL A   1      44.165  28.814  29.913  1.00  0.00     0.167 HD
ATOM     64  C   UNL A   1      45.804  26.531  29.526  1.00  0.00     0.074 A 
ATOM     65  C   UNL A   1      46.236  25.202  29.146  1.00  0.00     0.031 C 
ATOM     66  C   UNL A   1      46.621  27.479  30.048  1.00  0.00     0.031 A 
BRANCH  53  67
ATOM     67  C   UNL A   1      43.829  32.866  31.218  1.00  0.00    -0.014 A 
ATOM     68  C   UNL A   1      43.893  33.173  32.589  1.00  0.00     0.010 A 
ATOM     69  C   UNL A   1      43.905  33.910  30.277  1.00  0.00     0.010 A 
ATOM     70  C   UNL A   1      43.984  34.501  33.013  1.00  0.00     0.020 A 
ATOM     71  C   UNL A   1      44.020  35.237  30.697  1.00  0.00     0.020 A 
ATOM     72  C   UNL A   1      44.039  35.526  32.065  1.00  0.00     0.054 A 
BRANCH  72  73
ATOM     73  S   UNL A   1      44.166  37.242  32.638  1.00  0.00     0.124 S 
ATOM     74  O   UNL A   1      45.488  37.252  33.259  1.00  0.00    -0.237 OA
ATOM     75  O   UNL A   1      44.050  38.006  31.399  1.00  0.00    -0.237 OA
ATOM     76  O   UNL A   1      43.042  37.383  33.560  1.00  0.00    -0.744 OA
ENDBRANCH  72  73
ENDBRANCH  53  67
BRANCH  54  77
ATOM     77  C   UNL A   1      42.602  23.593  27.726  1.00  0.00    -0.014 A 
ATOM     78  C   UNL A   1      42.900  23.333  26.377  1.00  0.00     0.010 A 
ATOM     79  C   UNL A   1      42.165  22.538  28.547  1.00  0.00     0.010 A 
ATOM     80  C   UNL A   1      42.754  22.045  25.855  1.00  0.00     0.020 A 
ATOM     81  C   UNL A   1      42.037  21.244  28.033  1.00  0.00     0.020 A 
ATOM     82  C   UNL A   1      42.323  21.008  26.687  1.00  0.00     0.054 A 
BRANCH  82  83
ATOM     83  S   UNL A   1      42.196  19.332  26.005  1.00  0.00     0.124 S 
ATOM     84  O   UNL A   1      42.705  18.518  27.105  1.00  0.00    -0.237 OA
ATOM     85  O   UNL A   1      40.766  19.205  25.734  1.00  0.00    -0.237 OA
ATOM     86  O   UNL A   1      43.044  19.383  24.817  1.00  0.00    -0.744 OA
ENDBRANCH  82  83
ENDBRANCH  54  77
BRANCH  66  87
ATOM     87  C   UNL A   1      48.061  27.107  30.260  1.00  0.00    -0.014 A 
ATOM     88  C   UNL A   1      49.018  27.329  29.254  1.00  0.00     0.010 A 
ATOM     89  C   UNL A   1      48.472  26.597  31.504  1.00  0.00     0.010 A 
ATOM     90  C   UNL A   1      50.363  27.030  29.486  1.00  0.00     0.020 A 
ATOM     91  C   UNL A   1      49.819  26.315  31.744  1.00  0.00     0.020 A 
ATOM     92  C   UNL A   1      50.755  26.524  30.729  1.00  0.00     0.054 A 
BRANCH  92  93
ATOM     93  S   UNL A   1      52.515  26.203  31.030  1.00  0.00     0.124 S 
ATOM     94  O   UNL A   1      52.475  24.924  31.732  1.00  0.00    -0.237 OA
ATOM     95  O   UNL A   1      53.072  26.162  29.680  1.00  0.00    -0.237 OA
ATOM     96  O   UNL A   1      52.941  27.345  31.837  1.00  0.00    -0.744 OA
ENDBRANCH  92  93
ENDBRANCH  66  87
ENDBRANCH  40  41
ENDBRANCH  32  35
ENDBRANCH  30  31
ENDBRANCH   1  30
TORSDOF 16
ENDMDL
MODEL 3
REMARK VINA RESULT:     -11.6      2.549      8.711
REMARK SMILES Cn1cc(S(=O)(=O)N2CCC(C(=O)NCCCNC(=O)c3ccc(-c4c5nc(c(-c6ccc(S(=O)(=O)[O-])cc6)c6ccc([nH]6)c(-c6ccc(S(=O)(=O)[O-])cc6)c6nc(c(-c7ccc(S(=O)(=O)[O-])cc7)c7ccc4[nH]7)C=C6)C=C5)cc3)CC2)cc1C(=O)N1CCCCC1
REMARK SMILES IDX 16 1 15 2 14 3 12 4 13 5 11 7 8 8 9 9 82 10 10 11 81 12 5 13
REMARK SMILES IDX 6 14 7 15 4 16 1 17 2 18 3 19 84 20 83 21 85 22 86 23 87 24
REMARK SMILES IDX 88 25 92 26 89 27 91 28 90 29 17 30 18 31 19 32 20 34 21 35
REMARK SMILES IDX 22 36 80 37 23 38 79 39 24 40 25 41 26 42 73 43 27 44 78 45
REMARK SMILES IDX 72 46 74 47 28 48 77 49 71 50 70 51 29 53 59 54 40 55 58 56
REMARK SMILES IDX 41 57 44 58 57 59 75 60 42 61 43 62 56 64 76 65 45 66 30 67
REMARK SMILES IDX 31 68 39 69 32 70 38 71 33 72 34 73 35 74 36 75 37 76 60 77
REMARK SMILES IDX 61 78 69 79 62 80 68 81 63 82 64 83 65 84 66 85 67 86 46 87
REMARK SMILES IDX 47 88 55 89 48 90 54 91 49 92 50 93 51 94 52 95 53 96
REMARK H PARENT 14 6 18 33 74 52 44 63
REMARK Flexibility Score: inf
ROOT
ATOM      1  C   UNL A   1      39.291  22.565  26.436  1.00  0.00     0.042 C 
ENDROOT
BRANCH   1   2
ATOM      2  C   UNL A   1      38.264  22.387  25.327  1.00  0.00     0.117 C 
BRANCH   2   3
ATOM      3  N   UNL A   1      37.845  21.001  25.185  1.00  0.00    -0.356 N 
ATOM      4  C   UNL A   1      36.617  20.438  25.043  1.00  0.00     0.223 C 
ATOM      5  O   UNL A   1      36.559  19.209  24.956  1.00  0.00    -0.275 OA
ATOM      6  H   UNL A   1      38.586  20.354  25.191  1.00  0.00     0.163 HD
BRANCH   4   7
ATOM      7  C   UNL A   1      35.352  21.270  24.954  1.00  0.00     0.081 C 
ATOM      8  N   UNL A   1      32.811  22.187  25.929  1.00  0.00    -0.198 NA
ATOM      9  C   UNL A   1      32.843  21.291  24.746  1.00  0.00     0.103 C 
ATOM     10  C   UNL A   1      33.981  23.083  26.060  1.00  0.00     0.103 C 
ATOM     11  C   UNL A   1      34.091  20.422  24.787  1.00  0.00     0.030 C 
ATOM     12  C   UNL A   1      35.269  22.280  26.099  1.00  0.00     0.030 C 
BRANCH   8  13
ATOM     13  S   UNL A   1      31.300  22.912  26.256  1.00  0.00     0.244 S 
ATOM     14  O   UNL A   1      31.357  23.545  27.557  1.00  0.00    -0.207 OA
ATOM     15  O   UNL A   1      30.255  21.977  25.905  1.00  0.00    -0.207 OA
BRANCH  13  16
ATOM     16  C   UNL A   1      31.031  24.240  25.174  1.00  0.00     0.101 A 
ATOM     17  C   UNL A   1      31.488  25.873  21.993  1.00  0.00     0.150 C 
ATOM     18  N   UNL A   1      31.100  25.500  23.336  1.00  0.00    -0.345 N 
ATOM     19  C   UNL A   1      31.260  24.222  23.815  1.00  0.00     0.107 A 
ATOM     20  C   UNL A   1      30.702  26.343  24.358  1.00  0.00     0.108 A 
ATOM     21  C   UNL A   1      30.625  25.552  25.498  1.00  0.00     0.055 A 
BRANCH  20  22
ATOM     22  C   UNL A   1      30.599  27.794  24.365  1.00  0.00     0.270 C 
ATOM     23  O   UNL A   1      31.306  28.461  25.121  1.00  0.00    -0.267 OA
ATOM     24  N   UNL A   1      29.726  28.419  23.484  1.00  0.00    -0.337 N 
ATOM     25  C   UNL A   1      30.040  29.776  23.052  1.00  0.00     0.120 C 
ATOM     26  C   UNL A   1      28.435  27.881  23.066  1.00  0.00     0.120 C 
ATOM     27  C   UNL A   1      28.932  30.755  23.410  1.00  0.00     0.022 C 
ATOM     28  C   UNL A   1      27.299  28.850  23.404  1.00  0.00     0.022 C 
ATOM     29  C   UNL A   1      27.590  30.258  22.883  1.00  0.00     0.004 C 
ENDBRANCH  20  22
ENDBRANCH  13  16
ENDBRANCH   8  13
ENDBRANCH   4   7
ENDBRANCH   2   3
ENDBRANCH   1   2
BRANCH   1  30
ATOM     30  C   UNL A   1      40.132  21.324  26.694  1.00  0.00     0.118 C 
BRANCH  30  31
ATOM     31  N   UNL A   1      41.295  21.246  25.820  1.00  0.00    -0.352 N 
ATOM     32  C   UNL A   1      42.367  22.097  25.702  1.00  0.00     0.251 C 
ATOM     33  H   UNL A   1      41.316  20.464  25.222  1.00  0.00     0.163 HD
ATOM     34  O   UNL A   1      43.144  21.970  24.759  1.00  0.00    -0.269 OA
BRANCH  32  35
ATOM     35  C   UNL A   1      42.572  23.172  26.695  1.00  0.00     0.039 A 
ATOM     36  C   UNL A   1      42.843  24.469  26.248  1.00  0.00     0.014 A 
ATOM     37  C   UNL A   1      42.504  22.902  28.064  1.00  0.00     0.014 A 
ATOM     38  C   UNL A   1      42.961  25.509  27.173  1.00  0.00     0.010 A 
ATOM     39  C   UNL A   1      42.546  23.949  28.978  1.00  0.00     0.010 A 
ATOM     40  C   UNL A   1      42.771  25.264  28.542  1.00  0.00    -0.014 A 
BRANCH  40  41
ATOM     41  C   UNL A   1      42.791  26.357  29.545  1.00  0.00     0.031 A 
ATOM     42  C   UNL A   1      43.852  26.379  30.611  1.00  0.00     0.074 A 
ATOM     43  C   UNL A   1      41.801  27.271  29.556  1.00  0.00     0.049 A 
ATOM     44  N   UNL A   1      43.953  27.158  31.656  1.00  0.00    -0.248 NA
ATOM     45  C   UNL A   1      44.921  25.373  30.503  1.00  0.00     0.031 C 
ATOM     46  C   UNL A   1      40.693  27.337  28.599  1.00  0.00     0.029 A 
ATOM     47  N   UNL A   1      41.555  28.310  30.419  1.00  0.00    -0.354 N 
ATOM     48  C   UNL A   1      45.076  26.718  32.347  1.00  0.00     0.074 A 
ATOM     49  C   UNL A   1      45.603  25.584  31.619  1.00  0.00     0.031 C 
ATOM     50  C   UNL A   1      39.897  28.371  28.917  1.00  0.00     0.029 A 
ATOM     51  C   UNL A   1      40.410  29.012  30.123  1.00  0.00     0.049 A 
ATOM     52  H   UNL A   1      42.142  28.531  31.177  1.00  0.00     0.167 HD
ATOM     53  C   UNL A   1      45.625  27.220  33.478  1.00  0.00     0.031 A 
ATOM     54  C   UNL A   1      39.827  30.044  30.761  1.00  0.00     0.031 A 
ATOM     55  C   UNL A   1      45.117  28.364  34.185  1.00  0.00     0.049 A 
ATOM     56  C   UNL A   1      40.457  30.587  32.013  1.00  0.00     0.074 A 
ATOM     57  C   UNL A   1      45.641  28.987  35.304  1.00  0.00     0.029 A 
ATOM     58  N   UNL A   1      43.969  29.060  33.838  1.00  0.00    -0.354 N 
ATOM     59  N   UNL A   1      41.544  30.184  32.627  1.00  0.00    -0.248 NA
ATOM     60  C   UNL A   1      39.783  31.722  32.659  1.00  0.00     0.031 C 
ATOM     61  C   UNL A   1      44.790  30.040  35.655  1.00  0.00     0.029 A 
ATOM     62  C   UNL A   1      43.758  30.095  34.732  1.00  0.00     0.049 A 
ATOM     63  H   UNL A   1      43.389  28.848  33.071  1.00  0.00     0.167 HD
ATOM     64  C   UNL A   1      41.693  31.027  33.721  1.00  0.00     0.074 A 
ATOM     65  C   UNL A   1      40.592  31.968  33.680  1.00  0.00     0.031 C 
ATOM     66  C   UNL A   1      42.656  31.021  34.675  1.00  0.00     0.031 A 
BRANCH  53  67
ATOM     67  C   UNL A   1      46.842  26.523  34.022  1.00  0.00    -0.014 A 
ATOM     68  C   UNL A   1      48.135  26.914  33.631  1.00  0.00     0.010 A 
ATOM     69  C   UNL A   1      46.693  25.478  34.952  1.00  0.00     0.010 A 
ATOM     70  C   UNL A   1      49.256  26.243  34.125  1.00  0.00     0.020 A 
ATOM     71  C   UNL A   1      47.813  24.820  35.466  1.00  0.00     0.020 A 
ATOM     72  C   UNL A   1      49.088  25.195  35.034  1.00  0.00     0.054 A 
BRANCH  72  73
ATOM     73  S   UNL A   1      50.558  24.344  35.670  1.00  0.00     0.124 S 
ATOM     74  O   UNL A   1      50.977  25.236  36.749  1.00  0.00    -0.237 OA
ATOM     75  O   UNL A   1      50.026  23.052  36.096  1.00  0.00    -0.237 OA
ATOM     76  O   UNL A   1      51.454  24.294  34.518  1.00  0.00    -0.744 OA
ENDBRANCH  72  73
ENDBRANCH  53  67
BRANCH  54  77
ATOM     77  C   UNL A   1      38.576  30.636  30.220  1.00  0.00    -0.014 A 
ATOM     78  C   UNL A   1      37.336  30.023  30.473  1.00  0.00     0.010 A 
ATOM     79  C   UNL A   1      38.613  31.824  29.470  1.00  0.00     0.010 A 
ATOM     80  C   UNL A   1      36.156  30.584  29.977  1.00  0.00     0.020 A 
ATOM     81  C   UNL A   1      37.433  32.399  28.989  1.00  0.00     0.020 A 
ATOM     82  C   UNL A   1      36.212  31.768  29.238  1.00  0.00     0.054 A 
BRANCH  82  83
ATOM     83  S   UNL A   1      34.663  32.511  28.653  1.00  0.00     0.124 S 
ATOM     84  O   UNL A   1      34.108  33.064  29.884  1.00  0.00    -0.237 OA
ATOM     85  O   UNL A   1      35.129  33.489  27.673  1.00  0.00    -0.237 OA
ATOM     86  O   UNL A   1      33.935  31.377  28.089  1.00  0.00    -0.744 OA
ENDBRANCH  82  83
ENDBRANCH  54  77
BRANCH  66  87
ATOM     87  C   UNL A   1      42.576  32.075  35.743  1.00  0.00    -0.014 A 
ATOM     88  C   UNL A   1      43.133  33.349  35.542  1.00  0.00     0.010 A 
ATOM     89  C   UNL A   1      41.873  31.808  36.932  1.00  0.00     0.010 A 
ATOM     90  C   UNL A   1      43.003  34.336  36.522  1.00  0.00     0.020 A 
ATOM     91  C   UNL A   1      41.725  32.799  37.905  1.00  0.00     0.020 A 
ATOM     92  C   UNL A   1      42.299  34.055  37.698  1.00  0.00     0.054 A 
BRANCH  92  93
ATOM     93  S   UNL A   1      42.087  35.371  38.928  1.00  0.00     0.124 S 
ATOM     94  O   UNL A   1      42.095  36.570  38.095  1.00  0.00    -0.237 OA
ATOM     95  O   UNL A   1      40.803  35.039  39.539  1.00  0.00    -0.237 OA
ATOM     96  O   UNL A   1      43.245  35.213  39.806  1.00  0.00    -0.744 OA
ENDBRANCH  92  93
ENDBRANCH  66  87
ENDBRANCH  40  41
ENDBRANCH  32  35
ENDBRANCH  30  31
ENDBRANCH   1  30
TORSDOF 16
ENDMDL
