MODEL 1
REMARK VINA RESULT:     -12.2      0.000      0.000
REMARK SMILES O=C(NCCCNC(=O)c1ccc(-c2c3nc(c(-c4ccc(S(=O)(=O)[O-])cc4)c4ccc([nH]4)c(-c4ccc(S(=O)(=O)[O-])cc4)c4nc(c(-c5ccc(S(=O)(=O)[O-])cc5)c5ccc2[nH]5)C=C4)C=C3)cc1)C1=Cc2cc(Cl)cc(C#Cc3ccccc3)c2O[C@@H]1C(F)(F)F
REMARK SMILES IDX 5 1 4 2 3 3 1 4 2 5 70 7 71 8 88 9 72 10 87 11 73 12 86 13
REMARK SMILES IDX 74 14 77 15 75 16 76 17 89 18 90 19 91 20 92 21 78 22 79 23
REMARK SMILES IDX 80 24 81 25 85 26 82 27 84 28 83 29 6 30 7 31 8 32 9 34
REMARK SMILES IDX 10 35 11 36 69 37 12 38 68 39 13 40 14 41 15 42 62 43 16 44
REMARK SMILES IDX 67 45 61 46 63 47 17 48 66 49 60 50 59 51 18 53 48 54 29 55
REMARK SMILES IDX 47 56 30 57 33 58 46 59 64 60 31 61 32 62 45 64 65 65 34 66
REMARK SMILES IDX 19 67 20 68 28 69 21 70 27 71 22 72 23 73 24 74 25 75 26 76
REMARK SMILES IDX 49 77 50 78 58 79 51 80 57 81 52 82 53 83 54 84 55 85 56 86
REMARK SMILES IDX 35 87 36 88 44 89 37 90 43 91 38 92 39 93 40 94 41 95 42 96
REMARK H PARENT 3 6 7 33 63 52 33 63
REMARK Flexibility Score: inf
ROOT
ATOM      1  C   UNL A   1      37.824  23.286  24.902  1.00  0.00     0.042 C 
ENDROOT
BRANCH   1   2
ATOM      2  C   UNL A   1      37.060  22.025  25.228  1.00  0.00     0.118 C 
BRANCH   2   3
ATOM      3  N   UNL A   1      36.280  22.029  26.444  1.00  0.00    -0.352 N 
ATOM      4  O   UNL A   1      34.427  21.726  27.675  1.00  0.00    -0.270 OA
ATOM      5  C   UNL A   1      34.920  21.973  26.575  1.00  0.00     0.251 C 
ATOM      6  H   UNL A   1      36.793  22.078  27.284  1.00  0.00     0.163 HD
BRANCH   5   7
ATOM      7  C   UNL A   1      34.003  22.075  25.395  1.00  0.00     0.067 C 
ATOM      8  C   UNL A   1      32.784  21.502  25.347  1.00  0.00     0.025 C 
ATOM      9  C   UNL A   1      34.210  23.361  24.637  1.00  0.00     0.314 C 
ATOM     10  C   UNL A   1      31.685  22.511  25.457  1.00  0.00     0.020 A 
ATOM     11  O   UNL A   1      33.218  24.358  25.008  1.00  0.00    -0.474 OA
ATOM     12  C   UNL A   1      30.466  22.057  25.987  1.00  0.00     0.032 A 
ATOM     13  C   UNL A   1      32.019  23.885  25.499  1.00  0.00     0.143 A 
ATOM     14  C   UNL A   1      29.649  22.949  26.677  1.00  0.00     0.043 A 
ATOM     15  C   UNL A   1      31.210  24.758  26.247  1.00  0.00     0.069 A 
ATOM     16  Cl  UNL A   1      28.269  22.359  27.519  1.00  0.00    -0.084 Cl
ATOM     17  C   UNL A   1      30.027  24.282  26.832  1.00  0.00     0.041 A 
BRANCH   9  18
ATOM     18  C   UNL A   1      34.278  23.093  23.124  1.00  0.00     0.429 C 
ATOM     19  F   UNL A   1      34.021  24.212  22.406  1.00  0.00    -0.167 F 
ATOM     20  F   UNL A   1      35.512  22.668  22.753  1.00  0.00    -0.167 F 
ATOM     21  F   UNL A   1      33.399  22.146  22.720  1.00  0.00    -0.167 F 
ENDBRANCH   9  18
BRANCH  15  22
ATOM     22  C   UNL A   1      31.673  26.049  26.684  1.00  0.00    -0.058 C 
ATOM     23  C   UNL A   1      32.099  27.155  26.880  1.00  0.00    -0.062 C 
BRANCH  23  24
ATOM     24  C   UNL A   1      32.664  28.462  27.060  1.00  0.00     0.025 A 
ATOM     25  C   UNL A   1      31.848  29.595  26.998  1.00  0.00     0.017 A 
ATOM     26  C   UNL A   1      34.038  28.613  27.263  1.00  0.00     0.017 A 
ATOM     27  C   UNL A   1      32.410  30.873  27.081  1.00  0.00     0.001 A 
ATOM     28  C   UNL A   1      34.598  29.891  27.352  1.00  0.00     0.001 A 
ATOM     29  C   UNL A   1      33.787  31.020  27.243  1.00  0.00     0.000 A 
ENDBRANCH  23  24
ENDBRANCH  15  22
ENDBRANCH   5   7
ENDBRANCH   2   3
ENDBRANCH   1   2
BRANCH   1  30
ATOM     30  C   UNL A   1      38.471  23.903  26.123  1.00  0.00     0.118 C 
BRANCH  30  31
ATOM     31  N   UNL A   1      39.934  23.786  26.146  1.00  0.00    -0.352 N 
ATOM     32  C   UNL A   1      40.905  24.589  26.707  1.00  0.00     0.251 C 
ATOM     33  H   UNL A   1      40.285  22.993  25.678  1.00  0.00     0.163 HD
ATOM     34  O   UNL A   1      42.091  24.358  26.489  1.00  0.00    -0.269 OA
BRANCH  32  35
ATOM     35  C   UNL A   1      40.512  25.761  27.519  1.00  0.00     0.039 A 
ATOM     36  C   UNL A   1      39.595  25.607  28.562  1.00  0.00     0.014 A 
ATOM     37  C   UNL A   1      41.122  26.993  27.310  1.00  0.00     0.014 A 
ATOM     38  C   UNL A   1      39.421  26.646  29.482  1.00  0.00     0.010 A 
ATOM     39  C   UNL A   1      41.081  27.949  28.310  1.00  0.00     0.010 A 
ATOM     40  C   UNL A   1      40.234  27.788  29.415  1.00  0.00    -0.014 A 
BRANCH  40  41
ATOM     41  C   UNL A   1      40.244  28.832  30.473  1.00  0.00     0.031 A 
ATOM     42  C   UNL A   1      41.169  28.682  31.654  1.00  0.00     0.074 A 
ATOM     43  C   UNL A   1      39.352  29.844  30.431  1.00  0.00     0.049 A 
ATOM     44  N   UNL A   1      41.216  29.380  32.759  1.00  0.00    -0.248 NA
ATOM     45  C   UNL A   1      42.143  27.576  31.605  1.00  0.00     0.031 C 
ATOM     46  C   UNL A   1      38.373  30.078  29.364  1.00  0.00     0.029 A 
ATOM     47  N   UNL A   1      39.112  30.865  31.319  1.00  0.00    -0.354 N 
ATOM     48  C   UNL A   1      42.204  28.787  33.535  1.00  0.00     0.074 A 
ATOM     49  C   UNL A   1      42.678  27.628  32.815  1.00  0.00     0.031 C 
ATOM     50  C   UNL A   1      37.671  31.188  29.641  1.00  0.00     0.029 A 
ATOM     51  C   UNL A   1      38.098  31.711  30.933  1.00  0.00     0.049 A 
ATOM     52  H   UNL A   1      39.619  30.979  32.155  1.00  0.00     0.167 HD
ATOM     53  C   UNL A   1      42.702  29.190  34.727  1.00  0.00     0.031 A 
ATOM     54  C   UNL A   1      37.558  32.777  31.558  1.00  0.00     0.031 A 
ATOM     55  C   UNL A   1      42.243  30.355  35.431  1.00  0.00     0.049 A 
ATOM     56  C   UNL A   1      38.093  33.171  32.910  1.00  0.00     0.074 A 
ATOM     57  C   UNL A   1      42.710  30.877  36.623  1.00  0.00     0.029 A 
ATOM     58  N   UNL A   1      41.218  31.184  35.001  1.00  0.00    -0.354 N 
ATOM     59  N   UNL A   1      39.075  32.634  33.597  1.00  0.00    -0.248 NA
ATOM     60  C   UNL A   1      37.448  34.312  33.574  1.00  0.00     0.031 C 
ATOM     61  C   UNL A   1      41.926  31.987  36.947  1.00  0.00     0.029 A 
ATOM     62  C   UNL A   1      41.016  32.196  35.922  1.00  0.00     0.049 A 
ATOM     63  H   UNL A   1      40.709  31.069  34.167  1.00  0.00     0.167 HD
ATOM     64  C   UNL A   1      39.182  33.393  34.757  1.00  0.00     0.074 A 
ATOM     65  C   UNL A   1      38.184  34.438  34.669  1.00  0.00     0.031 C 
ATOM     66  C   UNL A   1      40.027  33.237  35.805  1.00  0.00     0.031 A 
BRANCH  53  67
ATOM     67  C   UNL A   1      43.816  28.378  35.333  1.00  0.00    -0.014 A 
ATOM     68  C   UNL A   1      43.534  27.285  36.175  1.00  0.00     0.010 A 
ATOM     69  C   UNL A   1      45.155  28.667  35.014  1.00  0.00     0.010 A 
ATOM     70  C   UNL A   1      44.570  26.514  36.707  1.00  0.00     0.020 A 
ATOM     71  C   UNL A   1      46.193  27.877  35.518  1.00  0.00     0.020 A 
ATOM     72  C   UNL A   1      45.893  26.813  36.370  1.00  0.00     0.054 A 
BRANCH  72  73
ATOM     73  S   UNL A   1      47.209  25.758  37.034  1.00  0.00     0.124 S 
ATOM     74  O   UNL A   1      48.408  26.394  36.493  1.00  0.00    -0.237 OA
ATOM     75  O   UNL A   1      47.025  25.889  38.477  1.00  0.00    -0.237 OA
ATOM     76  O   UNL A   1      46.906  24.437  36.487  1.00  0.00    -0.744 OA
ENDBRANCH  72  73
ENDBRANCH  53  67
BRANCH  54  77
ATOM     77  C   UNL A   1      36.447  33.549  30.929  1.00  0.00    -0.014 A 
ATOM     78  C   UNL A   1      35.314  33.909  31.684  1.00  0.00     0.010 A 
ATOM     79  C   UNL A   1      36.494  33.899  29.568  1.00  0.00     0.010 A 
ATOM     80  C   UNL A   1      34.237  34.563  31.081  1.00  0.00     0.020 A 
ATOM     81  C   UNL A   1      35.433  34.586  28.968  1.00  0.00     0.020 A 
ATOM     82  C   UNL A   1      34.301  34.895  29.725  1.00  0.00     0.054 A 
BRANCH  82  83
ATOM     83  S   UNL A   1      32.892  35.748  28.966  1.00  0.00     0.124 S 
ATOM     84  O   UNL A   1      33.541  36.878  28.308  1.00  0.00    -0.237 OA
ATOM     85  O   UNL A   1      32.346  34.725  28.079  1.00  0.00    -0.237 OA
ATOM     86  O   UNL A   1      32.045  36.091  30.107  1.00  0.00    -0.744 OA
ENDBRANCH  82  83
ENDBRANCH  54  77
BRANCH  66  87
ATOM     87  C   UNL A   1      39.936  34.231  36.931  1.00  0.00    -0.014 A 
ATOM     88  C   UNL A   1      39.153  33.969  38.068  1.00  0.00     0.010 A 
ATOM     89  C   UNL A   1      40.718  35.400  36.889  1.00  0.00     0.010 A 
ATOM     90  C   UNL A   1      39.145  34.864  39.140  1.00  0.00     0.020 A 
ATOM     91  C   UNL A   1      40.740  36.281  37.973  1.00  0.00     0.020 A 
ATOM     92  C   UNL A   1      39.947  36.009  39.090  1.00  0.00     0.054 A 
BRANCH  92  93
ATOM     93  S   UNL A   1      39.983  37.105  40.533  1.00  0.00     0.124 S 
ATOM     94  O   UNL A   1      41.271  36.772  41.137  1.00  0.00    -0.237 OA
ATOM     95  O   UNL A   1      39.896  38.431  39.926  1.00  0.00    -0.237 OA
ATOM     96  O   UNL A   1      38.810  36.701  41.306  1.00  0.00    -0.744 OA
ENDBRANCH  92  93
ENDBRANCH  66  87
ENDBRANCH  40  41
ENDBRANCH  32  35
ENDBRANCH  30  31
ENDBRANCH   1  30
TORSDOF 16
ENDMDL
MODEL 2
REMARK VINA RESULT:     -12.1      5.818     12.740
REMARK SMILES O=C(NCCCNC(=O)c1ccc(-c2c3nc(c(-c4ccc(S(=O)(=O)[O-])cc4)c4ccc([nH]4)c(-c4ccc(S(=O)(=O)[O-])cc4)c4nc(c(-c5ccc(S(=O)(=O)[O-])cc5)c5ccc2[nH]5)C=C4)C=C3)cc1)C1=Cc2cc(Cl)cc(C#Cc3ccccc3)c2O[C@@H]1C(F)(F)F
REMARK SMILES IDX 5 1 4 2 3 3 1 4 2 5 70 7 71 8 88 9 72 10 87 11 73 12 86 13
REMARK SMILES IDX 74 14 77 15 75 16 76 17 89 18 90 19 91 20 92 21 78 22 79 23
REMARK SMILES IDX 80 24 81 25 85 26 82 27 84 28 83 29 6 30 7 31 8 32 9 34
REMARK SMILES IDX 10 35 11 36 69 37 12 38 68 39 13 40 14 41 15 42 62 43 16 44
REMARK SMILES IDX 67 45 61 46 63 47 17 48 66 49 60 50 59 51 18 53 48 54 29 55
REMARK SMILES IDX 47 56 30 57 33 58 46 59 64 60 31 61 32 62 45 64 65 65 34 66
REMARK SMILES IDX 19 67 20 68 28 69 21 70 27 71 22 72 23 73 24 74 25 75 26 76
REMARK SMILES IDX 49 77 50 78 58 79 51 80 57 81 52 82 53 83 54 84 55 85 56 86
REMARK SMILES IDX 35 87 36 88 44 89 37 90 43 91 38 92 39 93 40 94 41 95 42 96
REMARK H PARENT 3 6 7 33 63 52 33 63
REMARK Flexibility Score: inf
ROOT
ATOM      1  C   UNL A   1      34.310  33.925  30.601  1.00  0.00     0.042 C 
ENDROOT
BRANCH   1   2
ATOM      2  C   UNL A   1      35.244  34.631  31.554  1.00  0.00     0.118 C 
BRANCH   2   3
ATOM      3  N   UNL A   1      34.902  34.588  32.957  1.00  0.00    -0.352 N 
ATOM      4  O   UNL A   1      35.340  34.463  35.156  1.00  0.00    -0.270 OA
ATOM      5  C   UNL A   1      35.690  34.198  34.006  1.00  0.00     0.251 C 
ATOM      6  H   UNL A   1      33.988  34.875  33.187  1.00  0.00     0.163 HD
BRANCH   5   7
ATOM      7  C   UNL A   1      37.034  33.571  33.800  1.00  0.00     0.067 C 
ATOM      8  C   UNL A   1      38.184  34.270  33.761  1.00  0.00     0.025 C 
ATOM      9  C   UNL A   1      37.080  32.163  34.338  1.00  0.00     0.314 C 
ATOM     10  C   UNL A   1      39.008  34.067  34.994  1.00  0.00     0.020 A 
ATOM     11  O   UNL A   1      37.689  32.123  35.659  1.00  0.00    -0.474 OA
ATOM     12  C   UNL A   1      39.880  35.110  35.345  1.00  0.00     0.032 A 
ATOM     13  C   UNL A   1      38.564  33.143  35.968  1.00  0.00     0.143 A 
ATOM     14  C   UNL A   1      40.197  35.310  36.687  1.00  0.00     0.043 A 
ATOM     15  C   UNL A   1      38.849  33.394  37.322  1.00  0.00     0.069 A 
ATOM     16  Cl  UNL A   1      41.080  36.712  37.151  1.00  0.00    -0.084 Cl
ATOM     17  C   UNL A   1      39.666  34.479  37.672  1.00  0.00     0.041 A 
BRANCH   9  18
ATOM     18  C   UNL A   1      37.745  31.217  33.324  1.00  0.00     0.429 C 
ATOM     19  F   UNL A   1      39.075  31.098  33.549  1.00  0.00    -0.167 F 
ATOM     20  F   UNL A   1      37.224  29.966  33.402  1.00  0.00    -0.167 F 
ATOM     21  F   UNL A   1      37.590  31.628  32.044  1.00  0.00    -0.167 F 
ENDBRANCH   9  18
BRANCH  15  22
ATOM     22  C   UNL A   1      38.117  32.765  38.390  1.00  0.00    -0.058 C 
ATOM     23  C   UNL A   1      37.573  32.365  39.383  1.00  0.00    -0.062 C 
BRANCH  23  24
ATOM     24  C   UNL A   1      36.990  31.905  40.612  1.00  0.00     0.025 A 
ATOM     25  C   UNL A   1      35.655  32.197  40.909  1.00  0.00     0.017 A 
ATOM     26  C   UNL A   1      37.761  31.194  41.534  1.00  0.00     0.017 A 
ATOM     27  C   UNL A   1      35.112  31.831  42.144  1.00  0.00     0.001 A 
ATOM     28  C   UNL A   1      37.215  30.822  42.767  1.00  0.00     0.001 A 
ATOM     29  C   UNL A   1      35.897  31.156  43.078  1.00  0.00     0.000 A 
ENDBRANCH  23  24
ENDBRANCH  15  22
ENDBRANCH   5   7
ENDBRANCH   2   3
ENDBRANCH   1   2
BRANCH   1  30
ATOM     30  C   UNL A   1      34.987  32.795  29.856  1.00  0.00     0.118 C 
BRANCH  30  31
ATOM     31  N   UNL A   1      34.116  32.108  28.895  1.00  0.00    -0.352 N 
ATOM     32  C   UNL A   1      34.318  30.983  28.123  1.00  0.00     0.251 C 
ATOM     33  H   UNL A   1      33.230  32.524  28.781  1.00  0.00     0.163 HD
ATOM     34  O   UNL A   1      33.482  30.658  27.284  1.00  0.00    -0.269 OA
BRANCH  32  35
ATOM     35  C   UNL A   1      35.568  30.206  28.267  1.00  0.00     0.039 A 
ATOM     36  C   UNL A   1      36.503  30.194  27.229  1.00  0.00     0.014 A 
ATOM     37  C   UNL A   1      35.858  29.566  29.467  1.00  0.00     0.014 A 
ATOM     38  C   UNL A   1      37.782  29.678  27.462  1.00  0.00     0.010 A 
ATOM     39  C   UNL A   1      37.168  29.217  29.750  1.00  0.00     0.010 A 
ATOM     40  C   UNL A   1      38.151  29.273  28.753  1.00  0.00    -0.014 A 
BRANCH  40  41
ATOM     41  C   UNL A   1      39.546  28.908  29.115  1.00  0.00     0.031 A 
ATOM     42  C   UNL A   1      40.441  29.942  29.752  1.00  0.00     0.074 A 
ATOM     43  C   UNL A   1      40.040  27.700  28.770  1.00  0.00     0.049 A 
ATOM     44  N   UNL A   1      41.726  29.887  29.988  1.00  0.00    -0.248 NA
ATOM     45  C   UNL A   1      39.816  31.221  30.138  1.00  0.00     0.031 C 
ATOM     46  C   UNL A   1      39.290  26.627  28.109  1.00  0.00     0.029 A 
ATOM     47  N   UNL A   1      41.301  27.172  28.915  1.00  0.00    -0.354 N 
ATOM     48  C   UNL A   1      42.060  31.123  30.528  1.00  0.00     0.074 A 
ATOM     49  C   UNL A   1      40.866  31.935  30.513  1.00  0.00     0.031 C 
ATOM     50  C   UNL A   1      40.091  25.562  27.945  1.00  0.00     0.029 A 
ATOM     51  C   UNL A   1      41.427  25.893  28.423  1.00  0.00     0.049 A 
ATOM     52  H   UNL A   1      42.044  27.664  29.332  1.00  0.00     0.167 HD
ATOM     53  C   UNL A   1      43.247  31.537  31.028  1.00  0.00     0.031 A 
ATOM     54  C   UNL A   1      42.503  25.084  28.348  1.00  0.00     0.031 A 
ATOM     55  C   UNL A   1      44.428  30.719  31.061  1.00  0.00     0.049 A 
ATOM     56  C   UNL A   1      43.826  25.591  28.861  1.00  0.00     0.074 A 
ATOM     57  C   UNL A   1      45.671  31.026  31.585  1.00  0.00     0.029 A 
ATOM     58  N   UNL A   1      44.510  29.431  30.556  1.00  0.00    -0.354 N 
ATOM     59  N   UNL A   1      44.105  26.740  29.429  1.00  0.00    -0.248 NA
ATOM     60  C   UNL A   1      44.981  24.693  28.721  1.00  0.00     0.031 C 
ATOM     61  C   UNL A   1      46.522  29.945  31.342  1.00  0.00     0.029 A 
ATOM     62  C   UNL A   1      45.792  28.940  30.728  1.00  0.00     0.049 A 
ATOM     63  H   UNL A   1      43.768  28.938  30.137  1.00  0.00     0.167 HD
ATOM     64  C   UNL A   1      45.459  26.689  29.741  1.00  0.00     0.074 A 
ATOM     65  C   UNL A   1      45.937  25.389  29.320  1.00  0.00     0.031 C 
ATOM     66  C   UNL A   1      46.241  27.634  30.317  1.00  0.00     0.031 A 
BRANCH  53  67
ATOM     67  C   UNL A   1      43.322  32.928  31.601  1.00  0.00    -0.014 A 
ATOM     68  C   UNL A   1      43.063  33.159  32.965  1.00  0.00     0.010 A 
ATOM     69  C   UNL A   1      43.712  34.006  30.787  1.00  0.00     0.010 A 
ATOM     70  C   UNL A   1      43.166  34.445  33.499  1.00  0.00     0.020 A 
ATOM     71  C   UNL A   1      43.849  35.290  31.325  1.00  0.00     0.020 A 
ATOM     72  C   UNL A   1      43.564  35.502  32.676  1.00  0.00     0.054 A 
BRANCH  72  73
ATOM     73  S   UNL A   1      43.743  37.148  33.414  1.00  0.00     0.124 S 
ATOM     74  O   UNL A   1      42.508  37.268  34.185  1.00  0.00    -0.237 OA
ATOM     75  O   UNL A   1      44.965  37.011  34.203  1.00  0.00    -0.237 OA
ATOM     76  O   UNL A   1      43.845  38.038  32.260  1.00  0.00    -0.744 OA
ENDBRANCH  72  73
ENDBRANCH  53  67
BRANCH  54  77
ATOM     77  C   UNL A   1      42.391  23.717  27.762  1.00  0.00    -0.014 A 
ATOM     78  C   UNL A   1      42.123  22.608  28.588  1.00  0.00     0.010 A 
ATOM     79  C   UNL A   1      42.587  23.506  26.386  1.00  0.00     0.010 A 
ATOM     80  C   UNL A   1      42.095  21.317  28.056  1.00  0.00     0.020 A 
ATOM     81  C   UNL A   1      42.523  22.218  25.843  1.00  0.00     0.020 A 
ATOM     82  C   UNL A   1      42.299  21.129  26.686  1.00  0.00     0.054 A 
BRANCH  82  83
ATOM     83  S   UNL A   1      42.253  19.442  26.019  1.00  0.00     0.124 S 
ATOM     84  O   UNL A   1      42.742  18.657  27.149  1.00  0.00    -0.237 OA
ATOM     85  O   UNL A   1      40.840  19.271  25.692  1.00  0.00    -0.237 OA
ATOM     86  O   UNL A   1      43.150  19.506  24.867  1.00  0.00    -0.744 OA
ENDBRANCH  82  83
ENDBRANCH  54  77
BRANCH  66  87
ATOM     87  C   UNL A   1      47.686  27.294  30.559  1.00  0.00    -0.014 A 
ATOM     88  C   UNL A   1      48.671  27.595  29.602  1.00  0.00     0.010 A 
ATOM     89  C   UNL A   1      48.074  26.753  31.798  1.00  0.00     0.010 A 
ATOM     90  C   UNL A   1      50.018  27.349  29.877  1.00  0.00     0.020 A 
ATOM     91  C   UNL A   1      49.422  26.538  32.091  1.00  0.00     0.020 A 
ATOM     92  C   UNL A   1      50.386  26.832  31.124  1.00  0.00     0.054 A 
BRANCH  92  93
ATOM     93  S   UNL A   1      52.149  26.608  31.483  1.00  0.00     0.124 S 
ATOM     94  O   UNL A   1      52.242  25.161  31.659  1.00  0.00    -0.237 OA
ATOM     95  O   UNL A   1      52.787  27.138  30.280  1.00  0.00    -0.237 OA
ATOM     96  O   UNL A   1      52.360  27.398  32.694  1.00  0.00    -0.744 OA
ENDBRANCH  92  93
ENDBRANCH  66  87
ENDBRANCH  40  41
ENDBRANCH  32  35
ENDBRANCH  30  31
ENDBRANCH   1  30
TORSDOF 16
ENDMDL
MODEL 3
REMARK VINA RESULT:     -11.9      4.734      5.607
REMARK SMILES O=C(NCCCNC(=O)c1ccc(-c2c3nc(c(-c4ccc(S(=O)(=O)[O-])cc4)c4ccc([nH]4)c(-c4ccc(S(=O)(=O)[O-])cc4)c4nc(c(-c5ccc(S(=O)(=O)[O-])cc5)c5ccc2[nH]5)C=C4)C=C3)cc1)C1=Cc2cc(Cl)cc(C#Cc3ccccc3)c2O[C@@H]1C(F)(F)F
REMARK SMILES IDX 5 1 4 2 3 3 1 4 2 5 70 7 71 8 88 9 72 10 87 11 73 12 86 13
REMARK SMILES IDX 74 14 77 15 75 16 76 17 89 18 90 19 91 20 92 21 78 22 79 23
REMARK SMILES IDX 80 24 81 25 85 26 82 27 84 28 83 29 6 30 7 31 8 32 9 34
REMARK SMILES IDX 10 35 11 36 69 37 12 38 68 39 13 40 14 41 15 42 62 43 16 44
REMARK SMILES IDX 67 45 61 46 63 47 17 48 66 49 60 50 59 51 18 53 48 54 29 55
REMARK SMILES IDX 47 56 30 57 33 58 46 59 64 60 31 61 32 62 45 64 65 65 34 66
REMARK SMILES IDX 19 67 20 68 28 69 21 70 27 71 22 72 23 73 24 74 25 75 26 76
REMARK SMILES IDX 49 77 50 78 58 79 51 80 57 81 52 82 53 83 54 84 55 85 56 86
REMARK SMILES IDX 35 87 36 88 44 89 37 90 43 91 38 92 39 93 40 94 41 95 42 96
REMARK H PARENT 3 6 7 33 63 52 33 63
REMARK Flexibility Score: inf
ROOT
ATOM      1  C   UNL A   1      37.491  21.685  24.870  1.00  0.00     0.042 C 
ENDROOT
BRANCH   1   2
ATOM      2  C   UNL A   1      36.350  20.952  25.533  1.00  0.00     0.118 C 
BRANCH   2   3
ATOM      3  N   UNL A   1      35.698  21.618  26.636  1.00  0.00    -0.352 N 
ATOM      4  O   UNL A   1      33.971  22.585  27.697  1.00  0.00    -0.270 OA
ATOM      5  C   UNL A   1      34.512  22.300  26.629  1.00  0.00     0.251 C 
ATOM      6  H   UNL A   1      36.166  21.576  27.502  1.00  0.00     0.163 HD
BRANCH   5   7
ATOM      7  C   UNL A   1      33.776  22.602  25.359  1.00  0.00     0.067 C 
ATOM      8  C   UNL A   1      32.440  22.493  25.230  1.00  0.00     0.025 C 
ATOM      9  C   UNL A   1      34.483  23.652  24.541  1.00  0.00     0.314 C 
ATOM     10  C   UNL A   1      31.771  23.830  25.162  1.00  0.00     0.020 A 
ATOM     11  O   UNL A   1      33.892  24.965  24.745  1.00  0.00    -0.474 OA
ATOM     12  C   UNL A   1      30.437  23.887  25.598  1.00  0.00     0.032 A 
ATOM     13  C   UNL A   1      32.572  24.995  25.145  1.00  0.00     0.143 A 
ATOM     14  C   UNL A   1      29.949  25.073  26.142  1.00  0.00     0.043 A 
ATOM     15  C   UNL A   1      32.081  26.166  25.749  1.00  0.00     0.069 A 
ATOM     16  Cl  UNL A   1      28.395  25.092  26.881  1.00  0.00    -0.084 Cl
ATOM     17  C   UNL A   1      30.769  26.196  26.245  1.00  0.00     0.041 A 
BRANCH   9  18
ATOM     18  C   UNL A   1      34.554  23.231  23.064  1.00  0.00     0.429 C 
ATOM     19  F   UNL A   1      35.833  23.088  22.645  1.00  0.00    -0.167 F 
ATOM     20  F   UNL A   1      33.943  22.036  22.863  1.00  0.00    -0.167 F 
ATOM     21  F   UNL A   1      33.958  24.121  22.237  1.00  0.00    -0.167 F 
ENDBRANCH   9  18
BRANCH  15  22
ATOM     22  C   UNL A   1      32.946  27.247  26.142  1.00  0.00    -0.058 C 
ATOM     23  C   UNL A   1      33.535  28.201  26.572  1.00  0.00    -0.062 C 
BRANCH  23  24
ATOM     24  C   UNL A   1      34.170  29.383  27.084  1.00  0.00     0.025 A 
ATOM     25  C   UNL A   1      33.423  30.547  27.295  1.00  0.00     0.017 A 
ATOM     26  C   UNL A   1      35.543  29.390  27.342  1.00  0.00     0.017 A 
ATOM     27  C   UNL A   1      34.056  31.724  27.705  1.00  0.00     0.001 A 
ATOM     28  C   UNL A   1      36.173  30.566  27.758  1.00  0.00     0.001 A 
ATOM     29  C   UNL A   1      35.433  31.737  27.923  1.00  0.00     0.000 A 
ENDBRANCH  23  24
ENDBRANCH  15  22
ENDBRANCH   5   7
ENDBRANCH   2   3
ENDBRANCH   1   2
BRANCH   1  30
ATOM     30  C   UNL A   1      38.392  22.378  25.868  1.00  0.00     0.118 C 
BRANCH  30  31
ATOM     31  N   UNL A   1      39.763  21.854  25.899  1.00  0.00    -0.352 N 
ATOM     32  C   UNL A   1      40.957  22.441  26.263  1.00  0.00     0.251 C 
ATOM     33  H   UNL A   1      39.845  20.915  25.609  1.00  0.00     0.163 HD
ATOM     34  O   UNL A   1      42.013  21.840  26.087  1.00  0.00    -0.269 OA
BRANCH  32  35
ATOM     35  C   UNL A   1      40.965  23.816  26.809  1.00  0.00     0.039 A 
ATOM     36  C   UNL A   1      41.171  24.020  28.176  1.00  0.00     0.014 A 
ATOM     37  C   UNL A   1      40.862  24.908  25.954  1.00  0.00     0.014 A 
ATOM     38  C   UNL A   1      41.432  25.310  28.646  1.00  0.00     0.010 A 
ATOM     39  C   UNL A   1      41.289  26.151  26.387  1.00  0.00     0.010 A 
ATOM     40  C   UNL A   1      41.586  26.371  27.740  1.00  0.00    -0.014 A 
BRANCH  40  41
ATOM     41  C   UNL A   1      42.062  27.718  28.150  1.00  0.00     0.031 A 
ATOM     42  C   UNL A   1      43.540  28.017  28.138  1.00  0.00     0.074 A 
ATOM     43  C   UNL A   1      41.188  28.624  28.636  1.00  0.00     0.049 A 
ATOM     44  N   UNL A   1      44.175  29.056  28.614  1.00  0.00    -0.248 NA
ATOM     45  C   UNL A   1      44.426  26.993  27.553  1.00  0.00     0.031 C 
ATOM     46  C   UNL A   1      39.736  28.441  28.741  1.00  0.00     0.029 A 
ATOM     47  N   UNL A   1      41.393  29.882  29.149  1.00  0.00    -0.354 N 
ATOM     48  C   UNL A   1      45.524  28.801  28.401  1.00  0.00     0.074 A 
ATOM     49  C   UNL A   1      45.625  27.480  27.828  1.00  0.00     0.031 C 
ATOM     50  C   UNL A   1      39.183  29.556  29.244  1.00  0.00     0.029 A 
ATOM     51  C   UNL A   1      40.240  30.509  29.562  1.00  0.00     0.049 A 
ATOM     52  H   UNL A   1      42.284  30.296  29.216  1.00  0.00     0.167 HD
ATOM     53  C   UNL A   1      46.586  29.609  28.627  1.00  0.00     0.031 A 
ATOM     54  C   UNL A   1      40.055  31.708  30.149  1.00  0.00     0.031 A 
ATOM     55  C   UNL A   1      46.479  30.932  29.177  1.00  0.00     0.049 A 
ATOM     56  C   UNL A   1      41.260  32.564  30.441  1.00  0.00     0.074 A 
ATOM     57  C   UNL A   1      47.488  31.850  29.406  1.00  0.00     0.029 A 
ATOM     58  N   UNL A   1      45.292  31.527  29.578  1.00  0.00    -0.354 N 
ATOM     59  N   UNL A   1      42.523  32.331  30.171  1.00  0.00    -0.248 NA
ATOM     60  C   UNL A   1      41.017  33.845  31.120  1.00  0.00     0.031 C 
ATOM     61  C   UNL A   1      46.919  32.979  30.002  1.00  0.00     0.029 A 
ATOM     62  C   UNL A   1      45.548  32.790  30.081  1.00  0.00     0.049 A 
ATOM     63  H   UNL A   1      44.402  31.114  29.514  1.00  0.00     0.167 HD
ATOM     64  C   UNL A   1      43.217  33.450  30.618  1.00  0.00     0.074 A 
ATOM     65  C   UNL A   1      42.235  34.367  31.155  1.00  0.00     0.031 C 
ATOM     66  C   UNL A   1      44.551  33.694  30.594  1.00  0.00     0.031 A 
BRANCH  53  67
ATOM     67  C   UNL A   1      47.951  29.094  28.257  1.00  0.00    -0.014 A 
ATOM     68  C   UNL A   1      48.488  29.330  26.977  1.00  0.00     0.010 A 
ATOM     69  C   UNL A   1      48.734  28.421  29.212  1.00  0.00     0.010 A 
ATOM     70  C   UNL A   1      49.768  28.880  26.650  1.00  0.00     0.020 A 
ATOM     71  C   UNL A   1      50.030  27.997  28.900  1.00  0.00     0.020 A 
ATOM     72  C   UNL A   1      50.533  28.220  27.616  1.00  0.00     0.054 A 
BRANCH  72  73
ATOM     73  S   UNL A   1      52.213  27.699  27.176  1.00  0.00     0.124 S 
ATOM     74  O   UNL A   1      51.997  27.040  25.890  1.00  0.00    -0.237 OA
ATOM     75  O   UNL A   1      52.934  28.968  27.117  1.00  0.00    -0.237 OA
ATOM     76  O   UNL A   1      52.602  26.814  28.270  1.00  0.00    -0.744 OA
ENDBRANCH  72  73
ENDBRANCH  53  67
BRANCH  54  77
ATOM     77  C   UNL A   1      38.687  32.178  30.511  1.00  0.00    -0.014 A 
ATOM     78  C   UNL A   1      38.075  33.217  29.784  1.00  0.00     0.010 A 
ATOM     79  C   UNL A   1      37.999  31.619  31.604  1.00  0.00     0.010 A 
ATOM     80  C   UNL A   1      36.827  33.715  30.168  1.00  0.00     0.020 A 
ATOM     81  C   UNL A   1      36.733  32.089  31.969  1.00  0.00     0.020 A 
ATOM     82  C   UNL A   1      36.164  33.149  31.261  1.00  0.00     0.054 A 
BRANCH  82  83
ATOM     83  S   UNL A   1      34.542  33.809  31.737  1.00  0.00     0.124 S 
ATOM     84  O   UNL A   1      33.909  34.020  30.438  1.00  0.00    -0.237 OA
ATOM     85  O   UNL A   1      33.987  32.726  32.545  1.00  0.00    -0.237 OA
ATOM     86  O   UNL A   1      34.872  35.025  32.477  1.00  0.00    -0.744 OA
ENDBRANCH  82  83
ENDBRANCH  54  77
BRANCH  66  87
ATOM     87  C   UNL A   1      45.029  35.015  31.134  1.00  0.00    -0.014 A 
ATOM     88  C   UNL A   1      45.069  36.159  30.318  1.00  0.00     0.010 A 
ATOM     89  C   UNL A   1      45.351  35.131  32.498  1.00  0.00     0.010 A 
ATOM     90  C   UNL A   1      45.435  37.394  30.856  1.00  0.00     0.020 A 
ATOM     91  C   UNL A   1      45.684  36.371  33.048  1.00  0.00     0.020 A 
ATOM     92  C   UNL A   1      45.730  37.494  32.220  1.00  0.00     0.054 A 
BRANCH  92  93
ATOM     93  S   UNL A   1      46.115  39.128  32.905  1.00  0.00     0.124 S 
ATOM     94  O   UNL A   1      47.526  38.988  33.253  1.00  0.00    -0.237 OA
ATOM     95  O   UNL A   1      45.828  40.018  31.783  1.00  0.00    -0.237 OA
ATOM     96  O   UNL A   1      45.203  39.252  34.041  1.00  0.00    -0.744 OA
ENDBRANCH  92  93
ENDBRANCH  66  87
ENDBRANCH  40  41
ENDBRANCH  32  35
ENDBRANCH  30  31
ENDBRANCH   1  30
TORSDOF 16
ENDMDL
