MODEL 1
REMARK VINA RESULT:     -10.5      0.000      0.000
REMARK SMILES [NH3+][C@H](Cc1ccc(O)c(F)c1)C(=O)NCCCNC(=O)c1ccc(-c2c3nc(c(-c4ccc(S(=O)(=O)[O-])cc4)c4ccc([nH]4)c(-c4ccc(S(=O)(=O)[O-])cc4)c4nc(c(-c5ccc(S(=O)(=O)[O-])cc5)c5ccc2[nH]5)C=C4)C=C3)cc1
REMARK SMILES IDX 16 1 15 2 14 3 12 4 13 5 2 7 1 8 3 12 4 13 5 14 11 15 6 16
REMARK SMILES IDX 9 17 7 18 10 19 8 20 17 22 18 23 19 24 20 26 21 27 22 28
REMARK SMILES IDX 80 29 23 30 79 31 24 32 25 33 26 34 73 35 27 36 78 37 72 38
REMARK SMILES IDX 74 39 28 40 77 41 71 42 70 43 29 45 59 46 40 47 58 48 41 49
REMARK SMILES IDX 44 50 57 51 75 52 42 53 43 54 56 56 76 57 45 58 30 59 31 60
REMARK SMILES IDX 39 61 32 62 38 63 33 64 34 65 35 66 36 67 37 68 60 69 61 70
REMARK SMILES IDX 69 71 62 72 68 73 63 74 64 75 65 76 66 77 67 78 46 79 47 80
REMARK SMILES IDX 55 81 48 82 54 83 49 84 50 85 51 86 52 87 53 88
REMARK H PARENT 14 6 1 9 1 10 1 11 8 21 18 25 74 44 44 55
REMARK Flexibility Score: inf
ROOT
ATOM      1  C   UNL A   1      35.641  23.523  25.821  1.00  0.00     0.042 C 
ENDROOT
BRANCH   1   2
ATOM      2  C   UNL A   1      34.400  24.266  25.349  1.00  0.00     0.118 C 
BRANCH   2   3
ATOM      3  N   UNL A   1      34.196  24.033  23.930  1.00  0.00    -0.351 N 
ATOM      4  C   UNL A   1      33.383  23.207  23.220  1.00  0.00     0.278 C 
ATOM      5  O   UNL A   1      33.696  23.042  22.034  1.00  0.00    -0.268 OA
ATOM      6  H   UNL A   1      34.771  24.592  23.360  1.00  0.00     0.163 HD
BRANCH   4   7
ATOM      7  C   UNL A   1      32.124  22.509  23.783  1.00  0.00     0.275 C 
BRANCH   7   8
ATOM      8  N   UNL A   1      31.081  23.473  24.176  1.00  0.00    -0.347 N 
ATOM      9  H   UNL A   1      30.575  23.115  24.988  1.00  0.00     0.345 HD
ATOM     10  H   UNL A   1      30.429  23.605  23.402  1.00  0.00     0.345 HD
ATOM     11  H   UNL A   1      31.513  24.366  24.412  1.00  0.00     0.345 HD
ENDBRANCH   7   8
BRANCH   7  12
ATOM     12  C   UNL A   1      32.364  21.276  24.687  1.00  0.00     0.111 C 
BRANCH  12  13
ATOM     13  C   UNL A   1      32.818  19.944  24.133  1.00  0.00    -0.038 A 
ATOM     14  C   UNL A   1      32.183  19.290  23.066  1.00  0.00     0.008 A 
ATOM     15  C   UNL A   1      33.979  19.351  24.667  1.00  0.00     0.047 A 
ATOM     16  C   UNL A   1      32.596  18.016  22.648  1.00  0.00     0.049 A 
ATOM     17  C   UNL A   1      34.403  18.096  24.232  1.00  0.00     0.165 A 
ATOM     18  C   UNL A   1      33.690  17.409  23.257  1.00  0.00     0.151 A 
ATOM     19  F   UNL A   1      35.479  17.541  24.808  1.00  0.00    -0.203 F 
BRANCH  18  20
ATOM     20  O   UNL A   1      34.060  16.138  22.928  1.00  0.00    -0.505 OA
ATOM     21  H   UNL A   1      34.821  15.994  22.404  1.00  0.00     0.293 HD
ENDBRANCH  18  20
ENDBRANCH  12  13
ENDBRANCH   7  12
ENDBRANCH   4   7
ENDBRANCH   2   3
ENDBRANCH   1   2
BRANCH   1  22
ATOM     22  C   UNL A   1      36.875  23.602  24.940  1.00  0.00     0.118 C 
BRANCH  22  23
ATOM     23  N   UNL A   1      37.968  22.724  25.311  1.00  0.00    -0.352 N 
ATOM     24  C   UNL A   1      39.062  22.920  26.125  1.00  0.00     0.251 C 
ATOM     25  H   UNL A   1      37.919  21.826  24.911  1.00  0.00     0.163 HD
ATOM     26  O   UNL A   1      39.830  21.973  26.276  1.00  0.00    -0.269 OA
BRANCH  24  27
ATOM     27  C   UNL A   1      39.384  24.230  26.766  1.00  0.00     0.039 A 
ATOM     28  C   UNL A   1      38.927  24.445  28.074  1.00  0.00     0.014 A 
ATOM     29  C   UNL A   1      40.099  25.250  26.139  1.00  0.00     0.014 A 
ATOM     30  C   UNL A   1      39.257  25.617  28.765  1.00  0.00     0.010 A 
ATOM     31  C   UNL A   1      40.523  26.368  26.862  1.00  0.00     0.010 A 
ATOM     32  C   UNL A   1      40.104  26.570  28.183  1.00  0.00    -0.014 A 
BRANCH  32  33
ATOM     33  C   UNL A   1      40.547  27.784  28.923  1.00  0.00     0.031 A 
ATOM     34  C   UNL A   1      41.900  27.821  29.587  1.00  0.00     0.074 A 
ATOM     35  C   UNL A   1      39.708  28.832  29.060  1.00  0.00     0.049 A 
ATOM     36  N   UNL A   1      42.420  28.744  30.355  1.00  0.00    -0.248 NA
ATOM     37  C   UNL A   1      42.772  26.651  29.385  1.00  0.00     0.031 C 
ATOM     38  C   UNL A   1      38.350  28.912  28.513  1.00  0.00     0.029 A 
ATOM     39  N   UNL A   1      39.870  30.029  29.715  1.00  0.00    -0.354 N 
ATOM     40  C   UNL A   1      43.658  28.252  30.757  1.00  0.00     0.074 A 
ATOM     41  C   UNL A   1      43.794  26.933  30.180  1.00  0.00     0.031 C 
ATOM     42  C   UNL A   1      37.818  30.106  28.825  1.00  0.00     0.029 A 
ATOM     43  C   UNL A   1      38.773  30.856  29.635  1.00  0.00     0.049 A 
ATOM     44  H   UNL A   1      40.693  30.273  30.196  1.00  0.00     0.167 HD
ATOM     45  C   UNL A   1      44.606  28.848  31.519  1.00  0.00     0.031 A 
ATOM     46  C   UNL A   1      38.552  32.077  30.161  1.00  0.00     0.031 A 
ATOM     47  C   UNL A   1      44.487  30.173  32.067  1.00  0.00     0.049 A 
ATOM     48  C   UNL A   1      39.627  32.728  30.987  1.00  0.00     0.074 A 
ATOM     49  C   UNL A   1      45.419  30.888  32.801  1.00  0.00     0.029 A 
ATOM     50  N   UNL A   1      43.373  30.987  31.934  1.00  0.00    -0.354 N 
ATOM     51  N   UNL A   1      40.811  32.266  31.311  1.00  0.00    -0.248 NA
ATOM     52  C   UNL A   1      39.339  34.070  31.513  1.00  0.00     0.031 C 
ATOM     53  C   UNL A   1      44.853  32.120  33.143  1.00  0.00     0.029 A 
ATOM     54  C   UNL A   1      43.588  32.191  32.582  1.00  0.00     0.049 A 
ATOM     55  H   UNL A   1      42.550  30.744  31.450  1.00  0.00     0.167 HD
ATOM     56  C   UNL A   1      41.418  33.269  32.059  1.00  0.00     0.074 A 
ATOM     57  C   UNL A   1      40.477  34.369  32.127  1.00  0.00     0.031 C 
ATOM     58  C   UNL A   1      42.644  33.278  32.636  1.00  0.00     0.031 A 
BRANCH  45  59
ATOM     59  C   UNL A   1      45.860  28.063  31.807  1.00  0.00    -0.014 A 
ATOM     60  C   UNL A   1      46.988  28.167  30.973  1.00  0.00     0.010 A 
ATOM     61  C   UNL A   1      45.921  27.234  32.941  1.00  0.00     0.010 A 
ATOM     62  C   UNL A   1      48.136  27.415  31.239  1.00  0.00     0.020 A 
ATOM     63  C   UNL A   1      47.078  26.502  33.226  1.00  0.00     0.020 A 
ATOM     64  C   UNL A   1      48.171  26.582  32.361  1.00  0.00     0.054 A 
BRANCH  64  65
ATOM     65  S   UNL A   1      49.676  25.624  32.687  1.00  0.00     0.124 S 
ATOM     66  O   UNL A   1      49.969  25.068  31.368  1.00  0.00    -0.237 OA
ATOM     67  O   UNL A   1      50.610  26.641  33.160  1.00  0.00    -0.237 OA
ATOM     68  O   UNL A   1      49.257  24.651  33.693  1.00  0.00    -0.744 OA
ENDBRANCH  64  65
ENDBRANCH  45  59
BRANCH  46  69
ATOM     69  C   UNL A   1      37.261  32.774  29.906  1.00  0.00    -0.014 A 
ATOM     70  C   UNL A   1      36.245  32.761  30.877  1.00  0.00     0.010 A 
ATOM     71  C   UNL A   1      37.046  33.465  28.700  1.00  0.00     0.010 A 
ATOM     72  C   UNL A   1      35.029  33.411  30.641  1.00  0.00     0.020 A 
ATOM     73  C   UNL A   1      35.842  34.138  28.470  1.00  0.00     0.020 A 
ATOM     74  C   UNL A   1      34.836  34.096  29.439  1.00  0.00     0.054 A 
BRANCH  74  75
ATOM     75  S   UNL A   1      33.272  34.978  29.176  1.00  0.00     0.124 S 
ATOM     76  O   UNL A   1      32.614  34.139  28.179  1.00  0.00    -0.237 OA
ATOM     77  O   UNL A   1      32.672  34.965  30.508  1.00  0.00    -0.237 OA
ATOM     78  O   UNL A   1      33.697  36.295  28.706  1.00  0.00    -0.744 OA
ENDBRANCH  74  75
ENDBRANCH  46  69
BRANCH  58  79
ATOM     79  C   UNL A   1      43.058  34.530  33.363  1.00  0.00    -0.014 A 
ATOM     80  C   UNL A   1      42.862  34.666  34.747  1.00  0.00     0.010 A 
ATOM     81  C   UNL A   1      43.706  35.558  32.655  1.00  0.00     0.010 A 
ATOM     82  C   UNL A   1      43.282  35.824  35.409  1.00  0.00     0.020 A 
ATOM     83  C   UNL A   1      44.148  36.707  33.316  1.00  0.00     0.020 A 
ATOM     84  C   UNL A   1      43.922  36.838  34.687  1.00  0.00     0.054 A 
BRANCH  84  85
ATOM     85  S   UNL A   1      44.500  38.311  35.574  1.00  0.00     0.124 S 
ATOM     86  O   UNL A   1      45.951  38.171  35.484  1.00  0.00    -0.237 OA
ATOM     87  O   UNL A   1      43.925  39.404  34.794  1.00  0.00    -0.237 OA
ATOM     88  O   UNL A   1      43.940  38.150  36.914  1.00  0.00    -0.744 OA
ENDBRANCH  84  85
ENDBRANCH  58  79
ENDBRANCH  32  33
ENDBRANCH  24  27
ENDBRANCH  22  23
ENDBRANCH   1  22
TORSDOF 17
ENDMDL
MODEL 2
REMARK VINA RESULT:     -10.5      3.131      9.320
REMARK SMILES [NH3+][C@H](Cc1ccc(O)c(F)c1)C(=O)NCCCNC(=O)c1ccc(-c2c3nc(c(-c4ccc(S(=O)(=O)[O-])cc4)c4ccc([nH]4)c(-c4ccc(S(=O)(=O)[O-])cc4)c4nc(c(-c5ccc(S(=O)(=O)[O-])cc5)c5ccc2[nH]5)C=C4)C=C3)cc1
REMARK SMILES IDX 16 1 15 2 14 3 12 4 13 5 2 7 1 8 3 12 4 13 5 14 11 15 6 16
REMARK SMILES IDX 9 17 7 18 10 19 8 20 17 22 18 23 19 24 20 26 21 27 22 28
REMARK SMILES IDX 80 29 23 30 79 31 24 32 25 33 26 34 73 35 27 36 78 37 72 38
REMARK SMILES IDX 74 39 28 40 77 41 71 42 70 43 29 45 59 46 40 47 58 48 41 49
REMARK SMILES IDX 44 50 57 51 75 52 42 53 43 54 56 56 76 57 45 58 30 59 31 60
REMARK SMILES IDX 39 61 32 62 38 63 33 64 34 65 35 66 36 67 37 68 60 69 61 70
REMARK SMILES IDX 69 71 62 72 68 73 63 74 64 75 65 76 66 77 67 78 46 79 47 80
REMARK SMILES IDX 55 81 48 82 54 83 49 84 50 85 51 86 52 87 53 88
REMARK H PARENT 14 6 1 9 1 10 1 11 8 21 18 25 74 44 44 55
REMARK Flexibility Score: inf
ROOT
ATOM      1  C   UNL A   1      33.533  28.177  25.769  1.00  0.00     0.042 C 
ENDROOT
BRANCH   1   2
ATOM      2  C   UNL A   1      32.474  27.422  24.980  1.00  0.00     0.118 C 
BRANCH   2   3
ATOM      3  N   UNL A   1      31.802  26.468  25.846  1.00  0.00    -0.351 N 
ATOM      4  C   UNL A   1      31.196  25.271  25.633  1.00  0.00     0.278 C 
ATOM      5  O   UNL A   1      30.452  24.881  26.543  1.00  0.00    -0.268 OA
ATOM      6  H   UNL A   1      31.781  26.750  26.788  1.00  0.00     0.163 HD
BRANCH   4   7
ATOM      7  C   UNL A   1      31.395  24.390  24.379  1.00  0.00     0.275 C 
BRANCH   7   8
ATOM      8  N   UNL A   1      30.160  24.262  23.584  1.00  0.00    -0.347 N 
ATOM      9  H   UNL A   1      29.406  23.916  24.180  1.00  0.00     0.345 HD
ATOM     10  H   UNL A   1      30.314  23.607  22.817  1.00  0.00     0.345 HD
ATOM     11  H   UNL A   1      29.902  25.173  23.206  1.00  0.00     0.345 HD
ENDBRANCH   7   8
BRANCH   7  12
ATOM     12  C   UNL A   1      32.293  23.140  24.548  1.00  0.00     0.111 C 
BRANCH  12  13
ATOM     13  C   UNL A   1      33.793  23.238  24.706  1.00  0.00    -0.038 A 
ATOM     14  C   UNL A   1      34.426  23.598  25.906  1.00  0.00     0.008 A 
ATOM     15  C   UNL A   1      34.611  22.887  23.614  1.00  0.00     0.047 A 
ATOM     16  C   UNL A   1      35.818  23.755  25.972  1.00  0.00     0.049 A 
ATOM     17  C   UNL A   1      35.997  23.018  23.691  1.00  0.00     0.165 A 
ATOM     18  C   UNL A   1      36.598  23.493  24.851  1.00  0.00     0.151 A 
ATOM     19  F   UNL A   1      36.735  22.731  22.609  1.00  0.00    -0.203 F 
BRANCH  18  20
ATOM     20  O   UNL A   1      37.943  23.718  24.864  1.00  0.00    -0.505 OA
ATOM     21  H   UNL A   1      38.390  23.931  24.069  1.00  0.00     0.293 HD
ENDBRANCH  18  20
ENDBRANCH  12  13
ENDBRANCH   7  12
ENDBRANCH   4   7
ENDBRANCH   2   3
ENDBRANCH   1   2
BRANCH   1  22
ATOM     22  C   UNL A   1      33.234  28.472  27.228  1.00  0.00     0.118 C 
BRANCH  22  23
ATOM     23  N   UNL A   1      33.294  29.870  27.610  1.00  0.00    -0.352 N 
ATOM     24  C   UNL A   1      34.334  30.649  28.068  1.00  0.00     0.251 C 
ATOM     25  H   UNL A   1      32.437  30.348  27.527  1.00  0.00     0.163 HD
ATOM     26  O   UNL A   1      34.094  31.831  28.299  1.00  0.00    -0.269 OA
BRANCH  24  27
ATOM     27  C   UNL A   1      35.698  30.112  28.353  1.00  0.00     0.039 A 
ATOM     28  C   UNL A   1      36.652  30.184  27.327  1.00  0.00     0.014 A 
ATOM     29  C   UNL A   1      36.072  29.538  29.567  1.00  0.00     0.014 A 
ATOM     30  C   UNL A   1      37.973  29.771  27.548  1.00  0.00     0.010 A 
ATOM     31  C   UNL A   1      37.411  29.231  29.824  1.00  0.00     0.010 A 
ATOM     32  C   UNL A   1      38.379  29.338  28.817  1.00  0.00    -0.014 A 
BRANCH  32  33
ATOM     33  C   UNL A   1      39.794  28.977  29.109  1.00  0.00     0.031 A 
ATOM     34  C   UNL A   1      40.730  29.993  29.715  1.00  0.00     0.074 A 
ATOM     35  C   UNL A   1      40.262  27.759  28.766  1.00  0.00     0.049 A 
ATOM     36  N   UNL A   1      42.014  29.898  29.948  1.00  0.00    -0.248 NA
ATOM     37  C   UNL A   1      40.151  31.297  30.078  1.00  0.00     0.031 C 
ATOM     38  C   UNL A   1      39.481  26.697  28.127  1.00  0.00     0.029 A 
ATOM     39  N   UNL A   1      41.516  27.212  28.898  1.00  0.00    -0.354 N 
ATOM     40  C   UNL A   1      42.402  31.137  30.448  1.00  0.00     0.074 A 
ATOM     41  C   UNL A   1      41.226  31.978  30.447  1.00  0.00     0.031 C 
ATOM     42  C   UNL A   1      40.262  25.617  27.955  1.00  0.00     0.029 A 
ATOM     43  C   UNL A   1      41.610  25.925  28.422  1.00  0.00     0.049 A 
ATOM     44  H   UNL A   1      42.275  27.695  29.295  1.00  0.00     0.167 HD
ATOM     45  C   UNL A   1      43.620  31.536  30.887  1.00  0.00     0.031 A 
ATOM     46  C   UNL A   1      42.663  25.086  28.358  1.00  0.00     0.031 A 
ATOM     47  C   UNL A   1      44.784  30.691  30.921  1.00  0.00     0.049 A 
ATOM     48  C   UNL A   1      44.001  25.543  28.871  1.00  0.00     0.074 A 
ATOM     49  C   UNL A   1      46.047  30.985  31.405  1.00  0.00     0.029 A 
ATOM     50  N   UNL A   1      44.825  29.385  30.459  1.00  0.00    -0.354 N 
ATOM     51  N   UNL A   1      44.333  26.702  29.388  1.00  0.00    -0.248 NA
ATOM     52  C   UNL A   1      45.105  24.576  28.799  1.00  0.00     0.031 C 
ATOM     53  C   UNL A   1      46.863  29.867  31.202  1.00  0.00     0.029 A 
ATOM     54  C   UNL A   1      46.096  28.862  30.635  1.00  0.00     0.049 A 
ATOM     55  H   UNL A   1      44.065  28.900  30.064  1.00  0.00     0.167 HD
ATOM     56  C   UNL A   1      45.678  26.595  29.724  1.00  0.00     0.074 A 
ATOM     57  C   UNL A   1      46.095  25.255  29.366  1.00  0.00     0.031 C 
ATOM     58  C   UNL A   1      46.494  27.525  30.279  1.00  0.00     0.031 A 
BRANCH  45  59
ATOM     59  C   UNL A   1      43.753  32.958  31.368  1.00  0.00    -0.014 A 
ATOM     60  C   UNL A   1      44.152  33.986  30.493  1.00  0.00     0.010 A 
ATOM     61  C   UNL A   1      43.448  33.277  32.703  1.00  0.00     0.010 A 
ATOM     62  C   UNL A   1      44.295  35.296  30.958  1.00  0.00     0.020 A 
ATOM     63  C   UNL A   1      43.561  34.592  33.165  1.00  0.00     0.020 A 
ATOM     64  C   UNL A   1      44.004  35.590  32.294  1.00  0.00     0.054 A 
BRANCH  64  65
ATOM     65  S   UNL A   1      44.189  37.299  32.870  1.00  0.00     0.124 S 
ATOM     66  O   UNL A   1      45.526  37.274  33.457  1.00  0.00    -0.237 OA
ATOM     67  O   UNL A   1      44.060  38.071  31.637  1.00  0.00    -0.237 OA
ATOM     68  O   UNL A   1      43.093  37.465  33.822  1.00  0.00    -0.744 OA
ENDBRANCH  64  65
ENDBRANCH  45  59
BRANCH  46  69
ATOM     69  C   UNL A   1      42.490  23.716  27.801  1.00  0.00    -0.014 A 
ATOM     70  C   UNL A   1      42.757  23.463  26.445  1.00  0.00     0.010 A 
ATOM     71  C   UNL A   1      42.070  22.656  28.625  1.00  0.00     0.010 A 
ATOM     72  C   UNL A   1      42.592  22.179  25.916  1.00  0.00     0.020 A 
ATOM     73  C   UNL A   1      41.928  21.364  28.107  1.00  0.00     0.020 A 
ATOM     74  C   UNL A   1      42.180  21.137  26.752  1.00  0.00     0.054 A 
BRANCH  74  75
ATOM     75  S   UNL A   1      42.024  19.468  26.057  1.00  0.00     0.124 S 
ATOM     76  O   UNL A   1      42.539  18.638  27.142  1.00  0.00    -0.237 OA
ATOM     77  O   UNL A   1      40.589  19.360  25.805  1.00  0.00    -0.237 OA
ATOM     78  O   UNL A   1      42.857  19.518  24.857  1.00  0.00    -0.744 OA
ENDBRANCH  74  75
ENDBRANCH  46  69
BRANCH  58  79
ATOM     79  C   UNL A   1      47.913  27.115  30.571  1.00  0.00    -0.014 A 
ATOM     80  C   UNL A   1      48.952  27.398  29.668  1.00  0.00     0.010 A 
ATOM     81  C   UNL A   1      48.216  26.491  31.794  1.00  0.00     0.010 A 
ATOM     82  C   UNL A   1      50.268  27.036  29.971  1.00  0.00     0.020 A 
ATOM     83  C   UNL A   1      49.533  26.149  32.111  1.00  0.00     0.020 A 
ATOM     84  C   UNL A   1      50.549  26.413  31.191  1.00  0.00     0.054 A 
BRANCH  84  85
ATOM     85  S   UNL A   1      52.270  25.996  31.584  1.00  0.00     0.124 S 
ATOM     86  O   UNL A   1      52.923  26.143  30.287  1.00  0.00    -0.237 OA
ATOM     87  O   UNL A   1      52.625  27.000  32.585  1.00  0.00    -0.237 OA
ATOM     88  O   UNL A   1      52.187  24.627  32.089  1.00  0.00    -0.744 OA
ENDBRANCH  84  85
ENDBRANCH  58  79
ENDBRANCH  32  33
ENDBRANCH  24  27
ENDBRANCH  22  23
ENDBRANCH   1  22
TORSDOF 17
ENDMDL
MODEL 3
REMARK VINA RESULT:     -10.5      4.405     10.340
REMARK SMILES [NH3+][C@H](Cc1ccc(O)c(F)c1)C(=O)NCCCNC(=O)c1ccc(-c2c3nc(c(-c4ccc(S(=O)(=O)[O-])cc4)c4ccc([nH]4)c(-c4ccc(S(=O)(=O)[O-])cc4)c4nc(c(-c5ccc(S(=O)(=O)[O-])cc5)c5ccc2[nH]5)C=C4)C=C3)cc1
REMARK SMILES IDX 16 1 15 2 14 3 12 4 13 5 2 7 1 8 3 12 4 13 5 14 11 15 6 16
REMARK SMILES IDX 9 17 7 18 10 19 8 20 17 22 18 23 19 24 20 26 21 27 22 28
REMARK SMILES IDX 80 29 23 30 79 31 24 32 25 33 26 34 73 35 27 36 78 37 72 38
REMARK SMILES IDX 74 39 28 40 77 41 71 42 70 43 29 45 59 46 40 47 58 48 41 49
REMARK SMILES IDX 44 50 57 51 75 52 42 53 43 54 56 56 76 57 45 58 30 59 31 60
REMARK SMILES IDX 39 61 32 62 38 63 33 64 34 65 35 66 36 67 37 68 60 69 61 70
REMARK SMILES IDX 69 71 62 72 68 73 63 74 64 75 65 76 66 77 67 78 46 79 47 80
REMARK SMILES IDX 55 81 48 82 54 83 49 84 50 85 51 86 52 87 53 88
REMARK H PARENT 14 6 1 9 1 10 1 11 8 21 18 25 74 44 44 55
REMARK Flexibility Score: inf
ROOT
ATOM      1  C   UNL A   1      32.708  28.653  25.269  1.00  0.00     0.042 C 
ENDROOT
BRANCH   1   2
ATOM      2  C   UNL A   1      31.454  27.898  25.683  1.00  0.00     0.118 C 
BRANCH   2   3
ATOM      3  N   UNL A   1      31.324  26.687  24.892  1.00  0.00    -0.351 N 
ATOM      4  C   UNL A   1      30.691  26.389  23.727  1.00  0.00     0.278 C 
ATOM      5  O   UNL A   1      30.524  25.182  23.505  1.00  0.00    -0.268 OA
ATOM      6  H   UNL A   1      31.795  25.917  25.284  1.00  0.00     0.163 HD
BRANCH   4   7
ATOM      7  C   UNL A   1      30.209  27.430  22.692  1.00  0.00     0.275 C 
BRANCH   7   8
ATOM      8  N   UNL A   1      31.328  28.170  22.081  1.00  0.00    -0.347 N 
ATOM      9  H   UNL A   1      32.064  27.514  21.814  1.00  0.00     0.345 HD
ATOM     10  H   UNL A   1      31.700  28.841  22.753  1.00  0.00     0.345 HD
ATOM     11  H   UNL A   1      30.998  28.665  21.253  1.00  0.00     0.345 HD
ENDBRANCH   7   8
BRANCH   7  12
ATOM     12  C   UNL A   1      28.919  28.210  23.046  1.00  0.00     0.111 C 
BRANCH  12  13
ATOM     13  C   UNL A   1      28.758  29.683  22.750  1.00  0.00    -0.038 A 
ATOM     14  C   UNL A   1      29.142  30.700  23.638  1.00  0.00     0.008 A 
ATOM     15  C   UNL A   1      28.259  30.069  21.490  1.00  0.00     0.047 A 
ATOM     16  C   UNL A   1      28.891  32.050  23.347  1.00  0.00     0.049 A 
ATOM     17  C   UNL A   1      28.036  31.412  21.192  1.00  0.00     0.165 A 
ATOM     18  C   UNL A   1      28.309  32.398  22.132  1.00  0.00     0.151 A 
ATOM     19  F   UNL A   1      27.504  31.732  20.004  1.00  0.00    -0.203 F 
BRANCH  18  20
ATOM     20  O   UNL A   1      27.979  33.693  21.860  1.00  0.00    -0.505 OA
ATOM     21  H   UNL A   1      28.292  34.101  21.077  1.00  0.00     0.293 HD
ENDBRANCH  18  20
ENDBRANCH  12  13
ENDBRANCH   7  12
ENDBRANCH   4   7
ENDBRANCH   2   3
ENDBRANCH   1   2
BRANCH   1  22
ATOM     22  C   UNL A   1      33.782  28.849  26.325  1.00  0.00     0.118 C 
BRANCH  22  23
ATOM     23  N   UNL A   1      33.660  30.051  27.127  1.00  0.00    -0.352 N 
ATOM     24  C   UNL A   1      34.546  30.678  27.977  1.00  0.00     0.251 C 
ATOM     25  H   UNL A   1      32.788  30.501  27.051  1.00  0.00     0.163 HD
ATOM     26  O   UNL A   1      34.171  31.714  28.519  1.00  0.00    -0.269 OA
BRANCH  24  27
ATOM     27  C   UNL A   1      35.893  30.126  28.310  1.00  0.00     0.039 A 
ATOM     28  C   UNL A   1      36.889  30.200  27.326  1.00  0.00     0.014 A 
ATOM     29  C   UNL A   1      36.213  29.534  29.532  1.00  0.00     0.014 A 
ATOM     30  C   UNL A   1      38.196  29.773  27.595  1.00  0.00     0.010 A 
ATOM     31  C   UNL A   1      37.536  29.212  29.839  1.00  0.00     0.010 A 
ATOM     32  C   UNL A   1      38.546  29.322  28.874  1.00  0.00    -0.014 A 
BRANCH  32  33
ATOM     33  C   UNL A   1      39.945  28.945  29.220  1.00  0.00     0.031 A 
ATOM     34  C   UNL A   1      40.858  29.939  29.893  1.00  0.00     0.074 A 
ATOM     35  C   UNL A   1      40.422  27.734  28.867  1.00  0.00     0.049 A 
ATOM     36  N   UNL A   1      42.130  29.831  30.180  1.00  0.00    -0.248 NA
ATOM     37  C   UNL A   1      40.270  31.237  30.264  1.00  0.00     0.031 C 
ATOM     38  C   UNL A   1      39.665  26.693  28.166  1.00  0.00     0.029 A 
ATOM     39  N   UNL A   1      41.666  27.175  29.040  1.00  0.00    -0.354 N 
ATOM     40  C   UNL A   1      42.502  31.054  30.729  1.00  0.00     0.074 A 
ATOM     41  C   UNL A   1      41.330  31.902  30.697  1.00  0.00     0.031 C 
ATOM     42  C   UNL A   1      40.447  25.613  28.001  1.00  0.00     0.029 A 
ATOM     43  C   UNL A   1      41.774  25.900  28.536  1.00  0.00     0.049 A 
ATOM     44  H   UNL A   1      42.409  27.644  29.483  1.00  0.00     0.167 HD
ATOM     45  C   UNL A   1      43.700  31.434  31.232  1.00  0.00     0.031 A 
ATOM     46  C   UNL A   1      42.825  25.057  28.497  1.00  0.00     0.031 A 
ATOM     47  C   UNL A   1      44.858  30.582  31.295  1.00  0.00     0.049 A 
ATOM     48  C   UNL A   1      44.141  25.493  29.081  1.00  0.00     0.074 A 
ATOM     49  C   UNL A   1      46.100  30.855  31.843  1.00  0.00     0.029 A 
ATOM     50  N   UNL A   1      44.913  29.287  30.802  1.00  0.00    -0.354 N 
ATOM     51  N   UNL A   1      44.455  26.636  29.641  1.00  0.00    -0.248 NA
ATOM     52  C   UNL A   1      45.243  24.521  29.033  1.00  0.00     0.031 C 
ATOM     53  C   UNL A   1      46.918  29.738  31.648  1.00  0.00     0.029 A 
ATOM     54  C   UNL A   1      46.172  28.753  31.022  1.00  0.00     0.049 A 
ATOM     55  H   UNL A   1      44.169  28.817  30.362  1.00  0.00     0.167 HD
ATOM     56  C   UNL A   1      45.784  26.512  30.034  1.00  0.00     0.074 A 
ATOM     57  C   UNL A   1      46.210  25.179  29.660  1.00  0.00     0.031 C 
ATOM     58  C   UNL A   1      46.579  27.422  30.649  1.00  0.00     0.031 A 
BRANCH  45  59
ATOM     59  C   UNL A   1      43.819  32.843  31.755  1.00  0.00    -0.014 A 
ATOM     60  C   UNL A   1      43.589  33.135  33.112  1.00  0.00     0.010 A 
ATOM     61  C   UNL A   1      44.192  33.883  30.885  1.00  0.00     0.010 A 
ATOM     62  C   UNL A   1      43.679  34.449  33.578  1.00  0.00     0.020 A 
ATOM     63  C   UNL A   1      44.311  35.195  31.354  1.00  0.00     0.020 A 
ATOM     64  C   UNL A   1      44.033  35.473  32.695  1.00  0.00     0.054 A 
BRANCH  64  65
ATOM     65  S   UNL A   1      44.151  37.168  33.327  1.00  0.00     0.124 S 
ATOM     66  O   UNL A   1      44.430  37.923  32.109  1.00  0.00    -0.237 OA
ATOM     67  O   UNL A   1      42.830  37.387  33.912  1.00  0.00    -0.237 OA
ATOM     68  O   UNL A   1      45.251  37.104  34.287  1.00  0.00    -0.744 OA
ENDBRANCH  64  65
ENDBRANCH  45  59
BRANCH  46  69
ATOM     69  C   UNL A   1      42.670  23.703  27.898  1.00  0.00    -0.014 A 
ATOM     70  C   UNL A   1      43.122  23.450  26.591  1.00  0.00     0.010 A 
ATOM     71  C   UNL A   1      42.083  22.657  28.633  1.00  0.00     0.010 A 
ATOM     72  C   UNL A   1      42.975  22.180  26.022  1.00  0.00     0.020 A 
ATOM     73  C   UNL A   1      41.958  21.379  28.077  1.00  0.00     0.020 A 
ATOM     74  C   UNL A   1      42.394  21.153  26.770  1.00  0.00     0.054 A 
BRANCH  74  75
ATOM     75  S   UNL A   1      42.263  19.500  26.032  1.00  0.00     0.124 S 
ATOM     76  O   UNL A   1      43.118  19.624  24.855  1.00  0.00    -0.237 OA
ATOM     77  O   UNL A   1      42.773  18.636  27.094  1.00  0.00    -0.237 OA
ATOM     78  O   UNL A   1      40.834  19.360  25.758  1.00  0.00    -0.744 OA
ENDBRANCH  74  75
ENDBRANCH  46  69
BRANCH  58  79
ATOM     79  C   UNL A   1      47.981  26.997  30.992  1.00  0.00    -0.014 A 
ATOM     80  C   UNL A   1      48.255  26.272  32.165  1.00  0.00     0.010 A 
ATOM     81  C   UNL A   1      49.028  27.277  30.097  1.00  0.00     0.010 A 
ATOM     82  C   UNL A   1      49.560  25.859  32.450  1.00  0.00     0.020 A 
ATOM     83  C   UNL A   1      50.330  26.846  30.366  1.00  0.00     0.020 A 
ATOM     84  C   UNL A   1      50.589  26.150  31.548  1.00  0.00     0.054 A 
BRANCH  84  85
ATOM     85  S   UNL A   1      52.266  25.563  31.916  1.00  0.00     0.124 S 
ATOM     86  O   UNL A   1      52.622  26.368  33.081  1.00  0.00    -0.237 OA
ATOM     87  O   UNL A   1      52.061  24.140  32.174  1.00  0.00    -0.237 OA
ATOM     88  O   UNL A   1      53.013  25.866  30.697  1.00  0.00    -0.744 OA
ENDBRANCH  84  85
ENDBRANCH  58  79
ENDBRANCH  32  33
ENDBRANCH  24  27
ENDBRANCH  22  23
ENDBRANCH   1  22
TORSDOF 17
ENDMDL
