MODEL 1
REMARK VINA RESULT:     -12.6      0.000      0.000
REMARK SMILES Cn1ccc(-c2n[nH]c(=O)n2-c2ccc(C(=O)NCCCNC(=O)c3ccc(-c4c5nc(c(-c6ccc(S(=O)(=O)[O-])cc6)c6ccc([nH]6)c(-c6ccc(S(=O)(=O)[O-])cc6)c6nc(c(-c7ccc(S(=O)(=O)[O-])cc7)c7ccc4[nH]7)C=C6)C=C5)cc3)cc2)n1
REMARK SMILES IDX 20 1 19 2 18 3 16 4 17 5 15 7 12 8 13 9 86 10 14 11 85 12
REMARK SMILES IDX 11 13 6 14 7 15 8 16 9 17 10 19 5 20 1 21 2 22 3 23 87 24
REMARK SMILES IDX 4 25 21 26 22 27 23 28 24 30 25 31 26 32 84 33 27 34 83 35
REMARK SMILES IDX 28 36 29 37 30 38 77 39 31 40 82 41 76 42 78 43 32 44 81 45
REMARK SMILES IDX 75 46 74 47 33 49 63 50 44 51 62 52 45 53 48 54 61 55 79 56
REMARK SMILES IDX 46 57 47 58 60 60 80 61 49 62 34 63 35 64 43 65 36 66 42 67
REMARK SMILES IDX 37 68 38 69 39 70 40 71 41 72 64 73 65 74 73 75 66 76 72 77
REMARK SMILES IDX 67 78 68 79 69 80 70 81 71 82 50 83 51 84 59 85 52 86 58 87
REMARK SMILES IDX 53 88 54 89 55 90 56 91 57 92
REMARK H PARENT 18 6 8 18 22 29 78 48 48 59
REMARK Flexibility Score: inf
ROOT
ATOM      1  C   UNL A   1      37.830  19.555  25.005  1.00  0.00     0.042 C 
ENDROOT
BRANCH   1   2
ATOM      2  C   UNL A   1      36.678  20.570  24.989  1.00  0.00     0.118 C 
BRANCH   2   3
ATOM      3  N   UNL A   1      36.903  21.633  24.022  1.00  0.00    -0.352 N 
ATOM      4  C   UNL A   1      36.162  22.731  23.659  1.00  0.00     0.251 C 
ATOM      5  O   UNL A   1      36.668  23.520  22.862  1.00  0.00    -0.269 OA
ATOM      6  H   UNL A   1      37.752  21.548  23.531  1.00  0.00     0.163 HD
BRANCH   4   7
ATOM      7  C   UNL A   1      34.815  23.037  24.222  1.00  0.00     0.039 A 
ATOM      8  C   UNL A   1      32.236  23.751  25.102  1.00  0.00     0.052 A 
ATOM      9  C   UNL A   1      32.405  23.177  23.842  1.00  0.00     0.028 A 
ATOM     10  C   UNL A   1      33.339  23.876  25.949  1.00  0.00     0.028 A 
ATOM     11  C   UNL A   1      33.693  22.853  23.394  1.00  0.00     0.016 A 
ATOM     12  C   UNL A   1      34.601  23.473  25.527  1.00  0.00     0.016 A 
BRANCH   8  13
ATOM     13  N   UNL A   1      30.978  24.144  25.572  1.00  0.00    -0.242 N 
ATOM     14  C   UNL A   1      30.517  25.410  25.783  1.00  0.00     0.189 A 
ATOM     15  N   UNL A   1      29.483  25.496  26.577  1.00  0.00    -0.150 NA
ATOM     16  N   UNL A   1      29.215  24.189  26.890  1.00  0.00    -0.226 N 
ATOM     17  C   UNL A   1      30.127  23.331  26.276  1.00  0.00     0.348 A 
ATOM     18  H   UNL A   1      28.476  23.895  27.470  1.00  0.00     0.195 HD
ATOM     19  O   UNL A   1      30.166  22.117  26.450  1.00  0.00    -0.246 OA
BRANCH  14  20
ATOM     20  C   UNL A   1      31.082  26.583  25.133  1.00  0.00     0.130 A 
ATOM     21  C   UNL A   1      30.920  29.044  22.645  1.00  0.00     0.173 C 
ATOM     22  N   UNL A   1      31.285  28.185  23.747  1.00  0.00    -0.275 N 
ATOM     23  C   UNL A   1      32.290  28.387  24.646  1.00  0.00     0.109 A 
ATOM     24  N   UNL A   1      30.566  27.077  23.991  1.00  0.00    -0.170 NA
ATOM     25  C   UNL A   1      32.167  27.382  25.578  1.00  0.00     0.054 A 
ENDBRANCH  14  20
ENDBRANCH   8  13
ENDBRANCH   4   7
ENDBRANCH   2   3
ENDBRANCH   1   2
BRANCH   1  26
ATOM     26  C   UNL A   1      39.078  20.119  25.660  1.00  0.00     0.118 C 
BRANCH  26  27
ATOM     27  N   UNL A   1      40.128  19.106  25.795  1.00  0.00    -0.352 N 
ATOM     28  C   UNL A   1      41.478  19.288  26.018  1.00  0.00     0.251 C 
ATOM     29  H   UNL A   1      39.831  18.171  25.716  1.00  0.00     0.163 HD
ATOM     30  O   UNL A   1      42.275  18.393  25.763  1.00  0.00    -0.269 OA
BRANCH  28  31
ATOM     31  C   UNL A   1      41.938  20.573  26.568  1.00  0.00     0.039 A 
ATOM     32  C   UNL A   1      42.574  21.528  25.767  1.00  0.00     0.014 A 
ATOM     33  C   UNL A   1      41.685  20.825  27.912  1.00  0.00     0.014 A 
ATOM     34  C   UNL A   1      42.875  22.772  26.316  1.00  0.00     0.010 A 
ATOM     35  C   UNL A   1      41.814  22.099  28.394  1.00  0.00     0.010 A 
ATOM     36  C   UNL A   1      42.470  23.056  27.628  1.00  0.00    -0.014 A 
BRANCH  36  37
ATOM     37  C   UNL A   1      42.597  24.395  28.196  1.00  0.00     0.031 A 
ATOM     38  C   UNL A   1      41.421  25.277  27.942  1.00  0.00     0.074 A 
ATOM     39  C   UNL A   1      43.554  24.688  29.107  1.00  0.00     0.049 A 
ATOM     40  N   UNL A   1      41.387  26.379  27.270  1.00  0.00    -0.248 NA
ATOM     41  C   UNL A   1      40.089  24.794  28.355  1.00  0.00     0.031 C 
ATOM     42  C   UNL A   1      44.560  23.775  29.672  1.00  0.00     0.029 A 
ATOM     43  N   UNL A   1      43.732  25.809  29.853  1.00  0.00    -0.354 N 
ATOM     44  C   UNL A   1      40.083  26.852  27.388  1.00  0.00     0.074 A 
ATOM     45  C   UNL A   1      39.294  25.745  27.863  1.00  0.00     0.031 C 
ATOM     46  C   UNL A   1      45.024  24.278  30.836  1.00  0.00     0.029 A 
ATOM     47  C   UNL A   1      44.487  25.615  31.010  1.00  0.00     0.049 A 
ATOM     48  H   UNL A   1      43.359  26.684  29.600  1.00  0.00     0.167 HD
ATOM     49  C   UNL A   1      39.804  28.187  27.369  1.00  0.00     0.031 A 
ATOM     50  C   UNL A   1      44.609  26.464  32.063  1.00  0.00     0.031 A 
ATOM     51  C   UNL A   1      40.926  28.953  26.889  1.00  0.00     0.049 A 
ATOM     52  C   UNL A   1      44.197  27.803  31.578  1.00  0.00     0.074 A 
ATOM     53  C   UNL A   1      41.669  28.965  25.725  1.00  0.00     0.029 A 
ATOM     54  N   UNL A   1      41.693  29.587  27.839  1.00  0.00    -0.354 N 
ATOM     55  N   UNL A   1      44.843  28.465  30.658  1.00  0.00    -0.248 NA
ATOM     56  C   UNL A   1      42.810  28.197  31.770  1.00  0.00     0.031 C 
ATOM     57  C   UNL A   1      43.014  29.163  26.155  1.00  0.00     0.029 A 
ATOM     58  C   UNL A   1      43.010  29.352  27.538  1.00  0.00     0.049 A 
ATOM     59  H   UNL A   1      41.357  30.115  28.599  1.00  0.00     0.167 HD
ATOM     60  C   UNL A   1      43.850  29.015  29.860  1.00  0.00     0.074 A 
ATOM     61  C   UNL A   1      42.624  28.901  30.650  1.00  0.00     0.031 C 
ATOM     62  C   UNL A   1      44.061  29.242  28.529  1.00  0.00     0.031 A 
BRANCH  49  63
ATOM     63  C   UNL A   1      38.700  28.823  28.182  1.00  0.00    -0.014 A 
ATOM     64  C   UNL A   1      37.826  29.730  27.549  1.00  0.00     0.010 A 
ATOM     65  C   UNL A   1      38.663  28.783  29.592  1.00  0.00     0.010 A 
ATOM     66  C   UNL A   1      37.012  30.597  28.290  1.00  0.00     0.020 A 
ATOM     67  C   UNL A   1      37.822  29.610  30.340  1.00  0.00     0.020 A 
ATOM     68  C   UNL A   1      37.025  30.537  29.683  1.00  0.00     0.054 A 
BRANCH  68  69
ATOM     69  S   UNL A   1      36.039  31.718  30.633  1.00  0.00     0.124 S 
ATOM     70  O   UNL A   1      35.816  30.990  31.878  1.00  0.00    -0.237 OA
ATOM     71  O   UNL A   1      36.937  32.867  30.721  1.00  0.00    -0.237 OA
ATOM     72  O   UNL A   1      34.856  31.922  29.802  1.00  0.00    -0.744 OA
ENDBRANCH  68  69
ENDBRANCH  49  63
BRANCH  50  73
ATOM     73  C   UNL A   1      44.694  26.127  33.512  1.00  0.00    -0.014 A 
ATOM     74  C   UNL A   1      45.568  26.831  34.366  1.00  0.00     0.010 A 
ATOM     75  C   UNL A   1      43.706  25.324  34.118  1.00  0.00     0.010 A 
ATOM     76  C   UNL A   1      45.398  26.806  35.762  1.00  0.00     0.020 A 
ATOM     77  C   UNL A   1      43.538  25.285  35.509  1.00  0.00     0.020 A 
ATOM     78  C   UNL A   1      44.364  26.054  36.323  1.00  0.00     0.054 A 
BRANCH  78  79
ATOM     79  S   UNL A   1      44.004  26.206  38.100  1.00  0.00     0.124 S 
ATOM     80  O   UNL A   1      44.613  24.998  38.646  1.00  0.00    -0.237 OA
ATOM     81  O   UNL A   1      44.663  27.460  38.453  1.00  0.00    -0.237 OA
ATOM     82  O   UNL A   1      42.543  26.243  38.153  1.00  0.00    -0.744 OA
ENDBRANCH  78  79
ENDBRANCH  50  73
BRANCH  62  83
ATOM     83  C   UNL A   1      45.474  29.167  27.996  1.00  0.00    -0.014 A 
ATOM     84  C   UNL A   1      46.324  30.280  27.826  1.00  0.00     0.010 A 
ATOM     85  C   UNL A   1      46.012  27.883  27.800  1.00  0.00     0.010 A 
ATOM     86  C   UNL A   1      47.665  30.108  27.444  1.00  0.00     0.020 A 
ATOM     87  C   UNL A   1      47.349  27.704  27.439  1.00  0.00     0.020 A 
ATOM     88  C   UNL A   1      48.167  28.817  27.251  1.00  0.00     0.054 A 
BRANCH  88  89
ATOM     89  S   UNL A   1      49.907  28.589  26.785  1.00  0.00     0.124 S 
ATOM     90  O   UNL A   1      50.232  27.301  27.389  1.00  0.00    -0.237 OA
ATOM     91  O   UNL A   1      49.859  28.607  25.325  1.00  0.00    -0.237 OA
ATOM     92  O   UNL A   1      50.582  29.740  27.385  1.00  0.00    -0.744 OA
ENDBRANCH  88  89
ENDBRANCH  62  83
ENDBRANCH  36  37
ENDBRANCH  28  31
ENDBRANCH  26  27
ENDBRANCH   1  26
TORSDOF 15
ENDMDL
MODEL 2
REMARK VINA RESULT:     -12.6      4.005      9.716
REMARK SMILES Cn1ccc(-c2n[nH]c(=O)n2-c2ccc(C(=O)NCCCNC(=O)c3ccc(-c4c5nc(c(-c6ccc(S(=O)(=O)[O-])cc6)c6ccc([nH]6)c(-c6ccc(S(=O)(=O)[O-])cc6)c6nc(c(-c7ccc(S(=O)(=O)[O-])cc7)c7ccc4[nH]7)C=C6)C=C5)cc3)cc2)n1
REMARK SMILES IDX 20 1 19 2 18 3 16 4 17 5 15 7 12 8 13 9 86 10 14 11 85 12
REMARK SMILES IDX 11 13 6 14 7 15 8 16 9 17 10 19 5 20 1 21 2 22 3 23 87 24
REMARK SMILES IDX 4 25 21 26 22 27 23 28 24 30 25 31 26 32 84 33 27 34 83 35
REMARK SMILES IDX 28 36 29 37 30 38 77 39 31 40 82 41 76 42 78 43 32 44 81 45
REMARK SMILES IDX 75 46 74 47 33 49 63 50 44 51 62 52 45 53 48 54 61 55 79 56
REMARK SMILES IDX 46 57 47 58 60 60 80 61 49 62 34 63 35 64 43 65 36 66 42 67
REMARK SMILES IDX 37 68 38 69 39 70 40 71 41 72 64 73 65 74 73 75 66 76 72 77
REMARK SMILES IDX 67 78 68 79 69 80 70 81 71 82 50 83 51 84 59 85 52 86 58 87
REMARK SMILES IDX 53 88 54 89 55 90 56 91 57 92
REMARK H PARENT 18 6 8 18 22 29 78 48 48 59
REMARK Flexibility Score: inf
ROOT
ATOM      1  C   UNL A   1      31.429  31.396  26.296  1.00  0.00     0.042 C 
ENDROOT
BRANCH   1   2
ATOM      2  C   UNL A   1      31.768  29.960  25.869  1.00  0.00     0.118 C 
BRANCH   2   3
ATOM      3  N   UNL A   1      32.579  29.929  24.662  1.00  0.00    -0.352 N 
ATOM      4  C   UNL A   1      33.163  28.902  23.961  1.00  0.00     0.251 C 
ATOM      5  O   UNL A   1      33.719  29.183  22.900  1.00  0.00    -0.269 OA
ATOM      6  H   UNL A   1      32.742  30.819  24.272  1.00  0.00     0.163 HD
BRANCH   4   7
ATOM      7  C   UNL A   1      33.103  27.475  24.390  1.00  0.00     0.039 A 
ATOM      8  C   UNL A   1      32.760  24.793  25.179  1.00  0.00     0.052 A 
ATOM      9  C   UNL A   1      32.267  25.222  23.947  1.00  0.00     0.028 A 
ATOM     10  C   UNL A   1      33.501  25.678  25.964  1.00  0.00     0.028 A 
ATOM     11  C   UNL A   1      32.412  26.565  23.572  1.00  0.00     0.016 A 
ATOM     12  C   UNL A   1      33.711  26.987  25.544  1.00  0.00     0.016 A 
BRANCH   8  13
ATOM     13  N   UNL A   1      32.592  23.476  25.623  1.00  0.00    -0.242 N 
ATOM     14  C   UNL A   1      33.369  22.390  25.342  1.00  0.00     0.189 A 
ATOM     15  N   UNL A   1      32.795  21.234  25.546  1.00  0.00    -0.150 NA
ATOM     16  N   UNL A   1      31.558  21.576  26.030  1.00  0.00    -0.226 N 
ATOM     17  C   UNL A   1      31.410  22.961  26.088  1.00  0.00     0.348 A 
ATOM     18  H   UNL A   1      30.867  20.928  26.299  1.00  0.00     0.195 HD
ATOM     19  O   UNL A   1      30.375  23.537  26.408  1.00  0.00    -0.246 OA
BRANCH  14  20
ATOM     20  C   UNL A   1      34.754  22.491  24.909  1.00  0.00     0.130 A 
ATOM     21  C   UNL A   1      38.167  21.998  25.524  1.00  0.00     0.173 C 
ATOM     22  N   UNL A   1      36.875  22.338  24.976  1.00  0.00    -0.275 N 
ATOM     23  C   UNL A   1      36.606  22.743  23.703  1.00  0.00     0.109 A 
ATOM     24  N   UNL A   1      35.777  22.220  25.741  1.00  0.00    -0.170 NA
ATOM     25  C   UNL A   1      35.235  22.821  23.615  1.00  0.00     0.054 A 
ENDBRANCH  14  20
ENDBRANCH   8  13
ENDBRANCH   4   7
ENDBRANCH   2   3
ENDBRANCH   1   2
BRANCH   1  26
ATOM     26  C   UNL A   1      32.494  31.987  27.201  1.00  0.00     0.118 C 
BRANCH  26  27
ATOM     27  N   UNL A   1      32.291  33.423  27.415  1.00  0.00    -0.352 N 
ATOM     28  C   UNL A   1      32.962  34.270  28.275  1.00  0.00     0.251 C 
ATOM     29  H   UNL A   1      31.583  33.838  26.873  1.00  0.00     0.163 HD
ATOM     30  O   UNL A   1      32.466  35.341  28.601  1.00  0.00    -0.269 OA
BRANCH  28  31
ATOM     31  C   UNL A   1      34.279  33.860  28.790  1.00  0.00     0.039 A 
ATOM     32  C   UNL A   1      34.428  33.310  30.067  1.00  0.00     0.014 A 
ATOM     33  C   UNL A   1      35.372  34.003  27.944  1.00  0.00     0.014 A 
ATOM     34  C   UNL A   1      35.678  32.829  30.450  1.00  0.00     0.010 A 
ATOM     35  C   UNL A   1      36.547  33.370  28.247  1.00  0.00     0.010 A 
ATOM     36  C   UNL A   1      36.728  32.844  29.522  1.00  0.00    -0.014 A 
BRANCH  36  37
ATOM     37  C   UNL A   1      38.006  32.195  29.801  1.00  0.00     0.031 A 
ATOM     38  C   UNL A   1      38.070  30.769  29.369  1.00  0.00     0.074 A 
ATOM     39  C   UNL A   1      39.103  32.912  30.140  1.00  0.00     0.049 A 
ATOM     40  N   UNL A   1      38.230  29.723  30.109  1.00  0.00    -0.248 NA
ATOM     41  C   UNL A   1      37.764  30.455  27.960  1.00  0.00     0.031 C 
ATOM     42  C   UNL A   1      39.213  34.374  30.263  1.00  0.00     0.029 A 
ATOM     43  N   UNL A   1      40.394  32.513  30.282  1.00  0.00    -0.354 N 
ATOM     44  C   UNL A   1      38.294  28.645  29.230  1.00  0.00     0.074 A 
ATOM     45  C   UNL A   1      37.783  29.122  27.971  1.00  0.00     0.031 C 
ATOM     46  C   UNL A   1      40.510  34.739  30.170  1.00  0.00     0.029 A 
ATOM     47  C   UNL A   1      41.329  33.542  30.158  1.00  0.00     0.049 A 
ATOM     48  H   UNL A   1      40.649  31.579  30.456  1.00  0.00     0.167 HD
ATOM     49  C   UNL A   1      39.028  27.533  29.518  1.00  0.00     0.031 A 
ATOM     50  C   UNL A   1      42.671  33.415  29.992  1.00  0.00     0.031 A 
ATOM     51  C   UNL A   1      39.407  27.496  30.907  1.00  0.00     0.049 A 
ATOM     52  C   UNL A   1      43.026  32.044  30.431  1.00  0.00     0.074 A 
ATOM     53  C   UNL A   1      38.718  27.501  32.103  1.00  0.00     0.029 A 
ATOM     54  N   UNL A   1      40.696  27.872  31.207  1.00  0.00    -0.354 N 
ATOM     55  N   UNL A   1      42.894  31.626  31.659  1.00  0.00    -0.248 NA
ATOM     56  C   UNL A   1      43.076  30.999  29.420  1.00  0.00     0.031 C 
ATOM     57  C   UNL A   1      39.488  28.338  32.963  1.00  0.00     0.029 A 
ATOM     58  C   UNL A   1      40.644  28.722  32.281  1.00  0.00     0.049 A 
ATOM     59  H   UNL A   1      41.510  27.583  30.734  1.00  0.00     0.167 HD
ATOM     60  C   UNL A   1      42.389  30.339  31.540  1.00  0.00     0.074 A 
ATOM     61  C   UNL A   1      42.618  29.972  30.142  1.00  0.00     0.031 C 
ATOM     62  C   UNL A   1      41.577  29.808  32.501  1.00  0.00     0.031 A 
BRANCH  49  63
ATOM     63  C   UNL A   1      39.764  26.723  28.474  1.00  0.00    -0.014 A 
ATOM     64  C   UNL A   1      39.491  25.343  28.368  1.00  0.00     0.010 A 
ATOM     65  C   UNL A   1      40.903  27.200  27.792  1.00  0.00     0.010 A 
ATOM     66  C   UNL A   1      40.351  24.481  27.676  1.00  0.00     0.020 A 
ATOM     67  C   UNL A   1      41.743  26.356  27.062  1.00  0.00     0.020 A 
ATOM     68  C   UNL A   1      41.479  24.994  27.037  1.00  0.00     0.054 A 
BRANCH  68  69
ATOM     69  S   UNL A   1      42.631  23.863  26.223  1.00  0.00     0.124 S 
ATOM     70  O   UNL A   1      43.668  23.707  27.239  1.00  0.00    -0.237 OA
ATOM     71  O   UNL A   1      41.794  22.691  25.984  1.00  0.00    -0.237 OA
ATOM     72  O   UNL A   1      43.033  24.591  25.021  1.00  0.00    -0.744 OA
ENDBRANCH  68  69
ENDBRANCH  49  63
BRANCH  50  73
ATOM     73  C   UNL A   1      43.577  34.247  29.150  1.00  0.00    -0.014 A 
ATOM     74  C   UNL A   1      44.846  34.636  29.624  1.00  0.00     0.010 A 
ATOM     75  C   UNL A   1      43.325  34.406  27.772  1.00  0.00     0.010 A 
ATOM     76  C   UNL A   1      45.850  35.075  28.741  1.00  0.00     0.020 A 
ATOM     77  C   UNL A   1      44.316  34.854  26.888  1.00  0.00     0.020 A 
ATOM     78  C   UNL A   1      45.586  35.154  27.373  1.00  0.00     0.054 A 
BRANCH  78  79
ATOM     79  S   UNL A   1      46.944  35.498  26.213  1.00  0.00     0.124 S 
ATOM     80  O   UNL A   1      46.684  34.548  25.136  1.00  0.00    -0.237 OA
ATOM     81  O   UNL A   1      46.731  36.904  25.880  1.00  0.00    -0.237 OA
ATOM     82  O   UNL A   1      48.146  35.228  27.001  1.00  0.00    -0.744 OA
ENDBRANCH  78  79
ENDBRANCH  50  73
BRANCH  62  83
ATOM     83  C   UNL A   1      41.471  30.518  33.834  1.00  0.00    -0.014 A 
ATOM     84  C   UNL A   1      42.267  30.223  34.960  1.00  0.00     0.010 A 
ATOM     85  C   UNL A   1      40.623  31.637  33.892  1.00  0.00     0.010 A 
ATOM     86  C   UNL A   1      42.191  31.013  36.119  1.00  0.00     0.020 A 
ATOM     87  C   UNL A   1      40.557  32.438  35.033  1.00  0.00     0.020 A 
ATOM     88  C   UNL A   1      41.333  32.117  36.147  1.00  0.00     0.054 A 
BRANCH  88  89
ATOM     89  S   UNL A   1      41.253  33.158  37.632  1.00  0.00     0.124 S 
ATOM     90  O   UNL A   1      41.458  32.194  38.708  1.00  0.00    -0.237 OA
ATOM     91  O   UNL A   1      42.342  34.110  37.422  1.00  0.00    -0.237 OA
ATOM     92  O   UNL A   1      39.914  33.745  37.575  1.00  0.00    -0.744 OA
ENDBRANCH  88  89
ENDBRANCH  62  83
ENDBRANCH  36  37
ENDBRANCH  28  31
ENDBRANCH  26  27
ENDBRANCH   1  26
TORSDOF 15
ENDMDL
MODEL 3
REMARK VINA RESULT:     -12.6      3.008      7.606
REMARK SMILES Cn1ccc(-c2n[nH]c(=O)n2-c2ccc(C(=O)NCCCNC(=O)c3ccc(-c4c5nc(c(-c6ccc(S(=O)(=O)[O-])cc6)c6ccc([nH]6)c(-c6ccc(S(=O)(=O)[O-])cc6)c6nc(c(-c7ccc(S(=O)(=O)[O-])cc7)c7ccc4[nH]7)C=C6)C=C5)cc3)cc2)n1
REMARK SMILES IDX 20 1 19 2 18 3 16 4 17 5 15 7 12 8 13 9 86 10 14 11 85 12
REMARK SMILES IDX 11 13 6 14 7 15 8 16 9 17 10 19 5 20 1 21 2 22 3 23 87 24
REMARK SMILES IDX 4 25 21 26 22 27 23 28 24 30 25 31 26 32 84 33 27 34 83 35
REMARK SMILES IDX 28 36 29 37 30 38 77 39 31 40 82 41 76 42 78 43 32 44 81 45
REMARK SMILES IDX 75 46 74 47 33 49 63 50 44 51 62 52 45 53 48 54 61 55 79 56
REMARK SMILES IDX 46 57 47 58 60 60 80 61 49 62 34 63 35 64 43 65 36 66 42 67
REMARK SMILES IDX 37 68 38 69 39 70 40 71 41 72 64 73 65 74 73 75 66 76 72 77
REMARK SMILES IDX 67 78 68 79 69 80 70 81 71 82 50 83 51 84 59 85 52 86 58 87
REMARK SMILES IDX 53 88 54 89 55 90 56 91 57 92
REMARK H PARENT 18 6 8 18 22 29 78 48 48 59
REMARK Flexibility Score: inf
ROOT
ATOM      1  C   UNL A   1      39.055  21.304  25.965  1.00  0.00     0.042 C 
ENDROOT
BRANCH   1   2
ATOM      2  C   UNL A   1      37.721  22.009  25.681  1.00  0.00     0.118 C 
BRANCH   2   3
ATOM      3  N   UNL A   1      37.564  22.326  24.270  1.00  0.00    -0.352 N 
ATOM      4  C   UNL A   1      36.500  22.790  23.535  1.00  0.00     0.251 C 
ATOM      5  O   UNL A   1      36.702  23.062  22.352  1.00  0.00    -0.269 OA
ATOM      6  H   UNL A   1      38.379  22.179  23.738  1.00  0.00     0.163 HD
BRANCH   4   7
ATOM      7  C   UNL A   1      35.145  23.032  24.111  1.00  0.00     0.039 A 
ATOM      8  C   UNL A   1      32.554  23.644  25.031  1.00  0.00     0.052 A 
ATOM      9  C   UNL A   1      32.740  23.216  23.717  1.00  0.00     0.028 A 
ATOM     10  C   UNL A   1      33.646  23.672  25.901  1.00  0.00     0.028 A 
ATOM     11  C   UNL A   1      34.035  22.943  23.253  1.00  0.00     0.016 A 
ATOM     12  C   UNL A   1      34.914  23.318  25.454  1.00  0.00     0.016 A 
BRANCH   8  13
ATOM     13  N   UNL A   1      31.289  23.982  25.525  1.00  0.00    -0.242 N 
ATOM     14  C   UNL A   1      30.825  25.217  25.873  1.00  0.00     0.189 A 
ATOM     15  N   UNL A   1      29.781  25.213  26.656  1.00  0.00    -0.150 NA
ATOM     16  N   UNL A   1      29.508  23.879  26.815  1.00  0.00    -0.226 N 
ATOM     17  C   UNL A   1      30.430  23.095  26.121  1.00  0.00     0.348 A 
ATOM     18  H   UNL A   1      28.762  23.522  27.348  1.00  0.00     0.195 HD
ATOM     19  O   UNL A   1      30.466  21.869  26.155  1.00  0.00    -0.246 OA
BRANCH  14  20
ATOM     20  C   UNL A   1      31.399  26.455  25.368  1.00  0.00     0.130 A 
ATOM     21  C   UNL A   1      33.753  29.036  25.633  1.00  0.00     0.173 C 
ATOM     22  N   UNL A   1      32.674  28.155  25.253  1.00  0.00    -0.275 N 
ATOM     23  C   UNL A   1      31.946  28.200  24.101  1.00  0.00     0.109 A 
ATOM     24  N   UNL A   1      32.334  27.135  26.059  1.00  0.00    -0.170 NA
ATOM     25  C   UNL A   1      31.131  27.092  24.128  1.00  0.00     0.054 A 
ENDBRANCH  14  20
ENDBRANCH   8  13
ENDBRANCH   4   7
ENDBRANCH   2   3
ENDBRANCH   1   2
BRANCH   1  26
ATOM     26  C   UNL A   1      40.133  22.279  26.403  1.00  0.00     0.118 C 
BRANCH  26  27
ATOM     27  N   UNL A   1      41.406  22.026  25.723  1.00  0.00    -0.352 N 
ATOM     28  C   UNL A   1      42.381  22.930  25.354  1.00  0.00     0.251 C 
ATOM     29  H   UNL A   1      41.590  21.085  25.500  1.00  0.00     0.163 HD
ATOM     30  O   UNL A   1      43.209  22.636  24.500  1.00  0.00    -0.269 OA
BRANCH  28  31
ATOM     31  C   UNL A   1      42.407  24.250  26.005  1.00  0.00     0.039 A 
ATOM     32  C   UNL A   1      41.693  25.337  25.488  1.00  0.00     0.014 A 
ATOM     33  C   UNL A   1      43.138  24.373  27.181  1.00  0.00     0.014 A 
ATOM     34  C   UNL A   1      41.658  26.524  26.215  1.00  0.00     0.010 A 
ATOM     35  C   UNL A   1      42.954  25.470  27.977  1.00  0.00     0.010 A 
ATOM     36  C   UNL A   1      42.275  26.574  27.472  1.00  0.00    -0.014 A 
BRANCH  36  37
ATOM     37  C   UNL A   1      42.122  27.726  28.356  1.00  0.00     0.031 A 
ATOM     38  C   UNL A   1      43.174  28.768  28.184  1.00  0.00     0.074 A 
ATOM     39  C   UNL A   1      40.974  27.944  29.039  1.00  0.00     0.049 A 
ATOM     40  N   UNL A   1      44.046  29.166  29.049  1.00  0.00    -0.248 NA
ATOM     41  C   UNL A   1      43.384  29.327  26.834  1.00  0.00     0.031 C 
ATOM     42  C   UNL A   1      39.746  27.134  29.006  1.00  0.00     0.029 A 
ATOM     43  N   UNL A   1      40.589  29.020  29.773  1.00  0.00    -0.354 N 
ATOM     44  C   UNL A   1      44.747  30.198  28.432  1.00  0.00     0.074 A 
ATOM     45  C   UNL A   1      44.455  30.099  27.026  1.00  0.00     0.031 C 
ATOM     46  C   UNL A   1      38.703  27.877  29.434  1.00  0.00     0.029 A 
ATOM     47  C   UNL A   1      39.208  29.142  29.932  1.00  0.00     0.049 A 
ATOM     48  H   UNL A   1      41.229  29.660  30.161  1.00  0.00     0.167 HD
ATOM     49  C   UNL A   1      45.278  31.229  29.150  1.00  0.00     0.031 A 
ATOM     50  C   UNL A   1      38.526  30.229  30.379  1.00  0.00     0.031 A 
ATOM     51  C   UNL A   1      45.309  30.929  30.559  1.00  0.00     0.049 A 
ATOM     52  C   UNL A   1      39.504  31.077  31.101  1.00  0.00     0.074 A 
ATOM     53  C   UNL A   1      45.879  29.936  31.329  1.00  0.00     0.029 A 
ATOM     54  N   UNL A   1      44.322  31.494  31.333  1.00  0.00    -0.354 N 
ATOM     55  N   UNL A   1      40.107  30.704  32.196  1.00  0.00    -0.248 NA
ATOM     56  C   UNL A   1      40.166  32.136  30.356  1.00  0.00     0.031 C 
ATOM     57  C   UNL A   1      44.899  29.636  32.320  1.00  0.00     0.029 A 
ATOM     58  C   UNL A   1      43.828  30.518  32.159  1.00  0.00     0.049 A 
ATOM     59  H   UNL A   1      44.022  32.431  31.299  1.00  0.00     0.167 HD
ATOM     60  C   UNL A   1      41.417  31.135  32.039  1.00  0.00     0.074 A 
ATOM     61  C   UNL A   1      41.369  32.096  30.937  1.00  0.00     0.031 C 
ATOM     62  C   UNL A   1      42.455  30.461  32.617  1.00  0.00     0.031 A 
BRANCH  49  63
ATOM     63  C   UNL A   1      45.357  32.650  28.640  1.00  0.00    -0.014 A 
ATOM     64  C   UNL A   1      46.542  33.383  28.853  1.00  0.00     0.010 A 
ATOM     65  C   UNL A   1      44.226  33.379  28.216  1.00  0.00     0.010 A 
ATOM     66  C   UNL A   1      46.572  34.777  28.715  1.00  0.00     0.020 A 
ATOM     67  C   UNL A   1      44.256  34.763  28.032  1.00  0.00     0.020 A 
ATOM     68  C   UNL A   1      45.423  35.458  28.316  1.00  0.00     0.054 A 
BRANCH  68  69
ATOM     69  S   UNL A   1      45.445  37.264  28.229  1.00  0.00     0.124 S 
ATOM     70  O   UNL A   1      44.053  37.596  28.514  1.00  0.00    -0.237 OA
ATOM     71  O   UNL A   1      46.408  37.611  29.271  1.00  0.00    -0.237 OA
ATOM     72  O   UNL A   1      45.890  37.535  26.863  1.00  0.00    -0.744 OA
ENDBRANCH  68  69
ENDBRANCH  49  63
BRANCH  50  73
ATOM     73  C   UNL A   1      37.210  30.746  29.908  1.00  0.00    -0.014 A 
ATOM     74  C   UNL A   1      36.315  31.363  30.808  1.00  0.00     0.010 A 
ATOM     75  C   UNL A   1      36.956  30.909  28.531  1.00  0.00     0.010 A 
ATOM     76  C   UNL A   1      35.270  32.184  30.346  1.00  0.00     0.020 A 
ATOM     77  C   UNL A   1      35.910  31.715  28.063  1.00  0.00     0.020 A 
ATOM     78  C   UNL A   1      35.092  32.377  28.975  1.00  0.00     0.054 A 
BRANCH  78  79
ATOM     79  S   UNL A   1      33.893  33.614  28.389  1.00  0.00     0.124 S 
ATOM     80  O   UNL A   1      33.431  34.216  29.636  1.00  0.00    -0.237 OA
ATOM     81  O   UNL A   1      34.711  34.473  27.537  1.00  0.00    -0.237 OA
ATOM     82  O   UNL A   1      32.895  32.816  27.679  1.00  0.00    -0.744 OA
ENDBRANCH  78  79
ENDBRANCH  50  73
BRANCH  62  83
ATOM     83  C   UNL A   1      42.147  29.418  33.669  1.00  0.00    -0.014 A 
ATOM     84  C   UNL A   1      41.736  28.098  33.388  1.00  0.00     0.010 A 
ATOM     85  C   UNL A   1      42.435  29.755  35.002  1.00  0.00     0.010 A 
ATOM     86  C   UNL A   1      41.591  27.156  34.420  1.00  0.00     0.020 A 
ATOM     87  C   UNL A   1      42.313  28.819  36.030  1.00  0.00     0.020 A 
ATOM     88  C   UNL A   1      41.880  27.526  35.737  1.00  0.00     0.054 A 
BRANCH  88  89
ATOM     89  S   UNL A   1      41.723  26.303  37.070  1.00  0.00     0.124 S 
ATOM     90  O   UNL A   1      41.765  25.036  36.346  1.00  0.00    -0.237 OA
ATOM     91  O   UNL A   1      42.883  26.587  37.912  1.00  0.00    -0.237 OA
ATOM     92  O   UNL A   1      40.434  26.620  37.684  1.00  0.00    -0.744 OA
ENDBRANCH  88  89
ENDBRANCH  62  83
ENDBRANCH  36  37
ENDBRANCH  28  31
ENDBRANCH  26  27
ENDBRANCH   1  26
TORSDOF 15
ENDMDL
