MODEL 1
REMARK VINA RESULT:     -11.0      0.000      0.000
REMARK SMILES CSc1ccc(C[NH+]2CCC(CC(=O)NCCCNC(=O)c3ccc(-c4c5nc(c(-c6ccc(S(=O)(=O)[O-])cc6)c6ccc([nH]6)c(-c6ccc(S(=O)(=O)[O-])cc6)c6nc(c(-c7ccc(S(=O)(=O)[O-])cc7)c7ccc4[nH]7)C=C6)C=C5)cc3)CC2)cc1
REMARK SMILES IDX 16 1 15 2 13 3 14 4 12 6 11 7 8 8 9 9 83 10 10 12 82 13 7 14
REMARK SMILES IDX 6 15 3 16 4 17 85 18 5 19 84 20 2 21 1 22 17 23 18 24 19 25
REMARK SMILES IDX 20 26 21 28 22 29 23 30 81 31 24 32 80 33 25 34 26 35 27 36
REMARK SMILES IDX 74 37 28 38 79 39 73 40 75 41 29 42 78 43 72 44 71 45 30 47
REMARK SMILES IDX 60 48 41 49 59 50 42 51 45 52 58 53 76 54 43 55 44 56 57 58
REMARK SMILES IDX 77 59 46 60 31 61 32 62 40 63 33 64 39 65 34 66 35 67 36 68
REMARK SMILES IDX 37 69 38 70 61 71 62 72 70 73 63 74 69 75 64 76 65 77 66 78
REMARK SMILES IDX 67 79 68 80 47 81 48 82 56 83 49 84 55 85 50 86 51 87 52 88
REMARK SMILES IDX 53 89 54 90
REMARK H PARENT 15 5 8 11 19 27 75 46 45 57
REMARK Flexibility Score: inf
ROOT
ATOM      1  C   UNL A   1      31.937  29.543  24.859  1.00  0.00     0.117 C 
ENDROOT
BRANCH   1   2
ATOM      2  N   UNL A   1      31.354  29.707  23.532  1.00  0.00    -0.356 N 
ATOM      3  C   UNL A   1      30.401  28.986  22.869  1.00  0.00     0.220 C 
ATOM      4  O   UNL A   1      30.036  29.390  21.764  1.00  0.00    -0.275 OA
ATOM      5  H   UNL A   1      31.710  30.472  23.025  1.00  0.00     0.163 HD
BRANCH   3   6
ATOM      6  C   UNL A   1      29.824  27.706  23.454  1.00  0.00     0.104 C 
BRANCH   6   7
ATOM      7  C   UNL A   1      30.860  26.570  23.530  1.00  0.00     0.009 C 
ATOM      8  N   UNL A   1      31.478  23.803  22.742  1.00  0.00    -0.331 N 
ATOM      9  C   UNL A   1      31.105  24.096  24.126  1.00  0.00     0.262 C 
ATOM     10  C   UNL A   1      32.243  24.914  22.170  1.00  0.00     0.262 C 
ATOM     11  H   UNL A   1      30.630  23.723  22.181  1.00  0.00     0.348 HD
ATOM     12  C   UNL A   1      30.249  25.343  24.197  1.00  0.00     0.066 C 
ATOM     13  C   UNL A   1      31.391  26.194  22.138  1.00  0.00     0.066 C 
BRANCH   8  14
ATOM     14  C   UNL A   1      32.139  22.486  22.616  1.00  0.00     0.299 C 
BRANCH  14  15
ATOM     15  C   UNL A   1      33.430  22.331  23.394  1.00  0.00     0.006 A 
ATOM     16  C   UNL A   1      35.944  21.801  24.555  1.00  0.00     0.007 A 
ATOM     17  C   UNL A   1      34.818  21.058  24.922  1.00  0.00     0.015 A 
ATOM     18  C   UNL A   1      35.797  22.839  23.631  1.00  0.00     0.015 A 
ATOM     19  C   UNL A   1      33.569  21.329  24.359  1.00  0.00     0.011 A 
ATOM     20  C   UNL A   1      34.551  23.108  23.061  1.00  0.00     0.011 A 
BRANCH  16  21
ATOM     21  S   UNL A   1      37.590  21.429  25.142  1.00  0.00    -0.130 SA
ATOM     22  C   UNL A   1      37.664  19.638  24.892  1.00  0.00     0.091 C 
ENDBRANCH  16  21
ENDBRANCH  14  15
ENDBRANCH   8  14
ENDBRANCH   6   7
ENDBRANCH   3   6
ENDBRANCH   1   2
BRANCH   1  23
ATOM     23  C   UNL A   1      33.267  28.779  24.861  1.00  0.00     0.042 C 
BRANCH  23  24
ATOM     24  C   UNL A   1      33.985  28.749  26.205  1.00  0.00     0.118 C 
BRANCH  24  25
ATOM     25  N   UNL A   1      33.854  30.015  26.902  1.00  0.00    -0.352 N 
ATOM     26  C   UNL A   1      34.645  30.571  27.880  1.00  0.00     0.251 C 
ATOM     27  H   UNL A   1      33.080  30.561  26.632  1.00  0.00     0.163 HD
ATOM     28  O   UNL A   1      34.191  31.503  28.540  1.00  0.00    -0.269 OA
BRANCH  26  29
ATOM     29  C   UNL A   1      36.018  30.074  28.159  1.00  0.00     0.039 A 
ATOM     30  C   UNL A   1      36.302  29.572  29.435  1.00  0.00     0.014 A 
ATOM     31  C   UNL A   1      37.053  30.186  27.226  1.00  0.00     0.014 A 
ATOM     32  C   UNL A   1      37.601  29.164  29.762  1.00  0.00     0.010 A 
ATOM     33  C   UNL A   1      38.333  29.712  27.529  1.00  0.00     0.010 A 
ATOM     34  C   UNL A   1      38.629  29.217  28.808  1.00  0.00    -0.014 A 
BRANCH  34  35
ATOM     35  C   UNL A   1      40.019  28.806  29.146  1.00  0.00     0.031 A 
ATOM     36  C   UNL A   1      40.943  29.765  29.859  1.00  0.00     0.074 A 
ATOM     37  C   UNL A   1      40.474  27.590  28.787  1.00  0.00     0.049 A 
ATOM     38  N   UNL A   1      42.198  29.607  30.197  1.00  0.00    -0.248 NA
ATOM     39  C   UNL A   1      40.387  31.079  30.221  1.00  0.00     0.031 C 
ATOM     40  C   UNL A   1      39.700  26.573  28.072  1.00  0.00     0.029 A 
ATOM     41  N   UNL A   1      41.702  27.003  28.972  1.00  0.00    -0.354 N 
ATOM     42  C   UNL A   1      42.588  30.804  30.787  1.00  0.00     0.074 A 
ATOM     43  C   UNL A   1      41.449  31.694  30.724  1.00  0.00     0.031 C 
ATOM     44  C   UNL A   1      40.462  25.480  27.903  1.00  0.00     0.029 A 
ATOM     45  C   UNL A   1      41.788  25.728  28.464  1.00  0.00     0.049 A 
ATOM     46  H   UNL A   1      42.450  27.452  29.427  1.00  0.00     0.167 HD
ATOM     47  C   UNL A   1      43.777  31.133  31.347  1.00  0.00     0.031 A 
ATOM     48  C   UNL A   1      42.815  24.856  28.444  1.00  0.00     0.031 A 
ATOM     49  C   UNL A   1      44.908  30.247  31.431  1.00  0.00     0.049 A 
ATOM     50  C   UNL A   1      44.126  25.241  29.071  1.00  0.00     0.074 A 
ATOM     51  C   UNL A   1      46.138  30.474  32.027  1.00  0.00     0.029 A 
ATOM     52  N   UNL A   1      44.948  28.965  30.907  1.00  0.00    -0.354 N 
ATOM     53  N   UNL A   1      44.456  26.363  29.666  1.00  0.00    -0.248 NA
ATOM     54  C   UNL A   1      45.201  24.239  29.031  1.00  0.00     0.031 C 
ATOM     55  C   UNL A   1      46.935  29.340  31.829  1.00  0.00     0.029 A 
ATOM     56  C   UNL A   1      46.187  28.393  31.149  1.00  0.00     0.049 A 
ATOM     57  H   UNL A   1      44.207  28.525  30.432  1.00  0.00     0.167 HD
ATOM     58  C   UNL A   1      45.771  26.192  30.090  1.00  0.00     0.074 A 
ATOM     59  C   UNL A   1      46.169  24.857  29.695  1.00  0.00     0.031 C 
ATOM     60  C   UNL A   1      46.574  27.065  30.747  1.00  0.00     0.031 A 
BRANCH  47  61
ATOM     61  C   UNL A   1      43.916  32.524  31.910  1.00  0.00    -0.014 A 
ATOM     62  C   UNL A   1      44.370  33.587  31.109  1.00  0.00     0.010 A 
ATOM     63  C   UNL A   1      43.570  32.776  33.250  1.00  0.00     0.010 A 
ATOM     64  C   UNL A   1      44.526  34.866  31.651  1.00  0.00     0.020 A 
ATOM     65  C   UNL A   1      43.699  34.060  33.788  1.00  0.00     0.020 A 
ATOM     66  C   UNL A   1      44.198  35.092  32.991  1.00  0.00     0.054 A 
BRANCH  66  67
ATOM     67  S   UNL A   1      44.410  36.760  33.672  1.00  0.00     0.124 S 
ATOM     68  O   UNL A   1      43.240  37.452  33.138  1.00  0.00    -0.237 OA
ATOM     69  O   UNL A   1      44.395  36.525  35.114  1.00  0.00    -0.237 OA
ATOM     70  O   UNL A   1      45.694  37.195  33.130  1.00  0.00    -0.744 OA
ENDBRANCH  66  67
ENDBRANCH  47  61
BRANCH  48  71
ATOM     71  C   UNL A   1      42.633  23.515  27.826  1.00  0.00    -0.014 A 
ATOM     72  C   UNL A   1      43.103  23.265  26.526  1.00  0.00     0.010 A 
ATOM     73  C   UNL A   1      42.008  22.478  28.542  1.00  0.00     0.010 A 
ATOM     74  C   UNL A   1      42.948  22.001  25.948  1.00  0.00     0.020 A 
ATOM     75  C   UNL A   1      41.871  21.207  27.976  1.00  0.00     0.020 A 
ATOM     76  C   UNL A   1      42.334  20.979  26.679  1.00  0.00     0.054 A 
BRANCH  76  77
ATOM     77  S   UNL A   1      42.206  19.328  25.937  1.00  0.00     0.124 S 
ATOM     78  O   UNL A   1      40.769  19.206  25.715  1.00  0.00    -0.237 OA
ATOM     79  O   UNL A   1      43.024  19.454  24.734  1.00  0.00    -0.237 OA
ATOM     80  O   UNL A   1      42.759  18.449  26.966  1.00  0.00    -0.744 OA
ENDBRANCH  76  77
ENDBRANCH  48  71
BRANCH  60  81
ATOM     81  C   UNL A   1      47.957  26.597  31.106  1.00  0.00    -0.014 A 
ATOM     82  C   UNL A   1      49.042  26.806  30.235  1.00  0.00     0.010 A 
ATOM     83  C   UNL A   1      48.185  25.986  32.351  1.00  0.00     0.010 A 
ATOM     84  C   UNL A   1      50.326  26.386  30.594  1.00  0.00     0.020 A 
ATOM     85  C   UNL A   1      49.471  25.585  32.723  1.00  0.00     0.020 A 
ATOM     86  C   UNL A   1      50.532  25.776  31.835  1.00  0.00     0.054 A 
BRANCH  86  87
ATOM     87  S   UNL A   1      52.214  25.279  32.299  1.00  0.00     0.124 S 
ATOM     88  O   UNL A   1      52.401  25.986  33.563  1.00  0.00    -0.237 OA
ATOM     89  O   UNL A   1      52.106  23.826  32.402  1.00  0.00    -0.237 OA
ATOM     90  O   UNL A   1      53.035  25.758  31.189  1.00  0.00    -0.744 OA
ENDBRANCH  86  87
ENDBRANCH  60  81
ENDBRANCH  34  35
ENDBRANCH  26  29
ENDBRANCH  24  25
ENDBRANCH  23  24
ENDBRANCH   1  23
TORSDOF 17
ENDMDL
MODEL 2
REMARK VINA RESULT:     -10.7      4.673     10.773
REMARK SMILES CSc1ccc(C[NH+]2CCC(CC(=O)NCCCNC(=O)c3ccc(-c4c5nc(c(-c6ccc(S(=O)(=O)[O-])cc6)c6ccc([nH]6)c(-c6ccc(S(=O)(=O)[O-])cc6)c6nc(c(-c7ccc(S(=O)(=O)[O-])cc7)c7ccc4[nH]7)C=C6)C=C5)cc3)CC2)cc1
REMARK SMILES IDX 16 1 15 2 13 3 14 4 12 6 11 7 8 8 9 9 83 10 10 12 82 13 7 14
REMARK SMILES IDX 6 15 3 16 4 17 85 18 5 19 84 20 2 21 1 22 17 23 18 24 19 25
REMARK SMILES IDX 20 26 21 28 22 29 23 30 81 31 24 32 80 33 25 34 26 35 27 36
REMARK SMILES IDX 74 37 28 38 79 39 73 40 75 41 29 42 78 43 72 44 71 45 30 47
REMARK SMILES IDX 60 48 41 49 59 50 42 51 45 52 58 53 76 54 43 55 44 56 57 58
REMARK SMILES IDX 77 59 46 60 31 61 32 62 40 63 33 64 39 65 34 66 35 67 36 68
REMARK SMILES IDX 37 69 38 70 61 71 62 72 70 73 63 74 69 75 64 76 65 77 66 78
REMARK SMILES IDX 67 79 68 80 47 81 48 82 56 83 49 84 55 85 50 86 51 87 52 88
REMARK SMILES IDX 53 89 54 90
REMARK H PARENT 15 5 8 11 19 27 75 46 45 57
REMARK Flexibility Score: inf
ROOT
ATOM      1  C   UNL A   1      39.513  22.757  26.819  1.00  0.00     0.117 C 
ENDROOT
BRANCH   1   2
ATOM      2  N   UNL A   1      38.761  21.747  26.081  1.00  0.00    -0.356 N 
ATOM      3  C   UNL A   1      37.646  21.845  25.300  1.00  0.00     0.220 C 
ATOM      4  O   UNL A   1      37.250  20.827  24.727  1.00  0.00    -0.275 OA
ATOM      5  H   UNL A   1      39.122  20.835  26.162  1.00  0.00     0.163 HD
BRANCH   3   6
ATOM      6  C   UNL A   1      36.889  23.156  25.157  1.00  0.00     0.104 C 
BRANCH   6   7
ATOM      7  C   UNL A   1      35.429  22.952  24.712  1.00  0.00     0.009 C 
ATOM      8  N   UNL A   1      33.022  24.260  23.636  1.00  0.00    -0.331 N 
ATOM      9  C   UNL A   1      33.067  23.871  25.047  1.00  0.00     0.262 C 
ATOM     10  C   UNL A   1      33.759  23.297  22.814  1.00  0.00     0.262 C 
ATOM     11  H   UNL A   1      33.500  25.154  23.526  1.00  0.00     0.348 HD
ATOM     12  C   UNL A   1      34.497  23.824  25.543  1.00  0.00     0.066 C 
ATOM     13  C   UNL A   1      35.243  23.268  23.220  1.00  0.00     0.066 C 
BRANCH   8  14
ATOM     14  C   UNL A   1      31.639  24.512  23.178  1.00  0.00     0.299 C 
BRANCH  14  15
ATOM     15  C   UNL A   1      31.134  25.925  23.387  1.00  0.00     0.006 A 
ATOM     16  C   UNL A   1      30.101  28.549  23.397  1.00  0.00     0.007 A 
ATOM     17  C   UNL A   1      31.466  28.321  23.203  1.00  0.00     0.015 A 
ATOM     18  C   UNL A   1      29.259  27.458  23.626  1.00  0.00     0.015 A 
ATOM     19  C   UNL A   1      31.982  27.023  23.213  1.00  0.00     0.011 A 
ATOM     20  C   UNL A   1      29.770  26.158  23.630  1.00  0.00     0.011 A 
BRANCH  16  21
ATOM     21  S   UNL A   1      29.358  30.169  23.275  1.00  0.00    -0.130 SA
ATOM     22  C   UNL A   1      28.793  30.176  21.555  1.00  0.00     0.091 C 
ENDBRANCH  16  21
ENDBRANCH  14  15
ENDBRANCH   8  14
ENDBRANCH   6   7
ENDBRANCH   3   6
ENDBRANCH   1   2
BRANCH   1  23
ATOM     23  C   UNL A   1      40.777  22.214  27.498  1.00  0.00     0.042 C 
BRANCH  23  24
ATOM     24  C   UNL A   1      41.903  23.229  27.657  1.00  0.00     0.118 C 
BRANCH  24  25
ATOM     25  N   UNL A   1      42.072  24.022  26.454  1.00  0.00    -0.352 N 
ATOM     26  C   UNL A   1      41.745  25.336  26.209  1.00  0.00     0.251 C 
ATOM     27  H   UNL A   1      42.485  23.549  25.697  1.00  0.00     0.163 HD
ATOM     28  O   UNL A   1      41.696  25.719  25.043  1.00  0.00    -0.269 OA
BRANCH  26  29
ATOM     29  C   UNL A   1      41.448  26.291  27.309  1.00  0.00     0.039 A 
ATOM     30  C   UNL A   1      42.280  27.406  27.471  1.00  0.00     0.014 A 
ATOM     31  C   UNL A   1      40.433  26.060  28.242  1.00  0.00     0.014 A 
ATOM     32  C   UNL A   1      42.081  28.290  28.537  1.00  0.00     0.010 A 
ATOM     33  C   UNL A   1      40.189  26.981  29.265  1.00  0.00     0.010 A 
ATOM     34  C   UNL A   1      41.025  28.094  29.441  1.00  0.00    -0.014 A 
BRANCH  34  35
ATOM     35  C   UNL A   1      40.813  29.013  30.593  1.00  0.00     0.031 A 
ATOM     36  C   UNL A   1      41.673  28.895  31.828  1.00  0.00     0.074 A 
ATOM     37  C   UNL A   1      39.828  29.932  30.556  1.00  0.00     0.049 A 
ATOM     38  N   UNL A   1      41.610  29.572  32.947  1.00  0.00    -0.248 NA
ATOM     39  C   UNL A   1      42.729  27.870  31.807  1.00  0.00     0.031 C 
ATOM     40  C   UNL A   1      38.904  30.139  29.438  1.00  0.00     0.029 A 
ATOM     41  N   UNL A   1      39.436  30.863  31.486  1.00  0.00    -0.354 N 
ATOM     42  C   UNL A   1      42.597  29.041  33.770  1.00  0.00     0.074 A 
ATOM     43  C   UNL A   1      43.217  27.958  33.036  1.00  0.00     0.031 C 
ATOM     44  C   UNL A   1      38.073  31.151  29.737  1.00  0.00     0.029 A 
ATOM     45  C   UNL A   1      38.378  31.640  31.079  1.00  0.00     0.049 A 
ATOM     46  H   UNL A   1      39.873  30.965  32.362  1.00  0.00     0.167 HD
ATOM     47  C   UNL A   1      42.970  29.424  35.014  1.00  0.00     0.031 A 
ATOM     48  C   UNL A   1      37.721  32.633  31.712  1.00  0.00     0.031 A 
ATOM     49  C   UNL A   1      42.372  30.513  35.742  1.00  0.00     0.049 A 
ATOM     50  C   UNL A   1      38.150  33.044  33.093  1.00  0.00     0.074 A 
ATOM     51  C   UNL A   1      42.717  31.010  36.988  1.00  0.00     0.029 A 
ATOM     52  N   UNL A   1      41.306  31.275  35.289  1.00  0.00    -0.354 N 
ATOM     53  N   UNL A   1      39.119  32.558  33.833  1.00  0.00    -0.248 NA
ATOM     54  C   UNL A   1      37.404  34.142  33.721  1.00  0.00     0.031 C 
ATOM     55  C   UNL A   1      41.835  32.049  37.305  1.00  0.00     0.029 A 
ATOM     56  C   UNL A   1      40.969  32.227  36.238  1.00  0.00     0.049 A 
ATOM     57  H   UNL A   1      40.855  31.157  34.423  1.00  0.00     0.167 HD
ATOM     58  C   UNL A   1      39.110  33.307  35.005  1.00  0.00     0.074 A 
ATOM     59  C   UNL A   1      38.051  34.285  34.871  1.00  0.00     0.031 C 
ATOM     60  C   UNL A   1      39.910  33.192  36.095  1.00  0.00     0.031 A 
BRANCH  47  61
ATOM     61  C   UNL A   1      44.081  28.650  35.674  1.00  0.00    -0.014 A 
ATOM     62  C   UNL A   1      43.802  27.561  36.520  1.00  0.00     0.010 A 
ATOM     63  C   UNL A   1      45.422  29.001  35.432  1.00  0.00     0.010 A 
ATOM     64  C   UNL A   1      44.840  26.871  37.152  1.00  0.00     0.020 A 
ATOM     65  C   UNL A   1      46.464  28.296  36.041  1.00  0.00     0.020 A 
ATOM     66  C   UNL A   1      46.165  27.249  36.916  1.00  0.00     0.054 A 
BRANCH  66  67
ATOM     67  S   UNL A   1      47.494  26.338  37.749  1.00  0.00     0.124 S 
ATOM     68  O   UNL A   1      48.340  27.424  38.239  1.00  0.00    -0.237 OA
ATOM     69  O   UNL A   1      46.777  25.588  38.777  1.00  0.00    -0.237 OA
ATOM     70  O   UNL A   1      48.077  25.526  36.684  1.00  0.00    -0.744 OA
ENDBRANCH  66  67
ENDBRANCH  47  61
BRANCH  48  71
ATOM     71  C   UNL A   1      36.596  33.326  31.028  1.00  0.00    -0.014 A 
ATOM     72  C   UNL A   1      35.343  33.433  31.656  1.00  0.00     0.010 A 
ATOM     73  C   UNL A   1      36.778  33.900  29.757  1.00  0.00     0.010 A 
ATOM     74  C   UNL A   1      34.289  34.098  31.023  1.00  0.00     0.020 A 
ATOM     75  C   UNL A   1      35.733  34.585  29.130  1.00  0.00     0.020 A 
ATOM     76  C   UNL A   1      34.492  34.672  29.764  1.00  0.00     0.054 A 
BRANCH  76  77
ATOM     77  S   UNL A   1      33.132  35.591  28.991  1.00  0.00     0.124 S 
ATOM     78  O   UNL A   1      32.343  35.998  30.149  1.00  0.00    -0.237 OA
ATOM     79  O   UNL A   1      33.830  36.667  28.292  1.00  0.00    -0.237 OA
ATOM     80  O   UNL A   1      32.503  34.599  28.121  1.00  0.00    -0.744 OA
ENDBRANCH  76  77
ENDBRANCH  48  71
BRANCH  60  81
ATOM     81  C   UNL A   1      39.689  34.166  37.220  1.00  0.00    -0.014 A 
ATOM     82  C   UNL A   1      38.980  33.790  38.375  1.00  0.00     0.010 A 
ATOM     83  C   UNL A   1      40.240  35.457  37.143  1.00  0.00     0.010 A 
ATOM     84  C   UNL A   1      38.804  34.699  39.422  1.00  0.00     0.020 A 
ATOM     85  C   UNL A   1      40.086  36.361  38.197  1.00  0.00     0.020 A 
ATOM     86  C   UNL A   1      39.356  35.980  39.325  1.00  0.00     0.054 A 
BRANCH  86  87
ATOM     87  S   UNL A   1      39.154  37.129  40.714  1.00  0.00     0.124 S 
ATOM     88  O   UNL A   1      38.317  38.172  40.126  1.00  0.00    -0.237 OA
ATOM     89  O   UNL A   1      38.506  36.301  41.728  1.00  0.00    -0.237 OA
ATOM     90  O   UNL A   1      40.522  37.533  41.032  1.00  0.00    -0.744 OA
ENDBRANCH  86  87
ENDBRANCH  60  81
ENDBRANCH  34  35
ENDBRANCH  26  29
ENDBRANCH  24  25
ENDBRANCH  23  24
ENDBRANCH   1  23
TORSDOF 17
ENDMDL
MODEL 3
REMARK VINA RESULT:     -10.6      2.419      3.027
REMARK SMILES CSc1ccc(C[NH+]2CCC(CC(=O)NCCCNC(=O)c3ccc(-c4c5nc(c(-c6ccc(S(=O)(=O)[O-])cc6)c6ccc([nH]6)c(-c6ccc(S(=O)(=O)[O-])cc6)c6nc(c(-c7ccc(S(=O)(=O)[O-])cc7)c7ccc4[nH]7)C=C6)C=C5)cc3)CC2)cc1
REMARK SMILES IDX 16 1 15 2 13 3 14 4 12 6 11 7 8 8 9 9 83 10 10 12 82 13 7 14
REMARK SMILES IDX 6 15 3 16 4 17 85 18 5 19 84 20 2 21 1 22 17 23 18 24 19 25
REMARK SMILES IDX 20 26 21 28 22 29 23 30 81 31 24 32 80 33 25 34 26 35 27 36
REMARK SMILES IDX 74 37 28 38 79 39 73 40 75 41 29 42 78 43 72 44 71 45 30 47
REMARK SMILES IDX 60 48 41 49 59 50 42 51 45 52 58 53 76 54 43 55 44 56 57 58
REMARK SMILES IDX 77 59 46 60 31 61 32 62 40 63 33 64 39 65 34 66 35 67 36 68
REMARK SMILES IDX 37 69 38 70 61 71 62 72 70 73 63 74 69 75 64 76 65 77 66 78
REMARK SMILES IDX 67 79 68 80 47 81 48 82 56 83 49 84 55 85 50 86 51 87 52 88
REMARK SMILES IDX 53 89 54 90
REMARK H PARENT 15 5 8 11 19 27 75 46 45 57
REMARK Flexibility Score: inf
ROOT
ATOM      1  C   UNL A   1      33.268  29.288  23.633  1.00  0.00     0.117 C 
ENDROOT
BRANCH   1   2
ATOM      2  N   UNL A   1      32.196  29.028  22.678  1.00  0.00    -0.356 N 
ATOM      3  C   UNL A   1      30.901  28.636  22.860  1.00  0.00     0.220 C 
ATOM      4  O   UNL A   1      30.176  28.555  21.866  1.00  0.00    -0.275 OA
ATOM      5  H   UNL A   1      32.453  29.159  21.737  1.00  0.00     0.163 HD
BRANCH   3   6
ATOM      6  C   UNL A   1      30.366  28.278  24.238  1.00  0.00     0.104 C 
BRANCH   6   7
ATOM      7  C   UNL A   1      30.128  26.765  24.406  1.00  0.00     0.009 C 
ATOM      8  N   UNL A   1      31.411  24.135  24.720  1.00  0.00    -0.331 N 
ATOM      9  C   UNL A   1      30.799  24.496  23.440  1.00  0.00     0.262 C 
ATOM     10  C   UNL A   1      30.655  24.717  25.832  1.00  0.00     0.262 C 
ATOM     11  H   UNL A   1      32.344  24.544  24.765  1.00  0.00     0.348 HD
ATOM     12  C   UNL A   1      30.778  25.999  23.261  1.00  0.00     0.066 C 
ATOM     13  C   UNL A   1      30.672  26.253  25.748  1.00  0.00     0.066 C 
BRANCH   8  14
ATOM     14  C   UNL A   1      31.630  22.678  24.836  1.00  0.00     0.299 C 
BRANCH  14  15
ATOM     15  C   UNL A   1      33.069  22.224  24.692  1.00  0.00     0.006 A 
ATOM     16  C   UNL A   1      35.753  21.369  24.813  1.00  0.00     0.007 A 
ATOM     17  C   UNL A   1      35.441  22.729  24.730  1.00  0.00     0.015 A 
ATOM     18  C   UNL A   1      34.714  20.435  24.797  1.00  0.00     0.015 A 
ATOM     19  C   UNL A   1      34.113  23.154  24.653  1.00  0.00     0.011 A 
ATOM     20  C   UNL A   1      33.384  20.857  24.727  1.00  0.00     0.011 A 
BRANCH  16  21
ATOM     21  S   UNL A   1      37.419  20.765  25.036  1.00  0.00    -0.130 SA
ATOM     22  C   UNL A   1      38.234  22.212  25.755  1.00  0.00     0.091 C 
ENDBRANCH  16  21
ENDBRANCH  14  15
ENDBRANCH   8  14
ENDBRANCH   6   7
ENDBRANCH   3   6
ENDBRANCH   1   2
BRANCH   1  23
ATOM     23  C   UNL A   1      33.709  28.049  24.421  1.00  0.00     0.042 C 
BRANCH  23  24
ATOM     24  C   UNL A   1      33.965  28.290  25.904  1.00  0.00     0.118 C 
BRANCH  24  25
ATOM     25  N   UNL A   1      33.769  29.686  26.252  1.00  0.00    -0.352 N 
ATOM     26  C   UNL A   1      34.400  30.456  27.201  1.00  0.00     0.251 C 
ATOM     27  H   UNL A   1      33.081  30.154  25.727  1.00  0.00     0.163 HD
ATOM     28  O   UNL A   1      33.879  31.519  27.532  1.00  0.00    -0.269 OA
BRANCH  26  29
ATOM     29  C   UNL A   1      35.679  30.037  27.832  1.00  0.00     0.039 A 
ATOM     30  C   UNL A   1      35.661  29.617  29.168  1.00  0.00     0.014 A 
ATOM     31  C   UNL A   1      36.905  30.145  27.170  1.00  0.00     0.014 A 
ATOM     32  C   UNL A   1      36.853  29.285  29.822  1.00  0.00     0.010 A 
ATOM     33  C   UNL A   1      38.087  29.745  27.800  1.00  0.00     0.010 A 
ATOM     34  C   UNL A   1      38.079  29.333  29.142  1.00  0.00    -0.014 A 
BRANCH  34  35
ATOM     35  C   UNL A   1      39.358  29.004  29.829  1.00  0.00     0.031 A 
ATOM     36  C   UNL A   1      39.765  29.751  31.076  1.00  0.00     0.074 A 
ATOM     37  C   UNL A   1      40.178  28.062  29.323  1.00  0.00     0.049 A 
ATOM     38  N   UNL A   1      40.859  29.639  31.788  1.00  0.00    -0.248 NA
ATOM     39  C   UNL A   1      38.828  30.770  31.577  1.00  0.00     0.031 C 
ATOM     40  C   UNL A   1      39.923  27.280  28.111  1.00  0.00     0.029 A 
ATOM     41  N   UNL A   1      41.395  27.604  29.764  1.00  0.00    -0.354 N 
ATOM     42  C   UNL A   1      40.753  30.585  32.801  1.00  0.00     0.074 A 
ATOM     43  C   UNL A   1      39.508  31.291  32.589  1.00  0.00     0.031 C 
ATOM     44  C   UNL A   1      40.939  26.422  27.922  1.00  0.00     0.029 A 
ATOM     45  C   UNL A   1      41.933  26.616  28.974  1.00  0.00     0.049 A 
ATOM     46  H   UNL A   1      41.840  27.950  30.571  1.00  0.00     0.167 HD
ATOM     47  C   UNL A   1      41.602  30.837  33.827  1.00  0.00     0.031 A 
ATOM     48  C   UNL A   1      43.096  25.941  29.078  1.00  0.00     0.031 A 
ATOM     49  C   UNL A   1      42.832  30.126  34.057  1.00  0.00     0.049 A 
ATOM     50  C   UNL A   1      44.024  26.236  30.224  1.00  0.00     0.074 A 
ATOM     51  C   UNL A   1      43.732  30.275  35.099  1.00  0.00     0.029 A 
ATOM     52  N   UNL A   1      43.335  29.131  33.234  1.00  0.00    -0.354 N 
ATOM     53  N   UNL A   1      43.880  27.103  31.198  1.00  0.00    -0.248 NA
ATOM     54  C   UNL A   1      45.267  25.456  30.289  1.00  0.00     0.031 C 
ATOM     55  C   UNL A   1      44.799  29.395  34.885  1.00  0.00     0.029 A 
ATOM     56  C   UNL A   1      44.541  28.667  33.734  1.00  0.00     0.049 A 
ATOM     57  H   UNL A   1      42.900  28.802  32.415  1.00  0.00     0.167 HD
ATOM     58  C   UNL A   1      45.005  26.956  32.003  1.00  0.00     0.074 A 
ATOM     59  C   UNL A   1      45.812  25.910  31.410  1.00  0.00     0.031 C 
ATOM     60  C   UNL A   1      45.337  27.629  33.133  1.00  0.00     0.031 A 
BRANCH  47  61
ATOM     61  C   UNL A   1      41.226  31.941  34.781  1.00  0.00    -0.014 A 
ATOM     62  C   UNL A   1      40.464  31.675  35.933  1.00  0.00     0.010 A 
ATOM     63  C   UNL A   1      41.656  33.258  34.535  1.00  0.00     0.010 A 
ATOM     64  C   UNL A   1      40.093  32.713  36.792  1.00  0.00     0.020 A 
ATOM     65  C   UNL A   1      41.311  34.294  35.407  1.00  0.00     0.020 A 
ATOM     66  C   UNL A   1      40.511  34.019  36.518  1.00  0.00     0.054 A 
BRANCH  66  67
ATOM     67  S   UNL A   1      40.018  35.349  37.649  1.00  0.00     0.124 S 
ATOM     68  O   UNL A   1      39.833  36.470  36.730  1.00  0.00    -0.237 OA
ATOM     69  O   UNL A   1      38.795  34.824  38.251  1.00  0.00    -0.237 OA
ATOM     70  O   UNL A   1      41.154  35.469  38.559  1.00  0.00    -0.744 OA
ENDBRANCH  66  67
ENDBRANCH  47  61
BRANCH  48  71
ATOM     71  C   UNL A   1      43.436  24.898  28.074  1.00  0.00    -0.014 A 
ATOM     72  C   UNL A   1      44.209  25.225  26.947  1.00  0.00     0.010 A 
ATOM     73  C   UNL A   1      43.007  23.570  28.251  1.00  0.00     0.010 A 
ATOM     74  C   UNL A   1      44.544  24.242  26.009  1.00  0.00     0.020 A 
ATOM     75  C   UNL A   1      43.359  22.581  27.327  1.00  0.00     0.020 A 
ATOM     76  C   UNL A   1      44.118  22.926  26.208  1.00  0.00     0.054 A 
BRANCH  76  77
ATOM     77  S   UNL A   1      44.623  21.653  25.016  1.00  0.00     0.124 S 
ATOM     78  O   UNL A   1      45.991  21.370  25.436  1.00  0.00    -0.237 OA
ATOM     79  O   UNL A   1      43.653  20.588  25.258  1.00  0.00    -0.237 OA
ATOM     80  O   UNL A   1      44.488  22.325  23.725  1.00  0.00    -0.744 OA
ENDBRANCH  76  77
ENDBRANCH  48  71
BRANCH  60  81
ATOM     81  C   UNL A   1      46.618  27.238  33.818  1.00  0.00    -0.014 A 
ATOM     82  C   UNL A   1      47.829  27.885  33.517  1.00  0.00     0.010 A 
ATOM     83  C   UNL A   1      46.599  26.246  34.814  1.00  0.00     0.010 A 
ATOM     84  C   UNL A   1      49.005  27.527  34.181  1.00  0.00     0.020 A 
ATOM     85  C   UNL A   1      47.769  25.901  35.497  1.00  0.00     0.020 A 
ATOM     86  C   UNL A   1      48.969  26.535  35.165  1.00  0.00     0.054 A 
BRANCH  86  87
ATOM     87  S   UNL A   1      50.499  26.116  36.045  1.00  0.00     0.124 S 
ATOM     88  O   UNL A   1      50.046  26.069  37.433  1.00  0.00    -0.237 OA
ATOM     89  O   UNL A   1      50.867  24.829  35.461  1.00  0.00    -0.237 OA
ATOM     90  O   UNL A   1      51.399  27.220  35.720  1.00  0.00    -0.744 OA
ENDBRANCH  86  87
ENDBRANCH  60  81
ENDBRANCH  34  35
ENDBRANCH  26  29
ENDBRANCH  24  25
ENDBRANCH  23  24
ENDBRANCH   1  23
TORSDOF 17
ENDMDL
