MODEL 1
REMARK VINA RESULT:     -12.7      0.000      0.000
REMARK SMILES Cc1ccc(S(=O)(=O)N[C@@H](Cc2cccc(F)c2)C(=O)NCCCNC(=O)c2ccc(-c3c4nc(c(-c5ccc(S(=O)(=O)[O-])cc5)c5ccc([nH]5)c(-c5ccc(S(=O)(=O)[O-])cc5)c5nc(c(-c6ccc(S(=O)(=O)[O-])cc6)c6ccc3[nH]6)C=C5)C=C4)cc2)cc1
REMARK SMILES IDX 23 1 22 2 21 3 19 4 20 5 10 7 9 8 6 10 7 11 8 12 5 13 1 14
REMARK SMILES IDX 2 15 3 16 89 17 4 18 88 19 11 20 12 21 13 22 18 23 14 24
REMARK SMILES IDX 16 25 15 26 17 27 24 28 25 29 26 30 27 32 28 33 29 34 87 35
REMARK SMILES IDX 30 36 86 37 31 38 32 39 33 40 80 41 34 42 85 43 79 44 81 45
REMARK SMILES IDX 35 46 84 47 78 48 77 49 36 51 66 52 47 53 65 54 48 55 51 56
REMARK SMILES IDX 64 57 82 58 49 59 50 60 63 62 83 63 52 64 37 65 38 66 46 67
REMARK SMILES IDX 39 68 45 69 40 70 41 71 42 72 43 73 44 74 67 75 68 76 76 77
REMARK SMILES IDX 69 78 75 79 70 80 71 81 72 82 73 83 74 84 53 85 54 86 62 87
REMARK SMILES IDX 55 88 61 89 56 90 57 91 58 92 59 93 60 94
REMARK H PARENT 21 6 9 9 25 31 81 50 51 61
REMARK Flexibility Score: inf
ROOT
ATOM      1  C   UNL A   1      32.114  30.106  26.881  1.00  0.00     0.042 C 
ENDROOT
BRANCH   1   2
ATOM      2  C   UNL A   1      31.598  29.302  25.700  1.00  0.00     0.117 C 
BRANCH   2   3
ATOM      3  N   UNL A   1      32.284  29.649  24.461  1.00  0.00    -0.355 N 
ATOM      4  C   UNL A   1      32.925  28.839  23.571  1.00  0.00     0.238 C 
ATOM      5  O   UNL A   1      33.458  29.348  22.581  1.00  0.00    -0.273 OA
ATOM      6  H   UNL A   1      32.285  30.608  24.234  1.00  0.00     0.163 HD
BRANCH   4   7
ATOM      7  C   UNL A   1      33.091  27.330  23.841  1.00  0.00     0.163 C 
BRANCH   7   8
ATOM      8  N   UNL A   1      33.398  26.805  22.484  1.00  0.00    -0.198 NA
ATOM      9  H   UNL A   1      33.574  27.634  21.916  1.00  0.00     0.142 HD
BRANCH   8  10
ATOM     10  S   UNL A   1      32.435  25.844  21.548  1.00  0.00     0.241 S 
ATOM     11  O   UNL A   1      33.162  25.553  20.320  1.00  0.00    -0.207 OA
ATOM     12  O   UNL A   1      31.144  26.472  21.525  1.00  0.00    -0.207 OA
BRANCH  10  13
ATOM     13  C   UNL A   1      32.245  24.308  22.406  1.00  0.00     0.082 A 
ATOM     14  C   UNL A   1      32.184  20.709  24.741  1.00  0.00     0.044 C 
ATOM     15  C   UNL A   1      32.179  21.950  23.899  1.00  0.00    -0.051 A 
ATOM     16  C   UNL A   1      33.250  22.204  23.033  1.00  0.00     0.005 A 
ATOM     17  C   UNL A   1      31.111  22.855  23.957  1.00  0.00     0.005 A 
ATOM     18  C   UNL A   1      33.289  23.385  22.296  1.00  0.00     0.022 A 
ATOM     19  C   UNL A   1      31.133  24.029  23.199  1.00  0.00     0.022 A 
ENDBRANCH  10  13
ENDBRANCH   8  10
ENDBRANCH   7   8
BRANCH   7  20
ATOM     20  C   UNL A   1      34.075  26.906  24.951  1.00  0.00     0.065 C 
BRANCH  20  21
ATOM     21  C   UNL A   1      34.076  25.486  25.495  1.00  0.00    -0.043 A 
ATOM     22  C   UNL A   1      35.220  24.696  25.264  1.00  0.00     0.004 A 
ATOM     23  C   UNL A   1      33.030  24.915  26.233  1.00  0.00     0.043 A 
ATOM     24  C   UNL A   1      35.352  23.423  25.829  1.00  0.00     0.003 A 
ATOM     25  C   UNL A   1      33.185  23.659  26.821  1.00  0.00     0.123 A 
ATOM     26  C   UNL A   1      34.341  22.915  26.635  1.00  0.00     0.039 A 
ATOM     27  F   UNL A   1      32.203  23.168  27.586  1.00  0.00    -0.207 F 
ENDBRANCH  20  21
ENDBRANCH   7  20
ENDBRANCH   4   7
ENDBRANCH   2   3
ENDBRANCH   1   2
BRANCH   1  28
ATOM     28  C   UNL A   1      33.623  30.053  26.968  1.00  0.00     0.118 C 
BRANCH  28  29
ATOM     29  N   UNL A   1      34.250  31.300  27.364  1.00  0.00    -0.352 N 
ATOM     30  C   UNL A   1      35.148  31.485  28.404  1.00  0.00     0.251 C 
ATOM     31  H   UNL A   1      34.012  32.099  26.840  1.00  0.00     0.163 HD
ATOM     32  O   UNL A   1      35.202  32.540  29.024  1.00  0.00    -0.269 OA
BRANCH  30  33
ATOM     33  C   UNL A   1      36.184  30.440  28.590  1.00  0.00     0.039 A 
ATOM     34  C   UNL A   1      36.183  29.720  29.793  1.00  0.00     0.014 A 
ATOM     35  C   UNL A   1      37.284  30.389  27.746  1.00  0.00     0.014 A 
ATOM     36  C   UNL A   1      37.356  29.107  30.233  1.00  0.00     0.010 A 
ATOM     37  C   UNL A   1      38.477  29.946  28.253  1.00  0.00     0.010 A 
ATOM     38  C   UNL A   1      38.517  29.312  29.500  1.00  0.00    -0.014 A 
BRANCH  38  39
ATOM     39  C   UNL A   1      39.846  28.828  29.824  1.00  0.00     0.031 A 
ATOM     40  C   UNL A   1      40.258  27.534  29.228  1.00  0.00     0.074 A 
ATOM     41  C   UNL A   1      40.754  29.692  30.330  1.00  0.00     0.049 A 
ATOM     42  N   UNL A   1      41.359  26.928  29.498  1.00  0.00    -0.248 NA
ATOM     43  C   UNL A   1      39.430  26.798  28.269  1.00  0.00     0.031 C 
ATOM     44  C   UNL A   1      42.208  29.600  30.220  1.00  0.00     0.029 A 
ATOM     45  N   UNL A   1      40.562  30.757  31.212  1.00  0.00    -0.354 N 
ATOM     46  C   UNL A   1      41.540  25.955  28.539  1.00  0.00     0.074 A 
ATOM     47  C   UNL A   1      40.271  25.842  27.866  1.00  0.00     0.031 C 
ATOM     48  C   UNL A   1      42.760  30.338  31.198  1.00  0.00     0.029 A 
ATOM     49  C   UNL A   1      41.675  30.738  32.076  1.00  0.00     0.049 A 
ATOM     50  H   UNL A   1      39.808  31.389  31.226  1.00  0.00     0.167 HD
ATOM     51  C   UNL A   1      42.792  25.458  28.342  1.00  0.00     0.031 A 
ATOM     52  C   UNL A   1      41.589  30.406  33.404  1.00  0.00     0.031 A 
ATOM     53  C   UNL A   1      43.732  26.003  29.322  1.00  0.00     0.049 A 
ATOM     54  C   UNL A   1      42.423  29.191  33.793  1.00  0.00     0.074 A 
ATOM     55  C   UNL A   1      44.735  26.956  29.281  1.00  0.00     0.029 A 
ATOM     56  N   UNL A   1      43.490  25.757  30.659  1.00  0.00    -0.354 N 
ATOM     57  N   UNL A   1      43.076  28.444  32.947  1.00  0.00    -0.248 NA
ATOM     58  C   UNL A   1      42.502  28.663  35.157  1.00  0.00     0.031 C 
ATOM     59  C   UNL A   1      45.092  27.274  30.624  1.00  0.00     0.029 A 
ATOM     60  C   UNL A   1      44.325  26.493  31.469  1.00  0.00     0.049 A 
ATOM     61  H   UNL A   1      42.805  25.133  30.992  1.00  0.00     0.167 HD
ATOM     62  C   UNL A   1      43.576  27.339  33.584  1.00  0.00     0.074 A 
ATOM     63  C   UNL A   1      43.204  27.528  34.973  1.00  0.00     0.031 C 
ATOM     64  C   UNL A   1      44.202  26.331  32.909  1.00  0.00     0.031 A 
BRANCH  51  65
ATOM     65  C   UNL A   1      43.246  24.626  27.165  1.00  0.00    -0.014 A 
ATOM     66  C   UNL A   1      42.947  23.247  27.160  1.00  0.00     0.010 A 
ATOM     67  C   UNL A   1      43.991  25.099  26.069  1.00  0.00     0.010 A 
ATOM     68  C   UNL A   1      43.423  22.380  26.168  1.00  0.00     0.020 A 
ATOM     69  C   UNL A   1      44.483  24.242  25.070  1.00  0.00     0.020 A 
ATOM     70  C   UNL A   1      44.208  22.882  25.136  1.00  0.00     0.054 A 
BRANCH  70  71
ATOM     71  S   UNL A   1      44.863  21.736  23.898  1.00  0.00     0.124 S 
ATOM     72  O   UNL A   1      44.236  22.215  22.668  1.00  0.00    -0.237 OA
ATOM     73  O   UNL A   1      46.303  21.951  23.997  1.00  0.00    -0.237 OA
ATOM     74  O   UNL A   1      44.399  20.427  24.356  1.00  0.00    -0.744 OA
ENDBRANCH  70  71
ENDBRANCH  51  65
BRANCH  52  75
ATOM     75  C   UNL A   1      40.265  30.742  34.011  1.00  0.00    -0.014 A 
ATOM     76  C   UNL A   1      40.073  32.067  34.456  1.00  0.00     0.010 A 
ATOM     77  C   UNL A   1      39.141  29.961  33.681  1.00  0.00     0.010 A 
ATOM     78  C   UNL A   1      38.818  32.670  34.344  1.00  0.00     0.020 A 
ATOM     79  C   UNL A   1      37.880  30.561  33.587  1.00  0.00     0.020 A 
ATOM     80  C   UNL A   1      37.751  31.932  33.831  1.00  0.00     0.054 A 
BRANCH  80  81
ATOM     81  S   UNL A   1      36.288  32.841  33.245  1.00  0.00     0.124 S 
ATOM     82  O   UNL A   1      36.881  33.963  32.525  1.00  0.00    -0.237 OA
ATOM     83  O   UNL A   1      35.629  31.836  32.414  1.00  0.00    -0.237 OA
ATOM     84  O   UNL A   1      35.589  33.183  34.481  1.00  0.00    -0.744 OA
ENDBRANCH  80  81
ENDBRANCH  52  75
BRANCH  64  85
ATOM     85  C   UNL A   1      44.709  25.054  33.532  1.00  0.00    -0.014 A 
ATOM     86  C   UNL A   1      46.060  24.837  33.838  1.00  0.00     0.010 A 
ATOM     87  C   UNL A   1      43.826  23.963  33.719  1.00  0.00     0.010 A 
ATOM     88  C   UNL A   1      46.492  23.610  34.365  1.00  0.00     0.020 A 
ATOM     89  C   UNL A   1      44.246  22.732  34.223  1.00  0.00     0.020 A 
ATOM     90  C   UNL A   1      45.579  22.568  34.563  1.00  0.00     0.054 A 
BRANCH  90  91
ATOM     91  S   UNL A   1      46.161  20.987  35.223  1.00  0.00     0.124 S 
ATOM     92  O   UNL A   1      46.566  21.340  36.581  1.00  0.00    -0.237 OA
ATOM     93  O   UNL A   1      44.963  20.159  35.119  1.00  0.00    -0.237 OA
ATOM     94  O   UNL A   1      47.255  20.614  34.329  1.00  0.00    -0.744 OA
ENDBRANCH  90  91
ENDBRANCH  64  85
ENDBRANCH  38  39
ENDBRANCH  30  33
ENDBRANCH  28  29
ENDBRANCH   1  28
TORSDOF 18
ENDMDL
MODEL 2
REMARK VINA RESULT:     -12.7      4.061     10.263
REMARK SMILES Cc1ccc(S(=O)(=O)N[C@@H](Cc2cccc(F)c2)C(=O)NCCCNC(=O)c2ccc(-c3c4nc(c(-c5ccc(S(=O)(=O)[O-])cc5)c5ccc([nH]5)c(-c5ccc(S(=O)(=O)[O-])cc5)c5nc(c(-c6ccc(S(=O)(=O)[O-])cc6)c6ccc3[nH]6)C=C5)C=C4)cc2)cc1
REMARK SMILES IDX 23 1 22 2 21 3 19 4 20 5 10 7 9 8 6 10 7 11 8 12 5 13 1 14
REMARK SMILES IDX 2 15 3 16 89 17 4 18 88 19 11 20 12 21 13 22 18 23 14 24
REMARK SMILES IDX 16 25 15 26 17 27 24 28 25 29 26 30 27 32 28 33 29 34 87 35
REMARK SMILES IDX 30 36 86 37 31 38 32 39 33 40 80 41 34 42 85 43 79 44 81 45
REMARK SMILES IDX 35 46 84 47 78 48 77 49 36 51 66 52 47 53 65 54 48 55 51 56
REMARK SMILES IDX 64 57 82 58 49 59 50 60 63 62 83 63 52 64 37 65 38 66 46 67
REMARK SMILES IDX 39 68 45 69 40 70 41 71 42 72 43 73 44 74 67 75 68 76 76 77
REMARK SMILES IDX 69 78 75 79 70 80 71 81 72 82 73 83 74 84 53 85 54 86 62 87
REMARK SMILES IDX 55 88 61 89 56 90 57 91 58 92 59 93 60 94
REMARK H PARENT 21 6 9 9 25 31 81 50 51 61
REMARK Flexibility Score: inf
ROOT
ATOM      1  C   UNL A   1      37.196  21.424  24.701  1.00  0.00     0.042 C 
ENDROOT
BRANCH   1   2
ATOM      2  C   UNL A   1      35.678  21.410  24.697  1.00  0.00     0.117 C 
BRANCH   2   3
ATOM      3  N   UNL A   1      35.130  21.108  26.015  1.00  0.00    -0.355 N 
ATOM      4  C   UNL A   1      34.172  21.767  26.725  1.00  0.00     0.238 C 
ATOM      5  O   UNL A   1      33.862  21.343  27.842  1.00  0.00    -0.273 OA
ATOM      6  H   UNL A   1      35.508  20.312  26.455  1.00  0.00     0.163 HD
BRANCH   4   7
ATOM      7  C   UNL A   1      33.558  23.084  26.208  1.00  0.00     0.163 C 
BRANCH   7   8
ATOM      8  N   UNL A   1      32.304  23.174  27.002  1.00  0.00    -0.198 NA
ATOM      9  H   UNL A   1      32.397  22.456  27.720  1.00  0.00     0.142 HD
BRANCH   8  10
ATOM     10  S   UNL A   1      30.759  23.018  26.441  1.00  0.00     0.241 S 
ATOM     11  O   UNL A   1      29.857  23.295  27.550  1.00  0.00    -0.207 OA
ATOM     12  O   UNL A   1      30.715  21.771  25.730  1.00  0.00    -0.207 OA
BRANCH  10  13
ATOM     13  C   UNL A   1      30.509  24.300  25.247  1.00  0.00     0.082 A 
ATOM     14  C   UNL A   1      30.267  27.649  22.576  1.00  0.00     0.044 C 
ATOM     15  C   UNL A   1      30.316  26.466  23.496  1.00  0.00    -0.051 A 
ATOM     16  C   UNL A   1      30.026  26.634  24.856  1.00  0.00     0.005 A 
ATOM     17  C   UNL A   1      30.635  25.190  23.012  1.00  0.00     0.005 A 
ATOM     18  C   UNL A   1      30.133  25.556  25.732  1.00  0.00     0.022 A 
ATOM     19  C   UNL A   1      30.717  24.101  23.883  1.00  0.00     0.022 A 
ENDBRANCH  10  13
ENDBRANCH   8  10
ENDBRANCH   7   8
BRANCH   7  20
ATOM     20  C   UNL A   1      34.447  24.345  26.232  1.00  0.00     0.065 C 
BRANCH  20  21
ATOM     21  C   UNL A   1      34.066  25.586  25.442  1.00  0.00    -0.043 A 
ATOM     22  C   UNL A   1      33.712  26.742  26.166  1.00  0.00     0.004 A 
ATOM     23  C   UNL A   1      34.066  25.671  24.043  1.00  0.00     0.043 A 
ATOM     24  C   UNL A   1      33.463  27.958  25.521  1.00  0.00     0.003 A 
ATOM     25  C   UNL A   1      33.850  26.896  23.410  1.00  0.00     0.123 A 
ATOM     26  C   UNL A   1      33.561  28.041  24.138  1.00  0.00     0.039 A 
ATOM     27  F   UNL A   1      33.933  26.968  22.076  1.00  0.00    -0.207 F 
ENDBRANCH  20  21
ENDBRANCH   7  20
ENDBRANCH   4   7
ENDBRANCH   2   3
ENDBRANCH   1   2
BRANCH   1  28
ATOM     28  C   UNL A   1      37.737  22.471  25.649  1.00  0.00     0.118 C 
BRANCH  28  29
ATOM     29  N   UNL A   1      38.877  22.042  26.438  1.00  0.00    -0.352 N 
ATOM     30  C   UNL A   1      40.036  22.763  26.682  1.00  0.00     0.251 C 
ATOM     31  H   UNL A   1      38.822  21.146  26.840  1.00  0.00     0.163 HD
ATOM     32  O   UNL A   1      41.115  22.205  26.842  1.00  0.00    -0.269 OA
BRANCH  30  33
ATOM     33  C   UNL A   1      39.881  24.211  26.959  1.00  0.00     0.039 A 
ATOM     34  C   UNL A   1      40.468  25.118  26.065  1.00  0.00     0.014 A 
ATOM     35  C   UNL A   1      39.440  24.641  28.202  1.00  0.00     0.014 A 
ATOM     36  C   UNL A   1      40.782  26.407  26.495  1.00  0.00     0.010 A 
ATOM     37  C   UNL A   1      39.905  25.836  28.682  1.00  0.00     0.010 A 
ATOM     38  C   UNL A   1      40.584  26.718  27.833  1.00  0.00    -0.014 A 
BRANCH  38  39
ATOM     39  C   UNL A   1      40.912  27.968  28.492  1.00  0.00     0.031 A 
ATOM     40  C   UNL A   1      39.844  28.996  28.564  1.00  0.00     0.074 A 
ATOM     41  C   UNL A   1      41.995  28.020  29.299  1.00  0.00     0.049 A 
ATOM     42  N   UNL A   1      40.009  30.184  29.024  1.00  0.00    -0.248 NA
ATOM     43  C   UNL A   1      38.477  28.758  28.093  1.00  0.00     0.031 C 
ATOM     44  C   UNL A   1      42.203  28.922  30.430  1.00  0.00     0.029 A 
ATOM     45  N   UNL A   1      43.228  27.381  29.163  1.00  0.00    -0.354 N 
ATOM     46  C   UNL A   1      38.759  30.725  29.229  1.00  0.00     0.074 A 
ATOM     47  C   UNL A   1      37.847  29.849  28.538  1.00  0.00     0.031 C 
ATOM     48  C   UNL A   1      43.521  28.999  30.680  1.00  0.00     0.029 A 
ATOM     49  C   UNL A   1      44.190  28.320  29.584  1.00  0.00     0.049 A 
ATOM     50  H   UNL A   1      43.392  26.466  28.839  1.00  0.00     0.167 HD
ATOM     51  C   UNL A   1      38.636  31.781  30.079  1.00  0.00     0.031 A 
ATOM     52  C   UNL A   1      45.081  28.918  28.730  1.00  0.00     0.031 A 
ATOM     53  C   UNL A   1      39.946  32.233  30.546  1.00  0.00     0.049 A 
ATOM     54  C   UNL A   1      44.961  30.437  28.675  1.00  0.00     0.074 A 
ATOM     55  C   UNL A   1      40.652  32.110  31.731  1.00  0.00     0.029 A 
ATOM     56  N   UNL A   1      40.853  32.677  29.603  1.00  0.00    -0.354 N 
ATOM     57  N   UNL A   1      44.033  31.125  29.281  1.00  0.00    -0.248 NA
ATOM     58  C   UNL A   1      45.817  31.291  27.849  1.00  0.00     0.031 C 
ATOM     59  C   UNL A   1      42.001  32.493  31.479  1.00  0.00     0.029 A 
ATOM     60  C   UNL A   1      42.100  32.873  30.153  1.00  0.00     0.049 A 
ATOM     61  H   UNL A   1      40.634  32.833  28.657  1.00  0.00     0.167 HD
ATOM     62  C   UNL A   1      44.093  32.438  28.893  1.00  0.00     0.074 A 
ATOM     63  C   UNL A   1      45.240  32.497  28.006  1.00  0.00     0.031 C 
ATOM     64  C   UNL A   1      43.162  33.356  29.285  1.00  0.00     0.031 A 
BRANCH  51  65
ATOM     65  C   UNL A   1      37.346  32.313  30.659  1.00  0.00    -0.014 A 
ATOM     66  C   UNL A   1      37.158  33.710  30.714  1.00  0.00     0.010 A 
ATOM     67  C   UNL A   1      36.307  31.531  31.198  1.00  0.00     0.010 A 
ATOM     68  C   UNL A   1      36.045  34.295  31.333  1.00  0.00     0.020 A 
ATOM     69  C   UNL A   1      35.189  32.100  31.830  1.00  0.00     0.020 A 
ATOM     70  C   UNL A   1      35.075  33.482  31.908  1.00  0.00     0.054 A 
BRANCH  70  71
ATOM     71  S   UNL A   1      33.675  34.256  32.756  1.00  0.00     0.124 S 
ATOM     72  O   UNL A   1      34.340  35.141  33.710  1.00  0.00    -0.237 OA
ATOM     73  O   UNL A   1      32.971  34.920  31.664  1.00  0.00    -0.237 OA
ATOM     74  O   UNL A   1      32.965  33.127  33.355  1.00  0.00    -0.744 OA
ENDBRANCH  70  71
ENDBRANCH  51  65
BRANCH  52  75
ATOM     75  C   UNL A   1      45.437  28.064  27.557  1.00  0.00    -0.014 A 
ATOM     76  C   UNL A   1      46.344  27.005  27.777  1.00  0.00     0.010 A 
ATOM     77  C   UNL A   1      44.548  27.989  26.468  1.00  0.00     0.010 A 
ATOM     78  C   UNL A   1      46.203  25.804  27.079  1.00  0.00     0.020 A 
ATOM     79  C   UNL A   1      44.421  26.790  25.755  1.00  0.00     0.020 A 
ATOM     80  C   UNL A   1      45.186  25.682  26.132  1.00  0.00     0.054 A 
BRANCH  80  81
ATOM     81  S   UNL A   1      44.713  24.008  25.599  1.00  0.00     0.124 S 
ATOM     82  O   UNL A   1      43.658  24.272  24.626  1.00  0.00    -0.237 OA
ATOM     83  O   UNL A   1      45.970  23.509  25.045  1.00  0.00    -0.237 OA
ATOM     84  O   UNL A   1      44.281  23.371  26.840  1.00  0.00    -0.744 OA
ENDBRANCH  80  81
ENDBRANCH  52  75
BRANCH  64  85
ATOM     85  C   UNL A   1      43.123  34.797  28.840  1.00  0.00    -0.014 A 
ATOM     86  C   UNL A   1      43.470  35.866  29.677  1.00  0.00     0.010 A 
ATOM     87  C   UNL A   1      42.605  35.124  27.563  1.00  0.00     0.010 A 
ATOM     88  C   UNL A   1      43.363  37.193  29.234  1.00  0.00     0.020 A 
ATOM     89  C   UNL A   1      42.475  36.440  27.118  1.00  0.00     0.020 A 
ATOM     90  C   UNL A   1      42.875  37.471  27.953  1.00  0.00     0.054 A 
BRANCH  90  91
ATOM     91  S   UNL A   1      42.724  39.190  27.410  1.00  0.00     0.124 S 
ATOM     92  O   UNL A   1      44.016  39.437  26.775  1.00  0.00    -0.237 OA
ATOM     93  O   UNL A   1      41.582  39.120  26.503  1.00  0.00    -0.237 OA
ATOM     94  O   UNL A   1      42.492  39.932  28.648  1.00  0.00    -0.744 OA
ENDBRANCH  90  91
ENDBRANCH  64  85
ENDBRANCH  38  39
ENDBRANCH  30  33
ENDBRANCH  28  29
ENDBRANCH   1  28
TORSDOF 18
ENDMDL
MODEL 3
REMARK VINA RESULT:     -12.5      4.209     10.267
REMARK SMILES Cc1ccc(S(=O)(=O)N[C@@H](Cc2cccc(F)c2)C(=O)NCCCNC(=O)c2ccc(-c3c4nc(c(-c5ccc(S(=O)(=O)[O-])cc5)c5ccc([nH]5)c(-c5ccc(S(=O)(=O)[O-])cc5)c5nc(c(-c6ccc(S(=O)(=O)[O-])cc6)c6ccc3[nH]6)C=C5)C=C4)cc2)cc1
REMARK SMILES IDX 23 1 22 2 21 3 19 4 20 5 10 7 9 8 6 10 7 11 8 12 5 13 1 14
REMARK SMILES IDX 2 15 3 16 89 17 4 18 88 19 11 20 12 21 13 22 18 23 14 24
REMARK SMILES IDX 16 25 15 26 17 27 24 28 25 29 26 30 27 32 28 33 29 34 87 35
REMARK SMILES IDX 30 36 86 37 31 38 32 39 33 40 80 41 34 42 85 43 79 44 81 45
REMARK SMILES IDX 35 46 84 47 78 48 77 49 36 51 66 52 47 53 65 54 48 55 51 56
REMARK SMILES IDX 64 57 82 58 49 59 50 60 63 62 83 63 52 64 37 65 38 66 46 67
REMARK SMILES IDX 39 68 45 69 40 70 41 71 42 72 43 73 44 74 67 75 68 76 76 77
REMARK SMILES IDX 69 78 75 79 70 80 71 81 72 82 73 83 74 84 53 85 54 86 62 87
REMARK SMILES IDX 55 88 61 89 56 90 57 91 58 92 59 93 60 94
REMARK H PARENT 21 6 9 9 25 31 81 50 51 61
REMARK Flexibility Score: inf
ROOT
ATOM      1  C   UNL A   1      36.892  21.633  24.667  1.00  0.00     0.042 C 
ENDROOT
BRANCH   1   2
ATOM      2  C   UNL A   1      35.529  21.115  25.093  1.00  0.00     0.117 C 
BRANCH   2   3
ATOM      3  N   UNL A   1      35.212  21.477  26.470  1.00  0.00    -0.355 N 
ATOM      4  C   UNL A   1      34.322  22.396  26.940  1.00  0.00     0.238 C 
ATOM      5  O   UNL A   1      34.219  22.555  28.159  1.00  0.00    -0.273 OA
ATOM      6  H   UNL A   1      35.714  20.985  27.160  1.00  0.00     0.163 HD
BRANCH   4   7
ATOM      7  C   UNL A   1      33.535  23.310  25.979  1.00  0.00     0.163 C 
BRANCH   7   8
ATOM      8  N   UNL A   1      32.313  23.611  26.769  1.00  0.00    -0.198 NA
ATOM      9  H   UNL A   1      32.267  22.873  27.471  1.00  0.00     0.142 HD
BRANCH   8  10
ATOM     10  S   UNL A   1      30.770  23.755  26.200  1.00  0.00     0.241 S 
ATOM     11  O   UNL A   1      29.869  23.684  27.342  1.00  0.00    -0.207 OA
ATOM     12  O   UNL A   1      30.662  22.838  25.100  1.00  0.00    -0.207 OA
BRANCH  10  13
ATOM     13  C   UNL A   1      30.615  25.384  25.527  1.00  0.00     0.082 A 
ATOM     14  C   UNL A   1      30.730  29.339  23.866  1.00  0.00     0.044 C 
ATOM     15  C   UNL A   1      30.651  27.963  24.457  1.00  0.00    -0.051 A 
ATOM     16  C   UNL A   1      31.216  27.716  25.714  1.00  0.00     0.005 A 
ATOM     17  C   UNL A   1      30.009  26.922  23.774  1.00  0.00     0.005 A 
ATOM     18  C   UNL A   1      31.208  26.427  26.244  1.00  0.00     0.022 A 
ATOM     19  C   UNL A   1      29.974  25.634  24.314  1.00  0.00     0.022 A 
ENDBRANCH  10  13
ENDBRANCH   8  10
ENDBRANCH   7   8
BRANCH   7  20
ATOM     20  C   UNL A   1      34.268  24.538  25.400  1.00  0.00     0.065 C 
BRANCH  20  21
ATOM     21  C   UNL A   1      33.876  25.119  24.050  1.00  0.00    -0.043 A 
ATOM     22  C   UNL A   1      33.306  24.246  23.101  1.00  0.00     0.004 A 
ATOM     23  C   UNL A   1      34.018  26.466  23.691  1.00  0.00     0.043 A 
ATOM     24  C   UNL A   1      32.811  24.720  21.882  1.00  0.00     0.003 A 
ATOM     25  C   UNL A   1      33.489  26.935  22.487  1.00  0.00     0.123 A 
ATOM     26  C   UNL A   1      32.877  26.076  21.587  1.00  0.00     0.039 A 
ATOM     27  F   UNL A   1      33.567  28.241  22.202  1.00  0.00    -0.207 F 
ENDBRANCH  20  21
ENDBRANCH   7  20
ENDBRANCH   4   7
ENDBRANCH   2   3
ENDBRANCH   1   2
BRANCH   1  28
ATOM     28  C   UNL A   1      37.431  22.645  25.654  1.00  0.00     0.118 C 
BRANCH  28  29
ATOM     29  N   UNL A   1      38.515  22.159  26.488  1.00  0.00    -0.352 N 
ATOM     30  C   UNL A   1      39.691  22.827  26.794  1.00  0.00     0.251 C 
ATOM     31  H   UNL A   1      38.405  21.261  26.875  1.00  0.00     0.163 HD
ATOM     32  O   UNL A   1      40.737  22.222  26.994  1.00  0.00    -0.269 OA
BRANCH  30  33
ATOM     33  C   UNL A   1      39.583  24.277  27.083  1.00  0.00     0.039 A 
ATOM     34  C   UNL A   1      40.234  25.170  26.220  1.00  0.00     0.014 A 
ATOM     35  C   UNL A   1      39.121  24.711  28.317  1.00  0.00     0.014 A 
ATOM     36  C   UNL A   1      40.583  26.441  26.675  1.00  0.00     0.010 A 
ATOM     37  C   UNL A   1      39.616  25.881  28.827  1.00  0.00     0.010 A 
ATOM     38  C   UNL A   1      40.355  26.745  28.010  1.00  0.00    -0.014 A 
BRANCH  38  39
ATOM     39  C   UNL A   1      40.711  27.974  28.694  1.00  0.00     0.031 A 
ATOM     40  C   UNL A   1      39.717  29.075  28.667  1.00  0.00     0.074 A 
ATOM     41  C   UNL A   1      41.718  27.955  29.595  1.00  0.00     0.049 A 
ATOM     42  N   UNL A   1      39.925  30.252  29.139  1.00  0.00    -0.248 NA
ATOM     43  C   UNL A   1      38.384  28.931  28.075  1.00  0.00     0.031 C 
ATOM     44  C   UNL A   1      41.888  28.849  30.739  1.00  0.00     0.029 A 
ATOM     45  N   UNL A   1      42.910  27.229  29.571  1.00  0.00    -0.354 N 
ATOM     46  C   UNL A   1      38.702  30.881  29.229  1.00  0.00     0.074 A 
ATOM     47  C   UNL A   1      37.796  30.067  28.461  1.00  0.00     0.031 C 
ATOM     48  C   UNL A   1      43.180  28.835  31.107  1.00  0.00     0.029 A 
ATOM     49  C   UNL A   1      43.895  28.102  30.077  1.00  0.00     0.049 A 
ATOM     50  H   UNL A   1      43.037  26.303  29.266  1.00  0.00     0.167 HD
ATOM     51  C   UNL A   1      38.579  31.950  30.064  1.00  0.00     0.031 A 
ATOM     52  C   UNL A   1      44.899  28.628  29.306  1.00  0.00     0.031 A 
ATOM     53  C   UNL A   1      39.871  32.312  30.646  1.00  0.00     0.049 A 
ATOM     54  C   UNL A   1      44.893  30.151  29.237  1.00  0.00     0.074 A 
ATOM     55  C   UNL A   1      40.456  32.149  31.890  1.00  0.00     0.029 A 
ATOM     56  N   UNL A   1      40.888  32.683  29.788  1.00  0.00    -0.354 N 
ATOM     57  N   UNL A   1      43.965  30.908  29.756  1.00  0.00    -0.248 NA
ATOM     58  C   UNL A   1      45.878  30.936  28.491  1.00  0.00     0.031 C 
ATOM     59  C   UNL A   1      41.847  32.434  31.760  1.00  0.00     0.029 A 
ATOM     60  C   UNL A   1      42.092  32.795  30.447  1.00  0.00     0.049 A 
ATOM     61  H   UNL A   1      40.767  32.847  28.825  1.00  0.00     0.167 HD
ATOM     62  C   UNL A   1      44.154  32.210  29.374  1.00  0.00     0.074 A 
ATOM     63  C   UNL A   1      45.377  32.181  28.593  1.00  0.00     0.031 C 
ATOM     64  C   UNL A   1      43.259  33.195  29.679  1.00  0.00     0.031 A 
BRANCH  51  65
ATOM     65  C   UNL A   1      37.283  32.577  30.523  1.00  0.00    -0.014 A 
ATOM     66  C   UNL A   1      36.623  33.473  29.656  1.00  0.00     0.010 A 
ATOM     67  C   UNL A   1      36.679  32.379  31.779  1.00  0.00     0.010 A 
ATOM     68  C   UNL A   1      35.479  34.185  30.040  1.00  0.00     0.020 A 
ATOM     69  C   UNL A   1      35.537  33.090  32.184  1.00  0.00     0.020 A 
ATOM     70  C   UNL A   1      34.954  34.003  31.314  1.00  0.00     0.054 A 
BRANCH  70  71
ATOM     71  S   UNL A   1      33.511  34.976  31.813  1.00  0.00     0.124 S 
ATOM     72  O   UNL A   1      34.110  36.259  32.173  1.00  0.00    -0.237 OA
ATOM     73  O   UNL A   1      32.696  34.977  30.602  1.00  0.00    -0.237 OA
ATOM     74  O   UNL A   1      32.954  34.219  32.934  1.00  0.00    -0.744 OA
ENDBRANCH  70  71
ENDBRANCH  51  65
BRANCH  52  75
ATOM     75  C   UNL A   1      45.298  27.742  28.170  1.00  0.00    -0.014 A 
ATOM     76  C   UNL A   1      44.631  27.924  26.940  1.00  0.00     0.010 A 
ATOM     77  C   UNL A   1      46.578  27.156  28.176  1.00  0.00     0.010 A 
ATOM     78  C   UNL A   1      45.319  27.749  25.737  1.00  0.00     0.020 A 
ATOM     79  C   UNL A   1      47.260  26.962  26.968  1.00  0.00     0.020 A 
ATOM     80  C   UNL A   1      46.655  27.348  25.768  1.00  0.00     0.054 A 
BRANCH  80  81
ATOM     81  S   UNL A   1      47.653  27.592  24.266  1.00  0.00     0.124 S 
ATOM     82  O   UNL A   1      47.730  26.244  23.715  1.00  0.00    -0.237 OA
ATOM     83  O   UNL A   1      46.826  28.534  23.513  1.00  0.00    -0.237 OA
ATOM     84  O   UNL A   1      48.906  28.136  24.781  1.00  0.00    -0.744 OA
ENDBRANCH  80  81
ENDBRANCH  52  75
BRANCH  64  85
ATOM     85  C   UNL A   1      43.363  34.631  29.229  1.00  0.00    -0.014 A 
ATOM     86  C   UNL A   1      43.244  35.024  27.889  1.00  0.00     0.010 A 
ATOM     87  C   UNL A   1      43.715  35.637  30.163  1.00  0.00     0.010 A 
ATOM     88  C   UNL A   1      43.406  36.366  27.514  1.00  0.00     0.020 A 
ATOM     89  C   UNL A   1      43.898  36.971  29.799  1.00  0.00     0.020 A 
ATOM     90  C   UNL A   1      43.722  37.333  28.473  1.00  0.00     0.054 A 
BRANCH  90  91
ATOM     91  S   UNL A   1      43.948  39.055  27.964  1.00  0.00     0.124 S 
ATOM     92  O   UNL A   1      43.303  39.085  26.654  1.00  0.00    -0.237 OA
ATOM     93  O   UNL A   1      43.250  39.775  29.025  1.00  0.00    -0.237 OA
ATOM     94  O   UNL A   1      45.399  39.228  27.944  1.00  0.00    -0.744 OA
ENDBRANCH  90  91
ENDBRANCH  64  85
ENDBRANCH  38  39
ENDBRANCH  30  33
ENDBRANCH  28  29
ENDBRANCH   1  28
TORSDOF 18
ENDMDL
