MODEL 1
REMARK VINA RESULT:      -9.4      0.000      0.000
REMARK SMILES C=CC[N@@H+](CC(=O)NCCCNC(=O)c1ccc(-c2c3nc(c(-c4ccc(S(=O)(=O)[O-])cc4)c4ccc([nH]4)c(-c4ccc(S(=O)(=O)[O-])cc4)c4nc(c(-c5ccc(S(=O)(=O)[O-])cc5)c5ccc2[nH]5)C=C4)C=C3)cc1)CC(=O)Nc1cc(C)on1
REMARK SMILES IDX 9 1 8 2 6 3 7 4 5 6 4 7 3 9 2 10 1 11 75 12 76 13 77 14
REMARK SMILES IDX 78 15 79 17 80 18 84 19 81 20 83 21 82 22 10 23 11 24 12 25
REMARK SMILES IDX 13 26 14 28 15 29 16 30 74 31 17 32 73 33 18 34 19 35 20 36
REMARK SMILES IDX 67 37 21 38 72 39 66 40 68 41 22 42 71 43 65 44 64 45 23 47
REMARK SMILES IDX 53 48 34 49 52 50 35 51 38 52 51 53 69 54 36 55 37 56 50 58
REMARK SMILES IDX 70 59 39 60 24 61 25 62 33 63 26 64 32 65 27 66 28 67 29 68
REMARK SMILES IDX 30 69 31 70 54 71 55 72 63 73 56 74 62 75 57 76 58 77 59 78
REMARK SMILES IDX 60 79 61 80 40 81 41 82 49 83 42 84 48 85 43 86 44 87 45 88
REMARK SMILES IDX 46 89 47 90
REMARK H PARENT 8 5 4 8 78 16 12 27 68 46 38 57
REMARK Flexibility Score: inf
ROOT
ATOM      1  C   UNL A   1      33.962  24.378  25.660  1.00  0.00     0.118 C 
ENDROOT
BRANCH   1   2
ATOM      2  N   UNL A   1      32.807  24.092  26.486  1.00  0.00    -0.351 N 
ATOM      3  C   UNL A   1      31.475  24.101  26.229  1.00  0.00     0.275 C 
ATOM      4  O   UNL A   1      30.760  24.113  27.235  1.00  0.00    -0.269 OA
ATOM      5  H   UNL A   1      33.032  23.842  27.411  1.00  0.00     0.163 HD
BRANCH   3   6
ATOM      6  C   UNL A   1      30.911  23.989  24.802  1.00  0.00     0.364 C 
BRANCH   6   7
ATOM      7  N   UNL A   1      30.779  25.236  24.026  1.00  0.00    -0.316 N 
ATOM      8  H   UNL A   1      29.874  25.113  23.572  1.00  0.00     0.349 HD
BRANCH   7   9
ATOM      9  C   UNL A   1      31.751  25.348  22.960  1.00  0.00     0.291 C 
BRANCH   9  10
ATOM     10  C   UNL A   1      32.328  24.050  22.489  1.00  0.00     0.025 C 
ATOM     11  C   UNL A   1      33.366  23.984  21.644  1.00  0.00     0.010 C 
ENDBRANCH   9  10
ENDBRANCH   7   9
BRANCH   7  12
ATOM     12  C   UNL A   1      30.497  26.488  24.766  1.00  0.00     0.364 C 
BRANCH  12  13
ATOM     13  C   UNL A   1      30.409  27.747  23.893  1.00  0.00     0.280 C 
ATOM     14  O   UNL A   1      29.639  27.795  22.926  1.00  0.00    -0.268 OA
ATOM     15  N   UNL A   1      31.280  28.791  24.087  1.00  0.00    -0.303 N 
ATOM     16  H   UNL A   1      31.200  29.569  23.488  1.00  0.00     0.171 HD
BRANCH  15  17
ATOM     17  C   UNL A   1      32.258  28.835  25.056  1.00  0.00     0.176 A 
ATOM     18  C   UNL A   1      32.152  29.583  26.252  1.00  0.00     0.095 A 
ATOM     19  N   UNL A   1      33.476  28.297  24.939  1.00  0.00    -0.062 NA
ATOM     20  C   UNL A   1      33.458  29.722  26.654  1.00  0.00     0.135 A 
ATOM     21  O   UNL A   1      34.238  28.873  25.936  1.00  0.00    -0.360 OA
ATOM     22  C   UNL A   1      34.162  30.669  27.533  1.00  0.00     0.091 C 
ENDBRANCH  15  17
ENDBRANCH  12  13
ENDBRANCH   7  12
ENDBRANCH   6   7
ENDBRANCH   3   6
ENDBRANCH   1   2
BRANCH   1  23
ATOM     23  C   UNL A   1      35.068  23.334  25.842  1.00  0.00     0.042 C 
BRANCH  23  24
ATOM     24  C   UNL A   1      36.483  23.867  25.638  1.00  0.00     0.118 C 
BRANCH  24  25
ATOM     25  N   UNL A   1      37.474  22.828  25.857  1.00  0.00    -0.352 N 
ATOM     26  C   UNL A   1      38.772  22.976  26.271  1.00  0.00     0.251 C 
ATOM     27  H   UNL A   1      37.176  21.905  25.688  1.00  0.00     0.163 HD
ATOM     28  O   UNL A   1      39.576  22.058  26.097  1.00  0.00    -0.269 OA
BRANCH  26  29
ATOM     29  C   UNL A   1      39.207  24.238  26.905  1.00  0.00     0.039 A 
ATOM     30  C   UNL A   1      38.868  24.486  28.237  1.00  0.00     0.014 A 
ATOM     31  C   UNL A   1      39.928  25.190  26.177  1.00  0.00     0.014 A 
ATOM     32  C   UNL A   1      39.278  25.675  28.845  1.00  0.00     0.010 A 
ATOM     33  C   UNL A   1      40.410  26.333  26.809  1.00  0.00     0.010 A 
ATOM     34  C   UNL A   1      40.068  26.601  28.142  1.00  0.00    -0.014 A 
BRANCH  34  35
ATOM     35  C   UNL A   1      40.504  27.875  28.770  1.00  0.00     0.031 A 
ATOM     36  C   UNL A   1      41.901  27.999  29.325  1.00  0.00     0.074 A 
ATOM     37  C   UNL A   1      39.641  28.905  28.879  1.00  0.00     0.049 A 
ATOM     38  N   UNL A   1      42.457  29.010  29.943  1.00  0.00    -0.248 NA
ATOM     39  C   UNL A   1      42.780  26.825  29.190  1.00  0.00     0.031 C 
ATOM     40  C   UNL A   1      38.251  28.899  28.417  1.00  0.00     0.029 A 
ATOM     41  N   UNL A   1      39.806  30.157  29.415  1.00  0.00    -0.354 N 
ATOM     42  C   UNL A   1      43.737  28.588  30.285  1.00  0.00     0.074 A 
ATOM     43  C   UNL A   1      43.859  27.213  29.853  1.00  0.00     0.031 C 
ATOM     44  C   UNL A   1      37.700  30.099  28.663  1.00  0.00     0.029 A 
ATOM     45  C   UNL A   1      38.683  30.946  29.334  1.00  0.00     0.049 A 
ATOM     46  H   UNL A   1      40.650  30.463  29.820  1.00  0.00     0.167 HD
ATOM     47  C   UNL A   1      44.732  29.286  30.883  1.00  0.00     0.031 A 
ATOM     48  C   UNL A   1      38.465  32.208  29.752  1.00  0.00     0.031 A 
ATOM     49  C   UNL A   1      44.616  30.660  31.293  1.00  0.00     0.049 A 
ATOM     50  C   UNL A   1      39.586  32.964  30.415  1.00  0.00     0.074 A 
ATOM     51  C   UNL A   1      45.583  31.474  31.856  1.00  0.00     0.029 A 
ATOM     52  N   UNL A   1      43.465  31.424  31.181  1.00  0.00    -0.354 N 
ATOM     53  N   UNL A   1      40.808  32.566  30.672  1.00  0.00    -0.248 NA
ATOM     54  C   UNL A   1      39.300  34.344  30.832  1.00  0.00     0.031 C 
ATOM     55  C   UNL A   1      45.003  32.716  32.129  1.00  0.00     0.029 A 
ATOM     56  C   UNL A   1      43.692  32.695  31.681  1.00  0.00     0.049 A 
ATOM     57  H   UNL A   1      42.613  31.110  30.800  1.00  0.00     0.167 HD
ATOM     58  C   UNL A   1      41.446  33.656  31.256  1.00  0.00     0.074 A 
ATOM     59  C   UNL A   1      40.478  34.733  31.299  1.00  0.00     0.031 C 
ATOM     60  C   UNL A   1      42.718  33.756  31.715  1.00  0.00     0.031 A 
BRANCH  47  61
ATOM     61  C   UNL A   1      46.036  28.573  31.127  1.00  0.00    -0.014 A 
ATOM     62  C   UNL A   1      47.140  28.769  30.277  1.00  0.00     0.010 A 
ATOM     63  C   UNL A   1      46.176  27.730  32.245  1.00  0.00     0.010 A 
ATOM     64  C   UNL A   1      48.346  28.104  30.516  1.00  0.00     0.020 A 
ATOM     65  C   UNL A   1      47.390  27.086  32.504  1.00  0.00     0.020 A 
ATOM     66  C   UNL A   1      48.462  27.264  31.628  1.00  0.00     0.054 A 
BRANCH  66  67
ATOM     67  S   UNL A   1      50.048  26.437  31.930  1.00  0.00     0.124 S 
ATOM     68  O   UNL A   1      49.774  25.082  31.460  1.00  0.00    -0.237 OA
ATOM     69  O   UNL A   1      50.975  27.212  31.109  1.00  0.00    -0.237 OA
ATOM     70  O   UNL A   1      50.239  26.569  33.372  1.00  0.00    -0.744 OA
ENDBRANCH  66  67
ENDBRANCH  47  61
BRANCH  48  71
ATOM     71  C   UNL A   1      37.136  32.844  29.543  1.00  0.00    -0.014 A 
ATOM     72  C   UNL A   1      36.175  32.849  30.570  1.00  0.00     0.010 A 
ATOM     73  C   UNL A   1      36.824  33.455  28.315  1.00  0.00     0.010 A 
ATOM     74  C   UNL A   1      34.922  33.435  30.367  1.00  0.00     0.020 A 
ATOM     75  C   UNL A   1      35.582  34.066  28.117  1.00  0.00     0.020 A 
ATOM     76  C   UNL A   1      34.634  34.040  29.141  1.00  0.00     0.054 A 
BRANCH  76  77
ATOM     77  S   UNL A   1      33.018  34.835  28.915  1.00  0.00     0.124 S 
ATOM     78  O   UNL A   1      32.483  34.825  30.273  1.00  0.00    -0.237 OA
ATOM     79  O   UNL A   1      33.383  36.147  28.388  1.00  0.00    -0.237 OA
ATOM     80  O   UNL A   1      32.337  33.959  27.966  1.00  0.00    -0.744 OA
ENDBRANCH  76  77
ENDBRANCH  48  71
BRANCH  60  81
ATOM     81  C   UNL A   1      43.152  35.085  32.270  1.00  0.00    -0.014 A 
ATOM     82  C   UNL A   1      43.733  36.065  31.447  1.00  0.00     0.010 A 
ATOM     83  C   UNL A   1      42.922  35.377  33.628  1.00  0.00     0.010 A 
ATOM     84  C   UNL A   1      44.102  37.305  31.978  1.00  0.00     0.020 A 
ATOM     85  C   UNL A   1      43.265  36.623  34.156  1.00  0.00     0.020 A 
ATOM     86  C   UNL A   1      43.866  37.574  33.330  1.00  0.00     0.054 A 
BRANCH  86  87
ATOM     87  S   UNL A   1      44.314  39.205  33.986  1.00  0.00     0.124 S 
ATOM     88  O   UNL A   1      43.084  39.964  33.780  1.00  0.00    -0.237 OA
ATOM     89  O   UNL A   1      44.646  38.912  35.378  1.00  0.00    -0.237 OA
ATOM     90  O   UNL A   1      45.446  39.615  33.156  1.00  0.00    -0.744 OA
ENDBRANCH  86  87
ENDBRANCH  60  81
ENDBRANCH  34  35
ENDBRANCH  26  29
ENDBRANCH  24  25
ENDBRANCH  23  24
ENDBRANCH   1  23
TORSDOF 19
ENDMDL
MODEL 2
REMARK VINA RESULT:      -9.3      3.579      9.562
REMARK SMILES C=CC[N@@H+](CC(=O)NCCCNC(=O)c1ccc(-c2c3nc(c(-c4ccc(S(=O)(=O)[O-])cc4)c4ccc([nH]4)c(-c4ccc(S(=O)(=O)[O-])cc4)c4nc(c(-c5ccc(S(=O)(=O)[O-])cc5)c5ccc2[nH]5)C=C4)C=C3)cc1)CC(=O)Nc1cc(C)on1
REMARK SMILES IDX 9 1 8 2 6 3 7 4 5 6 4 7 3 9 2 10 1 11 75 12 76 13 77 14
REMARK SMILES IDX 78 15 79 17 80 18 84 19 81 20 83 21 82 22 10 23 11 24 12 25
REMARK SMILES IDX 13 26 14 28 15 29 16 30 74 31 17 32 73 33 18 34 19 35 20 36
REMARK SMILES IDX 67 37 21 38 72 39 66 40 68 41 22 42 71 43 65 44 64 45 23 47
REMARK SMILES IDX 53 48 34 49 52 50 35 51 38 52 51 53 69 54 36 55 37 56 50 58
REMARK SMILES IDX 70 59 39 60 24 61 25 62 33 63 26 64 32 65 27 66 28 67 29 68
REMARK SMILES IDX 30 69 31 70 54 71 55 72 63 73 56 74 62 75 57 76 58 77 59 78
REMARK SMILES IDX 60 79 61 80 40 81 41 82 49 83 42 84 48 85 43 86 44 87 45 88
REMARK SMILES IDX 46 89 47 90
REMARK H PARENT 8 5 4 8 78 16 12 27 68 46 38 57
REMARK Flexibility Score: inf
ROOT
ATOM      1  C   UNL A   1      32.052  27.422  25.870  1.00  0.00     0.118 C 
ENDROOT
BRANCH   1   2
ATOM      2  N   UNL A   1      31.031  26.603  26.489  1.00  0.00    -0.351 N 
ATOM      3  C   UNL A   1      30.428  25.449  26.108  1.00  0.00     0.275 C 
ATOM      4  O   UNL A   1      29.385  25.191  26.716  1.00  0.00    -0.269 OA
ATOM      5  H   UNL A   1      30.713  26.950  27.354  1.00  0.00     0.163 HD
BRANCH   3   6
ATOM      6  C   UNL A   1      31.060  24.490  25.084  1.00  0.00     0.364 C 
BRANCH   6   7
ATOM      7  N   UNL A   1      32.185  23.656  25.542  1.00  0.00    -0.316 N 
ATOM      8  H   UNL A   1      32.485  24.142  26.387  1.00  0.00     0.349 HD
BRANCH   7   9
ATOM      9  C   UNL A   1      33.318  23.684  24.641  1.00  0.00     0.291 C 
BRANCH   9  10
ATOM     10  C   UNL A   1      34.434  24.591  25.054  1.00  0.00     0.025 C 
ATOM     11  C   UNL A   1      35.630  24.133  25.448  1.00  0.00     0.010 C 
ENDBRANCH   9  10
ENDBRANCH   7   9
BRANCH   7  12
ATOM     12  C   UNL A   1      31.875  22.334  26.134  1.00  0.00     0.364 C 
BRANCH  12  13
ATOM     13  C   UNL A   1      32.985  21.745  27.016  1.00  0.00     0.280 C 
ATOM     14  O   UNL A   1      33.460  22.395  27.955  1.00  0.00    -0.268 OA
ATOM     15  N   UNL A   1      33.564  20.542  26.695  1.00  0.00    -0.303 N 
ATOM     16  H   UNL A   1      34.287  20.215  27.279  1.00  0.00     0.171 HD
BRANCH  15  17
ATOM     17  C   UNL A   1      33.211  19.756  25.621  1.00  0.00     0.176 A 
ATOM     18  C   UNL A   1      32.834  18.396  25.726  1.00  0.00     0.095 A 
ATOM     19  N   UNL A   1      33.308  20.124  24.340  1.00  0.00    -0.062 NA
ATOM     20  C   UNL A   1      33.037  17.914  24.456  1.00  0.00     0.135 A 
ATOM     21  O   UNL A   1      33.217  18.957  23.607  1.00  0.00    -0.360 OA
ATOM     22  C   UNL A   1      33.253  16.571  23.895  1.00  0.00     0.091 C 
ENDBRANCH  15  17
ENDBRANCH  12  13
ENDBRANCH   7  12
ENDBRANCH   6   7
ENDBRANCH   3   6
ENDBRANCH   1   2
BRANCH   1  23
ATOM     23  C   UNL A   1      32.975  28.068  26.907  1.00  0.00     0.042 C 
BRANCH  23  24
ATOM     24  C   UNL A   1      34.075  28.947  26.319  1.00  0.00     0.118 C 
BRANCH  24  25
ATOM     25  N   UNL A   1      33.815  30.353  26.568  1.00  0.00    -0.352 N 
ATOM     26  C   UNL A   1      34.370  31.155  27.531  1.00  0.00     0.251 C 
ATOM     27  H   UNL A   1      33.160  30.783  25.972  1.00  0.00     0.163 HD
ATOM     28  O   UNL A   1      33.822  32.218  27.830  1.00  0.00    -0.269 OA
BRANCH  26  29
ATOM     29  C   UNL A   1      35.610  30.736  28.217  1.00  0.00     0.039 A 
ATOM     30  C   UNL A   1      36.809  31.388  27.923  1.00  0.00     0.014 A 
ATOM     31  C   UNL A   1      35.594  29.679  29.134  1.00  0.00     0.014 A 
ATOM     32  C   UNL A   1      37.985  31.000  28.570  1.00  0.00     0.010 A 
ATOM     33  C   UNL A   1      36.748  29.353  29.841  1.00  0.00     0.010 A 
ATOM     34  C   UNL A   1      37.962  29.991  29.548  1.00  0.00    -0.014 A 
BRANCH  34  35
ATOM     35  C   UNL A   1      39.204  29.558  30.239  1.00  0.00     0.031 A 
ATOM     36  C   UNL A   1      39.641  30.253  31.504  1.00  0.00     0.074 A 
ATOM     37  C   UNL A   1      39.960  28.573  29.715  1.00  0.00     0.049 A 
ATOM     38  N   UNL A   1      40.710  30.050  32.231  1.00  0.00    -0.248 NA
ATOM     39  C   UNL A   1      38.775  31.335  32.005  1.00  0.00     0.031 C 
ATOM     40  C   UNL A   1      39.669  27.848  28.476  1.00  0.00     0.029 A 
ATOM     41  N   UNL A   1      41.133  28.014  30.158  1.00  0.00    -0.354 N 
ATOM     42  C   UNL A   1      40.654  30.986  33.258  1.00  0.00     0.074 A 
ATOM     43  C   UNL A   1      39.476  31.793  33.032  1.00  0.00     0.031 C 
ATOM     44  C   UNL A   1      40.620  26.920  28.275  1.00  0.00     0.029 A 
ATOM     45  C   UNL A   1      41.607  27.010  29.347  1.00  0.00     0.049 A 
ATOM     46  H   UNL A   1      41.591  28.304  30.980  1.00  0.00     0.167 HD
ATOM     47  C   UNL A   1      41.494  31.148  34.308  1.00  0.00     0.031 A 
ATOM     48  C   UNL A   1      42.713  26.248  29.451  1.00  0.00     0.031 A 
ATOM     49  C   UNL A   1      42.655  30.331  34.543  1.00  0.00     0.049 A 
ATOM     50  C   UNL A   1      43.632  26.446  30.627  1.00  0.00     0.074 A 
ATOM     51  C   UNL A   1      43.538  30.378  35.607  1.00  0.00     0.029 A 
ATOM     52  N   UNL A   1      43.092  29.319  33.703  1.00  0.00    -0.354 N 
ATOM     53  N   UNL A   1      43.527  27.295  31.619  1.00  0.00    -0.248 NA
ATOM     54  C   UNL A   1      44.812  25.573  30.702  1.00  0.00     0.031 C 
ATOM     55  C   UNL A   1      44.537  29.424  35.386  1.00  0.00     0.029 A 
ATOM     56  C   UNL A   1      44.243  28.745  34.215  1.00  0.00     0.049 A 
ATOM     57  H   UNL A   1      42.649  29.047  32.867  1.00  0.00     0.167 HD
ATOM     58  C   UNL A   1      44.612  27.041  32.452  1.00  0.00     0.074 A 
ATOM     59  C   UNL A   1      45.351  25.948  31.854  1.00  0.00     0.031 C 
ATOM     60  C   UNL A   1      44.965  27.655  33.608  1.00  0.00     0.031 A 
BRANCH  47  61
ATOM     61  C   UNL A   1      41.184  32.250  35.286  1.00  0.00    -0.014 A 
ATOM     62  C   UNL A   1      41.658  33.558  35.080  1.00  0.00     0.010 A 
ATOM     63  C   UNL A   1      40.370  31.987  36.405  1.00  0.00     0.010 A 
ATOM     64  C   UNL A   1      41.361  34.573  35.993  1.00  0.00     0.020 A 
ATOM     65  C   UNL A   1      40.046  33.007  37.305  1.00  0.00     0.020 A 
ATOM     66  C   UNL A   1      40.557  34.290  37.101  1.00  0.00     0.054 A 
BRANCH  66  67
ATOM     67  S   UNL A   1      40.163  35.634  38.254  1.00  0.00     0.124 S 
ATOM     68  O   UNL A   1      41.398  35.738  39.028  1.00  0.00    -0.237 OA
ATOM     69  O   UNL A   1      39.887  36.754  37.359  1.00  0.00    -0.237 OA
ATOM     70  O   UNL A   1      39.007  35.131  38.992  1.00  0.00    -0.744 OA
ENDBRANCH  66  67
ENDBRANCH  47  61
BRANCH  48  71
ATOM     71  C   UNL A   1      43.006  25.214  28.421  1.00  0.00    -0.014 A 
ATOM     72  C   UNL A   1      42.560  23.891  28.589  1.00  0.00     0.010 A 
ATOM     73  C   UNL A   1      43.728  25.548  27.261  1.00  0.00     0.010 A 
ATOM     74  C   UNL A   1      42.848  22.917  27.627  1.00  0.00     0.020 A 
ATOM     75  C   UNL A   1      43.994  24.584  26.284  1.00  0.00     0.020 A 
ATOM     76  C   UNL A   1      43.563  23.271  26.480  1.00  0.00     0.054 A 
BRANCH  76  77
ATOM     77  S   UNL A   1      43.886  22.002  25.223  1.00  0.00     0.124 S 
ATOM     78  O   UNL A   1      42.779  21.075  25.437  1.00  0.00    -0.237 OA
ATOM     79  O   UNL A   1      43.838  22.770  23.981  1.00  0.00    -0.237 OA
ATOM     80  O   UNL A   1      45.208  21.495  25.582  1.00  0.00    -0.744 OA
ENDBRANCH  76  77
ENDBRANCH  48  71
BRANCH  60  81
ATOM     81  C   UNL A   1      46.183  27.140  34.324  1.00  0.00    -0.014 A 
ATOM     82  C   UNL A   1      47.469  27.608  34.005  1.00  0.00     0.010 A 
ATOM     83  C   UNL A   1      46.030  26.214  35.373  1.00  0.00     0.010 A 
ATOM     84  C   UNL A   1      48.585  27.136  34.703  1.00  0.00     0.020 A 
ATOM     85  C   UNL A   1      47.139  25.760  36.090  1.00  0.00     0.020 A 
ATOM     86  C   UNL A   1      48.412  26.215  35.741  1.00  0.00     0.054 A 
BRANCH  86  87
ATOM     87  S   UNL A   1      49.871  25.652  36.661  1.00  0.00     0.124 S 
ATOM     88  O   UNL A   1      50.928  26.484  36.093  1.00  0.00    -0.237 OA
ATOM     89  O   UNL A   1      49.512  25.950  38.045  1.00  0.00    -0.237 OA
ATOM     90  O   UNL A   1      49.956  24.229  36.338  1.00  0.00    -0.744 OA
ENDBRANCH  86  87
ENDBRANCH  60  81
ENDBRANCH  34  35
ENDBRANCH  26  29
ENDBRANCH  24  25
ENDBRANCH  23  24
ENDBRANCH   1  23
TORSDOF 19
ENDMDL
MODEL 3
REMARK VINA RESULT:      -9.3      1.443      2.311
REMARK SMILES C=CC[N@@H+](CC(=O)NCCCNC(=O)c1ccc(-c2c3nc(c(-c4ccc(S(=O)(=O)[O-])cc4)c4ccc([nH]4)c(-c4ccc(S(=O)(=O)[O-])cc4)c4nc(c(-c5ccc(S(=O)(=O)[O-])cc5)c5ccc2[nH]5)C=C4)C=C3)cc1)CC(=O)Nc1cc(C)on1
REMARK SMILES IDX 9 1 8 2 6 3 7 4 5 6 4 7 3 9 2 10 1 11 75 12 76 13 77 14
REMARK SMILES IDX 78 15 79 17 80 18 84 19 81 20 83 21 82 22 10 23 11 24 12 25
REMARK SMILES IDX 13 26 14 28 15 29 16 30 74 31 17 32 73 33 18 34 19 35 20 36
REMARK SMILES IDX 67 37 21 38 72 39 66 40 68 41 22 42 71 43 65 44 64 45 23 47
REMARK SMILES IDX 53 48 34 49 52 50 35 51 38 52 51 53 69 54 36 55 37 56 50 58
REMARK SMILES IDX 70 59 39 60 24 61 25 62 33 63 26 64 32 65 27 66 28 67 29 68
REMARK SMILES IDX 30 69 31 70 54 71 55 72 63 73 56 74 62 75 57 76 58 77 59 78
REMARK SMILES IDX 60 79 61 80 40 81 41 82 49 83 42 84 48 85 43 86 44 87 45 88
REMARK SMILES IDX 46 89 47 90
REMARK H PARENT 8 5 4 8 78 16 12 27 68 46 38 57
REMARK Flexibility Score: inf
ROOT
ATOM      1  C   UNL A   1      34.413  24.811  24.222  1.00  0.00     0.118 C 
ENDROOT
BRANCH   1   2
ATOM      2  N   UNL A   1      34.133  25.602  25.402  1.00  0.00    -0.351 N 
ATOM      3  C   UNL A   1      33.185  26.533  25.675  1.00  0.00     0.275 C 
ATOM      4  O   UNL A   1      33.425  27.233  26.663  1.00  0.00    -0.269 OA
ATOM      5  H   UNL A   1      34.748  25.430  26.152  1.00  0.00     0.163 HD
BRANCH   3   6
ATOM      6  C   UNL A   1      31.870  26.626  24.882  1.00  0.00     0.364 C 
BRANCH   6   7
ATOM      7  N   UNL A   1      31.881  27.424  23.642  1.00  0.00    -0.316 N 
ATOM      8  H   UNL A   1      32.605  26.960  23.093  1.00  0.00     0.349 HD
BRANCH   7   9
ATOM      9  C   UNL A   1      32.341  28.782  23.845  1.00  0.00     0.291 C 
BRANCH   9  10
ATOM     10  C   UNL A   1      33.576  29.152  23.086  1.00  0.00     0.025 C 
ATOM     11  C   UNL A   1      34.227  28.285  22.297  1.00  0.00     0.010 C 
ENDBRANCH   9  10
ENDBRANCH   7   9
BRANCH   7  12
ATOM     12  C   UNL A   1      30.745  27.269  22.705  1.00  0.00     0.364 C 
BRANCH  12  13
ATOM     13  C   UNL A   1      29.363  27.213  23.370  1.00  0.00     0.280 C 
ATOM     14  O   UNL A   1      28.927  26.154  23.838  1.00  0.00    -0.268 OA
ATOM     15  N   UNL A   1      28.529  28.304  23.337  1.00  0.00    -0.303 N 
ATOM     16  H   UNL A   1      27.643  28.213  23.757  1.00  0.00     0.171 HD
BRANCH  15  17
ATOM     17  C   UNL A   1      28.837  29.516  22.760  1.00  0.00     0.176 A 
ATOM     18  C   UNL A   1      29.235  30.661  23.491  1.00  0.00     0.095 A 
ATOM     19  N   UNL A   1      28.672  29.812  21.468  1.00  0.00    -0.062 NA
ATOM     20  C   UNL A   1      28.974  31.694  22.625  1.00  0.00     0.135 A 
ATOM     21  O   UNL A   1      28.739  31.190  21.387  1.00  0.00    -0.360 OA
ATOM     22  C   UNL A   1      28.746  33.138  22.795  1.00  0.00     0.091 C 
ENDBRANCH  15  17
ENDBRANCH  12  13
ENDBRANCH   7  12
ENDBRANCH   6   7
ENDBRANCH   3   6
ENDBRANCH   1   2
BRANCH   1  23
ATOM     23  C   UNL A   1      35.455  23.722  24.496  1.00  0.00     0.042 C 
BRANCH  23  24
ATOM     24  C   UNL A   1      36.459  24.066  25.592  1.00  0.00     0.118 C 
BRANCH  24  25
ATOM     25  N   UNL A   1      37.437  23.007  25.762  1.00  0.00    -0.352 N 
ATOM     26  C   UNL A   1      38.734  23.118  26.193  1.00  0.00     0.251 C 
ATOM     27  H   UNL A   1      37.131  22.098  25.542  1.00  0.00     0.163 HD
ATOM     28  O   UNL A   1      39.529  22.202  25.975  1.00  0.00    -0.269 OA
BRANCH  26  29
ATOM     29  C   UNL A   1      39.176  24.340  26.898  1.00  0.00     0.039 A 
ATOM     30  C   UNL A   1      38.820  24.524  28.235  1.00  0.00     0.014 A 
ATOM     31  C   UNL A   1      39.921  25.317  26.230  1.00  0.00     0.014 A 
ATOM     32  C   UNL A   1      39.237  25.674  28.909  1.00  0.00     0.010 A 
ATOM     33  C   UNL A   1      40.409  26.419  26.927  1.00  0.00     0.010 A 
ATOM     34  C   UNL A   1      40.051  26.624  28.267  1.00  0.00    -0.014 A 
BRANCH  34  35
ATOM     35  C   UNL A   1      40.495  27.857  28.965  1.00  0.00     0.031 A 
ATOM     36  C   UNL A   1      41.874  27.922  29.573  1.00  0.00     0.074 A 
ATOM     37  C   UNL A   1      39.654  28.903  29.090  1.00  0.00     0.049 A 
ATOM     38  N   UNL A   1      42.432  28.889  30.254  1.00  0.00    -0.248 NA
ATOM     39  C   UNL A   1      42.729  26.732  29.415  1.00  0.00     0.031 C 
ATOM     40  C   UNL A   1      38.281  28.953  28.582  1.00  0.00     0.029 A 
ATOM     41  N   UNL A   1      39.829  30.126  29.688  1.00  0.00    -0.354 N 
ATOM     42  C   UNL A   1      43.689  28.421  30.620  1.00  0.00     0.074 A 
ATOM     43  C   UNL A   1      43.793  27.063  30.132  1.00  0.00     0.031 C 
ATOM     44  C   UNL A   1      37.751  30.155  28.862  1.00  0.00     0.029 A 
ATOM     45  C   UNL A   1      38.729  30.946  29.603  1.00  0.00     0.049 A 
ATOM     46  H   UNL A   1      40.666  30.392  30.135  1.00  0.00     0.167 HD
ATOM     47  C   UNL A   1      44.679  29.066  31.282  1.00  0.00     0.031 A 
ATOM     48  C   UNL A   1      38.527  32.194  30.070  1.00  0.00     0.031 A 
ATOM     49  C   UNL A   1      44.581  30.423  31.749  1.00  0.00     0.049 A 
ATOM     50  C   UNL A   1      39.641  32.891  30.803  1.00  0.00     0.074 A 
ATOM     51  C   UNL A   1      45.547  31.186  32.381  1.00  0.00     0.029 A 
ATOM     52  N   UNL A   1      43.453  31.221  31.632  1.00  0.00    -0.354 N 
ATOM     53  N   UNL A   1      40.844  32.451  31.084  1.00  0.00    -0.248 NA
ATOM     54  C   UNL A   1      39.374  34.258  31.272  1.00  0.00     0.031 C 
ATOM     55  C   UNL A   1      44.987  32.430  32.689  1.00  0.00     0.029 A 
ATOM     56  C   UNL A   1      43.692  32.462  32.196  1.00  0.00     0.049 A 
ATOM     57  H   UNL A   1      42.608  30.946  31.209  1.00  0.00     0.167 HD
ATOM     58  C   UNL A   1      41.486  33.498  31.738  1.00  0.00     0.074 A 
ATOM     59  C   UNL A   1      40.544  34.596  31.796  1.00  0.00     0.031 C 
ATOM     60  C   UNL A   1      42.744  33.546  32.244  1.00  0.00     0.031 A 
BRANCH  47  61
ATOM     61  C   UNL A   1      45.956  28.310  31.538  1.00  0.00    -0.014 A 
ATOM     62  C   UNL A   1      47.033  28.379  30.637  1.00  0.00     0.010 A 
ATOM     63  C   UNL A   1      46.099  27.555  32.717  1.00  0.00     0.010 A 
ATOM     64  C   UNL A   1      48.214  27.676  30.887  1.00  0.00     0.020 A 
ATOM     65  C   UNL A   1      47.290  26.873  32.986  1.00  0.00     0.020 A 
ATOM     66  C   UNL A   1      48.334  26.925  32.061  1.00  0.00     0.054 A 
BRANCH  66  67
ATOM     67  S   UNL A   1      49.890  26.046  32.374  1.00  0.00     0.124 S 
ATOM     68  O   UNL A   1      50.430  26.787  33.512  1.00  0.00    -0.237 OA
ATOM     69  O   UNL A   1      49.437  24.689  32.668  1.00  0.00    -0.237 OA
ATOM     70  O   UNL A   1      50.631  26.196  31.125  1.00  0.00    -0.744 OA
ENDBRANCH  66  67
ENDBRANCH  47  61
BRANCH  48  71
ATOM     71  C   UNL A   1      37.221  32.872  29.844  1.00  0.00    -0.014 A 
ATOM     72  C   UNL A   1      37.002  33.631  28.680  1.00  0.00     0.010 A 
ATOM     73  C   UNL A   1      36.186  32.759  30.789  1.00  0.00     0.010 A 
ATOM     74  C   UNL A   1      35.781  34.280  28.476  1.00  0.00     0.020 A 
ATOM     75  C   UNL A   1      34.954  33.382  30.576  1.00  0.00     0.020 A 
ATOM     76  C   UNL A   1      34.763  34.150  29.425  1.00  0.00     0.054 A 
BRANCH  76  77
ATOM     77  S   UNL A   1      33.170  34.963  29.118  1.00  0.00     0.124 S 
ATOM     78  O   UNL A   1      33.587  36.276  28.637  1.00  0.00    -0.237 OA
ATOM     79  O   UNL A   1      32.557  34.088  28.121  1.00  0.00    -0.237 OA
ATOM     80  O   UNL A   1      32.523  34.950  30.427  1.00  0.00    -0.744 OA
ENDBRANCH  76  77
ENDBRANCH  48  71
BRANCH  60  81
ATOM     81  C   UNL A   1      43.190  34.837  32.873  1.00  0.00    -0.014 A 
ATOM     82  C   UNL A   1      43.742  35.873  32.099  1.00  0.00     0.010 A 
ATOM     83  C   UNL A   1      43.000  35.038  34.253  1.00  0.00     0.010 A 
ATOM     84  C   UNL A   1      44.123  37.076  32.700  1.00  0.00     0.020 A 
ATOM     85  C   UNL A   1      43.355  36.248  34.852  1.00  0.00     0.020 A 
ATOM     86  C   UNL A   1      43.927  37.255  34.073  1.00  0.00     0.054 A 
BRANCH  86  87
ATOM     87  S   UNL A   1      44.389  38.842  34.821  1.00  0.00     0.124 S 
ATOM     88  O   UNL A   1      44.060  38.622  36.227  1.00  0.00    -0.237 OA
ATOM     89  O   UNL A   1      45.815  38.938  34.517  1.00  0.00    -0.237 OA
ATOM     90  O   UNL A   1      43.543  39.812  34.128  1.00  0.00    -0.744 OA
ENDBRANCH  86  87
ENDBRANCH  60  81
ENDBRANCH  34  35
ENDBRANCH  26  29
ENDBRANCH  24  25
ENDBRANCH  23  24
ENDBRANCH   1  23
TORSDOF 19
ENDMDL
