MODEL 1
REMARK VINA RESULT:     -12.5      0.000      0.000
REMARK SMILES O=C(CSc1nc(O)cc(=O)[nH]1)Nc1cccc(C(=O)NCCCNC(=O)c2ccc(-c3c4nc(c(-c5ccc(S(=O)(=O)[O-])cc5)c5ccc([nH]5)c(-c5ccc(S(=O)(=O)[O-])cc5)c5nc(c(-c6ccc(S(=O)(=O)[O-])cc6)c6ccc3[nH]6)C=C5)C=C4)cc2)c1
REMARK SMILES IDX 22 1 21 2 19 3 20 4 18 6 14 7 15 8 88 9 16 10 17 11 13 12
REMARK SMILES IDX 1 13 2 14 3 16 4 17 5 18 6 19 12 20 7 21 10 22 9 24 11 25
REMARK SMILES IDX 8 26 23 28 24 29 25 30 26 31 27 33 28 34 29 35 87 36 30 37
REMARK SMILES IDX 86 38 31 39 32 40 33 41 80 42 34 43 85 44 79 45 81 46 35 47
REMARK SMILES IDX 84 48 78 49 77 50 36 52 66 53 47 54 65 55 48 56 51 57 64 58
REMARK SMILES IDX 82 59 49 60 50 61 63 63 83 64 52 65 37 66 38 67 46 68 39 69
REMARK SMILES IDX 45 70 40 71 41 72 42 73 43 74 44 75 67 76 68 77 76 78 69 79
REMARK SMILES IDX 75 80 70 81 71 82 72 83 73 84 74 85 53 86 54 87 62 88 55 89
REMARK SMILES IDX 61 90 56 91 57 92 58 93 59 94 60 95
REMARK H PARENT 21 5 13 15 12 23 8 27 25 32 81 51 51 62
REMARK Flexibility Score: inf
ROOT
ATOM      1  C   UNL A   1      37.361  22.575  25.736  1.00  0.00     0.118 C 
ENDROOT
BRANCH   1   2
ATOM      2  N   UNL A   1      37.396  22.614  24.277  1.00  0.00    -0.352 N 
ATOM      3  C   UNL A   1      36.436  22.876  23.323  1.00  0.00     0.251 C 
ATOM      4  O   UNL A   1      36.766  22.831  22.137  1.00  0.00    -0.269 OA
ATOM      5  H   UNL A   1      38.282  22.414  23.898  1.00  0.00     0.163 HD
BRANCH   3   6
ATOM      6  C   UNL A   1      35.008  23.130  23.659  1.00  0.00     0.041 A 
ATOM      7  C   UNL A   1      33.125  24.644  23.836  1.00  0.00     0.041 A 
ATOM      8  C   UNL A   1      32.470  23.727  24.662  1.00  0.00     0.026 A 
ATOM      9  C   UNL A   1      34.325  24.269  23.237  1.00  0.00     0.040 A 
ATOM     10  C   UNL A   1      33.053  22.486  24.936  1.00  0.00     0.003 A 
ATOM     11  C   UNL A   1      34.337  22.205  24.469  1.00  0.00     0.014 A 
BRANCH   7  12
ATOM     12  N   UNL A   1      32.616  25.960  23.759  1.00  0.00    -0.325 N 
ATOM     13  O   UNL A   1      32.687  26.645  25.986  1.00  0.00    -0.274 OA
ATOM     14  C   UNL A   1      32.302  26.787  24.826  1.00  0.00     0.234 C 
ATOM     15  H   UNL A   1      32.467  26.326  22.858  1.00  0.00     0.169 HD
BRANCH  14  16
ATOM     16  C   UNL A   1      31.313  27.892  24.500  1.00  0.00     0.178 C 
BRANCH  16  17
ATOM     17  S   UNL A   1      31.416  28.485  22.798  1.00  0.00    -0.078 SA
BRANCH  17  18
ATOM     18  C   UNL A   1      29.893  29.300  22.666  1.00  0.00     0.172 A 
ATOM     19  N   UNL A   1      28.800  28.647  22.878  1.00  0.00    -0.189 NA
ATOM     20  N   UNL A   1      29.967  30.620  22.361  1.00  0.00    -0.301 N 
ATOM     21  C   UNL A   1      27.649  29.371  22.786  1.00  0.00     0.218 A 
ATOM     22  C   UNL A   1      28.844  31.384  22.262  1.00  0.00     0.255 A 
ATOM     23  H   UNL A   1      30.848  31.032  22.209  1.00  0.00     0.172 HD
ATOM     24  C   UNL A   1      27.581  30.672  22.496  1.00  0.00     0.139 A 
ATOM     25  O   UNL A   1      28.869  32.582  22.017  1.00  0.00    -0.269 OA
BRANCH  21  26
ATOM     26  O   UNL A   1      26.500  28.670  23.032  1.00  0.00    -0.493 OA
ATOM     27  H   UNL A   1      25.674  29.114  23.048  1.00  0.00     0.295 HD
ENDBRANCH  21  26
ENDBRANCH  17  18
ENDBRANCH  16  17
ENDBRANCH  14  16
ENDBRANCH   7  12
ENDBRANCH   3   6
ENDBRANCH   1   2
BRANCH   1  28
ATOM     28  C   UNL A   1      37.973  23.788  26.415  1.00  0.00     0.042 C 
BRANCH  28  29
ATOM     29  C   UNL A   1      39.419  23.627  26.854  1.00  0.00     0.118 C 
BRANCH  29  30
ATOM     30  N   UNL A   1      40.356  24.347  26.002  1.00  0.00    -0.352 N 
ATOM     31  C   UNL A   1      40.932  25.589  26.120  1.00  0.00     0.251 C 
ATOM     32  H   UNL A   1      40.625  23.855  25.194  1.00  0.00     0.163 HD
ATOM     33  O   UNL A   1      41.551  26.042  25.159  1.00  0.00    -0.269 OA
BRANCH  31  34
ATOM     34  C   UNL A   1      40.814  26.393  27.360  1.00  0.00     0.039 A 
ATOM     35  C   UNL A   1      41.652  27.503  27.516  1.00  0.00     0.014 A 
ATOM     36  C   UNL A   1      39.937  26.050  28.389  1.00  0.00     0.014 A 
ATOM     37  C   UNL A   1      41.563  28.290  28.668  1.00  0.00     0.010 A 
ATOM     38  C   UNL A   1      39.770  26.897  29.484  1.00  0.00     0.010 A 
ATOM     39  C   UNL A   1      40.590  28.019  29.645  1.00  0.00    -0.014 A 
BRANCH  39  40
ATOM     40  C   UNL A   1      40.430  28.911  30.825  1.00  0.00     0.031 A 
ATOM     41  C   UNL A   1      41.311  28.756  32.037  1.00  0.00     0.074 A 
ATOM     42  C   UNL A   1      39.466  29.854  30.808  1.00  0.00     0.049 A 
ATOM     43  N   UNL A   1      41.344  29.480  33.129  1.00  0.00    -0.248 NA
ATOM     44  C   UNL A   1      42.260  27.631  32.043  1.00  0.00     0.031 C 
ATOM     45  C   UNL A   1      38.503  30.060  29.722  1.00  0.00     0.029 A 
ATOM     46  N   UNL A   1      39.143  30.824  31.724  1.00  0.00    -0.354 N 
ATOM     47  C   UNL A   1      42.304  28.896  33.946  1.00  0.00     0.074 A 
ATOM     48  C   UNL A   1      42.787  27.722  33.255  1.00  0.00     0.031 C 
ATOM     49  C   UNL A   1      37.739  31.126  30.006  1.00  0.00     0.029 A 
ATOM     50  C   UNL A   1      38.125  31.653  31.310  1.00  0.00     0.049 A 
ATOM     51  H   UNL A   1      39.595  30.918  32.592  1.00  0.00     0.167 HD
ATOM     52  C   UNL A   1      42.764  29.311  35.152  1.00  0.00     0.031 A 
ATOM     53  C   UNL A   1      37.571  32.726  31.907  1.00  0.00     0.031 A 
ATOM     54  C   UNL A   1      42.282  30.484  35.835  1.00  0.00     0.049 A 
ATOM     55  C   UNL A   1      38.107  33.175  33.237  1.00  0.00     0.074 A 
ATOM     56  C   UNL A   1      42.721  31.025  37.031  1.00  0.00     0.029 A 
ATOM     57  N   UNL A   1      41.251  31.295  35.385  1.00  0.00    -0.354 N 
ATOM     58  N   UNL A   1      39.075  32.656  33.955  1.00  0.00    -0.248 NA
ATOM     59  C   UNL A   1      37.487  34.368  33.829  1.00  0.00     0.031 C 
ATOM     60  C   UNL A   1      41.914  32.127  37.335  1.00  0.00     0.029 A 
ATOM     61  C   UNL A   1      41.019  32.315  36.294  1.00  0.00     0.049 A 
ATOM     62  H   UNL A   1      40.757  31.164  34.543  1.00  0.00     0.167 HD
ATOM     63  C   UNL A   1      39.193  33.470  35.076  1.00  0.00     0.074 A 
ATOM     64  C   UNL A   1      38.220  34.533  34.920  1.00  0.00     0.031 C 
ATOM     65  C   UNL A   1      40.029  33.351  36.138  1.00  0.00     0.031 A 
BRANCH  52  66
ATOM     66  C   UNL A   1      43.844  28.487  35.811  1.00  0.00    -0.014 A 
ATOM     67  C   UNL A   1      43.524  27.450  36.708  1.00  0.00     0.010 A 
ATOM     68  C   UNL A   1      45.194  28.723  35.497  1.00  0.00     0.010 A 
ATOM     69  C   UNL A   1      44.535  26.696  37.311  1.00  0.00     0.020 A 
ATOM     70  C   UNL A   1      46.208  27.949  36.072  1.00  0.00     0.020 A 
ATOM     71  C   UNL A   1      45.871  26.951  36.990  1.00  0.00     0.054 A 
BRANCH  71  72
ATOM     72  S   UNL A   1      47.159  25.938  37.767  1.00  0.00     0.124 S 
ATOM     73  O   UNL A   1      47.605  25.108  36.651  1.00  0.00    -0.237 OA
ATOM     74  O   UNL A   1      48.117  26.939  38.229  1.00  0.00    -0.237 OA
ATOM     75  O   UNL A   1      46.449  25.225  38.827  1.00  0.00    -0.744 OA
ENDBRANCH  71  72
ENDBRANCH  52  66
BRANCH  53  76
ATOM     76  C   UNL A   1      36.464  33.461  31.234  1.00  0.00    -0.014 A 
ATOM     77  C   UNL A   1      36.571  33.843  29.886  1.00  0.00     0.010 A 
ATOM     78  C   UNL A   1      35.285  33.768  31.939  1.00  0.00     0.010 A 
ATOM     79  C   UNL A   1      35.530  34.535  29.259  1.00  0.00     0.020 A 
ATOM     80  C   UNL A   1      34.229  34.431  31.308  1.00  0.00     0.020 A 
ATOM     81  C   UNL A   1      34.363  34.821  29.974  1.00  0.00     0.054 A 
BRANCH  81  82
ATOM     82  S   UNL A   1      33.000  35.669  29.127  1.00  0.00     0.124 S 
ATOM     83  O   UNL A   1      32.180  36.118  30.247  1.00  0.00    -0.237 OA
ATOM     84  O   UNL A   1      33.695  36.720  28.387  1.00  0.00    -0.237 OA
ATOM     85  O   UNL A   1      32.410  34.620  28.297  1.00  0.00    -0.744 OA
ENDBRANCH  81  82
ENDBRANCH  53  76
BRANCH  65  86
ATOM     86  C   UNL A   1      39.931  34.411  37.204  1.00  0.00    -0.014 A 
ATOM     87  C   UNL A   1      39.079  34.257  38.312  1.00  0.00     0.010 A 
ATOM     88  C   UNL A   1      40.707  35.580  37.095  1.00  0.00     0.010 A 
ATOM     89  C   UNL A   1      38.954  35.279  39.256  1.00  0.00     0.020 A 
ATOM     90  C   UNL A   1      40.612  36.589  38.056  1.00  0.00     0.020 A 
ATOM     91  C   UNL A   1      39.716  36.443  39.117  1.00  0.00     0.054 A 
BRANCH  91  92
ATOM     92  S   UNL A   1      39.529  37.760  40.348  1.00  0.00     0.124 S 
ATOM     93  O   UNL A   1      38.888  37.053  41.454  1.00  0.00    -0.237 OA
ATOM     94  O   UNL A   1      40.910  38.176  40.585  1.00  0.00    -0.237 OA
ATOM     95  O   UNL A   1      38.693  38.750  39.674  1.00  0.00    -0.744 OA
ENDBRANCH  91  92
ENDBRANCH  65  86
ENDBRANCH  39  40
ENDBRANCH  31  34
ENDBRANCH  29  30
ENDBRANCH  28  29
ENDBRANCH   1  28
TORSDOF 18
ENDMDL
MODEL 2
REMARK VINA RESULT:     -12.3      6.230      8.398
REMARK SMILES O=C(CSc1nc(O)cc(=O)[nH]1)Nc1cccc(C(=O)NCCCNC(=O)c2ccc(-c3c4nc(c(-c5ccc(S(=O)(=O)[O-])cc5)c5ccc([nH]5)c(-c5ccc(S(=O)(=O)[O-])cc5)c5nc(c(-c6ccc(S(=O)(=O)[O-])cc6)c6ccc3[nH]6)C=C5)C=C4)cc2)c1
REMARK SMILES IDX 22 1 21 2 19 3 20 4 18 6 14 7 15 8 88 9 16 10 17 11 13 12
REMARK SMILES IDX 1 13 2 14 3 16 4 17 5 18 6 19 12 20 7 21 10 22 9 24 11 25
REMARK SMILES IDX 8 26 23 28 24 29 25 30 26 31 27 33 28 34 29 35 87 36 30 37
REMARK SMILES IDX 86 38 31 39 32 40 33 41 80 42 34 43 85 44 79 45 81 46 35 47
REMARK SMILES IDX 84 48 78 49 77 50 36 52 66 53 47 54 65 55 48 56 51 57 64 58
REMARK SMILES IDX 82 59 49 60 50 61 63 63 83 64 52 65 37 66 38 67 46 68 39 69
REMARK SMILES IDX 45 70 40 71 41 72 42 73 43 74 44 75 67 76 68 77 76 78 69 79
REMARK SMILES IDX 75 80 70 81 71 82 72 83 73 84 74 85 53 86 54 87 62 88 55 89
REMARK SMILES IDX 61 90 56 91 57 92 58 93 59 94 60 95
REMARK H PARENT 21 5 13 15 12 23 8 27 25 32 81 51 51 62
REMARK Flexibility Score: inf
ROOT
ATOM      1  C   UNL A   1      37.040  21.254  24.792  1.00  0.00     0.118 C 
ENDROOT
BRANCH   1   2
ATOM      2  N   UNL A   1      36.135  21.469  25.917  1.00  0.00    -0.352 N 
ATOM      3  C   UNL A   1      34.762  21.552  26.012  1.00  0.00     0.251 C 
ATOM      4  O   UNL A   1      34.267  21.749  27.123  1.00  0.00    -0.269 OA
ATOM      5  H   UNL A   1      36.597  21.577  26.779  1.00  0.00     0.163 HD
BRANCH   3   6
ATOM      6  C   UNL A   1      33.862  21.494  24.827  1.00  0.00     0.041 A 
ATOM      7  C   UNL A   1      32.252  22.546  23.354  1.00  0.00     0.041 A 
ATOM      8  C   UNL A   1      31.875  21.289  22.875  1.00  0.00     0.026 A 
ATOM      9  C   UNL A   1      33.337  22.635  24.223  1.00  0.00     0.040 A 
ATOM     10  C   UNL A   1      32.533  20.140  23.322  1.00  0.00     0.003 A 
ATOM     11  C   UNL A   1      33.497  20.239  24.327  1.00  0.00     0.014 A 
BRANCH   7  12
ATOM     12  N   UNL A   1      31.429  23.654  23.051  1.00  0.00    -0.325 N 
ATOM     13  O   UNL A   1      32.936  25.127  22.055  1.00  0.00    -0.274 OA
ATOM     14  C   UNL A   1      31.847  24.887  22.574  1.00  0.00     0.234 C 
ATOM     15  H   UNL A   1      30.462  23.540  23.194  1.00  0.00     0.169 HD
BRANCH  14  16
ATOM     16  C   UNL A   1      30.877  26.026  22.833  1.00  0.00     0.178 C 
BRANCH  16  17
ATOM     17  S   UNL A   1      31.615  27.665  22.663  1.00  0.00    -0.078 SA
BRANCH  17  18
ATOM     18  C   UNL A   1      30.185  28.626  22.485  1.00  0.00     0.172 A 
ATOM     19  N   UNL A   1      30.229  29.712  21.789  1.00  0.00    -0.189 NA
ATOM     20  N   UNL A   1      29.077  28.134  23.094  1.00  0.00    -0.301 N 
ATOM     21  C   UNL A   1      29.052  30.391  21.673  1.00  0.00     0.218 A 
ATOM     22  C   UNL A   1      27.879  28.776  23.003  1.00  0.00     0.255 A 
ATOM     23  H   UNL A   1      29.141  27.299  23.612  1.00  0.00     0.172 HD
ATOM     24  C   UNL A   1      27.894  30.017  22.218  1.00  0.00     0.139 A 
ATOM     25  O   UNL A   1      26.852  28.352  23.513  1.00  0.00    -0.269 OA
BRANCH  21  26
ATOM     26  O   UNL A   1      29.110  31.529  20.916  1.00  0.00    -0.493 OA
ATOM     27  H   UNL A   1      29.935  31.945  20.756  1.00  0.00     0.295 HD
ENDBRANCH  21  26
ENDBRANCH  17  18
ENDBRANCH  16  17
ENDBRANCH  14  16
ENDBRANCH   7  12
ENDBRANCH   3   6
ENDBRANCH   1   2
BRANCH   1  28
ATOM     28  C   UNL A   1      38.075  20.163  25.013  1.00  0.00     0.042 C 
BRANCH  28  29
ATOM     29  C   UNL A   1      39.151  20.486  26.035  1.00  0.00     0.118 C 
BRANCH  29  30
ATOM     30  N   UNL A   1      40.239  19.517  26.042  1.00  0.00    -0.352 N 
ATOM     31  C   UNL A   1      41.601  19.670  26.134  1.00  0.00     0.251 C 
ATOM     32  H   UNL A   1      39.944  18.581  25.968  1.00  0.00     0.163 HD
ATOM     33  O   UNL A   1      42.317  18.692  25.927  1.00  0.00    -0.269 OA
BRANCH  31  34
ATOM     34  C   UNL A   1      42.222  20.976  26.458  1.00  0.00     0.039 A 
ATOM     35  C   UNL A   1      42.513  21.855  25.408  1.00  0.00     0.014 A 
ATOM     36  C   UNL A   1      42.572  21.332  27.762  1.00  0.00     0.014 A 
ATOM     37  C   UNL A   1      43.091  23.099  25.676  1.00  0.00     0.010 A 
ATOM     38  C   UNL A   1      43.044  22.614  28.039  1.00  0.00     0.010 A 
ATOM     39  C   UNL A   1      43.323  23.508  27.000  1.00  0.00    -0.014 A 
BRANCH  39  40
ATOM     40  C   UNL A   1      43.850  24.868  27.293  1.00  0.00     0.031 A 
ATOM     41  C   UNL A   1      45.299  25.205  27.056  1.00  0.00     0.074 A 
ATOM     42  C   UNL A   1      43.016  25.800  27.797  1.00  0.00     0.049 A 
ATOM     43  N   UNL A   1      45.912  26.353  27.205  1.00  0.00    -0.248 NA
ATOM     44  C   UNL A   1      46.183  24.111  26.621  1.00  0.00     0.031 C 
ATOM     45  C   UNL A   1      41.606  25.579  28.135  1.00  0.00     0.029 A 
ATOM     46  N   UNL A   1      43.223  27.123  28.102  1.00  0.00    -0.354 N 
ATOM     47  C   UNL A   1      47.246  26.117  26.892  1.00  0.00     0.074 A 
ATOM     48  C   UNL A   1      47.367  24.705  26.606  1.00  0.00     0.031 C 
ATOM     49  C   UNL A   1      41.063  26.737  28.543  1.00  0.00     0.029 A 
ATOM     50  C   UNL A   1      42.091  27.771  28.537  1.00  0.00     0.049 A 
ATOM     51  H   UNL A   1      44.099  27.563  28.016  1.00  0.00     0.167 HD
ATOM     52  C   UNL A   1      48.274  26.998  26.823  1.00  0.00     0.031 A 
ATOM     53  C   UNL A   1      41.897  29.058  28.883  1.00  0.00     0.031 A 
ATOM     54  C   UNL A   1      48.147  28.404  27.105  1.00  0.00     0.049 A 
ATOM     55  C   UNL A   1      43.048  30.019  28.785  1.00  0.00     0.074 A 
ATOM     56  C   UNL A   1      49.111  29.393  27.008  1.00  0.00     0.029 A 
ATOM     57  N   UNL A   1      46.986  29.023  27.545  1.00  0.00    -0.354 N 
ATOM     58  N   UNL A   1      44.283  29.791  28.405  1.00  0.00    -0.248 NA
ATOM     59  C   UNL A   1      42.773  31.417  29.144  1.00  0.00     0.031 C 
ATOM     60  C   UNL A   1      48.549  30.596  27.448  1.00  0.00     0.029 A 
ATOM     61  C   UNL A   1      47.216  30.373  27.752  1.00  0.00     0.049 A 
ATOM     62  H   UNL A   1      46.124  28.568  27.689  1.00  0.00     0.167 HD
ATOM     63  C   UNL A   1      44.929  31.021  28.462  1.00  0.00     0.074 A 
ATOM     64  C   UNL A   1      43.937  31.992  28.880  1.00  0.00     0.031 C 
ATOM     65  C   UNL A   1      46.225  31.322  28.193  1.00  0.00     0.031 A 
BRANCH  52  66
ATOM     66  C   UNL A   1      49.629  26.463  26.427  1.00  0.00    -0.014 A 
ATOM     67  C   UNL A   1      50.084  26.542  25.097  1.00  0.00     0.010 A 
ATOM     68  C   UNL A   1      50.476  25.911  27.404  1.00  0.00     0.010 A 
ATOM     69  C   UNL A   1      51.341  26.042  24.746  1.00  0.00     0.020 A 
ATOM     70  C   UNL A   1      51.748  25.438  27.063  1.00  0.00     0.020 A 
ATOM     71  C   UNL A   1      52.165  25.492  25.732  1.00  0.00     0.054 A 
BRANCH  71  72
ATOM     72  S   UNL A   1      53.802  24.875  25.250  1.00  0.00     0.124 S 
ATOM     73  O   UNL A   1      54.617  25.254  26.401  1.00  0.00    -0.237 OA
ATOM     74  O   UNL A   1      53.568  23.442  25.089  1.00  0.00    -0.237 OA
ATOM     75  O   UNL A   1      54.097  25.598  24.015  1.00  0.00    -0.744 OA
ENDBRANCH  71  72
ENDBRANCH  52  66
BRANCH  53  76
ATOM     76  C   UNL A   1      40.550  29.514  29.327  1.00  0.00    -0.014 A 
ATOM     77  C   UNL A   1      40.297  29.795  30.681  1.00  0.00     0.010 A 
ATOM     78  C   UNL A   1      39.514  29.684  28.390  1.00  0.00     0.010 A 
ATOM     79  C   UNL A   1      39.030  30.221  31.093  1.00  0.00     0.020 A 
ATOM     80  C   UNL A   1      38.256  30.139  28.792  1.00  0.00     0.020 A 
ATOM     81  C   UNL A   1      38.018  30.394  30.145  1.00  0.00     0.054 A 
BRANCH  81  82
ATOM     82  S   UNL A   1      36.398  31.001  30.691  1.00  0.00     0.124 S 
ATOM     83  O   UNL A   1      36.741  32.292  31.279  1.00  0.00    -0.237 OA
ATOM     84  O   UNL A   1      35.643  31.053  29.442  1.00  0.00    -0.237 OA
ATOM     85  O   UNL A   1      35.952  29.980  31.637  1.00  0.00    -0.744 OA
ENDBRANCH  81  82
ENDBRANCH  53  76
BRANCH  65  86
ATOM     86  C   UNL A   1      46.632  32.766  28.332  1.00  0.00    -0.014 A 
ATOM     87  C   UNL A   1      46.470  33.676  27.271  1.00  0.00     0.010 A 
ATOM     88  C   UNL A   1      47.184  33.220  29.544  1.00  0.00     0.010 A 
ATOM     89  C   UNL A   1      46.913  34.995  27.398  1.00  0.00     0.020 A 
ATOM     90  C   UNL A   1      47.595  34.546  29.687  1.00  0.00     0.020 A 
ATOM     91  C   UNL A   1      47.481  35.420  28.603  1.00  0.00     0.054 A 
BRANCH  91  92
ATOM     92  S   UNL A   1      48.058  37.132  28.739  1.00  0.00     0.124 S 
ATOM     93  O   UNL A   1      49.504  36.978  28.594  1.00  0.00    -0.237 OA
ATOM     94  O   UNL A   1      47.382  37.788  27.622  1.00  0.00    -0.237 OA
ATOM     95  O   UNL A   1      47.606  37.547  30.064  1.00  0.00    -0.744 OA
ENDBRANCH  91  92
ENDBRANCH  65  86
ENDBRANCH  39  40
ENDBRANCH  31  34
ENDBRANCH  29  30
ENDBRANCH  28  29
ENDBRANCH   1  28
TORSDOF 18
ENDMDL
MODEL 3
REMARK VINA RESULT:     -12.0      1.587      2.093
REMARK SMILES O=C(CSc1nc(O)cc(=O)[nH]1)Nc1cccc(C(=O)NCCCNC(=O)c2ccc(-c3c4nc(c(-c5ccc(S(=O)(=O)[O-])cc5)c5ccc([nH]5)c(-c5ccc(S(=O)(=O)[O-])cc5)c5nc(c(-c6ccc(S(=O)(=O)[O-])cc6)c6ccc3[nH]6)C=C5)C=C4)cc2)c1
REMARK SMILES IDX 22 1 21 2 19 3 20 4 18 6 14 7 15 8 88 9 16 10 17 11 13 12
REMARK SMILES IDX 1 13 2 14 3 16 4 17 5 18 6 19 12 20 7 21 10 22 9 24 11 25
REMARK SMILES IDX 8 26 23 28 24 29 25 30 26 31 27 33 28 34 29 35 87 36 30 37
REMARK SMILES IDX 86 38 31 39 32 40 33 41 80 42 34 43 85 44 79 45 81 46 35 47
REMARK SMILES IDX 84 48 78 49 77 50 36 52 66 53 47 54 65 55 48 56 51 57 64 58
REMARK SMILES IDX 82 59 49 60 50 61 63 63 83 64 52 65 37 66 38 67 46 68 39 69
REMARK SMILES IDX 45 70 40 71 41 72 42 73 43 74 44 75 67 76 68 77 76 78 69 79
REMARK SMILES IDX 75 80 70 81 71 82 72 83 73 84 74 85 53 86 54 87 62 88 55 89
REMARK SMILES IDX 61 90 56 91 57 92 58 93 59 94 60 95
REMARK H PARENT 21 5 13 15 12 23 8 27 25 32 81 51 51 62
REMARK Flexibility Score: inf
ROOT
ATOM      1  C   UNL A   1      37.870  22.534  25.796  1.00  0.00     0.118 C 
ENDROOT
BRANCH   1   2
ATOM      2  N   UNL A   1      37.569  22.765  24.387  1.00  0.00    -0.352 N 
ATOM      3  C   UNL A   1      36.403  22.696  23.654  1.00  0.00     0.251 C 
ATOM      4  O   UNL A   1      36.457  22.947  22.449  1.00  0.00    -0.269 OA
ATOM      5  H   UNL A   1      38.355  23.019  23.852  1.00  0.00     0.163 HD
BRANCH   3   6
ATOM      6  C   UNL A   1      35.104  22.258  24.237  1.00  0.00     0.041 A 
ATOM      7  C   UNL A   1      32.812  22.731  24.862  1.00  0.00     0.041 A 
ATOM      8  C   UNL A   1      32.807  21.601  25.684  1.00  0.00     0.026 A 
ATOM      9  C   UNL A   1      33.917  22.962  24.045  1.00  0.00     0.040 A 
ATOM     10  C   UNL A   1      33.926  20.764  25.734  1.00  0.00     0.003 A 
ATOM     11  C   UNL A   1      35.087  21.114  25.044  1.00  0.00     0.014 A 
BRANCH   7  12
ATOM     12  N   UNL A   1      31.761  23.665  25.001  1.00  0.00    -0.325 N 
ATOM     13  O   UNL A   1      30.594  23.391  23.002  1.00  0.00    -0.274 OA
ATOM     14  C   UNL A   1      30.843  24.024  24.027  1.00  0.00     0.234 C 
ATOM     15  H   UNL A   1      31.673  24.106  25.876  1.00  0.00     0.169 HD
BRANCH  14  16
ATOM     16  C   UNL A   1      30.188  25.377  24.244  1.00  0.00     0.178 C 
BRANCH  16  17
ATOM     17  S   UNL A   1      30.389  26.025  25.917  1.00  0.00    -0.078 SA
BRANCH  17  18
ATOM     18  C   UNL A   1      31.330  27.441  25.584  1.00  0.00     0.172 A 
ATOM     19  N   UNL A   1      31.553  27.785  24.361  1.00  0.00    -0.189 NA
ATOM     20  N   UNL A   1      31.760  28.120  26.677  1.00  0.00    -0.301 N 
ATOM     21  C   UNL A   1      32.274  28.929  24.188  1.00  0.00     0.218 A 
ATOM     22  C   UNL A   1      32.480  29.270  26.554  1.00  0.00     0.255 A 
ATOM     23  H   UNL A   1      31.547  27.776  27.575  1.00  0.00     0.172 HD
ATOM     24  C   UNL A   1      32.753  29.691  25.174  1.00  0.00     0.139 A 
ATOM     25  O   UNL A   1      32.862  29.927  27.512  1.00  0.00    -0.269 OA
BRANCH  21  26
ATOM     26  O   UNL A   1      32.485  29.293  22.886  1.00  0.00    -0.493 OA
ATOM     27  H   UNL A   1      32.920  30.100  22.689  1.00  0.00     0.295 HD
ENDBRANCH  21  26
ENDBRANCH  17  18
ENDBRANCH  16  17
ENDBRANCH  14  16
ENDBRANCH   7  12
ENDBRANCH   3   6
ENDBRANCH   1   2
BRANCH   1  28
ATOM     28  C   UNL A   1      38.489  23.723  26.513  1.00  0.00     0.042 C 
BRANCH  28  29
ATOM     29  C   UNL A   1      39.969  23.594  26.827  1.00  0.00     0.118 C 
BRANCH  29  30
ATOM     30  N   UNL A   1      40.812  24.378  25.935  1.00  0.00    -0.352 N 
ATOM     31  C   UNL A   1      41.289  25.663  26.020  1.00  0.00     0.251 C 
ATOM     32  H   UNL A   1      41.090  23.899  25.121  1.00  0.00     0.163 HD
ATOM     33  O   UNL A   1      41.832  26.154  25.033  1.00  0.00    -0.269 OA
BRANCH  31  34
ATOM     34  C   UNL A   1      41.152  26.469  27.256  1.00  0.00     0.039 A 
ATOM     35  C   UNL A   1      41.824  27.695  27.331  1.00  0.00     0.014 A 
ATOM     36  C   UNL A   1      40.422  26.023  28.359  1.00  0.00     0.014 A 
ATOM     37  C   UNL A   1      41.710  28.486  28.478  1.00  0.00     0.010 A 
ATOM     38  C   UNL A   1      40.219  26.861  29.455  1.00  0.00     0.010 A 
ATOM     39  C   UNL A   1      40.872  28.096  29.535  1.00  0.00    -0.014 A 
BRANCH  39  40
ATOM     40  C   UNL A   1      40.676  28.981  30.715  1.00  0.00     0.031 A 
ATOM     41  C   UNL A   1      41.557  28.858  31.930  1.00  0.00     0.074 A 
ATOM     42  C   UNL A   1      39.678  29.888  30.695  1.00  0.00     0.049 A 
ATOM     43  N   UNL A   1      41.560  29.583  33.021  1.00  0.00    -0.248 NA
ATOM     44  C   UNL A   1      42.547  27.769  31.938  1.00  0.00     0.031 C 
ATOM     45  C   UNL A   1      38.711  30.060  29.605  1.00  0.00     0.029 A 
ATOM     46  N   UNL A   1      39.316  30.846  31.609  1.00  0.00    -0.354 N 
ATOM     47  C   UNL A   1      42.539  29.034  33.842  1.00  0.00     0.074 A 
ATOM     48  C   UNL A   1      43.067  27.879  33.151  1.00  0.00     0.031 C 
ATOM     49  C   UNL A   1      37.908  31.096  29.888  1.00  0.00     0.029 A 
ATOM     50  C   UNL A   1      38.270  31.637  31.193  1.00  0.00     0.049 A 
ATOM     51  H   UNL A   1      39.762  30.956  32.479  1.00  0.00     0.167 HD
ATOM     52  C   UNL A   1      42.979  29.466  35.049  1.00  0.00     0.031 A 
ATOM     53  C   UNL A   1      37.675  32.688  31.788  1.00  0.00     0.031 A 
ATOM     54  C   UNL A   1      42.453  30.620  35.731  1.00  0.00     0.049 A 
ATOM     55  C   UNL A   1      38.190  33.157  33.120  1.00  0.00     0.074 A 
ATOM     56  C   UNL A   1      42.868  31.176  36.928  1.00  0.00     0.029 A 
ATOM     57  N   UNL A   1      41.395  31.393  35.278  1.00  0.00    -0.354 N 
ATOM     58  N   UNL A   1      39.174  32.673  33.841  1.00  0.00    -0.248 NA
ATOM     59  C   UNL A   1      37.525  34.326  33.710  1.00  0.00     0.031 C 
ATOM     60  C   UNL A   1      42.020  32.248  37.229  1.00  0.00     0.029 A 
ATOM     61  C   UNL A   1      41.122  32.403  36.186  1.00  0.00     0.049 A 
ATOM     62  H   UNL A   1      40.908  31.244  34.434  1.00  0.00     0.167 HD
ATOM     63  C   UNL A   1      39.258  33.491  34.962  1.00  0.00     0.074 A 
ATOM     64  C   UNL A   1      38.248  34.518  34.803  1.00  0.00     0.031 C 
ATOM     65  C   UNL A   1      40.095  33.402  36.027  1.00  0.00     0.031 A 
BRANCH  52  66
ATOM     66  C   UNL A   1      44.086  28.681  35.711  1.00  0.00    -0.014 A 
ATOM     67  C   UNL A   1      43.803  27.614  36.584  1.00  0.00     0.010 A 
ATOM     68  C   UNL A   1      45.429  28.987  35.425  1.00  0.00     0.010 A 
ATOM     69  C   UNL A   1      44.839  26.897  37.189  1.00  0.00     0.020 A 
ATOM     70  C   UNL A   1      46.469  28.252  36.004  1.00  0.00     0.020 A 
ATOM     71  C   UNL A   1      46.166  27.222  36.897  1.00  0.00     0.054 A 
BRANCH  71  72
ATOM     72  S   UNL A   1      47.488  26.256  37.677  1.00  0.00     0.124 S 
ATOM     73  O   UNL A   1      48.610  27.191  37.634  1.00  0.00    -0.237 OA
ATOM     74  O   UNL A   1      46.945  25.987  39.006  1.00  0.00    -0.237 OA
ATOM     75  O   UNL A   1      47.622  25.086  36.813  1.00  0.00    -0.744 OA
ENDBRANCH  71  72
ENDBRANCH  52  66
BRANCH  53  76
ATOM     76  C   UNL A   1      36.544  33.383  31.112  1.00  0.00    -0.014 A 
ATOM     77  C   UNL A   1      35.317  33.570  31.773  1.00  0.00     0.010 A 
ATOM     78  C   UNL A   1      36.696  33.878  29.804  1.00  0.00     0.010 A 
ATOM     79  C   UNL A   1      34.258  34.221  31.134  1.00  0.00     0.020 A 
ATOM     80  C   UNL A   1      35.651  34.558  29.172  1.00  0.00     0.020 A 
ATOM     81  C   UNL A   1      34.433  34.715  29.838  1.00  0.00     0.054 A 
BRANCH  81  82
ATOM     82  S   UNL A   1      33.066  35.607  29.047  1.00  0.00     0.124 S 
ATOM     83  O   UNL A   1      33.765  36.697  28.373  1.00  0.00    -0.237 OA
ATOM     84  O   UNL A   1      32.488  34.588  28.175  1.00  0.00    -0.237 OA
ATOM     85  O   UNL A   1      32.221  36.004  30.172  1.00  0.00    -0.744 OA
ENDBRANCH  81  82
ENDBRANCH  53  76
BRANCH  65  86
ATOM     86  C   UNL A   1      39.956  34.458  37.093  1.00  0.00    -0.014 A 
ATOM     87  C   UNL A   1      39.149  34.249  38.226  1.00  0.00     0.010 A 
ATOM     88  C   UNL A   1      40.643  35.678  36.958  1.00  0.00     0.010 A 
ATOM     89  C   UNL A   1      38.982  35.265  39.171  1.00  0.00     0.020 A 
ATOM     90  C   UNL A   1      40.507  36.682  37.918  1.00  0.00     0.020 A 
ATOM     91  C   UNL A   1      39.656  36.479  39.006  1.00  0.00     0.054 A 
BRANCH  91  92
ATOM     92  S   UNL A   1      39.414  37.785  40.239  1.00  0.00     0.124 S 
ATOM     93  O   UNL A   1      39.165  37.013  41.455  1.00  0.00    -0.237 OA
ATOM     94  O   UNL A   1      40.686  38.502  40.201  1.00  0.00    -0.237 OA
ATOM     95  O   UNL A   1      38.267  38.534  39.731  1.00  0.00    -0.744 OA
ENDBRANCH  91  92
ENDBRANCH  65  86
ENDBRANCH  39  40
ENDBRANCH  31  34
ENDBRANCH  29  30
ENDBRANCH  28  29
ENDBRANCH   1  28
TORSDOF 18
ENDMDL
