MODEL 1
REMARK VINA RESULT:     -11.4      0.000      0.000
REMARK SMILES CC[C@H](C(=O)NCCCNC(=O)c1ccc(-c2c3nc(c(-c4ccc(S(=O)(=O)[O-])cc4)c4ccc([nH]4)c(-c4ccc(S(=O)(=O)[O-])cc4)c4nc(c(-c5ccc(S(=O)(=O)[O-])cc5)c5ccc2[nH]5)C=C4)C=C3)cc1)C1=CCCc2c(C)ccc(C)c21
REMARK SMILES IDX 9 1 8 2 7 3 6 4 4 5 5 6 3 8 2 9 1 10 73 11 74 12 84 13 75 14
REMARK SMILES IDX 77 15 82 16 76 17 78 18 81 19 83 20 79 21 80 22 10 23 11 24
REMARK SMILES IDX 12 26 13 27 14 28 72 29 15 30 71 31 16 32 17 33 18 34 65 35
REMARK SMILES IDX 19 36 70 37 64 38 66 39 20 40 69 41 63 42 62 43 21 45 51 46
REMARK SMILES IDX 32 47 50 48 33 49 36 50 49 51 67 52 34 53 35 54 48 56 68 57
REMARK SMILES IDX 37 58 22 59 23 60 31 61 24 62 30 63 25 64 26 65 27 66 28 67
REMARK SMILES IDX 29 68 52 69 53 70 61 71 54 72 60 73 55 74 56 75 57 76 58 77
REMARK SMILES IDX 59 78 38 79 39 80 47 81 40 82 46 83 41 84 42 85 43 86 44 87
REMARK SMILES IDX 45 88
REMARK H PARENT 6 7 10 25 66 44 36 55
REMARK Flexibility Score: inf
ROOT
ATOM      1  C   UNL A   1      33.616  28.914  26.679  1.00  0.00     0.118 C 
ENDROOT
BRANCH   1   2
ATOM      2  C   UNL A   1      33.142  29.008  25.243  1.00  0.00     0.042 C 
BRANCH   2   3
ATOM      3  C   UNL A   1      34.008  28.325  24.201  1.00  0.00     0.117 C 
BRANCH   3   4
ATOM      4  N   UNL A   1      33.485  27.161  23.490  1.00  0.00    -0.356 N 
ATOM      5  C   UNL A   1      32.907  25.985  23.942  1.00  0.00     0.227 C 
ATOM      6  O   UNL A   1      32.239  25.373  23.099  1.00  0.00    -0.274 OA
ATOM      7  H   UNL A   1      33.555  27.224  22.509  1.00  0.00     0.163 HD
BRANCH   5   8
ATOM      8  C   UNL A   1      33.201  25.345  25.352  1.00  0.00     0.108 C 
BRANCH   8   9
ATOM      9  C   UNL A   1      32.129  25.674  26.465  1.00  0.00     0.015 C 
ATOM     10  C   UNL A   1      30.735  26.105  25.991  1.00  0.00     0.005 C 
ENDBRANCH   8   9
BRANCH   8  11
ATOM     11  C   UNL A   1      33.685  23.848  25.482  1.00  0.00    -0.032 C 
ATOM     12  C   UNL A   1      33.068  23.117  26.456  1.00  0.00    -0.022 C 
ATOM     13  C   UNL A   1      34.243  22.860  24.389  1.00  0.00    -0.016 A 
ATOM     14  C   UNL A   1      31.773  22.424  25.963  1.00  0.00     0.032 C 
ATOM     15  C   UNL A   1      33.289  21.788  24.240  1.00  0.00    -0.037 A 
ATOM     16  C   UNL A   1      35.598  22.452  24.432  1.00  0.00    -0.043 A 
ATOM     17  C   UNL A   1      31.845  22.225  24.440  1.00  0.00     0.040 C 
ATOM     18  C   UNL A   1      33.643  20.441  24.542  1.00  0.00    -0.047 A 
ATOM     19  C   UNL A   1      35.933  21.137  24.834  1.00  0.00     0.004 A 
ATOM     20  C   UNL A   1      36.636  23.049  23.501  1.00  0.00     0.045 C 
ATOM     21  C   UNL A   1      32.610  19.373  24.795  1.00  0.00     0.044 C 
ATOM     22  C   UNL A   1      34.958  20.156  24.920  1.00  0.00     0.004 A 
ENDBRANCH   8  11
ENDBRANCH   5   8
ENDBRANCH   3   4
ENDBRANCH   2   3
ENDBRANCH   1   2
BRANCH   1  23
ATOM     23  N   UNL A   1      33.583  30.171  27.420  1.00  0.00    -0.352 N 
ATOM     24  C   UNL A   1      34.554  30.766  28.200  1.00  0.00     0.251 C 
ATOM     25  H   UNL A   1      32.739  30.673  27.351  1.00  0.00     0.163 HD
ATOM     26  O   UNL A   1      34.300  31.823  28.779  1.00  0.00    -0.269 OA
BRANCH  24  27
ATOM     27  C   UNL A   1      35.876  30.121  28.389  1.00  0.00     0.039 A 
ATOM     28  C   UNL A   1      36.807  30.149  27.346  1.00  0.00     0.014 A 
ATOM     29  C   UNL A   1      36.223  29.529  29.603  1.00  0.00     0.014 A 
ATOM     30  C   UNL A   1      38.111  29.690  27.562  1.00  0.00     0.010 A 
ATOM     31  C   UNL A   1      37.546  29.185  29.854  1.00  0.00     0.010 A 
ATOM     32  C   UNL A   1      38.509  29.262  28.839  1.00  0.00    -0.014 A 
BRANCH  32  33
ATOM     33  C   UNL A   1      39.919  28.897  29.147  1.00  0.00     0.031 A 
ATOM     34  C   UNL A   1      40.849  29.921  29.742  1.00  0.00     0.074 A 
ATOM     35  C   UNL A   1      40.389  27.679  28.805  1.00  0.00     0.049 A 
ATOM     36  N   UNL A   1      42.132  29.829  29.983  1.00  0.00    -0.248 NA
ATOM     37  C   UNL A   1      40.270  31.232  30.082  1.00  0.00     0.031 C 
ATOM     38  C   UNL A   1      39.609  26.610  28.175  1.00  0.00     0.029 A 
ATOM     39  N   UNL A   1      41.645  27.136  28.928  1.00  0.00    -0.354 N 
ATOM     40  C   UNL A   1      42.516  31.072  30.475  1.00  0.00     0.074 A 
ATOM     41  C   UNL A   1      41.343  31.917  30.445  1.00  0.00     0.031 C 
ATOM     42  C   UNL A   1      40.394  25.536  27.996  1.00  0.00     0.029 A 
ATOM     43  C   UNL A   1      41.744  25.850  28.449  1.00  0.00     0.049 A 
ATOM     44  H   UNL A   1      42.405  27.623  29.324  1.00  0.00     0.167 HD
ATOM     45  C   UNL A   1      43.726  31.470  30.932  1.00  0.00     0.031 A 
ATOM     46  C   UNL A   1      42.802  25.019  28.371  1.00  0.00     0.031 A 
ATOM     47  C   UNL A   1      44.887  30.621  30.980  1.00  0.00     0.049 A 
ATOM     48  C   UNL A   1      44.140  25.485  28.879  1.00  0.00     0.074 A 
ATOM     49  C   UNL A   1      46.141  30.910  31.486  1.00  0.00     0.029 A 
ATOM     50  N   UNL A   1      44.937  29.319  30.504  1.00  0.00    -0.354 N 
ATOM     51  N   UNL A   1      44.463  26.641  29.406  1.00  0.00    -0.248 NA
ATOM     52  C   UNL A   1      45.253  24.529  28.793  1.00  0.00     0.031 C 
ATOM     53  C   UNL A   1      46.967  29.804  31.264  1.00  0.00     0.029 A 
ATOM     54  C   UNL A   1      46.208  28.801  30.680  1.00  0.00     0.049 A 
ATOM     55  H   UNL A   1      44.180  28.836  30.101  1.00  0.00     0.167 HD
ATOM     56  C   UNL A   1      45.809  26.541  29.741  1.00  0.00     0.074 A 
ATOM     57  C   UNL A   1      46.235  25.207  29.371  1.00  0.00     0.031 C 
ATOM     58  C   UNL A   1      46.618  27.470  30.308  1.00  0.00     0.031 A 
BRANCH  45  59
ATOM     59  C   UNL A   1      43.858  32.891  31.416  1.00  0.00    -0.014 A 
ATOM     60  C   UNL A   1      44.216  33.930  30.537  1.00  0.00     0.010 A 
ATOM     61  C   UNL A   1      43.575  33.200  32.760  1.00  0.00     0.010 A 
ATOM     62  C   UNL A   1      44.334  35.242  31.003  1.00  0.00     0.020 A 
ATOM     63  C   UNL A   1      43.660  34.517  33.221  1.00  0.00     0.020 A 
ATOM     64  C   UNL A   1      44.056  35.527  32.343  1.00  0.00     0.054 A 
BRANCH  64  65
ATOM     65  S   UNL A   1      44.191  37.244  32.910  1.00  0.00     0.124 S 
ATOM     66  O   UNL A   1      43.055  37.350  33.822  1.00  0.00    -0.237 OA
ATOM     67  O   UNL A   1      45.509  37.270  33.540  1.00  0.00    -0.237 OA
ATOM     68  O   UNL A   1      44.076  38.025  31.681  1.00  0.00    -0.744 OA
ENDBRANCH  64  65
ENDBRANCH  45  59
BRANCH  46  69
ATOM     69  C   UNL A   1      42.637  23.654  27.796  1.00  0.00    -0.014 A 
ATOM     70  C   UNL A   1      42.255  22.576  28.614  1.00  0.00     0.010 A 
ATOM     71  C   UNL A   1      42.849  23.426  26.423  1.00  0.00     0.010 A 
ATOM     72  C   UNL A   1      42.107  21.293  28.076  1.00  0.00     0.020 A 
ATOM     73  C   UNL A   1      42.672  22.152  25.875  1.00  0.00     0.020 A 
ATOM     74  C   UNL A   1      42.313  21.091  26.708  1.00  0.00     0.054 A 
BRANCH  74  75
ATOM     75  S   UNL A   1      42.063  19.429  26.022  1.00  0.00     0.124 S 
ATOM     76  O   UNL A   1      42.543  18.578  27.107  1.00  0.00    -0.237 OA
ATOM     77  O   UNL A   1      40.622  19.401  25.784  1.00  0.00    -0.237 OA
ATOM     78  O   UNL A   1      42.886  19.431  24.815  1.00  0.00    -0.744 OA
ENDBRANCH  74  75
ENDBRANCH  46  69
BRANCH  58  79
ATOM     79  C   UNL A   1      48.041  27.071  30.602  1.00  0.00    -0.014 A 
ATOM     80  C   UNL A   1      49.073  27.309  29.680  1.00  0.00     0.010 A 
ATOM     81  C   UNL A   1      48.355  26.509  31.854  1.00  0.00     0.010 A 
ATOM     82  C   UNL A   1      50.391  26.966  29.992  1.00  0.00     0.020 A 
ATOM     83  C   UNL A   1      49.675  26.193  32.181  1.00  0.00     0.020 A 
ATOM     84  C   UNL A   1      50.685  26.413  31.243  1.00  0.00     0.054 A 
BRANCH  84  85
ATOM     85  S   UNL A   1      52.411  26.027  31.644  1.00  0.00     0.124 S 
ATOM     86  O   UNL A   1      53.061  26.157  30.343  1.00  0.00    -0.237 OA
ATOM     87  O   UNL A   1      52.749  27.056  32.623  1.00  0.00    -0.237 OA
ATOM     88  O   UNL A   1      52.348  24.667  32.175  1.00  0.00    -0.744 OA
ENDBRANCH  84  85
ENDBRANCH  58  79
ENDBRANCH  32  33
ENDBRANCH  24  27
ENDBRANCH   1  23
TORSDOF 15
ENDMDL
MODEL 2
REMARK VINA RESULT:     -11.1      0.947      1.709
REMARK SMILES CC[C@H](C(=O)NCCCNC(=O)c1ccc(-c2c3nc(c(-c4ccc(S(=O)(=O)[O-])cc4)c4ccc([nH]4)c(-c4ccc(S(=O)(=O)[O-])cc4)c4nc(c(-c5ccc(S(=O)(=O)[O-])cc5)c5ccc2[nH]5)C=C4)C=C3)cc1)C1=CCCc2c(C)ccc(C)c21
REMARK SMILES IDX 9 1 8 2 7 3 6 4 4 5 5 6 3 8 2 9 1 10 73 11 74 12 84 13 75 14
REMARK SMILES IDX 77 15 82 16 76 17 78 18 81 19 83 20 79 21 80 22 10 23 11 24
REMARK SMILES IDX 12 26 13 27 14 28 72 29 15 30 71 31 16 32 17 33 18 34 65 35
REMARK SMILES IDX 19 36 70 37 64 38 66 39 20 40 69 41 63 42 62 43 21 45 51 46
REMARK SMILES IDX 32 47 50 48 33 49 36 50 49 51 67 52 34 53 35 54 48 56 68 57
REMARK SMILES IDX 37 58 22 59 23 60 31 61 24 62 30 63 25 64 26 65 27 66 28 67
REMARK SMILES IDX 29 68 52 69 53 70 61 71 54 72 60 73 55 74 56 75 57 76 58 77
REMARK SMILES IDX 59 78 38 79 39 80 47 81 40 82 46 83 41 84 42 85 43 86 44 87
REMARK SMILES IDX 45 88
REMARK H PARENT 6 7 10 25 66 44 36 55
REMARK Flexibility Score: inf
ROOT
ATOM      1  C   UNL A   1      33.215  28.585  27.391  1.00  0.00     0.118 C 
ENDROOT
BRANCH   1   2
ATOM      2  C   UNL A   1      32.957  28.262  25.934  1.00  0.00     0.042 C 
BRANCH   2   3
ATOM      3  C   UNL A   1      31.512  28.003  25.547  1.00  0.00     0.117 C 
BRANCH   3   4
ATOM      4  N   UNL A   1      31.119  28.115  24.145  1.00  0.00    -0.356 N 
ATOM      5  C   UNL A   1      31.259  27.247  23.073  1.00  0.00     0.227 C 
ATOM      6  O   UNL A   1      30.504  27.469  22.119  1.00  0.00    -0.274 OA
ATOM      7  H   UNL A   1      30.670  28.963  23.920  1.00  0.00     0.163 HD
BRANCH   5   8
ATOM      8  C   UNL A   1      32.401  26.167  22.960  1.00  0.00     0.108 C 
BRANCH   8   9
ATOM      9  C   UNL A   1      33.833  26.748  22.632  1.00  0.00     0.015 C 
ATOM     10  C   UNL A   1      33.921  28.238  22.277  1.00  0.00     0.005 C 
ENDBRANCH   8   9
BRANCH   8  11
ATOM     11  C   UNL A   1      32.513  24.987  24.004  1.00  0.00    -0.032 C 
ATOM     12  C   UNL A   1      31.328  24.409  24.362  1.00  0.00    -0.022 C 
ATOM     13  C   UNL A   1      33.672  23.948  24.244  1.00  0.00    -0.016 A 
ATOM     14  C   UNL A   1      30.914  23.247  23.425  1.00  0.00     0.032 C 
ATOM     15  C   UNL A   1      33.168  22.641  23.898  1.00  0.00    -0.037 A 
ATOM     16  C   UNL A   1      34.429  23.999  25.440  1.00  0.00    -0.043 A 
ATOM     17  C   UNL A   1      32.165  22.659  22.753  1.00  0.00     0.040 C 
ATOM     18  C   UNL A   1      33.072  21.607  24.875  1.00  0.00    -0.047 A 
ATOM     19  C   UNL A   1      34.243  23.017  26.441  1.00  0.00     0.004 A 
ATOM     20  C   UNL A   1      35.824  24.593  25.471  1.00  0.00     0.045 C 
ATOM     21  C   UNL A   1      32.199  20.394  24.682  1.00  0.00     0.044 C 
ATOM     22  C   UNL A   1      33.543  21.852  26.167  1.00  0.00     0.004 A 
ENDBRANCH   8  11
ENDBRANCH   5   8
ENDBRANCH   3   4
ENDBRANCH   2   3
ENDBRANCH   1   2
BRANCH   1  23
ATOM     23  N   UNL A   1      33.323  30.009  27.695  1.00  0.00    -0.352 N 
ATOM     24  C   UNL A   1      34.411  30.745  28.116  1.00  0.00     0.251 C 
ATOM     25  H   UNL A   1      32.492  30.523  27.579  1.00  0.00     0.163 HD
ATOM     26  O   UNL A   1      34.273  31.944  28.360  1.00  0.00    -0.269 OA
BRANCH  24  27
ATOM     27  C   UNL A   1      35.728  30.097  28.330  1.00  0.00     0.039 A 
ATOM     28  C   UNL A   1      36.656  30.069  27.282  1.00  0.00     0.014 A 
ATOM     29  C   UNL A   1      36.076  29.559  29.568  1.00  0.00     0.014 A 
ATOM     30  C   UNL A   1      37.956  29.610  27.515  1.00  0.00     0.010 A 
ATOM     31  C   UNL A   1      37.397  29.215  29.829  1.00  0.00     0.010 A 
ATOM     32  C   UNL A   1      38.357  29.237  28.808  1.00  0.00    -0.014 A 
BRANCH  32  33
ATOM     33  C   UNL A   1      39.765  28.874  29.126  1.00  0.00     0.031 A 
ATOM     34  C   UNL A   1      40.688  29.899  29.730  1.00  0.00     0.074 A 
ATOM     35  C   UNL A   1      40.239  27.657  28.787  1.00  0.00     0.049 A 
ATOM     36  N   UNL A   1      41.970  29.810  29.981  1.00  0.00    -0.248 NA
ATOM     37  C   UNL A   1      40.104  31.209  30.066  1.00  0.00     0.031 C 
ATOM     38  C   UNL A   1      39.466  26.588  28.151  1.00  0.00     0.029 A 
ATOM     39  N   UNL A   1      41.496  27.117  28.920  1.00  0.00    -0.354 N 
ATOM     40  C   UNL A   1      42.347  31.053  30.477  1.00  0.00     0.074 A 
ATOM     41  C   UNL A   1      41.173  31.896  30.438  1.00  0.00     0.031 C 
ATOM     42  C   UNL A   1      40.254  25.515  27.978  1.00  0.00     0.029 A 
ATOM     43  C   UNL A   1      41.600  25.831  28.441  1.00  0.00     0.049 A 
ATOM     44  H   UNL A   1      42.251  27.604  29.322  1.00  0.00     0.167 HD
ATOM     45  C   UNL A   1      43.553  31.452  30.943  1.00  0.00     0.031 A 
ATOM     46  C   UNL A   1      42.660  25.001  28.371  1.00  0.00     0.031 A 
ATOM     47  C   UNL A   1      44.715  30.606  31.000  1.00  0.00     0.049 A 
ATOM     48  C   UNL A   1      43.993  25.469  28.890  1.00  0.00     0.074 A 
ATOM     49  C   UNL A   1      45.965  30.897  31.515  1.00  0.00     0.029 A 
ATOM     50  N   UNL A   1      44.771  29.304  30.523  1.00  0.00    -0.354 N 
ATOM     51  N   UNL A   1      44.310  26.626  29.420  1.00  0.00    -0.248 NA
ATOM     52  C   UNL A   1      45.109  24.515  28.812  1.00  0.00     0.031 C 
ATOM     53  C   UNL A   1      46.794  29.792  31.299  1.00  0.00     0.029 A 
ATOM     54  C   UNL A   1      46.041  28.788  30.709  1.00  0.00     0.049 A 
ATOM     55  H   UNL A   1      44.018  28.820  30.114  1.00  0.00     0.167 HD
ATOM     56  C   UNL A   1      45.654  26.528  29.766  1.00  0.00     0.074 A 
ATOM     57  C   UNL A   1      46.085  25.196  29.398  1.00  0.00     0.031 C 
ATOM     58  C   UNL A   1      46.457  27.458  30.340  1.00  0.00     0.031 A 
BRANCH  45  59
ATOM     59  C   UNL A   1      43.679  32.873  31.429  1.00  0.00    -0.014 A 
ATOM     60  C   UNL A   1      43.589  33.186  32.799  1.00  0.00     0.010 A 
ATOM     61  C   UNL A   1      43.934  33.907  30.509  1.00  0.00     0.010 A 
ATOM     62  C   UNL A   1      43.707  34.509  33.232  1.00  0.00     0.020 A 
ATOM     63  C   UNL A   1      44.085  35.227  30.943  1.00  0.00     0.020 A 
ATOM     64  C   UNL A   1      43.953  35.522  32.301  1.00  0.00     0.054 A 
BRANCH  64  65
ATOM     65  S   UNL A   1      44.129  37.225  32.898  1.00  0.00     0.124 S 
ATOM     66  O   UNL A   1      45.377  37.151  33.654  1.00  0.00    -0.237 OA
ATOM     67  O   UNL A   1      44.190  37.994  31.658  1.00  0.00    -0.237 OA
ATOM     68  O   UNL A   1      42.927  37.437  33.701  1.00  0.00    -0.744 OA
ENDBRANCH  64  65
ENDBRANCH  45  59
BRANCH  46  69
ATOM     69  C   UNL A   1      42.502  23.637  27.794  1.00  0.00    -0.014 A 
ATOM     70  C   UNL A   1      42.619  23.430  26.407  1.00  0.00     0.010 A 
ATOM     71  C   UNL A   1      42.242  22.534  28.628  1.00  0.00     0.010 A 
ATOM     72  C   UNL A   1      42.463  22.150  25.865  1.00  0.00     0.020 A 
ATOM     73  C   UNL A   1      42.116  21.248  28.093  1.00  0.00     0.020 A 
ATOM     74  C   UNL A   1      42.216  21.067  26.713  1.00  0.00     0.054 A 
BRANCH  74  75
ATOM     75  S   UNL A   1      42.069  19.408  25.991  1.00  0.00     0.124 S 
ATOM     76  O   UNL A   1      40.633  19.308  25.749  1.00  0.00    -0.237 OA
ATOM     77  O   UNL A   1      42.908  19.508  24.800  1.00  0.00    -0.237 OA
ATOM     78  O   UNL A   1      42.591  18.533  27.039  1.00  0.00    -0.744 OA
ENDBRANCH  74  75
ENDBRANCH  46  69
BRANCH  58  79
ATOM     79  C   UNL A   1      47.878  27.061  30.644  1.00  0.00    -0.014 A 
ATOM     80  C   UNL A   1      48.912  27.275  29.718  1.00  0.00     0.010 A 
ATOM     81  C   UNL A   1      48.188  26.527  31.909  1.00  0.00     0.010 A 
ATOM     82  C   UNL A   1      50.229  26.935  30.040  1.00  0.00     0.020 A 
ATOM     83  C   UNL A   1      49.508  26.214  32.246  1.00  0.00     0.020 A 
ATOM     84  C   UNL A   1      50.519  26.409  31.304  1.00  0.00     0.054 A 
BRANCH  84  85
ATOM     85  S   UNL A   1      52.243  26.027  31.715  1.00  0.00     0.124 S 
ATOM     86  O   UNL A   1      52.504  26.949  32.817  1.00  0.00    -0.237 OA
ATOM     87  O   UNL A   1      52.179  24.614  32.079  1.00  0.00    -0.237 OA
ATOM     88  O   UNL A   1      52.966  26.314  30.479  1.00  0.00    -0.744 OA
ENDBRANCH  84  85
ENDBRANCH  58  79
ENDBRANCH  32  33
ENDBRANCH  24  27
ENDBRANCH   1  23
TORSDOF 15
ENDMDL
MODEL 3
REMARK VINA RESULT:     -11.1      1.169      2.090
REMARK SMILES CC[C@H](C(=O)NCCCNC(=O)c1ccc(-c2c3nc(c(-c4ccc(S(=O)(=O)[O-])cc4)c4ccc([nH]4)c(-c4ccc(S(=O)(=O)[O-])cc4)c4nc(c(-c5ccc(S(=O)(=O)[O-])cc5)c5ccc2[nH]5)C=C4)C=C3)cc1)C1=CCCc2c(C)ccc(C)c21
REMARK SMILES IDX 9 1 8 2 7 3 6 4 4 5 5 6 3 8 2 9 1 10 73 11 74 12 84 13 75 14
REMARK SMILES IDX 77 15 82 16 76 17 78 18 81 19 83 20 79 21 80 22 10 23 11 24
REMARK SMILES IDX 12 26 13 27 14 28 72 29 15 30 71 31 16 32 17 33 18 34 65 35
REMARK SMILES IDX 19 36 70 37 64 38 66 39 20 40 69 41 63 42 62 43 21 45 51 46
REMARK SMILES IDX 32 47 50 48 33 49 36 50 49 51 67 52 34 53 35 54 48 56 68 57
REMARK SMILES IDX 37 58 22 59 23 60 31 61 24 62 30 63 25 64 26 65 27 66 28 67
REMARK SMILES IDX 29 68 52 69 53 70 61 71 54 72 60 73 55 74 56 75 57 76 58 77
REMARK SMILES IDX 59 78 38 79 39 80 47 81 40 82 46 83 41 84 42 85 43 86 44 87
REMARK SMILES IDX 45 88
REMARK H PARENT 6 7 10 25 66 44 36 55
REMARK Flexibility Score: inf
ROOT
ATOM      1  C   UNL A   1      33.180  28.654  27.309  1.00  0.00     0.118 C 
ENDROOT
BRANCH   1   2
ATOM      2  C   UNL A   1      31.757  28.134  27.280  1.00  0.00     0.042 C 
BRANCH   2   3
ATOM      3  C   UNL A   1      31.467  27.020  26.290  1.00  0.00     0.117 C 
BRANCH   3   4
ATOM      4  N   UNL A   1      30.656  25.883  26.715  1.00  0.00    -0.356 N 
ATOM      5  C   UNL A   1      30.620  24.564  26.291  1.00  0.00     0.227 C 
ATOM      6  O   UNL A   1      30.100  23.773  27.087  1.00  0.00    -0.274 OA
ATOM      7  H   UNL A   1      30.017  26.091  27.435  1.00  0.00     0.163 HD
BRANCH   5   8
ATOM      8  C   UNL A   1      31.031  24.093  24.844  1.00  0.00     0.108 C 
BRANCH   8   9
ATOM      9  C   UNL A   1      30.614  25.079  23.683  1.00  0.00     0.015 C 
ATOM     10  C   UNL A   1      29.285  25.830  23.844  1.00  0.00     0.005 C 
ENDBRANCH   8   9
BRANCH   8  11
ATOM     11  C   UNL A   1      32.460  23.484  24.560  1.00  0.00    -0.032 C 
ATOM     12  C   UNL A   1      33.281  24.255  23.787  1.00  0.00    -0.022 C 
ATOM     13  C   UNL A   1      33.351  22.527  25.439  1.00  0.00    -0.016 A 
ATOM     14  C   UNL A   1      34.117  25.265  24.612  1.00  0.00     0.032 C 
ATOM     15  C   UNL A   1      34.528  23.261  25.832  1.00  0.00    -0.037 A 
ATOM     16  C   UNL A   1      33.591  21.198  25.012  1.00  0.00    -0.043 A 
ATOM     17  C   UNL A   1      34.275  24.747  26.051  1.00  0.00     0.040 C 
ATOM     18  C   UNL A   1      35.828  22.844  25.422  1.00  0.00    -0.047 A 
ATOM     19  C   UNL A   1      34.863  20.830  24.512  1.00  0.00     0.004 A 
ATOM     20  C   UNL A   1      32.854  20.022  25.625  1.00  0.00     0.045 C 
ATOM     21  C   UNL A   1      37.019  23.767  25.451  1.00  0.00     0.044 C 
ATOM     22  C   UNL A   1      35.958  21.662  24.688  1.00  0.00     0.004 A 
ENDBRANCH   8  11
ENDBRANCH   5   8
ENDBRANCH   3   4
ENDBRANCH   2   3
ENDBRANCH   1   2
BRANCH   1  23
ATOM     23  N   UNL A   1      33.303  30.092  27.534  1.00  0.00    -0.352 N 
ATOM     24  C   UNL A   1      34.390  30.834  27.947  1.00  0.00     0.251 C 
ATOM     25  H   UNL A   1      32.484  30.611  27.363  1.00  0.00     0.163 HD
ATOM     26  O   UNL A   1      34.264  32.047  28.117  1.00  0.00    -0.269 OA
BRANCH  24  27
ATOM     27  C   UNL A   1      35.688  30.180  28.239  1.00  0.00     0.039 A 
ATOM     28  C   UNL A   1      36.684  30.163  27.256  1.00  0.00     0.014 A 
ATOM     29  C   UNL A   1      35.951  29.623  29.490  1.00  0.00     0.014 A 
ATOM     30  C   UNL A   1      37.965  29.697  27.568  1.00  0.00     0.010 A 
ATOM     31  C   UNL A   1      37.252  29.272  29.835  1.00  0.00     0.010 A 
ATOM     32  C   UNL A   1      38.277  29.305  28.879  1.00  0.00    -0.014 A 
BRANCH  32  33
ATOM     33  C   UNL A   1      39.660  28.934  29.287  1.00  0.00     0.031 A 
ATOM     34  C   UNL A   1      40.535  29.941  29.985  1.00  0.00     0.074 A 
ATOM     35  C   UNL A   1      40.161  27.728  28.945  1.00  0.00     0.049 A 
ATOM     36  N   UNL A   1      41.796  29.844  30.324  1.00  0.00    -0.248 NA
ATOM     37  C   UNL A   1      39.925  31.239  30.318  1.00  0.00     0.031 C 
ATOM     38  C   UNL A   1      39.438  26.678  28.223  1.00  0.00     0.029 A 
ATOM     39  N   UNL A   1      41.406  27.185  29.151  1.00  0.00    -0.354 N 
ATOM     40  C   UNL A   1      42.133  31.072  30.882  1.00  0.00     0.074 A 
ATOM     41  C   UNL A   1      40.963  31.916  30.786  1.00  0.00     0.031 C 
ATOM     42  C   UNL A   1      40.239  25.612  28.074  1.00  0.00     0.029 A 
ATOM     43  C   UNL A   1      41.548  25.915  28.641  1.00  0.00     0.049 A 
ATOM     44  H   UNL A   1      42.130  27.660  29.620  1.00  0.00     0.167 HD
ATOM     45  C   UNL A   1      43.302  31.458  31.446  1.00  0.00     0.031 A 
ATOM     46  C   UNL A   1      42.613  25.088  28.622  1.00  0.00     0.031 A 
ATOM     47  C   UNL A   1      44.460  30.611  31.559  1.00  0.00     0.049 A 
ATOM     48  C   UNL A   1      43.904  25.541  29.248  1.00  0.00     0.074 A 
ATOM     49  C   UNL A   1      45.669  30.887  32.171  1.00  0.00     0.029 A 
ATOM     50  N   UNL A   1      44.553  29.325  31.048  1.00  0.00    -0.354 N 
ATOM     51  N   UNL A   1      44.180  26.681  29.835  1.00  0.00    -0.248 NA
ATOM     52  C   UNL A   1      45.026  24.591  29.221  1.00  0.00     0.031 C 
ATOM     53  C   UNL A   1      46.514  29.790  31.981  1.00  0.00     0.029 A 
ATOM     54  C   UNL A   1      45.809  28.804  31.309  1.00  0.00     0.049 A 
ATOM     55  H   UNL A   1      43.832  28.853  30.572  1.00  0.00     0.167 HD
ATOM     56  C   UNL A   1      45.496  26.574  30.272  1.00  0.00     0.074 A 
ATOM     57  C   UNL A   1      45.956  25.253  29.895  1.00  0.00     0.031 C 
ATOM     58  C   UNL A   1      46.253  27.486  30.929  1.00  0.00     0.031 A 
BRANCH  45  59
ATOM     59  C   UNL A   1      43.389  32.864  31.982  1.00  0.00    -0.014 A 
ATOM     60  C   UNL A   1      43.819  33.930  31.170  1.00  0.00     0.010 A 
ATOM     61  C   UNL A   1      42.992  33.132  33.306  1.00  0.00     0.010 A 
ATOM     62  C   UNL A   1      43.893  35.226  31.683  1.00  0.00     0.020 A 
ATOM     63  C   UNL A   1      43.034  34.434  33.813  1.00  0.00     0.020 A 
ATOM     64  C   UNL A   1      43.501  35.471  33.003  1.00  0.00     0.054 A 
BRANCH  64  65
ATOM     65  S   UNL A   1      43.583  37.169  33.631  1.00  0.00     0.124 S 
ATOM     66  O   UNL A   1      44.747  37.109  34.511  1.00  0.00    -0.237 OA
ATOM     67  O   UNL A   1      43.757  37.953  32.411  1.00  0.00    -0.237 OA
ATOM     68  O   UNL A   1      42.301  37.351  34.307  1.00  0.00    -0.744 OA
ENDBRANCH  64  65
ENDBRANCH  45  59
BRANCH  46  69
ATOM     69  C   UNL A   1      42.500  23.742  27.994  1.00  0.00    -0.014 A 
ATOM     70  C   UNL A   1      42.942  23.529  26.675  1.00  0.00     0.010 A 
ATOM     71  C   UNL A   1      41.959  22.660  28.713  1.00  0.00     0.010 A 
ATOM     72  C   UNL A   1      42.829  22.267  26.083  1.00  0.00     0.020 A 
ATOM     73  C   UNL A   1      41.872  21.390  28.136  1.00  0.00     0.020 A 
ATOM     74  C   UNL A   1      42.297  21.204  26.820  1.00  0.00     0.054 A 
BRANCH  74  75
ATOM     75  S   UNL A   1      42.209  19.564  26.048  1.00  0.00     0.124 S 
ATOM     76  O   UNL A   1      40.783  19.440  25.760  1.00  0.00    -0.237 OA
ATOM     77  O   UNL A   1      43.080  19.716  24.886  1.00  0.00    -0.237 OA
ATOM     78  O   UNL A   1      42.719  18.671  27.086  1.00  0.00    -0.744 OA
ENDBRANCH  74  75
ENDBRANCH  46  69
BRANCH  58  79
ATOM     79  C   UNL A   1      47.650  27.081  31.322  1.00  0.00    -0.014 A 
ATOM     80  C   UNL A   1      47.921  26.511  32.576  1.00  0.00     0.010 A 
ATOM     81  C   UNL A   1      48.694  27.215  30.388  1.00  0.00     0.010 A 
ATOM     82  C   UNL A   1      49.218  26.106  32.902  1.00  0.00     0.020 A 
ATOM     83  C   UNL A   1      49.987  26.784  30.699  1.00  0.00     0.020 A 
ATOM     84  C   UNL A   1      50.243  26.243  31.959  1.00  0.00     0.054 A 
BRANCH  84  85
ATOM     85  S   UNL A   1      51.906  25.660  32.388  1.00  0.00     0.124 S 
ATOM     86  O   UNL A   1      51.927  25.839  33.836  1.00  0.00    -0.237 OA
ATOM     87  O   UNL A   1      51.888  24.274  31.925  1.00  0.00    -0.237 OA
ATOM     88  O   UNL A   1      52.789  26.550  31.637  1.00  0.00    -0.744 OA
ENDBRANCH  84  85
ENDBRANCH  58  79
ENDBRANCH  32  33
ENDBRANCH  24  27
ENDBRANCH   1  23
TORSDOF 15
ENDMDL
