MODEL 1
REMARK VINA RESULT:     -11.7      0.000      0.000
REMARK SMILES CC[C@H]1CC(=O)N(CCn2cc(C(=O)NCCCNC(=O)c3ccc(-c4c5nc(c(-c6ccc(S(=O)(=O)[O-])cc6)c6ccc([nH]6)c(-c6ccc(S(=O)(=O)[O-])cc6)c6nc(c(-c7ccc(S(=O)(=O)[O-])cc7)c7ccc4[nH]7)C=C6)C=C5)cc3)nn2)C1
REMARK SMILES IDX 16 1 15 2 13 3 14 4 12 6 10 7 11 8 83 9 82 10 9 11 8 12 7 13
REMARK SMILES IDX 3 14 4 15 84 16 5 17 6 18 2 19 1 20 17 21 18 22 19 23 20 24
REMARK SMILES IDX 21 26 22 27 23 28 81 29 24 30 80 31 25 32 26 33 27 34 74 35
REMARK SMILES IDX 28 36 79 37 73 38 75 39 29 40 78 41 72 42 71 43 30 45 60 46
REMARK SMILES IDX 41 47 59 48 42 49 45 50 58 51 76 52 43 53 44 54 57 56 77 57
REMARK SMILES IDX 46 58 31 59 32 60 40 61 33 62 39 63 34 64 35 65 36 66 37 67
REMARK SMILES IDX 38 68 61 69 62 70 70 71 63 72 69 73 64 74 65 75 66 76 67 77
REMARK SMILES IDX 68 78 47 79 48 80 56 81 49 82 55 83 50 84 51 85 52 86 53 87
REMARK SMILES IDX 54 88
REMARK H PARENT 15 5 19 25 75 44 45 55
REMARK Flexibility Score: inf
ROOT
ATOM      1  C   UNL A   1      35.702  21.484  25.847  1.00  0.00     0.118 C 
ENDROOT
BRANCH   1   2
ATOM      2  N   UNL A   1      34.750  20.480  25.422  1.00  0.00    -0.351 N 
ATOM      3  C   UNL A   1      33.394  20.648  25.190  1.00  0.00     0.273 C 
ATOM      4  O   UNL A   1      32.824  19.819  24.488  1.00  0.00    -0.267 OA
ATOM      5  H   UNL A   1      35.107  19.573  25.283  1.00  0.00     0.163 HD
BRANCH   3   6
ATOM      6  C   UNL A   1      32.711  21.827  25.725  1.00  0.00     0.170 A 
ATOM      7  N   UNL A   1      31.347  23.466  26.130  1.00  0.00    -0.250 N 
ATOM      8  C   UNL A   1      31.839  22.708  25.107  1.00  0.00     0.145 A 
ATOM      9  N   UNL A   1      32.017  23.222  27.269  1.00  0.00    -0.067 NA
ATOM     10  N   UNL A   1      32.852  22.218  27.036  1.00  0.00    -0.125 NA
BRANCH   7  11
ATOM     11  C   UNL A   1      30.223  24.382  26.155  1.00  0.00     0.167 C 
BRANCH  11  12
ATOM     12  C   UNL A   1      30.550  25.887  26.179  1.00  0.00     0.143 C 
BRANCH  12  13
ATOM     13  N   UNL A   1      30.745  26.531  24.877  1.00  0.00    -0.341 N 
ATOM     14  C   UNL A   1      31.689  28.096  23.377  1.00  0.00     0.017 C 
ATOM     15  C   UNL A   1      30.407  27.522  22.775  1.00  0.00     0.105 C 
ATOM     16  C   UNL A   1      31.982  27.156  24.529  1.00  0.00     0.123 C 
ATOM     17  C   UNL A   1      29.759  26.796  23.941  1.00  0.00     0.222 C 
ATOM     18  O   UNL A   1      28.585  26.483  24.018  1.00  0.00    -0.275 OA
BRANCH  14  19
ATOM     19  C   UNL A   1      32.839  28.321  22.382  1.00  0.00     0.002 C 
ATOM     20  C   UNL A   1      34.179  28.739  22.975  1.00  0.00     0.004 C 
ENDBRANCH  14  19
ENDBRANCH  12  13
ENDBRANCH  11  12
ENDBRANCH   7  11
ENDBRANCH   3   6
ENDBRANCH   1   2
BRANCH   1  21
ATOM     21  C   UNL A   1      36.533  22.081  24.704  1.00  0.00     0.042 C 
BRANCH  21  22
ATOM     22  C   UNL A   1      37.815  22.708  25.223  1.00  0.00     0.118 C 
BRANCH  22  23
ATOM     23  N   UNL A   1      38.582  21.807  26.106  1.00  0.00    -0.352 N 
ATOM     24  C   UNL A   1      39.691  22.112  26.897  1.00  0.00     0.251 C 
ATOM     25  H   UNL A   1      38.272  20.874  26.143  1.00  0.00     0.163 HD
ATOM     26  O   UNL A   1      40.438  21.244  27.300  1.00  0.00    -0.269 OA
BRANCH  24  27
ATOM     27  C   UNL A   1      39.902  23.531  27.240  1.00  0.00     0.039 A 
ATOM     28  C   UNL A   1      38.884  24.491  27.285  1.00  0.00     0.014 A 
ATOM     29  C   UNL A   1      41.187  23.841  27.645  1.00  0.00     0.014 A 
ATOM     30  C   UNL A   1      39.181  25.742  27.833  1.00  0.00     0.010 A 
ATOM     31  C   UNL A   1      41.364  24.902  28.469  1.00  0.00     0.010 A 
ATOM     32  C   UNL A   1      40.430  25.925  28.440  1.00  0.00    -0.014 A 
BRANCH  32  33
ATOM     33  C   UNL A   1      40.851  27.139  29.123  1.00  0.00     0.031 A 
ATOM     34  C   UNL A   1      41.955  27.875  28.450  1.00  0.00     0.074 A 
ATOM     35  C   UNL A   1      40.047  27.700  30.060  1.00  0.00     0.049 A 
ATOM     36  N   UNL A   1      43.151  28.085  28.887  1.00  0.00    -0.248 NA
ATOM     37  C   UNL A   1      41.755  28.297  27.050  1.00  0.00     0.031 C 
ATOM     38  C   UNL A   1      38.721  27.246  30.523  1.00  0.00     0.029 A 
ATOM     39  N   UNL A   1      40.163  28.896  30.688  1.00  0.00    -0.354 N 
ATOM     40  C   UNL A   1      43.781  28.865  27.920  1.00  0.00     0.074 A 
ATOM     41  C   UNL A   1      42.963  28.771  26.739  1.00  0.00     0.031 C 
ATOM     42  C   UNL A   1      38.071  28.263  31.131  1.00  0.00     0.029 A 
ATOM     43  C   UNL A   1      38.990  29.374  31.272  1.00  0.00     0.049 A 
ATOM     44  H   UNL A   1      41.013  29.390  30.730  1.00  0.00     0.167 HD
ATOM     45  C   UNL A   1      44.782  29.734  28.241  1.00  0.00     0.031 A 
ATOM     46  C   UNL A   1      38.788  30.608  31.806  1.00  0.00     0.031 A 
ATOM     47  C   UNL A   1      45.239  29.522  29.592  1.00  0.00     0.049 A 
ATOM     48  C   UNL A   1      40.136  31.187  32.042  1.00  0.00     0.074 A 
ATOM     49  C   UNL A   1      45.826  28.469  30.264  1.00  0.00     0.029 A 
ATOM     50  N   UNL A   1      44.703  30.342  30.560  1.00  0.00    -0.354 N 
ATOM     51  N   UNL A   1      40.994  30.680  32.885  1.00  0.00    -0.248 NA
ATOM     52  C   UNL A   1      40.712  32.002  30.983  1.00  0.00     0.031 C 
ATOM     53  C   UNL A   1      45.193  28.456  31.541  1.00  0.00     0.029 A 
ATOM     54  C   UNL A   1      44.329  29.552  31.618  1.00  0.00     0.049 A 
ATOM     55  H   UNL A   1      44.605  31.319  30.503  1.00  0.00     0.167 HD
ATOM     56  C   UNL A   1      42.217  30.741  32.232  1.00  0.00     0.074 A 
ATOM     57  C   UNL A   1      41.995  31.641  31.098  1.00  0.00     0.031 C 
ATOM     58  C   UNL A   1      43.209  29.835  32.493  1.00  0.00     0.031 A 
BRANCH  45  59
ATOM     59  C   UNL A   1      45.076  31.018  27.501  1.00  0.00    -0.014 A 
ATOM     60  C   UNL A   1      46.371  31.213  26.978  1.00  0.00     0.010 A 
ATOM     61  C   UNL A   1      44.224  32.141  27.520  1.00  0.00     0.010 A 
ATOM     62  C   UNL A   1      46.814  32.480  26.573  1.00  0.00     0.020 A 
ATOM     63  C   UNL A   1      44.640  33.400  27.079  1.00  0.00     0.020 A 
ATOM     64  C   UNL A   1      45.946  33.569  26.643  1.00  0.00     0.054 A 
BRANCH  64  65
ATOM     65  S   UNL A   1      46.559  35.218  26.225  1.00  0.00     0.124 S 
ATOM     66  O   UNL A   1      45.396  36.052  26.507  1.00  0.00    -0.237 OA
ATOM     67  O   UNL A   1      47.688  35.370  27.140  1.00  0.00    -0.237 OA
ATOM     68  O   UNL A   1      46.919  35.101  24.813  1.00  0.00    -0.744 OA
ENDBRANCH  64  65
ENDBRANCH  45  59
BRANCH  46  69
ATOM     69  C   UNL A   1      37.544  31.425  31.819  1.00  0.00    -0.014 A 
ATOM     70  C   UNL A   1      36.824  31.659  33.006  1.00  0.00     0.010 A 
ATOM     71  C   UNL A   1      37.216  32.214  30.695  1.00  0.00     0.010 A 
ATOM     72  C   UNL A   1      35.848  32.673  33.080  1.00  0.00     0.020 A 
ATOM     73  C   UNL A   1      36.246  33.226  30.761  1.00  0.00     0.020 A 
ATOM     74  C   UNL A   1      35.578  33.464  31.960  1.00  0.00     0.054 A 
BRANCH  74  75
ATOM     75  S   UNL A   1      34.436  34.876  32.108  1.00  0.00     0.124 S 
ATOM     76  O   UNL A   1      33.297  34.284  32.804  1.00  0.00    -0.237 OA
ATOM     77  O   UNL A   1      35.217  35.838  32.880  1.00  0.00    -0.237 OA
ATOM     78  O   UNL A   1      34.183  35.260  30.720  1.00  0.00    -0.744 OA
ENDBRANCH  74  75
ENDBRANCH  46  69
BRANCH  58  79
ATOM     79  C   UNL A   1      43.040  28.902  33.676  1.00  0.00    -0.014 A 
ATOM     80  C   UNL A   1      43.460  29.201  34.989  1.00  0.00     0.010 A 
ATOM     81  C   UNL A   1      42.268  27.746  33.473  1.00  0.00     0.010 A 
ATOM     82  C   UNL A   1      43.133  28.352  36.061  1.00  0.00     0.020 A 
ATOM     83  C   UNL A   1      41.923  26.908  34.536  1.00  0.00     0.020 A 
ATOM     84  C   UNL A   1      42.365  27.208  35.824  1.00  0.00     0.054 A 
BRANCH  84  85
ATOM     85  S   UNL A   1      41.910  26.127  37.211  1.00  0.00     0.124 S 
ATOM     86  O   UNL A   1      41.916  24.803  36.595  1.00  0.00    -0.237 OA
ATOM     87  O   UNL A   1      42.973  26.375  38.182  1.00  0.00    -0.237 OA
ATOM     88  O   UNL A   1      40.591  26.615  37.613  1.00  0.00    -0.744 OA
ENDBRANCH  84  85
ENDBRANCH  58  79
ENDBRANCH  32  33
ENDBRANCH  24  27
ENDBRANCH  22  23
ENDBRANCH  21  22
ENDBRANCH   1  21
TORSDOF 17
ENDMDL
MODEL 2
REMARK VINA RESULT:     -11.6      2.932      9.558
REMARK SMILES CC[C@H]1CC(=O)N(CCn2cc(C(=O)NCCCNC(=O)c3ccc(-c4c5nc(c(-c6ccc(S(=O)(=O)[O-])cc6)c6ccc([nH]6)c(-c6ccc(S(=O)(=O)[O-])cc6)c6nc(c(-c7ccc(S(=O)(=O)[O-])cc7)c7ccc4[nH]7)C=C6)C=C5)cc3)nn2)C1
REMARK SMILES IDX 16 1 15 2 13 3 14 4 12 6 10 7 11 8 83 9 82 10 9 11 8 12 7 13
REMARK SMILES IDX 3 14 4 15 84 16 5 17 6 18 2 19 1 20 17 21 18 22 19 23 20 24
REMARK SMILES IDX 21 26 22 27 23 28 81 29 24 30 80 31 25 32 26 33 27 34 74 35
REMARK SMILES IDX 28 36 79 37 73 38 75 39 29 40 78 41 72 42 71 43 30 45 60 46
REMARK SMILES IDX 41 47 59 48 42 49 45 50 58 51 76 52 43 53 44 54 57 56 77 57
REMARK SMILES IDX 46 58 31 59 32 60 40 61 33 62 39 63 34 64 35 65 36 66 37 67
REMARK SMILES IDX 38 68 61 69 62 70 70 71 63 72 69 73 64 74 65 75 66 76 67 77
REMARK SMILES IDX 68 78 47 79 48 80 56 81 49 82 55 83 50 84 51 85 52 86 53 87
REMARK SMILES IDX 54 88
REMARK H PARENT 15 5 19 25 75 44 45 55
REMARK Flexibility Score: inf
ROOT
ATOM      1  C   UNL A   1      31.922  28.700  25.430  1.00  0.00     0.118 C 
ENDROOT
BRANCH   1   2
ATOM      2  N   UNL A   1      31.490  29.338  24.205  1.00  0.00    -0.351 N 
ATOM      3  C   UNL A   1      31.429  28.779  22.939  1.00  0.00     0.273 C 
ATOM      4  O   UNL A   1      30.701  29.315  22.108  1.00  0.00    -0.267 OA
ATOM      5  H   UNL A   1      31.207  30.278  24.281  1.00  0.00     0.163 HD
BRANCH   3   6
ATOM      6  C   UNL A   1      32.170  27.549  22.656  1.00  0.00     0.170 A 
ATOM      7  N   UNL A   1      32.779  25.527  22.153  1.00  0.00    -0.250 N 
ATOM      8  C   UNL A   1      31.768  26.226  22.747  1.00  0.00     0.145 A 
ATOM      9  N   UNL A   1      33.829  26.328  21.902  1.00  0.00    -0.067 NA
ATOM     10  N   UNL A   1      33.468  27.568  22.201  1.00  0.00    -0.125 NA
BRANCH   7  11
ATOM     11  C   UNL A   1      32.829  24.143  21.725  1.00  0.00     0.167 C 
BRANCH  11  12
ATOM     12  C   UNL A   1      32.609  23.069  22.806  1.00  0.00     0.143 C 
BRANCH  12  13
ATOM     13  N   UNL A   1      33.502  23.122  23.967  1.00  0.00    -0.341 N 
ATOM     14  C   UNL A   1      35.207  22.330  25.401  1.00  0.00     0.017 C 
ATOM     15  C   UNL A   1      34.386  23.396  26.125  1.00  0.00     0.105 C 
ATOM     16  C   UNL A   1      34.783  22.490  23.954  1.00  0.00     0.123 C 
ATOM     17  C   UNL A   1      33.173  23.579  25.232  1.00  0.00     0.222 C 
ATOM     18  O   UNL A   1      32.110  24.068  25.570  1.00  0.00    -0.275 OA
BRANCH  14  19
ATOM     19  C   UNL A   1      36.721  22.371  25.667  1.00  0.00     0.002 C 
ATOM     20  C   UNL A   1      37.409  23.716  25.475  1.00  0.00     0.004 C 
ENDBRANCH  14  19
ENDBRANCH  12  13
ENDBRANCH  11  12
ENDBRANCH   7  11
ENDBRANCH   3   6
ENDBRANCH   1   2
BRANCH   1  21
ATOM     21  C   UNL A   1      33.430  28.809  25.693  1.00  0.00     0.042 C 
BRANCH  21  22
ATOM     22  C   UNL A   1      33.710  29.425  27.052  1.00  0.00     0.118 C 
BRANCH  22  23
ATOM     23  N   UNL A   1      33.973  30.876  26.984  1.00  0.00    -0.352 N 
ATOM     24  C   UNL A   1      34.964  31.605  27.645  1.00  0.00     0.251 C 
ATOM     25  H   UNL A   1      33.376  31.396  26.399  1.00  0.00     0.163 HD
ATOM     26  O   UNL A   1      34.873  32.807  27.790  1.00  0.00    -0.269 OA
BRANCH  24  27
ATOM     27  C   UNL A   1      36.134  30.855  28.138  1.00  0.00     0.039 A 
ATOM     28  C   UNL A   1      36.355  29.494  27.902  1.00  0.00     0.014 A 
ATOM     29  C   UNL A   1      37.091  31.630  28.766  1.00  0.00     0.014 A 
ATOM     30  C   UNL A   1      37.603  28.960  28.236  1.00  0.00     0.010 A 
ATOM     31  C   UNL A   1      38.375  31.196  28.762  1.00  0.00     0.010 A 
ATOM     32  C   UNL A   1      38.613  29.836  28.652  1.00  0.00    -0.014 A 
BRANCH  32  33
ATOM     33  C   UNL A   1      39.981  29.441  28.955  1.00  0.00     0.031 A 
ATOM     34  C   UNL A   1      40.278  29.307  30.406  1.00  0.00     0.074 A 
ATOM     35  C   UNL A   1      40.758  28.900  27.984  1.00  0.00     0.049 A 
ATOM     36  N   UNL A   1      41.095  30.008  31.117  1.00  0.00    -0.248 NA
ATOM     37  C   UNL A   1      39.450  28.381  31.201  1.00  0.00     0.031 C 
ATOM     38  C   UNL A   1      40.410  28.625  26.576  1.00  0.00     0.029 A 
ATOM     39  N   UNL A   1      41.980  28.322  28.083  1.00  0.00    -0.354 N 
ATOM     40  C   UNL A   1      41.058  29.460  32.398  1.00  0.00     0.074 A 
ATOM     41  C   UNL A   1      39.884  28.628  32.438  1.00  0.00     0.031 C 
ATOM     42  C   UNL A   1      41.271  27.722  26.056  1.00  0.00     0.029 A 
ATOM     43  C   UNL A   1      42.334  27.499  27.014  1.00  0.00     0.049 A 
ATOM     44  H   UNL A   1      42.574  28.472  28.853  1.00  0.00     0.167 HD
ATOM     45  C   UNL A   1      42.131  29.526  33.237  1.00  0.00     0.031 A 
ATOM     46  C   UNL A   1      43.412  26.673  26.942  1.00  0.00     0.031 A 
ATOM     47  C   UNL A   1      43.131  30.431  32.729  1.00  0.00     0.049 A 
ATOM     48  C   UNL A   1      44.354  27.122  27.999  1.00  0.00     0.074 A 
ATOM     49  C   UNL A   1      43.165  31.782  32.449  1.00  0.00     0.029 A 
ATOM     50  N   UNL A   1      44.171  29.868  32.023  1.00  0.00    -0.354 N 
ATOM     51  N   UNL A   1      44.928  28.294  27.995  1.00  0.00    -0.248 NA
ATOM     52  C   UNL A   1      44.253  26.484  29.303  1.00  0.00     0.031 C 
ATOM     53  C   UNL A   1      43.894  31.881  31.229  1.00  0.00     0.029 A 
ATOM     54  C   UNL A   1      44.349  30.605  30.880  1.00  0.00     0.049 A 
ATOM     55  H   UNL A   1      44.694  29.078  32.290  1.00  0.00     0.167 HD
ATOM     56  C   UNL A   1      44.867  28.728  29.312  1.00  0.00     0.074 A 
ATOM     57  C   UNL A   1      44.516  27.536  30.086  1.00  0.00     0.031 C 
ATOM     58  C   UNL A   1      44.814  30.060  29.619  1.00  0.00     0.031 A 
BRANCH  45  59
ATOM     59  C   UNL A   1      42.462  28.495  34.291  1.00  0.00    -0.014 A 
ATOM     60  C   UNL A   1      42.367  28.865  35.648  1.00  0.00     0.010 A 
ATOM     61  C   UNL A   1      43.105  27.272  34.011  1.00  0.00     0.010 A 
ATOM     62  C   UNL A   1      42.954  28.094  36.661  1.00  0.00     0.020 A 
ATOM     63  C   UNL A   1      43.656  26.473  35.016  1.00  0.00     0.020 A 
ATOM     64  C   UNL A   1      43.610  26.908  36.333  1.00  0.00     0.054 A 
BRANCH  64  65
ATOM     65  S   UNL A   1      44.460  25.978  37.629  1.00  0.00     0.124 S 
ATOM     66  O   UNL A   1      44.158  24.600  37.258  1.00  0.00    -0.237 OA
ATOM     67  O   UNL A   1      45.848  26.395  37.449  1.00  0.00    -0.237 OA
ATOM     68  O   UNL A   1      43.827  26.449  38.859  1.00  0.00    -0.744 OA
ENDBRANCH  64  65
ENDBRANCH  45  59
BRANCH  46  69
ATOM     69  C   UNL A   1      43.533  25.357  26.257  1.00  0.00    -0.014 A 
ATOM     70  C   UNL A   1      44.491  25.131  25.251  1.00  0.00     0.010 A 
ATOM     71  C   UNL A   1      42.880  24.228  26.796  1.00  0.00     0.010 A 
ATOM     72  C   UNL A   1      44.818  23.825  24.833  1.00  0.00     0.020 A 
ATOM     73  C   UNL A   1      43.200  22.924  26.387  1.00  0.00     0.020 A 
ATOM     74  C   UNL A   1      44.182  22.727  25.419  1.00  0.00     0.054 A 
BRANCH  74  75
ATOM     75  S   UNL A   1      44.724  21.040  24.994  1.00  0.00     0.124 S 
ATOM     76  O   UNL A   1      44.615  21.035  23.538  1.00  0.00    -0.237 OA
ATOM     77  O   UNL A   1      46.083  20.999  25.526  1.00  0.00    -0.237 OA
ATOM     78  O   UNL A   1      43.764  20.185  25.690  1.00  0.00    -0.744 OA
ENDBRANCH  74  75
ENDBRANCH  46  69
BRANCH  58  79
ATOM     79  C   UNL A   1      45.060  31.067  28.512  1.00  0.00    -0.014 A 
ATOM     80  C   UNL A   1      44.091  31.451  27.561  1.00  0.00     0.010 A 
ATOM     81  C   UNL A   1      46.271  31.776  28.550  1.00  0.00     0.010 A 
ATOM     82  C   UNL A   1      44.344  32.501  26.660  1.00  0.00     0.020 A 
ATOM     83  C   UNL A   1      46.521  32.833  27.672  1.00  0.00     0.020 A 
ATOM     84  C   UNL A   1      45.561  33.185  26.723  1.00  0.00     0.054 A 
BRANCH  84  85
ATOM     85  S   UNL A   1      45.878  34.565  25.586  1.00  0.00     0.124 S 
ATOM     86  O   UNL A   1      45.012  34.249  24.454  1.00  0.00    -0.237 OA
ATOM     87  O   UNL A   1      45.486  35.733  26.372  1.00  0.00    -0.237 OA
ATOM     88  O   UNL A   1      47.312  34.468  25.313  1.00  0.00    -0.744 OA
ENDBRANCH  84  85
ENDBRANCH  58  79
ENDBRANCH  32  33
ENDBRANCH  24  27
ENDBRANCH  22  23
ENDBRANCH  21  22
ENDBRANCH   1  21
TORSDOF 17
ENDMDL
MODEL 3
REMARK VINA RESULT:     -11.6      3.092      8.385
REMARK SMILES CC[C@H]1CC(=O)N(CCn2cc(C(=O)NCCCNC(=O)c3ccc(-c4c5nc(c(-c6ccc(S(=O)(=O)[O-])cc6)c6ccc([nH]6)c(-c6ccc(S(=O)(=O)[O-])cc6)c6nc(c(-c7ccc(S(=O)(=O)[O-])cc7)c7ccc4[nH]7)C=C6)C=C5)cc3)nn2)C1
REMARK SMILES IDX 16 1 15 2 13 3 14 4 12 6 10 7 11 8 83 9 82 10 9 11 8 12 7 13
REMARK SMILES IDX 3 14 4 15 84 16 5 17 6 18 2 19 1 20 17 21 18 22 19 23 20 24
REMARK SMILES IDX 21 26 22 27 23 28 81 29 24 30 80 31 25 32 26 33 27 34 74 35
REMARK SMILES IDX 28 36 79 37 73 38 75 39 29 40 78 41 72 42 71 43 30 45 60 46
REMARK SMILES IDX 41 47 59 48 42 49 45 50 58 51 76 52 43 53 44 54 57 56 77 57
REMARK SMILES IDX 46 58 31 59 32 60 40 61 33 62 39 63 34 64 35 65 36 66 37 67
REMARK SMILES IDX 38 68 61 69 62 70 70 71 63 72 69 73 64 74 65 75 66 76 67 77
REMARK SMILES IDX 68 78 47 79 48 80 56 81 49 82 55 83 50 84 51 85 52 86 53 87
REMARK SMILES IDX 54 88
REMARK H PARENT 15 5 19 25 75 44 45 55
REMARK Flexibility Score: inf
ROOT
ATOM      1  C   UNL A   1      31.969  30.334  26.026  1.00  0.00     0.118 C 
ENDROOT
BRANCH   1   2
ATOM      2  N   UNL A   1      31.342  29.990  24.768  1.00  0.00    -0.351 N 
ATOM      3  C   UNL A   1      31.038  28.723  24.295  1.00  0.00     0.273 C 
ATOM      4  O   UNL A   1      30.189  28.626  23.415  1.00  0.00    -0.267 OA
ATOM      5  H   UNL A   1      31.104  30.743  24.179  1.00  0.00     0.163 HD
BRANCH   3   6
ATOM      6  C   UNL A   1      31.681  27.555  24.899  1.00  0.00     0.170 A 
ATOM      7  N   UNL A   1      32.162  25.592  25.690  1.00  0.00    -0.250 N 
ATOM      8  C   UNL A   1      31.121  26.460  25.538  1.00  0.00     0.145 A 
ATOM      9  N   UNL A   1      33.326  26.181  25.366  1.00  0.00    -0.067 NA
ATOM     10  N   UNL A   1      33.045  27.381  24.876  1.00  0.00    -0.125 NA
BRANCH   7  11
ATOM     11  C   UNL A   1      32.161  24.191  26.063  1.00  0.00     0.167 C 
BRANCH  11  12
ATOM     12  C   UNL A   1      33.531  23.530  26.305  1.00  0.00     0.143 C 
BRANCH  12  13
ATOM     13  N   UNL A   1      33.732  22.210  25.703  1.00  0.00    -0.341 N 
ATOM     14  C   UNL A   1      33.302  19.906  25.391  1.00  0.00     0.017 C 
ATOM     15  C   UNL A   1      34.680  20.249  24.827  1.00  0.00     0.105 C 
ATOM     16  C   UNL A   1      32.664  21.266  25.598  1.00  0.00     0.123 C 
ATOM     17  C   UNL A   1      34.949  21.642  25.364  1.00  0.00     0.222 C 
ATOM     18  O   UNL A   1      36.043  22.170  25.453  1.00  0.00    -0.275 OA
BRANCH  14  19
ATOM     19  C   UNL A   1      32.485  18.899  24.565  1.00  0.00     0.002 C 
ATOM     20  C   UNL A   1      32.360  19.184  23.074  1.00  0.00     0.004 C 
ENDBRANCH  14  19
ENDBRANCH  12  13
ENDBRANCH  11  12
ENDBRANCH   7  11
ENDBRANCH   3   6
ENDBRANCH   1   2
BRANCH   1  21
ATOM     21  C   UNL A   1      31.536  31.694  26.589  1.00  0.00     0.042 C 
BRANCH  21  22
ATOM     22  C   UNL A   1      32.684  32.387  27.301  1.00  0.00     0.118 C 
BRANCH  22  23
ATOM     23  N   UNL A   1      32.440  33.825  27.525  1.00  0.00    -0.352 N 
ATOM     24  C   UNL A   1      33.018  34.659  28.484  1.00  0.00     0.251 C 
ATOM     25  H   UNL A   1      31.789  34.251  26.922  1.00  0.00     0.163 HD
ATOM     26  O   UNL A   1      32.501  35.712  28.800  1.00  0.00    -0.269 OA
BRANCH  24  27
ATOM     27  C   UNL A   1      34.294  34.218  29.078  1.00  0.00     0.039 A 
ATOM     28  C   UNL A   1      34.412  33.619  30.337  1.00  0.00     0.014 A 
ATOM     29  C   UNL A   1      35.387  34.326  28.238  1.00  0.00     0.014 A 
ATOM     30  C   UNL A   1      35.642  33.053  30.686  1.00  0.00     0.010 A 
ATOM     31  C   UNL A   1      36.437  33.492  28.438  1.00  0.00     0.010 A 
ATOM     32  C   UNL A   1      36.645  32.984  29.711  1.00  0.00    -0.014 A 
BRANCH  32  33
ATOM     33  C   UNL A   1      37.943  32.353  29.898  1.00  0.00     0.031 A 
ATOM     34  C   UNL A   1      38.010  30.935  29.453  1.00  0.00     0.074 A 
ATOM     35  C   UNL A   1      39.042  33.119  30.105  1.00  0.00     0.049 A 
ATOM     36  N   UNL A   1      38.209  29.885  30.176  1.00  0.00    -0.248 NA
ATOM     37  C   UNL A   1      37.656  30.629  28.054  1.00  0.00     0.031 C 
ATOM     38  C   UNL A   1      39.137  34.591  30.172  1.00  0.00     0.029 A 
ATOM     39  N   UNL A   1      40.348  32.758  30.139  1.00  0.00    -0.354 N 
ATOM     40  C   UNL A   1      38.239  28.809  29.291  1.00  0.00     0.074 A 
ATOM     41  C   UNL A   1      37.678  29.295  28.057  1.00  0.00     0.031 C 
ATOM     42  C   UNL A   1      40.415  34.981  29.971  1.00  0.00     0.029 A 
ATOM     43  C   UNL A   1      41.256  33.800  29.954  1.00  0.00     0.049 A 
ATOM     44  H   UNL A   1      40.635  31.827  30.284  1.00  0.00     0.167 HD
ATOM     45  C   UNL A   1      38.959  27.682  29.557  1.00  0.00     0.031 A 
ATOM     46  C   UNL A   1      42.598  33.692  29.771  1.00  0.00     0.031 A 
ATOM     47  C   UNL A   1      39.418  27.671  30.924  1.00  0.00     0.049 A 
ATOM     48  C   UNL A   1      42.973  32.329  30.228  1.00  0.00     0.074 A 
ATOM     49  C   UNL A   1      38.797  27.663  32.156  1.00  0.00     0.029 A 
ATOM     50  N   UNL A   1      40.703  28.113  31.147  1.00  0.00    -0.354 N 
ATOM     51  N   UNL A   1      42.850  31.930  31.465  1.00  0.00    -0.248 NA
ATOM     52  C   UNL A   1      42.993  31.268  29.232  1.00  0.00     0.031 C 
ATOM     53  C   UNL A   1      39.568  28.554  32.957  1.00  0.00     0.029 A 
ATOM     54  C   UNL A   1      40.669  28.981  32.208  1.00  0.00     0.049 A 
ATOM     55  H   UNL A   1      41.503  27.853  30.635  1.00  0.00     0.167 HD
ATOM     56  C   UNL A   1      42.345  30.640  31.377  1.00  0.00     0.074 A 
ATOM     57  C   UNL A   1      42.533  30.256  29.976  1.00  0.00     0.031 C 
ATOM     58  C   UNL A   1      41.560  30.115  32.367  1.00  0.00     0.031 A 
BRANCH  45  59
ATOM     59  C   UNL A   1      39.586  26.795  28.507  1.00  0.00    -0.014 A 
ATOM     60  C   UNL A   1      39.429  25.399  28.624  1.00  0.00     0.010 A 
ATOM     61  C   UNL A   1      40.531  27.250  27.565  1.00  0.00     0.010 A 
ATOM     62  C   UNL A   1      40.231  24.508  27.896  1.00  0.00     0.020 A 
ATOM     63  C   UNL A   1      41.307  26.372  26.803  1.00  0.00     0.020 A 
ATOM     64  C   UNL A   1      41.177  25.005  27.001  1.00  0.00     0.054 A 
BRANCH  64  65
ATOM     65  S   UNL A   1      42.283  23.854  26.151  1.00  0.00     0.124 S 
ATOM     66  O   UNL A   1      43.271  23.567  27.185  1.00  0.00    -0.237 OA
ATOM     67  O   UNL A   1      41.383  22.755  25.810  1.00  0.00    -0.237 OA
ATOM     68  O   UNL A   1      42.772  24.628  25.012  1.00  0.00    -0.744 OA
ENDBRANCH  64  65
ENDBRANCH  45  59
BRANCH  46  69
ATOM     69  C   UNL A   1      43.499  34.543  28.947  1.00  0.00    -0.014 A 
ATOM     70  C   UNL A   1      44.398  35.455  29.533  1.00  0.00     0.010 A 
ATOM     71  C   UNL A   1      43.671  34.254  27.576  1.00  0.00     0.010 A 
ATOM     72  C   UNL A   1      45.454  36.019  28.790  1.00  0.00     0.020 A 
ATOM     73  C   UNL A   1      44.721  34.811  26.830  1.00  0.00     0.020 A 
ATOM     74  C   UNL A   1      45.621  35.678  27.445  1.00  0.00     0.054 A 
BRANCH  74  75
ATOM     75  S   UNL A   1      47.080  36.280  26.536  1.00  0.00     0.124 S 
ATOM     76  O   UNL A   1      48.085  36.379  27.591  1.00  0.00    -0.237 OA
ATOM     77  O   UNL A   1      47.299  35.225  25.550  1.00  0.00    -0.237 OA
ATOM     78  O   UNL A   1      46.636  37.558  25.982  1.00  0.00    -0.744 OA
ENDBRANCH  74  75
ENDBRANCH  46  69
BRANCH  58  79
ATOM     79  C   UNL A   1      41.437  30.877  33.672  1.00  0.00    -0.014 A 
ATOM     80  C   UNL A   1      40.574  31.975  33.871  1.00  0.00     0.010 A 
ATOM     81  C   UNL A   1      42.101  30.343  34.788  1.00  0.00     0.010 A 
ATOM     82  C   UNL A   1      40.402  32.533  35.150  1.00  0.00     0.020 A 
ATOM     83  C   UNL A   1      41.921  30.880  36.065  1.00  0.00     0.020 A 
ATOM     84  C   UNL A   1      41.080  31.980  36.239  1.00  0.00     0.054 A 
BRANCH  84  85
ATOM     85  S   UNL A   1      40.835  32.674  37.900  1.00  0.00     0.124 S 
ATOM     86  O   UNL A   1      39.432  32.370  38.166  1.00  0.00    -0.237 OA
ATOM     87  O   UNL A   1      41.803  31.938  38.709  1.00  0.00    -0.237 OA
ATOM     88  O   UNL A   1      41.137  34.095  37.730  1.00  0.00    -0.744 OA
ENDBRANCH  84  85
ENDBRANCH  58  79
ENDBRANCH  32  33
ENDBRANCH  24  27
ENDBRANCH  22  23
ENDBRANCH  21  22
ENDBRANCH   1  21
TORSDOF 17
ENDMDL
