MODEL 1
REMARK VINA RESULT:     -13.0      0.000      0.000
REMARK SMILES CCc1nn(-c2cc(F)c(F)c(F)c2)c(Cl)c1C(=O)NCCCNC(=O)c1ccc(-c2c3nc(c(-c4ccc(S(=O)(=O)[O-])cc4)c4ccc([nH]4)c(-c4ccc(S(=O)(=O)[O-])cc4)c4nc(c(-c5ccc(S(=O)(=O)[O-])cc5)c5ccc2[nH]5)C=C4)C=C3)cc1
REMARK SMILES IDX 23 1 22 2 21 3 20 4 18 5 19 6 17 8 3 9 4 10 5 11 15 12 16 13
REMARK SMILES IDX 2 14 1 15 6 16 7 17 14 18 8 19 12 20 9 21 10 22 13 23 11 24
REMARK SMILES IDX 24 25 25 26 26 28 27 29 28 30 86 31 29 32 85 33 30 34 31 35
REMARK SMILES IDX 32 36 79 37 33 38 84 39 78 40 80 41 34 42 83 43 77 44 76 45
REMARK SMILES IDX 35 47 65 48 46 49 64 50 47 51 50 52 63 53 81 54 48 55 49 56
REMARK SMILES IDX 62 58 82 59 51 60 36 61 37 62 45 63 38 64 44 65 39 66 40 67
REMARK SMILES IDX 41 68 42 69 43 70 66 71 67 72 75 73 68 74 74 75 69 76 70 77
REMARK SMILES IDX 71 78 72 79 73 80 52 81 53 82 61 83 54 84 60 85 55 86 56 87
REMARK SMILES IDX 57 88 58 89 59 90
REMARK H PARENT 20 7 24 27 80 46 50 57
REMARK Flexibility Score: inf
ROOT
ATOM      1  C   UNL A   1      37.788  22.934  25.441  1.00  0.00     0.118 C 
ENDROOT
BRANCH   1   2
ATOM      2  C   UNL A   1      36.746  22.180  24.624  1.00  0.00     0.042 C 
BRANCH   2   3
ATOM      3  C   UNL A   1      35.400  22.905  24.609  1.00  0.00     0.118 C 
BRANCH   3   4
ATOM      4  N   UNL A   1      34.742  22.854  23.332  1.00  0.00    -0.352 N 
ATOM      5  C   UNL A   1      33.682  23.481  22.745  1.00  0.00     0.256 C 
ATOM      6  O   UNL A   1      33.641  23.262  21.531  1.00  0.00    -0.269 OA
ATOM      7  H   UNL A   1      35.164  22.201  22.728  1.00  0.00     0.163 HD
BRANCH   5   8
ATOM      8  C   UNL A   1      32.669  24.325  23.391  1.00  0.00     0.100 A 
ATOM      9  C   UNL A   1      31.638  24.201  24.391  1.00  0.00     0.077 A 
ATOM     10  N   UNL A   1      31.068  25.382  24.694  1.00  0.00    -0.171 NA
ATOM     11  N   UNL A   1      31.543  26.244  23.774  1.00  0.00    -0.221 N 
ATOM     12  C   UNL A   1      32.541  25.667  23.037  1.00  0.00     0.145 A 
ATOM     13  Cl  UNL A   1      33.492  26.652  21.992  1.00  0.00    -0.061 Cl
BRANCH   9  14
ATOM     14  C   UNL A   1      31.077  23.035  25.141  1.00  0.00     0.056 C 
ATOM     15  C   UNL A   1      30.820  23.310  26.618  1.00  0.00     0.011 C 
ENDBRANCH   9  14
BRANCH  11  16
ATOM     16  C   UNL A   1      31.010  27.559  23.709  1.00  0.00     0.072 A 
ATOM     17  C   UNL A   1      31.428  28.552  24.606  1.00  0.00     0.071 A 
ATOM     18  C   UNL A   1      30.029  27.845  22.750  1.00  0.00     0.071 A 
ATOM     19  C   UNL A   1      30.815  29.802  24.576  1.00  0.00     0.164 A 
ATOM     20  C   UNL A   1      29.408  29.092  22.764  1.00  0.00     0.164 A 
ATOM     21  F   UNL A   1      31.221  30.749  25.432  1.00  0.00    -0.204 F 
ATOM     22  C   UNL A   1      29.792  30.069  23.676  1.00  0.00     0.194 A 
ATOM     23  F   UNL A   1      28.412  29.336  21.902  1.00  0.00    -0.204 F 
ATOM     24  F   UNL A   1      29.177  31.260  23.688  1.00  0.00    -0.200 F 
ENDBRANCH  11  16
ENDBRANCH   5   8
ENDBRANCH   3   4
ENDBRANCH   2   3
ENDBRANCH   1   2
BRANCH   1  25
ATOM     25  N   UNL A   1      38.546  22.027  26.308  1.00  0.00    -0.352 N 
ATOM     26  C   UNL A   1      39.692  22.276  27.033  1.00  0.00     0.251 C 
ATOM     27  H   UNL A   1      38.188  21.113  26.383  1.00  0.00     0.163 HD
ATOM     28  O   UNL A   1      40.351  21.352  27.496  1.00  0.00    -0.269 OA
BRANCH  26  29
ATOM     29  C   UNL A   1      40.123  23.671  27.200  1.00  0.00     0.039 A 
ATOM     30  C   UNL A   1      39.231  24.706  26.929  1.00  0.00     0.014 A 
ATOM     31  C   UNL A   1      41.369  23.920  27.771  1.00  0.00     0.014 A 
ATOM     32  C   UNL A   1      39.544  25.989  27.366  1.00  0.00     0.010 A 
ATOM     33  C   UNL A   1      41.628  25.172  28.297  1.00  0.00     0.010 A 
ATOM     34  C   UNL A   1      40.719  26.214  28.107  1.00  0.00    -0.014 A 
BRANCH  34  35
ATOM     35  C   UNL A   1      40.882  27.489  28.815  1.00  0.00     0.031 A 
ATOM     36  C   UNL A   1      41.966  28.379  28.296  1.00  0.00     0.074 A 
ATOM     37  C   UNL A   1      40.031  27.993  29.734  1.00  0.00     0.049 A 
ATOM     38  N   UNL A   1      43.086  28.673  28.870  1.00  0.00    -0.248 NA
ATOM     39  C   UNL A   1      41.836  28.920  26.934  1.00  0.00     0.031 C 
ATOM     40  C   UNL A   1      38.739  27.460  30.173  1.00  0.00     0.029 A 
ATOM     41  N   UNL A   1      40.109  29.181  30.401  1.00  0.00    -0.354 N 
ATOM     42  C   UNL A   1      43.712  29.607  28.047  1.00  0.00     0.074 A 
ATOM     43  C   UNL A   1      42.984  29.590  26.802  1.00  0.00     0.031 C 
ATOM     44  C   UNL A   1      38.054  28.422  30.828  1.00  0.00     0.029 A 
ATOM     45  C   UNL A   1      38.927  29.564  31.019  1.00  0.00     0.049 A 
ATOM     46  H   UNL A   1      40.932  29.719  30.439  1.00  0.00     0.167 HD
ATOM     47  C   UNL A   1      44.636  30.488  28.529  1.00  0.00     0.031 A 
ATOM     48  C   UNL A   1      38.672  30.741  31.639  1.00  0.00     0.031 A 
ATOM     49  C   UNL A   1      45.092  30.126  29.846  1.00  0.00     0.049 A 
ATOM     50  C   UNL A   1      39.977  31.331  32.018  1.00  0.00     0.074 A 
ATOM     51  C   UNL A   1      45.670  29.002  30.407  1.00  0.00     0.029 A 
ATOM     52  N   UNL A   1      44.616  30.868  30.901  1.00  0.00    -0.354 N 
ATOM     53  N   UNL A   1      40.766  30.810  32.916  1.00  0.00    -0.248 NA
ATOM     54  C   UNL A   1      40.600  32.291  31.123  1.00  0.00     0.031 C 
ATOM     55  C   UNL A   1      45.074  28.890  31.698  1.00  0.00     0.029 A 
ATOM     56  C   UNL A   1      44.223  29.984  31.873  1.00  0.00     0.049 A 
ATOM     57  H   UNL A   1      44.568  31.850  30.951  1.00  0.00     0.167 HD
ATOM     58  C   UNL A   1      42.047  31.036  32.436  1.00  0.00     0.074 A 
ATOM     59  C   UNL A   1      41.885  32.053  31.400  1.00  0.00     0.031 C 
ATOM     60  C   UNL A   1      43.073  30.183  32.731  1.00  0.00     0.031 A 
BRANCH  47  61
ATOM     61  C   UNL A   1      44.826  31.891  27.990  1.00  0.00    -0.014 A 
ATOM     62  C   UNL A   1      46.109  32.288  27.554  1.00  0.00     0.010 A 
ATOM     63  C   UNL A   1      43.873  32.914  28.170  1.00  0.00     0.010 A 
ATOM     64  C   UNL A   1      46.442  33.641  27.399  1.00  0.00     0.020 A 
ATOM     65  C   UNL A   1      44.179  34.261  27.970  1.00  0.00     0.020 A 
ATOM     66  C   UNL A   1      45.476  34.619  27.628  1.00  0.00     0.054 A 
BRANCH  66  67
ATOM     67  S   UNL A   1      45.941  36.367  27.549  1.00  0.00     0.124 S 
ATOM     68  O   UNL A   1      44.821  36.938  26.810  1.00  0.00    -0.237 OA
ATOM     69  O   UNL A   1      46.023  36.730  28.961  1.00  0.00    -0.237 OA
ATOM     70  O   UNL A   1      47.219  36.347  26.842  1.00  0.00    -0.744 OA
ENDBRANCH  66  67
ENDBRANCH  47  61
BRANCH  48  71
ATOM     71  C   UNL A   1      37.393  31.483  31.732  1.00  0.00    -0.014 A 
ATOM     72  C   UNL A   1      36.765  31.675  32.976  1.00  0.00     0.010 A 
ATOM     73  C   UNL A   1      36.937  32.248  30.640  1.00  0.00     0.010 A 
ATOM     74  C   UNL A   1      35.777  32.657  33.142  1.00  0.00     0.020 A 
ATOM     75  C   UNL A   1      35.942  33.221  30.794  1.00  0.00     0.020 A 
ATOM     76  C   UNL A   1      35.390  33.443  32.054  1.00  0.00     0.054 A 
BRANCH  76  77
ATOM     77  S   UNL A   1      34.274  34.852  32.324  1.00  0.00     0.124 S 
ATOM     78  O   UNL A   1      34.008  35.303  30.963  1.00  0.00    -0.237 OA
ATOM     79  O   UNL A   1      33.147  34.234  33.019  1.00  0.00    -0.237 OA
ATOM     80  O   UNL A   1      35.070  35.769  33.139  1.00  0.00    -0.744 OA
ENDBRANCH  76  77
ENDBRANCH  48  71
BRANCH  60  81
ATOM     81  C   UNL A   1      42.904  29.197  33.864  1.00  0.00    -0.014 A 
ATOM     82  C   UNL A   1      43.118  29.510  35.221  1.00  0.00     0.010 A 
ATOM     83  C   UNL A   1      42.362  27.937  33.547  1.00  0.00     0.010 A 
ATOM     84  C   UNL A   1      42.828  28.575  36.226  1.00  0.00     0.020 A 
ATOM     85  C   UNL A   1      42.051  27.011  34.544  1.00  0.00     0.020 A 
ATOM     86  C   UNL A   1      42.294  27.330  35.879  1.00  0.00     0.054 A 
BRANCH  86  87
ATOM     87  S   UNL A   1      41.871  26.144  37.187  1.00  0.00     0.124 S 
ATOM     88  O   UNL A   1      40.547  26.593  37.608  1.00  0.00    -0.237 OA
ATOM     89  O   UNL A   1      41.907  24.861  36.486  1.00  0.00    -0.237 OA
ATOM     90  O   UNL A   1      42.930  26.327  38.179  1.00  0.00    -0.744 OA
ENDBRANCH  86  87
ENDBRANCH  60  81
ENDBRANCH  34  35
ENDBRANCH  26  29
ENDBRANCH   1  25
TORSDOF 15
ENDMDL
MODEL 2
REMARK VINA RESULT:     -13.0      1.475      2.046
REMARK SMILES CCc1nn(-c2cc(F)c(F)c(F)c2)c(Cl)c1C(=O)NCCCNC(=O)c1ccc(-c2c3nc(c(-c4ccc(S(=O)(=O)[O-])cc4)c4ccc([nH]4)c(-c4ccc(S(=O)(=O)[O-])cc4)c4nc(c(-c5ccc(S(=O)(=O)[O-])cc5)c5ccc2[nH]5)C=C4)C=C3)cc1
REMARK SMILES IDX 23 1 22 2 21 3 20 4 18 5 19 6 17 8 3 9 4 10 5 11 15 12 16 13
REMARK SMILES IDX 2 14 1 15 6 16 7 17 14 18 8 19 12 20 9 21 10 22 13 23 11 24
REMARK SMILES IDX 24 25 25 26 26 28 27 29 28 30 86 31 29 32 85 33 30 34 31 35
REMARK SMILES IDX 32 36 79 37 33 38 84 39 78 40 80 41 34 42 83 43 77 44 76 45
REMARK SMILES IDX 35 47 65 48 46 49 64 50 47 51 50 52 63 53 81 54 48 55 49 56
REMARK SMILES IDX 62 58 82 59 51 60 36 61 37 62 45 63 38 64 44 65 39 66 40 67
REMARK SMILES IDX 41 68 42 69 43 70 66 71 67 72 75 73 68 74 74 75 69 76 70 77
REMARK SMILES IDX 71 78 72 79 73 80 52 81 53 82 61 83 54 84 60 85 55 86 56 87
REMARK SMILES IDX 57 88 58 89 59 90
REMARK H PARENT 20 7 24 27 80 46 50 57
REMARK Flexibility Score: inf
ROOT
ATOM      1  C   UNL A   1      37.777  22.709  25.353  1.00  0.00     0.118 C 
ENDROOT
BRANCH   1   2
ATOM      2  C   UNL A   1      36.977  21.872  24.362  1.00  0.00     0.042 C 
BRANCH   2   3
ATOM      3  C   UNL A   1      36.289  20.688  25.040  1.00  0.00     0.118 C 
BRANCH   3   4
ATOM      4  N   UNL A   1      35.478  21.070  26.165  1.00  0.00    -0.352 N 
ATOM      5  C   UNL A   1      34.223  21.571  26.348  1.00  0.00     0.256 C 
ATOM      6  O   UNL A   1      33.881  21.519  27.533  1.00  0.00    -0.269 OA
ATOM      7  H   UNL A   1      35.948  20.934  27.019  1.00  0.00     0.163 HD
BRANCH   5   8
ATOM      8  C   UNL A   1      33.321  22.124  25.329  1.00  0.00     0.100 A 
ATOM      9  C   UNL A   1      32.545  21.659  24.207  1.00  0.00     0.077 A 
ATOM     10  N   UNL A   1      31.770  22.625  23.681  1.00  0.00    -0.171 NA
ATOM     11  N   UNL A   1      32.168  23.761  24.285  1.00  0.00    -0.221 N 
ATOM     12  C   UNL A   1      33.031  23.487  25.312  1.00  0.00     0.145 A 
ATOM     13  Cl  UNL A   1      33.459  24.744  26.409  1.00  0.00    -0.061 Cl
BRANCH   9  14
ATOM     14  C   UNL A   1      32.440  20.338  23.514  1.00  0.00     0.056 C 
ATOM     15  C   UNL A   1      32.545  19.137  24.446  1.00  0.00     0.011 C 
ENDBRANCH   9  14
BRANCH  11  16
ATOM     16  C   UNL A   1      31.657  25.008  23.837  1.00  0.00     0.072 A 
ATOM     17  C   UNL A   1      30.304  25.336  24.007  1.00  0.00     0.071 A 
ATOM     18  C   UNL A   1      32.521  25.900  23.189  1.00  0.00     0.071 A 
ATOM     19  C   UNL A   1      29.816  26.524  23.470  1.00  0.00     0.164 A 
ATOM     20  C   UNL A   1      32.000  27.066  22.631  1.00  0.00     0.164 A 
ATOM     21  F   UNL A   1      28.524  26.836  23.639  1.00  0.00    -0.204 F 
ATOM     22  C   UNL A   1      30.652  27.378  22.763  1.00  0.00     0.194 A 
ATOM     23  F   UNL A   1      32.810  27.877  21.938  1.00  0.00    -0.204 F 
ATOM     24  F   UNL A   1      30.161  28.496  22.209  1.00  0.00    -0.200 F 
ENDBRANCH  11  16
ENDBRANCH   5   8
ENDBRANCH   3   4
ENDBRANCH   2   3
ENDBRANCH   1   2
BRANCH   1  25
ATOM     25  N   UNL A   1      38.547  21.863  26.268  1.00  0.00    -0.352 N 
ATOM     26  C   UNL A   1      39.659  22.184  27.018  1.00  0.00     0.251 C 
ATOM     27  H   UNL A   1      38.229  20.936  26.359  1.00  0.00     0.163 HD
ATOM     28  O   UNL A   1      40.344  21.305  27.528  1.00  0.00    -0.269 OA
BRANCH  26  29
ATOM     29  C   UNL A   1      40.020  23.602  27.157  1.00  0.00     0.039 A 
ATOM     30  C   UNL A   1      39.035  24.580  27.049  1.00  0.00     0.014 A 
ATOM     31  C   UNL A   1      41.321  23.923  27.543  1.00  0.00     0.014 A 
ATOM     32  C   UNL A   1      39.329  25.873  27.469  1.00  0.00     0.010 A 
ATOM     33  C   UNL A   1      41.576  25.180  28.058  1.00  0.00     0.010 A 
ATOM     34  C   UNL A   1      40.585  26.163  28.033  1.00  0.00    -0.014 A 
BRANCH  34  35
ATOM     35  C   UNL A   1      40.771  27.434  28.743  1.00  0.00     0.031 A 
ATOM     36  C   UNL A   1      41.836  28.328  28.192  1.00  0.00     0.074 A 
ATOM     37  C   UNL A   1      39.953  27.930  29.694  1.00  0.00     0.049 A 
ATOM     38  N   UNL A   1      42.975  28.620  28.728  1.00  0.00    -0.248 NA
ATOM     39  C   UNL A   1      41.657  28.878  26.838  1.00  0.00     0.031 C 
ATOM     40  C   UNL A   1      38.677  27.394  30.175  1.00  0.00     0.029 A 
ATOM     41  N   UNL A   1      40.054  29.114  30.365  1.00  0.00    -0.354 N 
ATOM     42  C   UNL A   1      43.571  29.560  27.889  1.00  0.00     0.074 A 
ATOM     43  C   UNL A   1      42.800  29.549  26.670  1.00  0.00     0.031 C 
ATOM     44  C   UNL A   1      38.015  28.351  30.860  1.00  0.00     0.029 A 
ATOM     45  C   UNL A   1      38.894  29.493  31.027  1.00  0.00     0.049 A 
ATOM     46  H   UNL A   1      40.877  29.653  30.378  1.00  0.00     0.167 HD
ATOM     47  C   UNL A   1      44.510  30.439  28.343  1.00  0.00     0.031 A 
ATOM     48  C   UNL A   1      38.659  30.666  31.663  1.00  0.00     0.031 A 
ATOM     49  C   UNL A   1      45.013  30.068  29.642  1.00  0.00     0.049 A 
ATOM     50  C   UNL A   1      39.976  31.254  31.999  1.00  0.00     0.074 A 
ATOM     51  C   UNL A   1      45.611  28.942  30.174  1.00  0.00     0.029 A 
ATOM     52  N   UNL A   1      44.574  30.803  30.718  1.00  0.00    -0.354 N 
ATOM     53  N   UNL A   1      40.797  30.729  32.866  1.00  0.00    -0.248 NA
ATOM     54  C   UNL A   1      40.567  32.220  31.089  1.00  0.00     0.031 C 
ATOM     55  C   UNL A   1      45.061  28.821  31.485  1.00  0.00     0.029 A 
ATOM     56  C   UNL A   1      44.216  29.913  31.697  1.00  0.00     0.049 A 
ATOM     57  H   UNL A   1      44.526  31.785  30.775  1.00  0.00     0.167 HD
ATOM     58  C   UNL A   1      42.060  30.959  32.343  1.00  0.00     0.074 A 
ATOM     59  C   UNL A   1      41.861  31.982  31.319  1.00  0.00     0.031 C 
ATOM     60  C   UNL A   1      43.097  30.105  32.596  1.00  0.00     0.031 A 
BRANCH  47  61
ATOM     61  C   UNL A   1      44.680  31.845  27.808  1.00  0.00    -0.014 A 
ATOM     62  C   UNL A   1      45.829  32.153  27.046  1.00  0.00     0.010 A 
ATOM     63  C   UNL A   1      43.912  32.935  28.265  1.00  0.00     0.010 A 
ATOM     64  C   UNL A   1      46.234  33.479  26.839  1.00  0.00     0.020 A 
ATOM     65  C   UNL A   1      44.280  34.259  28.022  1.00  0.00     0.020 A 
ATOM     66  C   UNL A   1      45.464  34.523  27.346  1.00  0.00     0.054 A 
BRANCH  66  67
ATOM     67  S   UNL A   1      46.054  36.226  27.186  1.00  0.00     0.124 S 
ATOM     68  O   UNL A   1      46.780  36.407  28.438  1.00  0.00    -0.237 OA
ATOM     69  O   UNL A   1      46.874  36.159  25.980  1.00  0.00    -0.237 OA
ATOM     70  O   UNL A   1      44.823  37.001  27.054  1.00  0.00    -0.744 OA
ENDBRANCH  66  67
ENDBRANCH  47  61
BRANCH  48  71
ATOM     71  C   UNL A   1      37.384  31.406  31.806  1.00  0.00    -0.014 A 
ATOM     72  C   UNL A   1      36.909  31.775  33.077  1.00  0.00     0.010 A 
ATOM     73  C   UNL A   1      36.779  31.998  30.679  1.00  0.00     0.010 A 
ATOM     74  C   UNL A   1      35.924  32.765  33.220  1.00  0.00     0.020 A 
ATOM     75  C   UNL A   1      35.787  32.978  30.813  1.00  0.00     0.020 A 
ATOM     76  C   UNL A   1      35.388  33.380  32.085  1.00  0.00     0.054 A 
BRANCH  76  77
ATOM     77  S   UNL A   1      34.280  34.806  32.285  1.00  0.00     0.124 S 
ATOM     78  O   UNL A   1      35.086  35.715  33.094  1.00  0.00    -0.237 OA
ATOM     79  O   UNL A   1      34.048  35.223  30.904  1.00  0.00    -0.237 OA
ATOM     80  O   UNL A   1      33.113  34.242  32.961  1.00  0.00    -0.744 OA
ENDBRANCH  76  77
ENDBRANCH  48  71
BRANCH  60  81
ATOM     81  C   UNL A   1      42.968  29.113  33.728  1.00  0.00    -0.014 A 
ATOM     82  C   UNL A   1      43.377  29.367  35.052  1.00  0.00     0.010 A 
ATOM     83  C   UNL A   1      42.266  27.921  33.464  1.00  0.00     0.010 A 
ATOM     84  C   UNL A   1      43.119  28.440  36.073  1.00  0.00     0.020 A 
ATOM     85  C   UNL A   1      41.987  27.004  34.479  1.00  0.00     0.020 A 
ATOM     86  C   UNL A   1      42.423  27.264  35.779  1.00  0.00     0.054 A 
BRANCH  86  87
ATOM     87  S   UNL A   1      42.045  26.092  37.112  1.00  0.00     0.124 S 
ATOM     88  O   UNL A   1      42.288  24.799  36.478  1.00  0.00    -0.237 OA
ATOM     89  O   UNL A   1      42.996  26.469  38.156  1.00  0.00    -0.237 OA
ATOM     90  O   UNL A   1      40.645  26.369  37.434  1.00  0.00    -0.744 OA
ENDBRANCH  86  87
ENDBRANCH  60  81
ENDBRANCH  34  35
ENDBRANCH  26  29
ENDBRANCH   1  25
TORSDOF 15
ENDMDL
MODEL 3
REMARK VINA RESULT:     -12.9      3.751      9.500
REMARK SMILES CCc1nn(-c2cc(F)c(F)c(F)c2)c(Cl)c1C(=O)NCCCNC(=O)c1ccc(-c2c3nc(c(-c4ccc(S(=O)(=O)[O-])cc4)c4ccc([nH]4)c(-c4ccc(S(=O)(=O)[O-])cc4)c4nc(c(-c5ccc(S(=O)(=O)[O-])cc5)c5ccc2[nH]5)C=C4)C=C3)cc1
REMARK SMILES IDX 23 1 22 2 21 3 20 4 18 5 19 6 17 8 3 9 4 10 5 11 15 12 16 13
REMARK SMILES IDX 2 14 1 15 6 16 7 17 14 18 8 19 12 20 9 21 10 22 13 23 11 24
REMARK SMILES IDX 24 25 25 26 26 28 27 29 28 30 86 31 29 32 85 33 30 34 31 35
REMARK SMILES IDX 32 36 79 37 33 38 84 39 78 40 80 41 34 42 83 43 77 44 76 45
REMARK SMILES IDX 35 47 65 48 46 49 64 50 47 51 50 52 63 53 81 54 48 55 49 56
REMARK SMILES IDX 62 58 82 59 51 60 36 61 37 62 45 63 38 64 44 65 39 66 40 67
REMARK SMILES IDX 41 68 42 69 43 70 66 71 67 72 75 73 68 74 74 75 69 76 70 77
REMARK SMILES IDX 71 78 72 79 73 80 52 81 53 82 61 83 54 84 60 85 55 86 56 87
REMARK SMILES IDX 57 88 58 89 59 90
REMARK H PARENT 20 7 24 27 80 46 50 57
REMARK Flexibility Score: inf
ROOT
ATOM      1  C   UNL A   1      34.193  29.389  26.664  1.00  0.00     0.118 C 
ENDROOT
BRANCH   1   2
ATOM      2  C   UNL A   1      33.621  28.962  25.317  1.00  0.00     0.042 C 
BRANCH   2   3
ATOM      3  C   UNL A   1      33.584  27.441  25.170  1.00  0.00     0.118 C 
BRANCH   3   4
ATOM      4  N   UNL A   1      33.915  26.991  23.845  1.00  0.00    -0.352 N 
ATOM      5  C   UNL A   1      33.494  26.001  23.008  1.00  0.00     0.256 C 
ATOM      6  O   UNL A   1      33.927  26.159  21.863  1.00  0.00    -0.269 OA
ATOM      7  H   UNL A   1      34.628  27.537  23.440  1.00  0.00     0.163 HD
BRANCH   5   8
ATOM      8  C   UNL A   1      32.636  24.854  23.334  1.00  0.00     0.100 A 
ATOM      9  C   UNL A   1      31.277  24.605  23.745  1.00  0.00     0.077 A 
ATOM     10  N   UNL A   1      30.982  23.293  23.781  1.00  0.00    -0.171 NA
ATOM     11  N   UNL A   1      32.161  22.664  23.613  1.00  0.00    -0.221 N 
ATOM     12  C   UNL A   1      33.143  23.558  23.278  1.00  0.00     0.145 A 
ATOM     13  Cl  UNL A   1      34.669  22.967  22.740  1.00  0.00    -0.061 Cl
BRANCH   9  14
ATOM     14  C   UNL A   1      30.149  25.502  24.143  1.00  0.00     0.056 C 
ATOM     15  C   UNL A   1      29.967  25.642  25.650  1.00  0.00     0.011 C 
ENDBRANCH   9  14
BRANCH  11  16
ATOM     16  C   UNL A   1      32.230  21.254  23.764  1.00  0.00     0.072 A 
ATOM     17  C   UNL A   1      32.427  20.672  25.023  1.00  0.00     0.071 A 
ATOM     18  C   UNL A   1      32.129  20.446  22.623  1.00  0.00     0.071 A 
ATOM     19  C   UNL A   1      32.586  19.292  25.121  1.00  0.00     0.164 A 
ATOM     20  C   UNL A   1      32.325  19.072  22.744  1.00  0.00     0.164 A 
ATOM     21  F   UNL A   1      32.771  18.739  26.327  1.00  0.00    -0.204 F 
ATOM     22  C   UNL A   1      32.560  18.493  23.986  1.00  0.00     0.194 A 
ATOM     23  F   UNL A   1      32.312  18.311  21.642  1.00  0.00    -0.204 F 
ATOM     24  F   UNL A   1      32.762  17.171  24.086  1.00  0.00    -0.200 F 
ENDBRANCH  11  16
ENDBRANCH   5   8
ENDBRANCH   3   4
ENDBRANCH   2   3
ENDBRANCH   1   2
BRANCH   1  25
ATOM     25  N   UNL A   1      34.003  30.824  26.894  1.00  0.00    -0.352 N 
ATOM     26  C   UNL A   1      34.600  31.637  27.834  1.00  0.00     0.251 C 
ATOM     27  H   UNL A   1      33.360  31.269  26.297  1.00  0.00     0.163 HD
ATOM     28  O   UNL A   1      34.148  32.751  28.074  1.00  0.00    -0.269 OA
BRANCH  26  29
ATOM     29  C   UNL A   1      35.765  31.120  28.565  1.00  0.00     0.039 A 
ATOM     30  C   UNL A   1      35.859  29.758  28.841  1.00  0.00     0.014 A 
ATOM     31  C   UNL A   1      36.823  31.988  28.833  1.00  0.00     0.014 A 
ATOM     32  C   UNL A   1      37.081  29.245  29.262  1.00  0.00     0.010 A 
ATOM     33  C   UNL A   1      38.061  31.460  29.147  1.00  0.00     0.010 A 
ATOM     34  C   UNL A   1      38.204  30.087  29.359  1.00  0.00    -0.014 A 
BRANCH  34  35
ATOM     35  C   UNL A   1      39.536  29.486  29.503  1.00  0.00     0.031 A 
ATOM     36  C   UNL A   1      39.942  29.152  30.903  1.00  0.00     0.074 A 
ATOM     37  C   UNL A   1      40.311  29.041  28.492  1.00  0.00     0.049 A 
ATOM     38  N   UNL A   1      40.849  29.731  31.619  1.00  0.00    -0.248 NA
ATOM     39  C   UNL A   1      39.177  28.125  31.628  1.00  0.00     0.031 C 
ATOM     40  C   UNL A   1      39.997  28.964  27.063  1.00  0.00     0.029 A 
ATOM     41  N   UNL A   1      41.537  28.446  28.563  1.00  0.00    -0.354 N 
ATOM     42  C   UNL A   1      40.928  29.007  32.807  1.00  0.00     0.074 A 
ATOM     43  C   UNL A   1      39.769  28.148  32.825  1.00  0.00     0.031 C 
ATOM     44  C   UNL A   1      40.882  28.149  26.450  1.00  0.00     0.029 A 
ATOM     45  C   UNL A   1      41.925  27.802  27.396  1.00  0.00     0.049 A 
ATOM     46  H   UNL A   1      42.097  28.472  29.372  1.00  0.00     0.167 HD
ATOM     47  C   UNL A   1      42.055  29.002  33.576  1.00  0.00     0.031 A 
ATOM     48  C   UNL A   1      43.021  27.027  27.214  1.00  0.00     0.031 A 
ATOM     49  C   UNL A   1      42.975  30.042  33.191  1.00  0.00     0.049 A 
ATOM     50  C   UNL A   1      44.000  27.397  28.263  1.00  0.00     0.074 A 
ATOM     51  C   UNL A   1      42.902  31.416  33.066  1.00  0.00     0.029 A 
ATOM     52  N   UNL A   1      44.093  29.661  32.488  1.00  0.00    -0.354 N 
ATOM     53  N   UNL A   1      44.594  28.556  28.314  1.00  0.00    -0.248 NA
ATOM     54  C   UNL A   1      44.037  26.623  29.492  1.00  0.00     0.031 C 
ATOM     55  C   UNL A   1      43.671  31.718  31.903  1.00  0.00     0.029 A 
ATOM     56  C   UNL A   1      44.220  30.524  31.431  1.00  0.00     0.049 A 
ATOM     57  H   UNL A   1      44.692  28.909  32.703  1.00  0.00     0.167 HD
ATOM     58  C   UNL A   1      44.694  28.843  29.667  1.00  0.00     0.074 A 
ATOM     59  C   UNL A   1      44.449  27.570  30.340  1.00  0.00     0.031 C 
ATOM     60  C   UNL A   1      44.692  30.133  30.118  1.00  0.00     0.031 A 
BRANCH  47  61
ATOM     61  C   UNL A   1      42.510  27.815  34.399  1.00  0.00    -0.014 A 
ATOM     62  C   UNL A   1      42.646  27.964  35.797  1.00  0.00     0.010 A 
ATOM     63  C   UNL A   1      43.085  26.663  33.825  1.00  0.00     0.010 A 
ATOM     64  C   UNL A   1      43.397  27.058  36.559  1.00  0.00     0.020 A 
ATOM     65  C   UNL A   1      43.793  25.728  34.583  1.00  0.00     0.020 A 
ATOM     66  C   UNL A   1      43.981  25.955  35.939  1.00  0.00     0.054 A 
BRANCH  66  67
ATOM     67  S   UNL A   1      45.052  24.857  36.900  1.00  0.00     0.124 S 
ATOM     68  O   UNL A   1      46.374  25.399  36.603  1.00  0.00    -0.237 OA
ATOM     69  O   UNL A   1      44.571  25.066  38.262  1.00  0.00    -0.237 OA
ATOM     70  O   UNL A   1      44.773  23.536  36.341  1.00  0.00    -0.744 OA
ENDBRANCH  66  67
ENDBRANCH  47  61
BRANCH  48  71
ATOM     71  C   UNL A   1      43.189  25.850  26.332  1.00  0.00    -0.014 A 
ATOM     72  C   UNL A   1      44.333  25.717  25.523  1.00  0.00     0.010 A 
ATOM     73  C   UNL A   1      42.365  24.718  26.496  1.00  0.00     0.010 A 
ATOM     74  C   UNL A   1      44.687  24.477  24.970  1.00  0.00     0.020 A 
ATOM     75  C   UNL A   1      42.704  23.480  25.937  1.00  0.00     0.020 A 
ATOM     76  C   UNL A   1      43.882  23.359  25.204  1.00  0.00     0.054 A 
BRANCH  76  77
ATOM     77  S   UNL A   1      44.460  21.720  24.671  1.00  0.00     0.124 S 
ATOM     78  O   UNL A   1      44.492  21.859  23.219  1.00  0.00    -0.237 OA
ATOM     79  O   UNL A   1      45.761  21.614  25.326  1.00  0.00    -0.237 OA
ATOM     80  O   UNL A   1      43.437  20.811  25.185  1.00  0.00    -0.744 OA
ENDBRANCH  76  77
ENDBRANCH  48  71
BRANCH  60  81
ATOM     81  C   UNL A   1      44.943  31.253  29.135  1.00  0.00    -0.014 A 
ATOM     82  C   UNL A   1      46.186  31.894  28.969  1.00  0.00     0.010 A 
ATOM     83  C   UNL A   1      43.905  31.568  28.238  1.00  0.00     0.010 A 
ATOM     84  C   UNL A   1      46.371  32.846  27.954  1.00  0.00     0.020 A 
ATOM     85  C   UNL A   1      44.089  32.498  27.213  1.00  0.00     0.020 A 
ATOM     86  C   UNL A   1      45.319  33.140  27.081  1.00  0.00     0.054 A 
BRANCH  86  87
ATOM     87  S   UNL A   1      45.580  34.334  25.738  1.00  0.00     0.124 S 
ATOM     88  O   UNL A   1      44.732  33.804  24.674  1.00  0.00    -0.237 OA
ATOM     89  O   UNL A   1      45.134  35.593  26.331  1.00  0.00    -0.237 OA
ATOM     90  O   UNL A   1      47.017  34.257  25.478  1.00  0.00    -0.744 OA
ENDBRANCH  86  87
ENDBRANCH  60  81
ENDBRANCH  34  35
ENDBRANCH  26  29
ENDBRANCH   1  25
TORSDOF 15
ENDMDL
