MODEL 1
REMARK VINA RESULT:      -9.5      0.000      0.000
REMARK SMILES C[C@@H](C(=O)NCCCNC(=O)c1ccc(-c2c3nc(c(-c4ccc(S(=O)(=O)[O-])cc4)c4ccc([nH]4)c(-c4ccc(S(=O)(=O)[O-])cc4)c4nc(c(-c5ccc(S(=O)(=O)[O-])cc5)c5ccc2[nH]5)C=C4)C=C3)cc1)c1ccc(-c2ccccc2)cc1
REMARK SMILES IDX 7 1 6 2 5 3 3 4 4 5 2 7 1 8 72 9 73 10 83 11 74 12 82 13
REMARK SMILES IDX 75 14 76 15 77 16 81 17 78 18 80 19 79 20 8 21 9 22 10 23
REMARK SMILES IDX 11 25 12 26 13 27 71 28 14 29 70 30 15 31 16 32 17 33 64 34
REMARK SMILES IDX 18 35 69 36 63 37 65 38 19 39 68 40 62 41 61 42 20 44 50 45
REMARK SMILES IDX 31 46 49 47 32 48 35 49 48 50 66 51 33 52 34 53 47 55 67 56
REMARK SMILES IDX 36 57 21 58 22 59 30 60 23 61 29 62 24 63 25 64 26 65 27 66
REMARK SMILES IDX 28 67 51 68 52 69 60 70 53 71 59 72 54 73 55 74 56 75 57 76
REMARK SMILES IDX 58 77 37 78 38 79 46 80 39 81 45 82 40 83 41 84 42 85 43 86
REMARK SMILES IDX 44 87
REMARK H PARENT 5 6 9 24 65 43 35 54
REMARK Flexibility Score: inf
ROOT
ATOM      1  C   UNL A   1      34.424  33.132  29.550  1.00  0.00     0.042 C 
ENDROOT
BRANCH   1   2
ATOM      2  C   UNL A   1      35.651  33.073  30.455  1.00  0.00     0.117 C 
BRANCH   2   3
ATOM      3  N   UNL A   1      35.811  34.288  31.230  1.00  0.00    -0.356 N 
ATOM      4  C   UNL A   1      35.829  34.494  32.578  1.00  0.00     0.227 C 
ATOM      5  O   UNL A   1      35.928  35.669  32.940  1.00  0.00    -0.274 OA
ATOM      6  H   UNL A   1      35.924  35.103  30.691  1.00  0.00     0.163 HD
BRANCH   4   7
ATOM      7  C   UNL A   1      35.763  33.302  33.550  1.00  0.00     0.105 C 
ATOM      8  C   UNL A   1      35.442  33.735  34.982  1.00  0.00     0.023 C 
BRANCH   7   9
ATOM      9  C   UNL A   1      37.042  32.467  33.567  1.00  0.00    -0.036 A 
ATOM     10  C   UNL A   1      38.257  33.012  34.007  1.00  0.00     0.005 A 
ATOM     11  C   UNL A   1      37.015  31.118  33.191  1.00  0.00     0.005 A 
ATOM     12  C   UNL A   1      39.417  32.238  34.045  1.00  0.00     0.009 A 
ATOM     13  C   UNL A   1      38.180  30.341  33.239  1.00  0.00     0.009 A 
ATOM     14  C   UNL A   1      39.400  30.889  33.664  1.00  0.00    -0.018 A 
BRANCH  14  15
ATOM     15  C   UNL A   1      40.633  30.086  33.712  1.00  0.00    -0.018 A 
ATOM     16  C   UNL A   1      40.648  28.761  33.245  1.00  0.00     0.009 A 
ATOM     17  C   UNL A   1      41.819  30.608  34.253  1.00  0.00     0.009 A 
ATOM     18  C   UNL A   1      41.804  27.981  33.325  1.00  0.00     0.001 A 
ATOM     19  C   UNL A   1      42.976  29.829  34.335  1.00  0.00     0.001 A 
ATOM     20  C   UNL A   1      42.967  28.515  33.872  1.00  0.00     0.000 A 
ENDBRANCH  14  15
ENDBRANCH   7   9
ENDBRANCH   4   7
ENDBRANCH   2   3
ENDBRANCH   1   2
BRANCH   1  21
ATOM     21  C   UNL A   1      34.689  32.730  28.102  1.00  0.00     0.118 C 
BRANCH  21  22
ATOM     22  N   UNL A   1      34.024  31.488  27.729  1.00  0.00    -0.352 N 
ATOM     23  C   UNL A   1      34.547  30.221  27.623  1.00  0.00     0.251 C 
ATOM     24  H   UNL A   1      33.064  31.568  27.525  1.00  0.00     0.163 HD
ATOM     25  O   UNL A   1      33.873  29.320  27.133  1.00  0.00    -0.269 OA
BRANCH  23  26
ATOM     26  C   UNL A   1      35.929  29.956  28.075  1.00  0.00     0.039 A 
ATOM     27  C   UNL A   1      36.152  29.568  29.399  1.00  0.00     0.014 A 
ATOM     28  C   UNL A   1      37.003  30.079  27.188  1.00  0.00     0.014 A 
ATOM     29  C   UNL A   1      37.442  29.229  29.816  1.00  0.00     0.010 A 
ATOM     30  C   UNL A   1      38.274  29.677  27.585  1.00  0.00     0.010 A 
ATOM     31  C   UNL A   1      38.506  29.244  28.901  1.00  0.00    -0.014 A 
BRANCH  31  32
ATOM     32  C   UNL A   1      39.878  28.819  29.275  1.00  0.00     0.031 A 
ATOM     33  C   UNL A   1      40.828  29.816  29.876  1.00  0.00     0.074 A 
ATOM     34  C   UNL A   1      40.308  27.581  28.963  1.00  0.00     0.049 A 
ATOM     35  N   UNL A   1      42.113  29.706  30.093  1.00  0.00    -0.248 NA
ATOM     36  C   UNL A   1      40.260  31.122  30.247  1.00  0.00     0.031 C 
ATOM     37  C   UNL A   1      39.494  26.530  28.350  1.00  0.00     0.029 A 
ATOM     38  N   UNL A   1      41.550  27.009  29.087  1.00  0.00    -0.354 N 
ATOM     39  C   UNL A   1      42.517  30.942  30.587  1.00  0.00     0.074 A 
ATOM     40  C   UNL A   1      41.345  31.792  30.607  1.00  0.00     0.031 C 
ATOM     41  C   UNL A   1      40.258  25.446  28.146  1.00  0.00     0.029 A 
ATOM     42  C   UNL A   1      41.625  25.738  28.570  1.00  0.00     0.049 A 
ATOM     43  H   UNL A   1      42.314  27.467  29.506  1.00  0.00     0.167 HD
ATOM     44  C   UNL A   1      43.749  31.332  30.992  1.00  0.00     0.031 A 
ATOM     45  C   UNL A   1      42.677  24.909  28.423  1.00  0.00     0.031 A 
ATOM     46  C   UNL A   1      44.907  30.480  30.981  1.00  0.00     0.049 A 
ATOM     47  C   UNL A   1      44.035  25.352  28.889  1.00  0.00     0.074 A 
ATOM     48  C   UNL A   1      46.188  30.761  31.422  1.00  0.00     0.029 A 
ATOM     49  N   UNL A   1      44.924  29.178  30.501  1.00  0.00    -0.354 N 
ATOM     50  N   UNL A   1      44.390  26.506  29.401  1.00  0.00    -0.248 NA
ATOM     51  C   UNL A   1      45.131  24.381  28.768  1.00  0.00     0.031 C 
ATOM     52  C   UNL A   1      46.990  29.642  31.172  1.00  0.00     0.029 A 
ATOM     53  C   UNL A   1      46.196  28.647  30.621  1.00  0.00     0.049 A 
ATOM     54  H   UNL A   1      44.147  28.702  30.130  1.00  0.00     0.167 HD
ATOM     55  C   UNL A   1      45.745  26.392  29.687  1.00  0.00     0.074 A 
ATOM     56  C   UNL A   1      46.146  25.056  29.294  1.00  0.00     0.031 C 
ATOM     57  C   UNL A   1      46.578  27.312  30.233  1.00  0.00     0.031 A 
BRANCH  44  58
ATOM     58  C   UNL A   1      43.899  32.758  31.453  1.00  0.00    -0.014 A 
ATOM     59  C   UNL A   1      43.983  33.077  32.821  1.00  0.00     0.010 A 
ATOM     60  C   UNL A   1      43.937  33.795  30.505  1.00  0.00     0.010 A 
ATOM     61  C   UNL A   1      44.026  34.410  33.234  1.00  0.00     0.020 A 
ATOM     62  C   UNL A   1      44.012  35.130  30.913  1.00  0.00     0.020 A 
ATOM     63  C   UNL A   1      44.026  35.429  32.277  1.00  0.00     0.054 A 
BRANCH  63  64
ATOM     64  S   UNL A   1      44.047  37.155  32.837  1.00  0.00     0.124 S 
ATOM     65  O   UNL A   1      42.856  37.209  33.680  1.00  0.00    -0.237 OA
ATOM     66  O   UNL A   1      45.321  37.249  33.545  1.00  0.00    -0.237 OA
ATOM     67  O   UNL A   1      43.970  37.921  31.596  1.00  0.00    -0.744 OA
ENDBRANCH  63  64
ENDBRANCH  44  58
BRANCH  45  68
ATOM     68  C   UNL A   1      42.465  23.572  27.807  1.00  0.00    -0.014 A 
ATOM     69  C   UNL A   1      42.651  23.387  26.427  1.00  0.00     0.010 A 
ATOM     70  C   UNL A   1      42.153  22.460  28.613  1.00  0.00     0.010 A 
ATOM     71  C   UNL A   1      42.541  22.112  25.863  1.00  0.00     0.020 A 
ATOM     72  C   UNL A   1      42.063  21.181  28.056  1.00  0.00     0.020 A 
ATOM     73  C   UNL A   1      42.257  21.016  26.683  1.00  0.00     0.054 A 
BRANCH  73  74
ATOM     74  S   UNL A   1      42.226  19.357  25.947  1.00  0.00     0.124 S 
ATOM     75  O   UNL A   1      43.140  19.508  24.819  1.00  0.00    -0.237 OA
ATOM     76  O   UNL A   1      42.706  18.516  27.042  1.00  0.00    -0.237 OA
ATOM     77  O   UNL A   1      40.821  19.165  25.597  1.00  0.00    -0.744 OA
ENDBRANCH  73  74
ENDBRANCH  45  68
BRANCH  57  78
ATOM     78  C   UNL A   1      48.005  26.905  30.483  1.00  0.00    -0.014 A 
ATOM     79  C   UNL A   1      48.995  27.080  29.503  1.00  0.00     0.010 A 
ATOM     80  C   UNL A   1      48.374  26.442  31.760  1.00  0.00     0.010 A 
ATOM     81  C   UNL A   1      50.333  26.795  29.794  1.00  0.00     0.020 A 
ATOM     82  C   UNL A   1      49.712  26.176  32.060  1.00  0.00     0.020 A 
ATOM     83  C   UNL A   1      50.684  26.352  31.073  1.00  0.00     0.054 A 
BRANCH  83  84
ATOM     84  S   UNL A   1      52.435  26.077  31.455  1.00  0.00     0.124 S 
ATOM     85  O   UNL A   1      52.431  24.695  31.927  1.00  0.00    -0.237 OA
ATOM     86  O   UNL A   1      53.085  26.297  30.165  1.00  0.00    -0.237 OA
ATOM     87  O   UNL A   1      52.730  27.082  32.473  1.00  0.00    -0.744 OA
ENDBRANCH  83  84
ENDBRANCH  57  78
ENDBRANCH  31  32
ENDBRANCH  23  26
ENDBRANCH  21  22
ENDBRANCH   1  21
TORSDOF 15
ENDMDL
MODEL 2
REMARK VINA RESULT:      -9.3      3.861     10.837
REMARK SMILES C[C@@H](C(=O)NCCCNC(=O)c1ccc(-c2c3nc(c(-c4ccc(S(=O)(=O)[O-])cc4)c4ccc([nH]4)c(-c4ccc(S(=O)(=O)[O-])cc4)c4nc(c(-c5ccc(S(=O)(=O)[O-])cc5)c5ccc2[nH]5)C=C4)C=C3)cc1)c1ccc(-c2ccccc2)cc1
REMARK SMILES IDX 7 1 6 2 5 3 3 4 4 5 2 7 1 8 72 9 73 10 83 11 74 12 82 13
REMARK SMILES IDX 75 14 76 15 77 16 81 17 78 18 80 19 79 20 8 21 9 22 10 23
REMARK SMILES IDX 11 25 12 26 13 27 71 28 14 29 70 30 15 31 16 32 17 33 64 34
REMARK SMILES IDX 18 35 69 36 63 37 65 38 19 39 68 40 62 41 61 42 20 44 50 45
REMARK SMILES IDX 31 46 49 47 32 48 35 49 48 50 66 51 33 52 34 53 47 55 67 56
REMARK SMILES IDX 36 57 21 58 22 59 30 60 23 61 29 62 24 63 25 64 26 65 27 66
REMARK SMILES IDX 28 67 51 68 52 69 60 70 53 71 59 72 54 73 55 74 56 75 57 76
REMARK SMILES IDX 58 77 37 78 38 79 46 80 39 81 45 82 40 83 41 84 42 85 43 86
REMARK SMILES IDX 44 87
REMARK H PARENT 5 6 9 24 65 43 35 54
REMARK Flexibility Score: inf
ROOT
ATOM      1  C   UNL A   1      35.660  23.099  25.551  1.00  0.00     0.042 C 
ENDROOT
BRANCH   1   2
ATOM      2  C   UNL A   1      35.036  22.224  24.467  1.00  0.00     0.117 C 
BRANCH   2   3
ATOM      3  N   UNL A   1      33.812  21.592  24.920  1.00  0.00    -0.356 N 
ATOM      4  C   UNL A   1      32.506  21.942  24.743  1.00  0.00     0.227 C 
ATOM      5  O   UNL A   1      31.678  21.223  25.306  1.00  0.00    -0.274 OA
ATOM      6  H   UNL A   1      33.948  20.771  25.444  1.00  0.00     0.163 HD
BRANCH   4   7
ATOM      7  C   UNL A   1      32.134  23.148  23.860  1.00  0.00     0.105 C 
ATOM      8  C   UNL A   1      32.834  23.110  22.499  1.00  0.00     0.023 C 
BRANCH   7   9
ATOM      9  C   UNL A   1      32.426  24.492  24.523  1.00  0.00    -0.036 A 
ATOM     10  C   UNL A   1      33.113  25.504  23.838  1.00  0.00     0.005 A 
ATOM     11  C   UNL A   1      31.964  24.760  25.818  1.00  0.00     0.005 A 
ATOM     12  C   UNL A   1      33.354  26.740  24.439  1.00  0.00     0.009 A 
ATOM     13  C   UNL A   1      32.200  26.005  26.415  1.00  0.00     0.009 A 
ATOM     14  C   UNL A   1      32.901  27.015  25.737  1.00  0.00    -0.018 A 
BRANCH  14  15
ATOM     15  C   UNL A   1      33.163  28.324  26.356  1.00  0.00    -0.018 A 
ATOM     16  C   UNL A   1      32.179  29.327  26.363  1.00  0.00     0.009 A 
ATOM     17  C   UNL A   1      34.411  28.621  26.926  1.00  0.00     0.009 A 
ATOM     18  C   UNL A   1      32.436  30.585  26.913  1.00  0.00     0.001 A 
ATOM     19  C   UNL A   1      34.670  29.879  27.476  1.00  0.00     0.001 A 
ATOM     20  C   UNL A   1      33.682  30.861  27.466  1.00  0.00     0.000 A 
ENDBRANCH  14  15
ENDBRANCH   7   9
ENDBRANCH   4   7
ENDBRANCH   2   3
ENDBRANCH   1   2
BRANCH   1  21
ATOM     21  C   UNL A   1      37.046  23.637  25.208  1.00  0.00     0.118 C 
BRANCH  21  22
ATOM     22  N   UNL A   1      38.112  22.693  25.513  1.00  0.00    -0.352 N 
ATOM     23  C   UNL A   1      39.306  22.910  26.159  1.00  0.00     0.251 C 
ATOM     24  H   UNL A   1      37.954  21.767  25.216  1.00  0.00     0.163 HD
ATOM     25  O   UNL A   1      40.159  22.028  26.181  1.00  0.00    -0.269 OA
BRANCH  23  26
ATOM     26  C   UNL A   1      39.568  24.215  26.801  1.00  0.00     0.039 A 
ATOM     27  C   UNL A   1      39.091  24.448  28.094  1.00  0.00     0.014 A 
ATOM     28  C   UNL A   1      40.294  25.203  26.131  1.00  0.00     0.014 A 
ATOM     29  C   UNL A   1      39.407  25.643  28.746  1.00  0.00     0.010 A 
ATOM     30  C   UNL A   1      40.664  26.363  26.804  1.00  0.00     0.010 A 
ATOM     31  C   UNL A   1      40.228  26.593  28.120  1.00  0.00    -0.014 A 
BRANCH  31  32
ATOM     32  C   UNL A   1      40.655  27.842  28.800  1.00  0.00     0.031 A 
ATOM     33  C   UNL A   1      41.975  27.884  29.515  1.00  0.00     0.074 A 
ATOM     34  C   UNL A   1      39.809  28.887  28.881  1.00  0.00     0.049 A 
ATOM     35  N   UNL A   1      42.447  28.796  30.325  1.00  0.00    -0.248 NA
ATOM     36  C   UNL A   1      42.865  26.729  29.320  1.00  0.00     0.031 C 
ATOM     37  C   UNL A   1      38.487  28.960  28.256  1.00  0.00     0.029 A 
ATOM     38  N   UNL A   1      39.925  30.078  29.555  1.00  0.00    -0.354 N 
ATOM     39  C   UNL A   1      43.670  28.306  30.769  1.00  0.00     0.074 A 
ATOM     40  C   UNL A   1      43.850  27.004  30.162  1.00  0.00     0.031 C 
ATOM     41  C   UNL A   1      37.912  30.128  28.581  1.00  0.00     0.029 A 
ATOM     42  C   UNL A   1      38.802  30.868  29.472  1.00  0.00     0.049 A 
ATOM     43  H   UNL A   1      40.734  30.341  30.049  1.00  0.00     0.167 HD
ATOM     44  C   UNL A   1      44.566  28.888  31.602  1.00  0.00     0.031 A 
ATOM     45  C   UNL A   1      38.505  32.039  30.067  1.00  0.00     0.031 A 
ATOM     46  C   UNL A   1      44.388  30.187  32.194  1.00  0.00     0.049 A 
ATOM     47  C   UNL A   1      39.515  32.679  30.979  1.00  0.00     0.074 A 
ATOM     48  C   UNL A   1      45.259  30.891  33.006  1.00  0.00     0.029 A 
ATOM     49  N   UNL A   1      43.259  30.978  32.037  1.00  0.00    -0.354 N 
ATOM     50  N   UNL A   1      40.688  32.226  31.349  1.00  0.00    -0.248 NA
ATOM     51  C   UNL A   1      39.166  33.989  31.545  1.00  0.00     0.031 C 
ATOM     52  C   UNL A   1      44.640  32.091  33.373  1.00  0.00     0.029 A 
ATOM     53  C   UNL A   1      43.404  32.155  32.749  1.00  0.00     0.049 A 
ATOM     54  H   UNL A   1      42.471  30.737  31.498  1.00  0.00     0.167 HD
ATOM     55  C   UNL A   1      41.230  33.207  32.172  1.00  0.00     0.074 A 
ATOM     56  C   UNL A   1      40.258  34.278  32.243  1.00  0.00     0.031 C 
ATOM     57  C   UNL A   1      42.430  33.218  32.803  1.00  0.00     0.031 A 
BRANCH  44  58
ATOM     58  C   UNL A   1      45.803  28.099  31.938  1.00  0.00    -0.014 A 
ATOM     59  C   UNL A   1      46.977  28.221  31.171  1.00  0.00     0.010 A 
ATOM     60  C   UNL A   1      45.787  27.208  33.025  1.00  0.00     0.010 A 
ATOM     61  C   UNL A   1      48.083  27.412  31.438  1.00  0.00     0.020 A 
ATOM     62  C   UNL A   1      46.903  26.419  33.316  1.00  0.00     0.020 A 
ATOM     63  C   UNL A   1      48.034  26.505  32.501  1.00  0.00     0.054 A 
BRANCH  63  64
ATOM     64  S   UNL A   1      49.469  25.440  32.809  1.00  0.00     0.124 S 
ATOM     65  O   UNL A   1      49.825  25.021  31.456  1.00  0.00    -0.237 OA
ATOM     66  O   UNL A   1      50.414  26.349  33.453  1.00  0.00    -0.237 OA
ATOM     67  O   UNL A   1      48.939  24.386  33.670  1.00  0.00    -0.744 OA
ENDBRANCH  63  64
ENDBRANCH  44  58
BRANCH  45  68
ATOM     68  C   UNL A   1      37.186  32.674  29.802  1.00  0.00    -0.014 A 
ATOM     69  C   UNL A   1      36.154  32.591  30.751  1.00  0.00     0.010 A 
ATOM     70  C   UNL A   1      36.985  33.430  28.633  1.00  0.00     0.010 A 
ATOM     71  C   UNL A   1      34.946  33.263  30.542  1.00  0.00     0.020 A 
ATOM     72  C   UNL A   1      35.787  34.121  28.430  1.00  0.00     0.020 A 
ATOM     73  C   UNL A   1      34.774  34.032  29.387  1.00  0.00     0.054 A 
BRANCH  73  74
ATOM     74  S   UNL A   1      33.241  34.983  29.189  1.00  0.00     0.124 S 
ATOM     75  O   UNL A   1      33.740  36.266  28.704  1.00  0.00    -0.237 OA
ATOM     76  O   UNL A   1      32.496  34.185  28.217  1.00  0.00    -0.237 OA
ATOM     77  O   UNL A   1      32.672  34.997  30.535  1.00  0.00    -0.744 OA
ENDBRANCH  73  74
ENDBRANCH  45  68
BRANCH  57  78
ATOM     78  C   UNL A   1      42.791  34.441  33.601  1.00  0.00    -0.014 A 
ATOM     79  C   UNL A   1      42.608  34.484  34.993  1.00  0.00     0.010 A 
ATOM     80  C   UNL A   1      43.424  35.520  32.956  1.00  0.00     0.010 A 
ATOM     81  C   UNL A   1      43.050  35.589  35.727  1.00  0.00     0.020 A 
ATOM     82  C   UNL A   1      43.885  36.616  33.690  1.00  0.00     0.020 A 
ATOM     83  C   UNL A   1      43.691  36.644  35.072  1.00  0.00     0.054 A 
BRANCH  83  84
ATOM     84  S   UNL A   1      44.338  38.024  36.057  1.00  0.00     0.124 S 
ATOM     85  O   UNL A   1      44.066  39.169  35.192  1.00  0.00    -0.237 OA
ATOM     86  O   UNL A   1      43.534  37.954  37.275  1.00  0.00    -0.237 OA
ATOM     87  O   UNL A   1      45.750  37.694  36.231  1.00  0.00    -0.744 OA
ENDBRANCH  83  84
ENDBRANCH  57  78
ENDBRANCH  31  32
ENDBRANCH  23  26
ENDBRANCH  21  22
ENDBRANCH   1  21
TORSDOF 15
ENDMDL
MODEL 3
REMARK VINA RESULT:      -9.3      3.573      6.327
REMARK SMILES C[C@@H](C(=O)NCCCNC(=O)c1ccc(-c2c3nc(c(-c4ccc(S(=O)(=O)[O-])cc4)c4ccc([nH]4)c(-c4ccc(S(=O)(=O)[O-])cc4)c4nc(c(-c5ccc(S(=O)(=O)[O-])cc5)c5ccc2[nH]5)C=C4)C=C3)cc1)c1ccc(-c2ccccc2)cc1
REMARK SMILES IDX 7 1 6 2 5 3 3 4 4 5 2 7 1 8 72 9 73 10 83 11 74 12 82 13
REMARK SMILES IDX 75 14 76 15 77 16 81 17 78 18 80 19 79 20 8 21 9 22 10 23
REMARK SMILES IDX 11 25 12 26 13 27 71 28 14 29 70 30 15 31 16 32 17 33 64 34
REMARK SMILES IDX 18 35 69 36 63 37 65 38 19 39 68 40 62 41 61 42 20 44 50 45
REMARK SMILES IDX 31 46 49 47 32 48 35 49 48 50 66 51 33 52 34 53 47 55 67 56
REMARK SMILES IDX 36 57 21 58 22 59 30 60 23 61 29 62 24 63 25 64 26 65 27 66
REMARK SMILES IDX 28 67 51 68 52 69 60 70 53 71 59 72 54 73 55 74 56 75 57 76
REMARK SMILES IDX 58 77 37 78 38 79 46 80 39 81 45 82 40 83 41 84 42 85 43 86
REMARK SMILES IDX 44 87
REMARK H PARENT 5 6 9 24 65 43 35 54
REMARK Flexibility Score: inf
ROOT
ATOM      1  C   UNL A   1      33.735  29.070  26.882  1.00  0.00     0.042 C 
ENDROOT
BRANCH   1   2
ATOM      2  C   UNL A   1      33.466  27.707  26.252  1.00  0.00     0.117 C 
BRANCH   2   3
ATOM      3  N   UNL A   1      32.195  27.155  26.677  1.00  0.00    -0.356 N 
ATOM      4  C   UNL A   1      31.403  26.197  26.117  1.00  0.00     0.227 C 
ATOM      5  O   UNL A   1      30.335  25.979  26.694  1.00  0.00    -0.274 OA
ATOM      6  H   UNL A   1      31.843  27.539  27.512  1.00  0.00     0.163 HD
BRANCH   4   7
ATOM      7  C   UNL A   1      31.869  25.434  24.863  1.00  0.00     0.105 C 
ATOM      8  C   UNL A   1      30.835  24.412  24.385  1.00  0.00     0.023 C 
BRANCH   7   9
ATOM      9  C   UNL A   1      33.207  24.724  25.052  1.00  0.00    -0.036 A 
ATOM     10  C   UNL A   1      34.184  24.738  24.047  1.00  0.00     0.005 A 
ATOM     11  C   UNL A   1      33.506  24.085  26.263  1.00  0.00     0.005 A 
ATOM     12  C   UNL A   1      35.415  24.108  24.235  1.00  0.00     0.009 A 
ATOM     13  C   UNL A   1      34.747  23.462  26.452  1.00  0.00     0.009 A 
ATOM     14  C   UNL A   1      35.720  23.461  25.440  1.00  0.00    -0.018 A 
BRANCH  14  15
ATOM     15  C   UNL A   1      37.024  22.804  25.623  1.00  0.00    -0.018 A 
ATOM     16  C   UNL A   1      37.232  21.483  25.191  1.00  0.00     0.009 A 
ATOM     17  C   UNL A   1      38.087  23.463  26.262  1.00  0.00     0.009 A 
ATOM     18  C   UNL A   1      38.454  20.840  25.398  1.00  0.00     0.001 A 
ATOM     19  C   UNL A   1      39.310  22.821  26.470  1.00  0.00     0.001 A 
ATOM     20  C   UNL A   1      39.492  21.508  26.040  1.00  0.00     0.000 A 
ENDBRANCH  14  15
ENDBRANCH   7   9
ENDBRANCH   4   7
ENDBRANCH   2   3
ENDBRANCH   1   2
BRANCH   1  21
ATOM     21  C   UNL A   1      35.127  29.221  27.488  1.00  0.00     0.118 C 
BRANCH  21  22
ATOM     22  N   UNL A   1      35.153  30.127  28.629  1.00  0.00    -0.352 N 
ATOM     23  C   UNL A   1      36.175  30.383  29.511  1.00  0.00     0.251 C 
ATOM     24  H   UNL A   1      34.320  30.628  28.789  1.00  0.00     0.163 HD
ATOM     25  O   UNL A   1      35.962  31.057  30.516  1.00  0.00    -0.269 OA
BRANCH  23  26
ATOM     26  C   UNL A   1      37.520  29.824  29.262  1.00  0.00     0.039 A 
ATOM     27  C   UNL A   1      38.056  29.886  27.973  1.00  0.00     0.014 A 
ATOM     28  C   UNL A   1      38.255  29.249  30.302  1.00  0.00     0.014 A 
ATOM     29  C   UNL A   1      39.361  29.441  27.741  1.00  0.00     0.010 A 
ATOM     30  C   UNL A   1      39.575  28.869  30.085  1.00  0.00     0.010 A 
ATOM     31  C   UNL A   1      40.143  28.965  28.804  1.00  0.00    -0.014 A 
BRANCH  31  32
ATOM     32  C   UNL A   1      41.558  28.554  28.624  1.00  0.00     0.031 A 
ATOM     33  C   UNL A   1      42.641  29.595  28.637  1.00  0.00     0.074 A 
ATOM     34  C   UNL A   1      41.855  27.274  28.325  1.00  0.00     0.049 A 
ATOM     35  N   UNL A   1      43.903  29.479  28.310  1.00  0.00    -0.248 NA
ATOM     36  C   UNL A   1      42.242  30.953  29.037  1.00  0.00     0.031 C 
ATOM     37  C   UNL A   1      40.891  26.175  28.251  1.00  0.00     0.029 A 
ATOM     38  N   UNL A   1      43.053  26.690  27.993  1.00  0.00    -0.354 N 
ATOM     39  C   UNL A   1      44.439  30.757  28.425  1.00  0.00     0.074 A 
ATOM     40  C   UNL A   1      43.358  31.634  28.821  1.00  0.00     0.031 C 
ATOM     41  C   UNL A   1      41.533  25.053  27.890  1.00  0.00     0.029 A 
ATOM     42  C   UNL A   1      42.942  25.360  27.663  1.00  0.00     0.049 A 
ATOM     43  H   UNL A   1      43.908  27.177  27.991  1.00  0.00     0.167 HD
ATOM     44  C   UNL A   1      45.715  31.163  28.224  1.00  0.00     0.031 A 
ATOM     45  C   UNL A   1      43.861  24.490  27.200  1.00  0.00     0.031 A 
ATOM     46  C   UNL A   1      46.788  30.285  27.842  1.00  0.00     0.049 A 
ATOM     47  C   UNL A   1      45.277  24.952  26.995  1.00  0.00     0.074 A 
ATOM     48  C   UNL A   1      48.127  30.586  27.668  1.00  0.00     0.029 A 
ATOM     49  N   UNL A   1      46.642  28.931  27.573  1.00  0.00    -0.354 N 
ATOM     50  N   UNL A   1      45.778  26.154  27.156  1.00  0.00    -0.248 NA
ATOM     51  C   UNL A   1      46.251  23.944  26.555  1.00  0.00     0.031 C 
ATOM     52  C   UNL A   1      48.785  29.422  27.255  1.00  0.00     0.029 A 
ATOM     53  C   UNL A   1      47.864  28.386  27.220  1.00  0.00     0.049 A 
ATOM     54  H   UNL A   1      45.795  28.433  27.626  1.00  0.00     0.167 HD
ATOM     55  C   UNL A   1      47.132  26.041  26.863  1.00  0.00     0.074 A 
ATOM     56  C   UNL A   1      47.372  24.654  26.516  1.00  0.00     0.031 C 
ATOM     57  C   UNL A   1      48.089  27.001  26.886  1.00  0.00     0.031 A 
BRANCH  44  58
ATOM     58  C   UNL A   1      46.001  32.632  28.389  1.00  0.00    -0.014 A 
ATOM     59  C   UNL A   1      45.958  33.511  27.291  1.00  0.00     0.010 A 
ATOM     60  C   UNL A   1      46.336  33.138  29.657  1.00  0.00     0.010 A 
ATOM     61  C   UNL A   1      46.318  34.852  27.444  1.00  0.00     0.020 A 
ATOM     62  C   UNL A   1      46.668  34.485  29.821  1.00  0.00     0.020 A 
ATOM     63  C   UNL A   1      46.685  35.327  28.707  1.00  0.00     0.054 A 
BRANCH  63  64
ATOM     64  S   UNL A   1      47.183  37.063  28.876  1.00  0.00     0.124 S 
ATOM     65  O   UNL A   1      46.770  37.618  27.590  1.00  0.00    -0.237 OA
ATOM     66  O   UNL A   1      46.408  37.510  30.031  1.00  0.00    -0.237 OA
ATOM     67  O   UNL A   1      48.626  36.989  29.090  1.00  0.00    -0.744 OA
ENDBRANCH  63  64
ENDBRANCH  44  58
BRANCH  45  68
ATOM     68  C   UNL A   1      43.452  23.090  26.909  1.00  0.00    -0.014 A 
ATOM     69  C   UNL A   1      43.663  22.538  25.635  1.00  0.00     0.010 A 
ATOM     70  C   UNL A   1      42.922  22.279  27.930  1.00  0.00     0.010 A 
ATOM     71  C   UNL A   1      43.362  21.195  25.388  1.00  0.00     0.020 A 
ATOM     72  C   UNL A   1      42.640  20.930  27.692  1.00  0.00     0.020 A 
ATOM     73  C   UNL A   1      42.861  20.397  26.421  1.00  0.00     0.054 A 
BRANCH  73  74
ATOM     74  S   UNL A   1      42.581  18.632  26.106  1.00  0.00     0.124 S 
ATOM     75  O   UNL A   1      42.935  18.035  27.390  1.00  0.00    -0.237 OA
ATOM     76  O   UNL A   1      41.162  18.593  25.760  1.00  0.00    -0.237 OA
ATOM     77  O   UNL A   1      43.490  18.334  25.002  1.00  0.00    -0.744 OA
ENDBRANCH  73  74
ENDBRANCH  45  68
BRANCH  57  78
ATOM     78  C   UNL A   1      49.501  26.591  26.569  1.00  0.00    -0.014 A 
ATOM     79  C   UNL A   1      50.362  26.107  27.568  1.00  0.00     0.010 A 
ATOM     80  C   UNL A   1      49.932  26.590  25.229  1.00  0.00     0.010 A 
ATOM     81  C   UNL A   1      51.633  25.632  27.232  1.00  0.00     0.020 A 
ATOM     82  C   UNL A   1      51.194  26.097  24.888  1.00  0.00     0.020 A 
ATOM     83  C   UNL A   1      52.038  25.623  25.894  1.00  0.00     0.054 A 
BRANCH  83  84
ATOM     84  S   UNL A   1      53.655  24.917  25.472  1.00  0.00     0.124 S 
ATOM     85  O   UNL A   1      53.301  23.552  25.092  1.00  0.00    -0.237 OA
ATOM     86  O   UNL A   1      54.106  25.775  24.379  1.00  0.00    -0.237 OA
ATOM     87  O   UNL A   1      54.421  25.041  26.709  1.00  0.00    -0.744 OA
ENDBRANCH  83  84
ENDBRANCH  57  78
ENDBRANCH  31  32
ENDBRANCH  23  26
ENDBRANCH  21  22
ENDBRANCH   1  21
TORSDOF 15
ENDMDL
