MODEL 1
REMARK VINA RESULT:     -10.2      0.000      0.000
REMARK SMILES C[C@H](C(=O)NCCCNC(=O)c1ccc(-c2c3nc(c(-c4ccc(S(=O)(=O)[O-])cc4)c4ccc([nH]4)c(-c4ccc(S(=O)(=O)[O-])cc4)c4nc(c(-c5ccc(S(=O)(=O)[O-])cc5)c5ccc2[nH]5)C=C4)C=C3)cc1)c1ccc(-c2ccccc2)c(F)c1
REMARK SMILES IDX 7 1 6 2 5 3 3 4 4 5 2 7 1 8 72 9 73 10 84 11 74 12 82 13
REMARK SMILES IDX 75 14 83 15 76 16 77 17 81 18 78 19 80 20 79 21 8 22 9 23
REMARK SMILES IDX 10 24 11 26 12 27 13 28 71 29 14 30 70 31 15 32 16 33 17 34
REMARK SMILES IDX 64 35 18 36 69 37 63 38 65 39 19 40 68 41 62 42 61 43 20 45
REMARK SMILES IDX 50 46 31 47 49 48 32 49 35 50 48 51 66 52 33 53 34 54 47 56
REMARK SMILES IDX 67 57 36 58 21 59 22 60 30 61 23 62 29 63 24 64 25 65 26 66
REMARK SMILES IDX 27 67 28 68 51 69 52 70 60 71 53 72 59 73 54 74 55 75 56 76
REMARK SMILES IDX 57 77 58 78 37 79 38 80 46 81 39 82 45 83 40 84 41 85 42 86
REMARK SMILES IDX 43 87 44 88
REMARK H PARENT 5 6 9 25 65 44 35 55
REMARK Flexibility Score: inf
ROOT
ATOM      1  C   UNL A   1      33.586  34.149  28.228  1.00  0.00     0.042 C 
ENDROOT
BRANCH   1   2
ATOM      2  C   UNL A   1      33.803  35.134  29.365  1.00  0.00     0.117 C 
BRANCH   2   3
ATOM      3  N   UNL A   1      32.887  34.938  30.475  1.00  0.00    -0.356 N 
ATOM      4  C   UNL A   1      33.004  35.248  31.797  1.00  0.00     0.227 C 
ATOM      5  O   UNL A   1      32.010  35.062  32.505  1.00  0.00    -0.274 OA
ATOM      6  H   UNL A   1      32.037  34.506  30.230  1.00  0.00     0.163 HD
BRANCH   4   7
ATOM      7  C   UNL A   1      34.295  35.807  32.397  1.00  0.00     0.105 C 
ATOM      8  C   UNL A   1      34.006  36.666  33.632  1.00  0.00     0.023 C 
BRANCH   7   9
ATOM      9  C   UNL A   1      35.424  34.806  32.618  1.00  0.00    -0.033 A 
ATOM     10  C   UNL A   1      36.142  34.217  31.568  1.00  0.00     0.005 A 
ATOM     11  C   UNL A   1      35.778  34.445  33.927  1.00  0.00     0.044 A 
ATOM     12  C   UNL A   1      37.112  33.240  31.813  1.00  0.00     0.012 A 
ATOM     13  C   UNL A   1      36.763  33.485  34.166  1.00  0.00     0.131 A 
ATOM     14  C   UNL A   1      37.437  32.845  33.119  1.00  0.00     0.017 A 
ATOM     15  F   UNL A   1      37.052  33.185  35.443  1.00  0.00    -0.206 F 
BRANCH  14  16
ATOM     16  C   UNL A   1      38.442  31.795  33.352  1.00  0.00    -0.015 A 
ATOM     17  C   UNL A   1      38.174  30.456  33.025  1.00  0.00     0.009 A 
ATOM     18  C   UNL A   1      39.684  32.095  33.938  1.00  0.00     0.009 A 
ATOM     19  C   UNL A   1      39.108  29.449  33.283  1.00  0.00     0.001 A 
ATOM     20  C   UNL A   1      40.619  31.089  34.196  1.00  0.00     0.001 A 
ATOM     21  C   UNL A   1      40.330  29.767  33.869  1.00  0.00     0.000 A 
ENDBRANCH  14  16
ENDBRANCH   7   9
ENDBRANCH   4   7
ENDBRANCH   2   3
ENDBRANCH   1   2
BRANCH   1  22
ATOM     22  C   UNL A   1      34.464  32.910  28.298  1.00  0.00     0.118 C 
BRANCH  22  23
ATOM     23  N   UNL A   1      33.748  31.689  27.962  1.00  0.00    -0.352 N 
ATOM     24  C   UNL A   1      34.224  30.413  27.789  1.00  0.00     0.251 C 
ATOM     25  H   UNL A   1      32.777  31.793  27.841  1.00  0.00     0.163 HD
ATOM     26  O   UNL A   1      33.475  29.547  27.333  1.00  0.00    -0.269 OA
BRANCH  24  27
ATOM     27  C   UNL A   1      35.628  30.078  28.122  1.00  0.00     0.039 A 
ATOM     28  C   UNL A   1      35.937  29.677  29.425  1.00  0.00     0.014 A 
ATOM     29  C   UNL A   1      36.644  30.179  27.168  1.00  0.00     0.014 A 
ATOM     30  C   UNL A   1      37.250  29.332  29.754  1.00  0.00     0.010 A 
ATOM     31  C   UNL A   1      37.929  29.740  27.470  1.00  0.00     0.010 A 
ATOM     32  C   UNL A   1      38.255  29.337  28.773  1.00  0.00    -0.014 A 
BRANCH  32  33
ATOM     33  C   UNL A   1      39.660  28.975  29.098  1.00  0.00     0.031 A 
ATOM     34  C   UNL A   1      40.560  29.984  29.766  1.00  0.00     0.074 A 
ATOM     35  C   UNL A   1      40.143  27.765  28.753  1.00  0.00     0.049 A 
ATOM     36  N   UNL A   1      41.824  29.879  30.086  1.00  0.00    -0.248 NA
ATOM     37  C   UNL A   1      39.969  31.294  30.087  1.00  0.00     0.031 C 
ATOM     38  C   UNL A   1      39.388  26.710  28.071  1.00  0.00     0.029 A 
ATOM     39  N   UNL A   1      41.389  27.217  28.930  1.00  0.00    -0.354 N 
ATOM     40  C   UNL A   1      42.182  31.111  30.622  1.00  0.00     0.074 A 
ATOM     41  C   UNL A   1      41.021  31.966  30.530  1.00  0.00     0.031 C 
ATOM     42  C   UNL A   1      40.177  25.634  27.918  1.00  0.00     0.029 A 
ATOM     43  C   UNL A   1      41.503  25.932  28.452  1.00  0.00     0.049 A 
ATOM     44  H   UNL A   1      42.133  27.698  29.358  1.00  0.00     0.167 HD
ATOM     45  C   UNL A   1      43.364  31.493  31.163  1.00  0.00     0.031 A 
ATOM     46  C   UNL A   1      42.554  25.088  28.443  1.00  0.00     0.031 A 
ATOM     47  C   UNL A   1      44.512  30.634  31.273  1.00  0.00     0.049 A 
ATOM     48  C   UNL A   1      43.856  25.534  29.053  1.00  0.00     0.074 A 
ATOM     49  C   UNL A   1      45.737  30.906  31.857  1.00  0.00     0.029 A 
ATOM     50  N   UNL A   1      44.578  29.335  30.790  1.00  0.00    -0.354 N 
ATOM     51  N   UNL A   1      44.156  26.683  29.609  1.00  0.00    -0.248 NA
ATOM     52  C   UNL A   1      44.955  24.559  29.050  1.00  0.00     0.031 C 
ATOM     53  C   UNL A   1      46.562  29.791  31.680  1.00  0.00     0.029 A 
ATOM     54  C   UNL A   1      45.828  28.800  31.047  1.00  0.00     0.049 A 
ATOM     55  H   UNL A   1      43.845  28.864  30.333  1.00  0.00     0.167 HD
ATOM     56  C   UNL A   1      45.466  26.554  30.060  1.00  0.00     0.074 A 
ATOM     57  C   UNL A   1      45.895  25.214  29.718  1.00  0.00     0.031 C 
ATOM     58  C   UNL A   1      46.240  27.461  30.708  1.00  0.00     0.031 A 
BRANCH  45  59
ATOM     59  C   UNL A   1      43.473  32.909  31.671  1.00  0.00    -0.014 A 
ATOM     60  C   UNL A   1      43.229  33.222  33.022  1.00  0.00     0.010 A 
ATOM     61  C   UNL A   1      43.858  33.937  30.792  1.00  0.00     0.010 A 
ATOM     62  C   UNL A   1      43.321  34.542  33.471  1.00  0.00     0.020 A 
ATOM     63  C   UNL A   1      43.982  35.254  31.244  1.00  0.00     0.020 A 
ATOM     64  C   UNL A   1      43.693  35.551  32.578  1.00  0.00     0.054 A 
BRANCH  64  65
ATOM     65  S   UNL A   1      43.822  37.251  33.193  1.00  0.00     0.124 S 
ATOM     66  O   UNL A   1      43.807  38.022  31.951  1.00  0.00    -0.237 OA
ATOM     67  O   UNL A   1      42.631  37.382  34.028  1.00  0.00    -0.237 OA
ATOM     68  O   UNL A   1      45.092  37.263  33.917  1.00  0.00    -0.744 OA
ENDBRANCH  64  65
ENDBRANCH  45  59
BRANCH  46  69
ATOM     69  C   UNL A   1      42.410  23.724  27.864  1.00  0.00    -0.014 A 
ATOM     70  C   UNL A   1      42.714  23.485  26.511  1.00  0.00     0.010 A 
ATOM     71  C   UNL A   1      41.972  22.652  28.663  1.00  0.00     0.010 A 
ATOM     72  C   UNL A   1      42.560  22.209  25.963  1.00  0.00     0.020 A 
ATOM     73  C   UNL A   1      41.847  21.367  28.126  1.00  0.00     0.020 A 
ATOM     74  C   UNL A   1      42.129  21.157  26.776  1.00  0.00     0.054 A 
BRANCH  74  75
ATOM     75  S   UNL A   1      41.981  19.499  26.053  1.00  0.00     0.124 S 
ATOM     76  O   UNL A   1      42.445  18.649  27.146  1.00  0.00    -0.237 OA
ATOM     77  O   UNL A   1      40.556  19.414  25.745  1.00  0.00    -0.237 OA
ATOM     78  O   UNL A   1      42.861  19.555  24.887  1.00  0.00    -0.744 OA
ENDBRANCH  74  75
ENDBRANCH  46  69
BRANCH  58  79
ATOM     79  C   UNL A   1      47.611  27.018  31.146  1.00  0.00    -0.014 A 
ATOM     80  C   UNL A   1      48.745  27.211  30.338  1.00  0.00     0.010 A 
ATOM     81  C   UNL A   1      47.769  26.436  32.418  1.00  0.00     0.010 A 
ATOM     82  C   UNL A   1      50.004  26.791  30.775  1.00  0.00     0.020 A 
ATOM     83  C   UNL A   1      49.029  26.044  32.873  1.00  0.00     0.020 A 
ATOM     84  C   UNL A   1      50.137  26.207  32.040  1.00  0.00     0.054 A 
BRANCH  84  85
ATOM     85  S   UNL A   1      51.785  25.696  32.598  1.00  0.00     0.124 S 
ATOM     86  O   UNL A   1      52.185  26.822  33.437  1.00  0.00    -0.237 OA
ATOM     87  O   UNL A   1      51.512  24.449  33.307  1.00  0.00    -0.237 OA
ATOM     88  O   UNL A   1      52.541  25.545  31.355  1.00  0.00    -0.744 OA
ENDBRANCH  84  85
ENDBRANCH  58  79
ENDBRANCH  32  33
ENDBRANCH  24  27
ENDBRANCH  22  23
ENDBRANCH   1  22
TORSDOF 15
ENDMDL
MODEL 2
REMARK VINA RESULT:     -10.1      3.840      6.921
REMARK SMILES C[C@H](C(=O)NCCCNC(=O)c1ccc(-c2c3nc(c(-c4ccc(S(=O)(=O)[O-])cc4)c4ccc([nH]4)c(-c4ccc(S(=O)(=O)[O-])cc4)c4nc(c(-c5ccc(S(=O)(=O)[O-])cc5)c5ccc2[nH]5)C=C4)C=C3)cc1)c1ccc(-c2ccccc2)c(F)c1
REMARK SMILES IDX 7 1 6 2 5 3 3 4 4 5 2 7 1 8 72 9 73 10 84 11 74 12 82 13
REMARK SMILES IDX 75 14 83 15 76 16 77 17 81 18 78 19 80 20 79 21 8 22 9 23
REMARK SMILES IDX 10 24 11 26 12 27 13 28 71 29 14 30 70 31 15 32 16 33 17 34
REMARK SMILES IDX 64 35 18 36 69 37 63 38 65 39 19 40 68 41 62 42 61 43 20 45
REMARK SMILES IDX 50 46 31 47 49 48 32 49 35 50 48 51 66 52 33 53 34 54 47 56
REMARK SMILES IDX 67 57 36 58 21 59 22 60 30 61 23 62 29 63 24 64 25 65 26 66
REMARK SMILES IDX 27 67 28 68 51 69 52 70 60 71 53 72 59 73 54 74 55 75 56 76
REMARK SMILES IDX 57 77 58 78 37 79 38 80 46 81 39 82 45 83 40 84 41 85 42 86
REMARK SMILES IDX 43 87 44 88
REMARK H PARENT 5 6 9 25 65 44 35 55
REMARK Flexibility Score: inf
ROOT
ATOM      1  C   UNL A   1      33.669  27.666  25.858  1.00  0.00     0.042 C 
ENDROOT
BRANCH   1   2
ATOM      2  C   UNL A   1      33.790  26.159  25.701  1.00  0.00     0.117 C 
BRANCH   2   3
ATOM      3  N   UNL A   1      32.621  25.439  26.176  1.00  0.00    -0.356 N 
ATOM      4  C   UNL A   1      31.573  24.891  25.499  1.00  0.00     0.227 C 
ATOM      5  O   UNL A   1      30.762  24.234  26.160  1.00  0.00    -0.274 OA
ATOM      6  H   UNL A   1      32.578  25.329  27.153  1.00  0.00     0.163 HD
BRANCH   4   7
ATOM      7  C   UNL A   1      31.390  25.063  23.990  1.00  0.00     0.105 C 
ATOM      8  C   UNL A   1      30.683  23.852  23.374  1.00  0.00     0.023 C 
BRANCH   7   9
ATOM      9  C   UNL A   1      30.804  26.394  23.530  1.00  0.00    -0.033 A 
ATOM     10  C   UNL A   1      31.574  27.411  22.951  1.00  0.00     0.005 A 
ATOM     11  C   UNL A   1      29.429  26.630  23.684  1.00  0.00     0.044 A 
ATOM     12  C   UNL A   1      31.010  28.648  22.623  1.00  0.00     0.012 A 
ATOM     13  C   UNL A   1      28.868  27.859  23.333  1.00  0.00     0.131 A 
ATOM     14  C   UNL A   1      29.644  28.902  22.815  1.00  0.00     0.017 A 
ATOM     15  F   UNL A   1      27.545  28.019  23.508  1.00  0.00    -0.206 F 
BRANCH  14  16
ATOM     16  C   UNL A   1      29.077  30.220  22.488  1.00  0.00    -0.015 A 
ATOM     17  C   UNL A   1      28.596  30.497  21.197  1.00  0.00     0.009 A 
ATOM     18  C   UNL A   1      29.032  31.250  23.443  1.00  0.00     0.009 A 
ATOM     19  C   UNL A   1      28.095  31.759  20.869  1.00  0.00     0.001 A 
ATOM     20  C   UNL A   1      28.531  32.513  23.116  1.00  0.00     0.001 A 
ATOM     21  C   UNL A   1      28.065  32.767  21.829  1.00  0.00     0.000 A 
ENDBRANCH  14  16
ENDBRANCH   7   9
ENDBRANCH   4   7
ENDBRANCH   2   3
ENDBRANCH   1   2
BRANCH   1  22
ATOM     22  C   UNL A   1      33.406  28.127  27.282  1.00  0.00     0.118 C 
BRANCH  22  23
ATOM     23  N   UNL A   1      33.292  29.573  27.396  1.00  0.00    -0.352 N 
ATOM     24  C   UNL A   1      34.198  30.489  27.872  1.00  0.00     0.251 C 
ATOM     25  H   UNL A   1      32.439  29.953  27.084  1.00  0.00     0.163 HD
ATOM     26  O   UNL A   1      33.840  31.655  28.046  1.00  0.00    -0.269 OA
BRANCH  24  27
ATOM     27  C   UNL A   1      35.584  30.082  28.198  1.00  0.00     0.039 A 
ATOM     28  C   UNL A   1      36.551  30.105  27.188  1.00  0.00     0.014 A 
ATOM     29  C   UNL A   1      35.933  29.656  29.482  1.00  0.00     0.014 A 
ATOM     30  C   UNL A   1      37.870  29.750  27.480  1.00  0.00     0.010 A 
ATOM     31  C   UNL A   1      37.264  29.400  29.794  1.00  0.00     0.010 A 
ATOM     32  C   UNL A   1      38.245  29.417  28.792  1.00  0.00    -0.014 A 
BRANCH  32  33
ATOM     33  C   UNL A   1      39.642  29.035  29.127  1.00  0.00     0.031 A 
ATOM     34  C   UNL A   1      40.550  30.031  29.805  1.00  0.00     0.074 A 
ATOM     35  C   UNL A   1      40.112  27.820  28.782  1.00  0.00     0.049 A 
ATOM     36  N   UNL A   1      41.810  29.907  30.135  1.00  0.00    -0.248 NA
ATOM     37  C   UNL A   1      39.974  31.348  30.125  1.00  0.00     0.031 C 
ATOM     38  C   UNL A   1      39.349  26.778  28.091  1.00  0.00     0.029 A 
ATOM     39  N   UNL A   1      41.349  27.255  28.967  1.00  0.00    -0.354 N 
ATOM     40  C   UNL A   1      42.180  31.133  30.677  1.00  0.00     0.074 A 
ATOM     41  C   UNL A   1      41.031  32.004  30.579  1.00  0.00     0.031 C 
ATOM     42  C   UNL A   1      40.124  25.692  27.941  1.00  0.00     0.029 A 
ATOM     43  C   UNL A   1      41.450  25.970  28.486  1.00  0.00     0.049 A 
ATOM     44  H   UNL A   1      42.096  27.725  29.403  1.00  0.00     0.167 HD
ATOM     45  C   UNL A   1      43.363  31.498  31.229  1.00  0.00     0.031 A 
ATOM     46  C   UNL A   1      42.490  25.113  28.482  1.00  0.00     0.031 A 
ATOM     47  C   UNL A   1      44.499  30.624  31.345  1.00  0.00     0.049 A 
ATOM     48  C   UNL A   1      43.793  25.539  29.104  1.00  0.00     0.074 A 
ATOM     49  C   UNL A   1      45.723  30.878  31.939  1.00  0.00     0.029 A 
ATOM     50  N   UNL A   1      44.552  29.326  30.859  1.00  0.00    -0.354 N 
ATOM     51  N   UNL A   1      44.103  26.683  29.666  1.00  0.00    -0.248 NA
ATOM     52  C   UNL A   1      44.879  24.550  29.107  1.00  0.00     0.031 C 
ATOM     53  C   UNL A   1      46.534  29.752  31.765  1.00  0.00     0.029 A 
ATOM     54  C   UNL A   1      45.793  28.773  31.124  1.00  0.00     0.049 A 
ATOM     55  H   UNL A   1      43.815  28.866  30.395  1.00  0.00     0.167 HD
ATOM     56  C   UNL A   1      45.408  26.535  30.127  1.00  0.00     0.074 A 
ATOM     57  C   UNL A   1      45.823  25.190  29.784  1.00  0.00     0.031 C 
ATOM     58  C   UNL A   1      46.189  27.430  30.784  1.00  0.00     0.031 A 
BRANCH  45  59
ATOM     59  C   UNL A   1      43.487  32.910  31.742  1.00  0.00    -0.014 A 
ATOM     60  C   UNL A   1      43.881  33.965  30.897  1.00  0.00     0.010 A 
ATOM     61  C   UNL A   1      43.173  33.194  33.084  1.00  0.00     0.010 A 
ATOM     62  C   UNL A   1      44.004  35.264  31.395  1.00  0.00     0.020 A 
ATOM     63  C   UNL A   1      43.263  34.498  33.578  1.00  0.00     0.020 A 
ATOM     64  C   UNL A   1      43.698  35.522  32.734  1.00  0.00     0.054 A 
BRANCH  64  65
ATOM     65  S   UNL A   1      43.849  37.222  33.348  1.00  0.00     0.124 S 
ATOM     66  O   UNL A   1      45.116  37.167  34.075  1.00  0.00    -0.237 OA
ATOM     67  O   UNL A   1      43.865  38.007  32.117  1.00  0.00    -0.237 OA
ATOM     68  O   UNL A   1      42.661  37.398  34.180  1.00  0.00    -0.744 OA
ENDBRANCH  64  65
ENDBRANCH  45  59
BRANCH  46  69
ATOM     69  C   UNL A   1      42.333  23.752  27.898  1.00  0.00    -0.014 A 
ATOM     70  C   UNL A   1      42.680  23.505  26.558  1.00  0.00     0.010 A 
ATOM     71  C   UNL A   1      41.838  22.692  28.680  1.00  0.00     0.010 A 
ATOM     72  C   UNL A   1      42.513  22.233  26.004  1.00  0.00     0.020 A 
ATOM     73  C   UNL A   1      41.700  21.410  28.139  1.00  0.00     0.020 A 
ATOM     74  C   UNL A   1      42.026  21.192  26.800  1.00  0.00     0.054 A 
BRANCH  74  75
ATOM     75  S   UNL A   1      41.863  19.538  26.072  1.00  0.00     0.124 S 
ATOM     76  O   UNL A   1      40.432  19.471  25.786  1.00  0.00    -0.237 OA
ATOM     77  O   UNL A   1      42.738  19.619  24.905  1.00  0.00    -0.237 OA
ATOM     78  O   UNL A   1      42.332  18.650  27.134  1.00  0.00    -0.744 OA
ENDBRANCH  74  75
ENDBRANCH  46  69
BRANCH  58  79
ATOM     79  C   UNL A   1      47.550  26.967  31.231  1.00  0.00    -0.014 A 
ATOM     80  C   UNL A   1      47.753  26.369  32.488  1.00  0.00     0.010 A 
ATOM     81  C   UNL A   1      48.641  27.092  30.350  1.00  0.00     0.010 A 
ATOM     82  C   UNL A   1      49.028  25.947  32.872  1.00  0.00     0.020 A 
ATOM     83  C   UNL A   1      49.911  26.642  30.716  1.00  0.00     0.020 A 
ATOM     84  C   UNL A   1      50.100  26.088  31.984  1.00  0.00     0.054 A 
BRANCH  84  85
ATOM     85  S   UNL A   1      51.741  25.507  32.493  1.00  0.00     0.124 S 
ATOM     86  O   UNL A   1      52.624  26.398  31.746  1.00  0.00    -0.237 OA
ATOM     87  O   UNL A   1      51.719  25.710  33.939  1.00  0.00    -0.237 OA
ATOM     88  O   UNL A   1      51.761  24.108  32.067  1.00  0.00    -0.744 OA
ENDBRANCH  84  85
ENDBRANCH  58  79
ENDBRANCH  32  33
ENDBRANCH  24  27
ENDBRANCH  22  23
ENDBRANCH   1  22
TORSDOF 15
ENDMDL
MODEL 3
REMARK VINA RESULT:      -9.9      3.725      6.471
REMARK SMILES C[C@H](C(=O)NCCCNC(=O)c1ccc(-c2c3nc(c(-c4ccc(S(=O)(=O)[O-])cc4)c4ccc([nH]4)c(-c4ccc(S(=O)(=O)[O-])cc4)c4nc(c(-c5ccc(S(=O)(=O)[O-])cc5)c5ccc2[nH]5)C=C4)C=C3)cc1)c1ccc(-c2ccccc2)c(F)c1
REMARK SMILES IDX 7 1 6 2 5 3 3 4 4 5 2 7 1 8 72 9 73 10 84 11 74 12 82 13
REMARK SMILES IDX 75 14 83 15 76 16 77 17 81 18 78 19 80 20 79 21 8 22 9 23
REMARK SMILES IDX 10 24 11 26 12 27 13 28 71 29 14 30 70 31 15 32 16 33 17 34
REMARK SMILES IDX 64 35 18 36 69 37 63 38 65 39 19 40 68 41 62 42 61 43 20 45
REMARK SMILES IDX 50 46 31 47 49 48 32 49 35 50 48 51 66 52 33 53 34 54 47 56
REMARK SMILES IDX 67 57 36 58 21 59 22 60 30 61 23 62 29 63 24 64 25 65 26 66
REMARK SMILES IDX 27 67 28 68 51 69 52 70 60 71 53 72 59 73 54 74 55 75 56 76
REMARK SMILES IDX 57 77 58 78 37 79 38 80 46 81 39 82 45 83 40 84 41 85 42 86
REMARK SMILES IDX 43 87 44 88
REMARK H PARENT 5 6 9 25 65 44 35 55
REMARK Flexibility Score: inf
ROOT
ATOM      1  C   UNL A   1      33.061  27.680  26.708  1.00  0.00     0.042 C 
ENDROOT
BRANCH   1   2
ATOM      2  C   UNL A   1      31.761  27.675  25.920  1.00  0.00     0.117 C 
BRANCH   2   3
ATOM      3  N   UNL A   1      30.806  26.692  26.402  1.00  0.00    -0.356 N 
ATOM      4  C   UNL A   1      30.611  25.389  26.054  1.00  0.00     0.227 C 
ATOM      5  O   UNL A   1      29.785  24.751  26.714  1.00  0.00    -0.274 OA
ATOM      6  H   UNL A   1      30.195  27.024  27.099  1.00  0.00     0.163 HD
BRANCH   4   7
ATOM      7  C   UNL A   1      31.372  24.724  24.906  1.00  0.00     0.105 C 
ATOM      8  C   UNL A   1      31.153  25.472  23.587  1.00  0.00     0.023 C 
BRANCH   7   9
ATOM      9  C   UNL A   1      32.838  24.396  25.169  1.00  0.00    -0.033 A 
ATOM     10  C   UNL A   1      33.883  24.850  24.353  1.00  0.00     0.005 A 
ATOM     11  C   UNL A   1      33.178  23.606  26.278  1.00  0.00     0.044 A 
ATOM     12  C   UNL A   1      35.205  24.454  24.583  1.00  0.00     0.012 A 
ATOM     13  C   UNL A   1      34.503  23.234  26.515  1.00  0.00     0.131 A 
ATOM     14  C   UNL A   1      35.542  23.629  25.666  1.00  0.00     0.017 A 
ATOM     15  F   UNL A   1      34.758  22.475  27.594  1.00  0.00    -0.206 F 
BRANCH  14  16
ATOM     16  C   UNL A   1      36.936  23.204  25.873  1.00  0.00    -0.015 A 
ATOM     17  C   UNL A   1      37.362  21.920  25.493  1.00  0.00     0.009 A 
ATOM     18  C   UNL A   1      37.872  24.054  26.486  1.00  0.00     0.009 A 
ATOM     19  C   UNL A   1      38.673  21.497  25.726  1.00  0.00     0.001 A 
ATOM     20  C   UNL A   1      39.183  23.632  26.719  1.00  0.00     0.001 A 
ATOM     21  C   UNL A   1      39.582  22.353  26.340  1.00  0.00     0.000 A 
ENDBRANCH  14  16
ENDBRANCH   7   9
ENDBRANCH   4   7
ENDBRANCH   2   3
ENDBRANCH   1   2
BRANCH   1  22
ATOM     22  C   UNL A   1      34.091  28.682  26.209  1.00  0.00     0.118 C 
BRANCH  22  23
ATOM     23  N   UNL A   1      33.752  30.056  26.545  1.00  0.00    -0.352 N 
ATOM     24  C   UNL A   1      34.328  30.901  27.462  1.00  0.00     0.251 C 
ATOM     25  H   UNL A   1      32.998  30.437  26.042  1.00  0.00     0.163 HD
ATOM     26  O   UNL A   1      33.779  31.973  27.720  1.00  0.00    -0.269 OA
BRANCH  24  27
ATOM     27  C   UNL A   1      35.583  30.525  28.153  1.00  0.00     0.039 A 
ATOM     28  C   UNL A   1      35.511  29.736  29.305  1.00  0.00     0.014 A 
ATOM     29  C   UNL A   1      36.826  30.964  27.690  1.00  0.00     0.014 A 
ATOM     30  C   UNL A   1      36.684  29.349  29.957  1.00  0.00     0.010 A 
ATOM     31  C   UNL A   1      37.995  30.496  28.281  1.00  0.00     0.010 A 
ATOM     32  C   UNL A   1      37.939  29.705  29.438  1.00  0.00    -0.014 A 
BRANCH  32  33
ATOM     33  C   UNL A   1      39.201  29.305  30.114  1.00  0.00     0.031 A 
ATOM     34  C   UNL A   1      39.647  30.031  31.359  1.00  0.00     0.074 A 
ATOM     35  C   UNL A   1      39.971  28.332  29.589  1.00  0.00     0.049 A 
ATOM     36  N   UNL A   1      40.736  29.866  32.065  1.00  0.00    -0.248 NA
ATOM     37  C   UNL A   1      38.768  31.102  31.857  1.00  0.00     0.031 C 
ATOM     38  C   UNL A   1      39.673  27.576  28.369  1.00  0.00     0.029 A 
ATOM     39  N   UNL A   1      41.166  27.809  30.017  1.00  0.00    -0.354 N 
ATOM     40  C   UNL A   1      40.683  30.824  33.072  1.00  0.00     0.074 A 
ATOM     41  C   UNL A   1      39.486  31.604  32.851  1.00  0.00     0.031 C 
ATOM     42  C   UNL A   1      40.641  26.668  28.167  1.00  0.00     0.029 A 
ATOM     43  C   UNL A   1      41.648  26.800  29.216  1.00  0.00     0.049 A 
ATOM     44  H   UNL A   1      41.636  28.127  30.821  1.00  0.00     0.167 HD
ATOM     45  C   UNL A   1      41.540  31.026  34.102  1.00  0.00     0.031 A 
ATOM     46  C   UNL A   1      42.773  26.064  29.312  1.00  0.00     0.031 A 
ATOM     47  C   UNL A   1      42.719  30.236  34.332  1.00  0.00     0.049 A 
ATOM     48  C   UNL A   1      43.709  26.304  30.467  1.00  0.00     0.074 A 
ATOM     49  C   UNL A   1      43.621  30.321  35.378  1.00  0.00     0.029 A 
ATOM     50  N   UNL A   1      43.161  29.213  33.505  1.00  0.00    -0.354 N 
ATOM     51  N   UNL A   1      43.609  27.176  31.442  1.00  0.00    -0.248 NA
ATOM     52  C   UNL A   1      44.899  25.446  30.544  1.00  0.00     0.031 C 
ATOM     53  C   UNL A   1      44.637  29.387  35.156  1.00  0.00     0.029 A 
ATOM     54  C   UNL A   1      44.332  28.673  34.008  1.00  0.00     0.049 A 
ATOM     55  H   UNL A   1      42.709  28.916  32.683  1.00  0.00     0.167 HD
ATOM     56  C   UNL A   1      44.702  26.942  32.272  1.00  0.00     0.074 A 
ATOM     57  C   UNL A   1      45.443  25.844  31.686  1.00  0.00     0.031 C 
ATOM     58  C   UNL A   1      45.055  27.574  33.419  1.00  0.00     0.031 A 
BRANCH  45  59
ATOM     59  C   UNL A   1      41.233  32.154  35.054  1.00  0.00    -0.014 A 
ATOM     60  C   UNL A   1      40.390  31.964  36.166  1.00  0.00     0.010 A 
ATOM     61  C   UNL A   1      41.821  33.416  34.852  1.00  0.00     0.010 A 
ATOM     62  C   UNL A   1      40.106  33.026  37.028  1.00  0.00     0.020 A 
ATOM     63  C   UNL A   1      41.565  34.472  35.731  1.00  0.00     0.020 A 
ATOM     64  C   UNL A   1      40.692  34.275  36.803  1.00  0.00     0.054 A 
BRANCH  64  65
ATOM     65  S   UNL A   1      40.319  35.629  37.950  1.00  0.00     0.124 S 
ATOM     66  O   UNL A   1      41.622  35.868  38.566  1.00  0.00    -0.237 OA
ATOM     67  O   UNL A   1      39.844  36.683  37.058  1.00  0.00    -0.237 OA
ATOM     68  O   UNL A   1      39.305  35.063  38.838  1.00  0.00    -0.744 OA
ENDBRANCH  64  65
ENDBRANCH  45  59
BRANCH  46  69
ATOM     69  C   UNL A   1      43.063  25.008  28.303  1.00  0.00    -0.014 A 
ATOM     70  C   UNL A   1      42.661  23.679  28.524  1.00  0.00     0.010 A 
ATOM     71  C   UNL A   1      43.740  25.326  27.111  1.00  0.00     0.010 A 
ATOM     72  C   UNL A   1      42.950  22.684  27.586  1.00  0.00     0.020 A 
ATOM     73  C   UNL A   1      44.003  24.340  26.156  1.00  0.00     0.020 A 
ATOM     74  C   UNL A   1      43.619  23.022  26.406  1.00  0.00     0.054 A 
BRANCH  74  75
ATOM     75  S   UNL A   1      43.942  21.722  25.182  1.00  0.00     0.124 S 
ATOM     76  O   UNL A   1      45.311  21.333  25.506  1.00  0.00    -0.237 OA
ATOM     77  O   UNL A   1      42.912  20.733  25.492  1.00  0.00    -0.237 OA
ATOM     78  O   UNL A   1      43.772  22.408  23.902  1.00  0.00    -0.744 OA
ENDBRANCH  74  75
ENDBRANCH  46  69
BRANCH  58  79
ATOM     79  C   UNL A   1      46.263  27.056  34.154  1.00  0.00    -0.014 A 
ATOM     80  C   UNL A   1      46.155  26.077  35.158  1.00  0.00     0.010 A 
ATOM     81  C   UNL A   1      47.539  27.530  33.795  1.00  0.00     0.010 A 
ATOM     82  C   UNL A   1      47.296  25.615  35.819  1.00  0.00     0.020 A 
ATOM     83  C   UNL A   1      48.685  27.047  34.430  1.00  0.00     0.020 A 
ATOM     84  C   UNL A   1      48.554  26.105  35.452  1.00  0.00     0.054 A 
BRANCH  84  85
ATOM     85  S   UNL A   1      50.023  25.469  36.304  1.00  0.00     0.124 S 
ATOM     86  O   UNL A   1      50.978  26.558  36.117  1.00  0.00    -0.237 OA
ATOM     87  O   UNL A   1      49.545  25.280  37.671  1.00  0.00    -0.237 OA
ATOM     88  O   UNL A   1      50.335  24.236  35.584  1.00  0.00    -0.744 OA
ENDBRANCH  84  85
ENDBRANCH  58  79
ENDBRANCH  32  33
ENDBRANCH  24  27
ENDBRANCH  22  23
ENDBRANCH   1  22
TORSDOF 15
ENDMDL
