MODEL 1
REMARK VINA RESULT:      -9.5      0.000      0.000
REMARK SMILES CC[C@@H]1CCC[C@](CCCCCO)(C(=O)NCCCNC(=O)c2ccc(-c3c4nc(c(-c5ccc(S(=O)(=O)[O-])cc5)c5ccc([nH]5)c(-c5ccc(S(=O)(=O)[O-])cc5)c5nc(c(-c6ccc(S(=O)(=O)[O-])cc6)c6ccc3[nH]6)C=C5)C=C4)cc2)C1
REMARK SMILES IDX 14 1 15 2 16 3 7 5 3 6 4 7 83 8 5 9 6 10 2 11 1 12 8 13 9 14
REMARK SMILES IDX 10 15 11 16 12 17 13 18 17 20 18 21 19 22 20 23 21 24 22 26
REMARK SMILES IDX 23 27 24 28 82 29 25 30 81 31 26 32 27 33 28 34 75 35 29 36
REMARK SMILES IDX 80 37 74 38 76 39 30 40 79 41 73 42 72 43 31 45 61 46 42 47
REMARK SMILES IDX 60 48 43 49 46 50 59 51 77 52 44 53 45 54 58 56 78 57 47 58
REMARK SMILES IDX 32 59 33 60 41 61 34 62 40 63 35 64 36 65 37 66 38 67 39 68
REMARK SMILES IDX 62 69 63 70 71 71 64 72 70 73 65 74 66 75 67 76 68 77 69 78
REMARK SMILES IDX 48 79 49 80 57 81 50 82 56 83 51 84 52 85 53 86 54 87 55 88
REMARK H PARENT 16 4 13 19 20 25 76 44 46 55
REMARK Flexibility Score: inf
ROOT
ATOM      1  C   UNL A   1      31.921  24.681  26.296  1.00  0.00     0.226 C 
ATOM      2  O   UNL A   1      31.458  24.037  27.252  1.00  0.00    -0.274 OA
ATOM      3  N   UNL A   1      32.214  25.955  26.623  1.00  0.00    -0.356 N 
ATOM      4  H   UNL A   1      31.704  26.285  27.398  1.00  0.00     0.163 HD
ENDROOT
BRANCH   1   5
ATOM      5  C   UNL A   1      32.116  23.983  24.909  1.00  0.00     0.049 C 
ATOM      6  C   UNL A   1      32.297  21.423  24.216  1.00  0.00    -0.010 C 
ATOM      7  C   UNL A   1      33.730  21.678  23.727  1.00  0.00     0.003 C 
ATOM      8  C   UNL A   1      31.902  22.451  25.294  1.00  0.00     0.020 C 
ATOM      9  C   UNL A   1      33.986  23.141  23.365  1.00  0.00     0.001 C 
ATOM     10  C   UNL A   1      33.604  24.084  24.506  1.00  0.00     0.017 C 
BRANCH   6  11
ATOM     11  C   UNL A   1      32.159  19.976  24.736  1.00  0.00     0.000 C 
ATOM     12  C   UNL A   1      32.638  18.927  23.739  1.00  0.00     0.004 C 
ENDBRANCH   6  11
BRANCH   5  13
ATOM     13  C   UNL A   1      31.079  24.249  23.771  1.00  0.00     0.017 C 
BRANCH  13  14
ATOM     14  C   UNL A   1      31.004  25.399  22.747  1.00  0.00     0.001 C 
BRANCH  14  15
ATOM     15  C   UNL A   1      31.246  26.860  23.110  1.00  0.00     0.002 C 
BRANCH  15  16
ATOM     16  C   UNL A   1      30.137  27.801  22.639  1.00  0.00     0.028 C 
BRANCH  16  17
ATOM     17  C   UNL A   1      30.569  29.264  22.568  1.00  0.00     0.156 C 
BRANCH  17  18
ATOM     18  O   UNL A   1      30.332  29.793  21.271  1.00  0.00    -0.396 OA
ATOM     19  H   UNL A   1      31.150  29.753  20.751  1.00  0.00     0.210 HD
ENDBRANCH  17  18
ENDBRANCH  16  17
ENDBRANCH  15  16
ENDBRANCH  14  15
ENDBRANCH  13  14
ENDBRANCH   5  13
ENDBRANCH   1   5
BRANCH   3  20
ATOM     20  C   UNL A   1      33.115  26.933  26.076  1.00  0.00     0.117 C 
BRANCH  20  21
ATOM     21  C   UNL A   1      33.114  28.244  26.844  1.00  0.00     0.042 C 
BRANCH  21  22
ATOM     22  C   UNL A   1      34.283  29.140  26.480  1.00  0.00     0.118 C 
BRANCH  22  23
ATOM     23  N   UNL A   1      33.985  30.546  26.751  1.00  0.00    -0.352 N 
ATOM     24  C   UNL A   1      34.506  31.392  27.701  1.00  0.00     0.251 C 
ATOM     25  H   UNL A   1      33.306  30.949  26.163  1.00  0.00     0.163 HD
ATOM     26  O   UNL A   1      33.960  32.473  27.910  1.00  0.00    -0.269 OA
BRANCH  24  27
ATOM     27  C   UNL A   1      35.697  30.993  28.482  1.00  0.00     0.039 A 
ATOM     28  C   UNL A   1      35.608  29.920  29.374  1.00  0.00     0.014 A 
ATOM     29  C   UNL A   1      36.907  31.673  28.333  1.00  0.00     0.014 A 
ATOM     30  C   UNL A   1      36.747  29.495  30.060  1.00  0.00     0.010 A 
ATOM     31  C   UNL A   1      38.061  31.170  28.913  1.00  0.00     0.010 A 
ATOM     32  C   UNL A   1      37.992  30.091  29.803  1.00  0.00    -0.014 A 
BRANCH  32  33
ATOM     33  C   UNL A   1      39.235  29.634  30.474  1.00  0.00     0.031 A 
ATOM     34  C   UNL A   1      39.700  30.323  31.731  1.00  0.00     0.074 A 
ATOM     35  C   UNL A   1      39.979  28.661  29.912  1.00  0.00     0.049 A 
ATOM     36  N   UNL A   1      40.795  30.131  32.419  1.00  0.00    -0.248 NA
ATOM     37  C   UNL A   1      38.840  31.393  32.266  1.00  0.00     0.031 C 
ATOM     38  C   UNL A   1      39.657  27.958  28.666  1.00  0.00     0.029 A 
ATOM     39  N   UNL A   1      41.163  28.096  30.312  1.00  0.00    -0.354 N 
ATOM     40  C   UNL A   1      40.766  31.070  33.445  1.00  0.00     0.074 A 
ATOM     41  C   UNL A   1      39.582  31.875  33.251  1.00  0.00     0.031 C 
ATOM     42  C   UNL A   1      40.599  27.031  28.428  1.00  0.00     0.029 A 
ATOM     43  C   UNL A   1      41.615  27.105  29.473  1.00  0.00     0.049 A 
ATOM     44  H   UNL A   1      41.645  28.374  31.125  1.00  0.00     0.167 HD
ATOM     45  C   UNL A   1      41.631  31.230  34.474  1.00  0.00     0.031 A 
ATOM     46  C   UNL A   1      42.725  26.345  29.534  1.00  0.00     0.031 A 
ATOM     47  C   UNL A   1      42.794  30.408  34.670  1.00  0.00     0.049 A 
ATOM     48  C   UNL A   1      43.673  26.541  30.687  1.00  0.00     0.074 A 
ATOM     49  C   UNL A   1      43.704  30.440  35.711  1.00  0.00     0.029 A 
ATOM     50  N   UNL A   1      43.206  29.403  33.806  1.00  0.00    -0.354 N 
ATOM     51  N   UNL A   1      43.590  27.386  31.686  1.00  0.00    -0.248 NA
ATOM     52  C   UNL A   1      44.854  25.670  30.728  1.00  0.00     0.031 C 
ATOM     53  C   UNL A   1      44.699  29.495  35.447  1.00  0.00     0.029 A 
ATOM     54  C   UNL A   1      44.371  28.825  34.278  1.00  0.00     0.049 A 
ATOM     55  H   UNL A   1      42.738  29.141  32.982  1.00  0.00     0.167 HD
ATOM     56  C   UNL A   1      44.694  27.130  32.492  1.00  0.00     0.074 A 
ATOM     57  C   UNL A   1      45.419  26.039  31.870  1.00  0.00     0.031 C 
ATOM     58  C   UNL A   1      45.074  27.739  33.642  1.00  0.00     0.031 A 
BRANCH  45  59
ATOM     59  C   UNL A   1      41.349  32.334  35.461  1.00  0.00    -0.014 A 
ATOM     60  C   UNL A   1      41.833  33.639  35.255  1.00  0.00     0.010 A 
ATOM     61  C   UNL A   1      40.559  32.072  36.595  1.00  0.00     0.010 A 
ATOM     62  C   UNL A   1      41.572  34.648  36.185  1.00  0.00     0.020 A 
ATOM     63  C   UNL A   1      40.267  33.087  37.511  1.00  0.00     0.020 A 
ATOM     64  C   UNL A   1      40.790  34.365  37.309  1.00  0.00     0.054 A 
BRANCH  64  65
ATOM     65  S   UNL A   1      40.446  35.702  38.485  1.00  0.00     0.124 S 
ATOM     66  O   UNL A   1      40.137  36.816  37.593  1.00  0.00    -0.237 OA
ATOM     67  O   UNL A   1      39.315  35.173  39.245  1.00  0.00    -0.237 OA
ATOM     68  O   UNL A   1      41.692  35.833  39.236  1.00  0.00    -0.744 OA
ENDBRANCH  64  65
ENDBRANCH  45  59
BRANCH  46  69
ATOM     69  C   UNL A   1      42.987  25.321  28.485  1.00  0.00    -0.014 A 
ATOM     70  C   UNL A   1      42.465  24.021  28.610  1.00  0.00     0.010 A 
ATOM     71  C   UNL A   1      43.746  25.644  27.345  1.00  0.00     0.010 A 
ATOM     72  C   UNL A   1      42.714  23.059  27.626  1.00  0.00     0.020 A 
ATOM     73  C   UNL A   1      43.970  24.694  26.345  1.00  0.00     0.020 A 
ATOM     74  C   UNL A   1      43.463  23.403  26.497  1.00  0.00     0.054 A 
BRANCH  74  75
ATOM     75  S   UNL A   1      43.732  22.151  25.211  1.00  0.00     0.124 S 
ATOM     76  O   UNL A   1      42.765  21.124  25.580  1.00  0.00    -0.237 OA
ATOM     77  O   UNL A   1      43.435  22.891  23.986  1.00  0.00    -0.237 OA
ATOM     78  O   UNL A   1      45.136  21.783  25.382  1.00  0.00    -0.744 OA
ENDBRANCH  74  75
ENDBRANCH  46  69
BRANCH  58  79
ATOM     79  C   UNL A   1      46.307  27.215  34.329  1.00  0.00    -0.014 A 
ATOM     80  C   UNL A   1      46.235  26.164  35.259  1.00  0.00     0.010 A 
ATOM     81  C   UNL A   1      47.564  27.745  33.985  1.00  0.00     0.010 A 
ATOM     82  C   UNL A   1      47.399  25.673  35.858  1.00  0.00     0.020 A 
ATOM     83  C   UNL A   1      48.732  27.234  34.556  1.00  0.00     0.020 A 
ATOM     84  C   UNL A   1      48.639  26.210  35.500  1.00  0.00     0.054 A 
BRANCH  84  85
ATOM     85  S   UNL A   1      50.136  25.521  36.256  1.00  0.00     0.124 S 
ATOM     86  O   UNL A   1      49.674  24.211  36.706  1.00  0.00    -0.237 OA
ATOM     87  O   UNL A   1      51.079  25.506  35.140  1.00  0.00    -0.237 OA
ATOM     88  O   UNL A   1      50.456  26.469  37.321  1.00  0.00    -0.744 OA
ENDBRANCH  84  85
ENDBRANCH  58  79
ENDBRANCH  32  33
ENDBRANCH  24  27
ENDBRANCH  22  23
ENDBRANCH  21  22
ENDBRANCH  20  21
ENDBRANCH   3  20
TORSDOF 20
ENDMDL
MODEL 2
REMARK VINA RESULT:      -9.1      5.313     14.960
REMARK SMILES CC[C@@H]1CCC[C@](CCCCCO)(C(=O)NCCCNC(=O)c2ccc(-c3c4nc(c(-c5ccc(S(=O)(=O)[O-])cc5)c5ccc([nH]5)c(-c5ccc(S(=O)(=O)[O-])cc5)c5nc(c(-c6ccc(S(=O)(=O)[O-])cc6)c6ccc3[nH]6)C=C5)C=C4)cc2)C1
REMARK SMILES IDX 14 1 15 2 16 3 7 5 3 6 4 7 83 8 5 9 6 10 2 11 1 12 8 13 9 14
REMARK SMILES IDX 10 15 11 16 12 17 13 18 17 20 18 21 19 22 20 23 21 24 22 26
REMARK SMILES IDX 23 27 24 28 82 29 25 30 81 31 26 32 27 33 28 34 75 35 29 36
REMARK SMILES IDX 80 37 74 38 76 39 30 40 79 41 73 42 72 43 31 45 61 46 42 47
REMARK SMILES IDX 60 48 43 49 46 50 59 51 77 52 44 53 45 54 58 56 78 57 47 58
REMARK SMILES IDX 32 59 33 60 41 61 34 62 40 63 35 64 36 65 37 66 38 67 39 68
REMARK SMILES IDX 62 69 63 70 71 71 64 72 70 73 65 74 66 75 67 76 68 77 69 78
REMARK SMILES IDX 48 79 49 80 57 81 50 82 56 83 51 84 52 85 53 86 54 87 55 88
REMARK H PARENT 16 4 13 19 20 25 76 44 46 55
REMARK Flexibility Score: inf
ROOT
ATOM      1  C   UNL A   1      48.177  20.847  34.609  1.00  0.00     0.226 C 
ATOM      2  O   UNL A   1      48.703  19.896  34.007  1.00  0.00    -0.274 OA
ATOM      3  N   UNL A   1      48.858  21.999  34.450  1.00  0.00    -0.356 N 
ATOM      4  H   UNL A   1      49.806  21.863  34.222  1.00  0.00     0.163 HD
ENDROOT
BRANCH   1   5
ATOM      5  C   UNL A   1      46.860  20.621  35.422  1.00  0.00     0.049 C 
ATOM      6  C   UNL A   1      46.420  19.699  37.877  1.00  0.00    -0.010 C 
ATOM      7  C   UNL A   1      45.659  18.511  37.271  1.00  0.00     0.003 C 
ATOM      8  C   UNL A   1      47.436  20.263  36.865  1.00  0.00     0.020 C 
ATOM      9  C   UNL A   1      45.105  18.804  35.877  1.00  0.00     0.001 C 
ATOM     10  C   UNL A   1      46.189  19.318  34.931  1.00  0.00     0.017 C 
BRANCH   6  11
ATOM     11  C   UNL A   1      47.106  19.280  39.194  1.00  0.00     0.000 C 
ATOM     12  C   UNL A   1      48.625  19.385  39.145  1.00  0.00     0.004 C 
ENDBRANCH   6  11
BRANCH   5  13
ATOM     13  C   UNL A   1      45.904  21.831  35.672  1.00  0.00     0.017 C 
BRANCH  13  14
ATOM     14  C   UNL A   1      44.617  22.247  34.932  1.00  0.00     0.001 C 
BRANCH  14  15
ATOM     15  C   UNL A   1      44.046  23.661  34.977  1.00  0.00     0.002 C 
BRANCH  15  16
ATOM     16  C   UNL A   1      42.645  23.738  35.584  1.00  0.00     0.028 C 
BRANCH  16  17
ATOM     17  C   UNL A   1      41.939  25.066  35.318  1.00  0.00     0.156 C 
BRANCH  17  18
ATOM     18  O   UNL A   1      40.730  25.146  36.061  1.00  0.00    -0.396 OA
ATOM     19  H   UNL A   1      40.742  24.486  36.771  1.00  0.00     0.210 HD
ENDBRANCH  17  18
ENDBRANCH  16  17
ENDBRANCH  15  16
ENDBRANCH  14  15
ENDBRANCH  13  14
ENDBRANCH   5  13
ENDBRANCH   1   5
BRANCH   3  20
ATOM     20  C   UNL A   1      48.487  23.385  34.545  1.00  0.00     0.117 C 
BRANCH  20  21
ATOM     21  C   UNL A   1      48.655  23.955  35.944  1.00  0.00     0.042 C 
BRANCH  21  22
ATOM     22  C   UNL A   1      47.624  25.018  36.274  1.00  0.00     0.118 C 
BRANCH  22  23
ATOM     23  N   UNL A   1      47.919  25.674  37.548  1.00  0.00    -0.352 N 
ATOM     24  C   UNL A   1      47.467  26.870  38.050  1.00  0.00     0.251 C 
ATOM     25  H   UNL A   1      48.537  25.183  38.135  1.00  0.00     0.163 HD
ATOM     26  O   UNL A   1      48.009  27.351  39.043  1.00  0.00    -0.269 OA
BRANCH  24  27
ATOM     27  C   UNL A   1      46.355  27.586  37.387  1.00  0.00     0.039 A 
ATOM     28  C   UNL A   1      46.640  28.623  36.494  1.00  0.00     0.014 A 
ATOM     29  C   UNL A   1      45.029  27.233  37.641  1.00  0.00     0.014 A 
ATOM     30  C   UNL A   1      45.598  29.254  35.812  1.00  0.00     0.010 A 
ATOM     31  C   UNL A   1      44.009  27.768  36.870  1.00  0.00     0.010 A 
ATOM     32  C   UNL A   1      44.276  28.803  35.963  1.00  0.00    -0.014 A 
BRANCH  32  33
ATOM     33  C   UNL A   1      43.148  29.413  35.218  1.00  0.00     0.031 A 
ATOM     34  C   UNL A   1      42.780  28.883  33.856  1.00  0.00     0.074 A 
ATOM     35  C   UNL A   1      42.512  30.485  35.729  1.00  0.00     0.049 A 
ATOM     36  N   UNL A   1      41.886  29.328  33.012  1.00  0.00    -0.248 NA
ATOM     37  C   UNL A   1      43.542  27.722  33.361  1.00  0.00     0.031 C 
ATOM     38  C   UNL A   1      42.816  31.121  37.015  1.00  0.00     0.029 A 
ATOM     39  N   UNL A   1      41.478  31.236  35.228  1.00  0.00    -0.354 N 
ATOM     40  C   UNL A   1      41.997  28.522  31.884  1.00  0.00     0.074 A 
ATOM     41  C   UNL A   1      43.089  27.606  32.122  1.00  0.00     0.031 C 
ATOM     42  C   UNL A   1      41.962  32.138  37.217  1.00  0.00     0.029 A 
ATOM     43  C   UNL A   1      41.084  32.258  36.058  1.00  0.00     0.049 A 
ATOM     44  H   UNL A   1      41.058  31.058  34.355  1.00  0.00     0.167 HD
ATOM     45  C   UNL A   1      41.241  28.523  30.762  1.00  0.00     0.031 A 
ATOM     46  C   UNL A   1      40.126  33.192  35.901  1.00  0.00     0.031 A 
ATOM     47  C   UNL A   1      40.141  29.424  30.546  1.00  0.00     0.049 A 
ATOM     48  C   UNL A   1      39.297  33.175  34.646  1.00  0.00     0.074 A 
ATOM     49  C   UNL A   1      39.267  29.472  29.475  1.00  0.00     0.029 A 
ATOM     50  N   UNL A   1      39.763  30.433  31.420  1.00  0.00    -0.354 N 
ATOM     51  N   UNL A   1      39.372  32.359  33.621  1.00  0.00    -0.248 NA
ATOM     52  C   UNL A   1      38.246  34.194  34.532  1.00  0.00     0.031 C 
ATOM     53  C   UNL A   1      38.398  30.548  29.673  1.00  0.00     0.029 A 
ATOM     54  C   UNL A   1      38.685  31.127  30.900  1.00  0.00     0.049 A 
ATOM     55  H   UNL A   1      40.198  30.626  32.281  1.00  0.00     0.167 HD
ATOM     56  C   UNL A   1      38.357  32.748  32.753  1.00  0.00     0.074 A 
ATOM     57  C   UNL A   1      37.674  33.861  33.382  1.00  0.00     0.031 C 
ATOM     58  C   UNL A   1      38.020  32.231  31.546  1.00  0.00     0.031 A 
BRANCH  45  59
ATOM     59  C   UNL A   1      41.579  27.521  29.688  1.00  0.00    -0.014 A 
ATOM     60  C   UNL A   1      40.638  26.567  29.259  1.00  0.00     0.010 A 
ATOM     61  C   UNL A   1      42.844  27.554  29.074  1.00  0.00     0.010 A 
ATOM     62  C   UNL A   1      40.971  25.637  28.270  1.00  0.00     0.020 A 
ATOM     63  C   UNL A   1      43.169  26.648  28.060  1.00  0.00     0.020 A 
ATOM     64  C   UNL A   1      42.236  25.684  27.676  1.00  0.00     0.054 A 
BRANCH  64  65
ATOM     65  S   UNL A   1      42.629  24.482  26.377  1.00  0.00     0.124 S 
ATOM     66  O   UNL A   1      43.789  23.797  26.941  1.00  0.00    -0.237 OA
ATOM     67  O   UNL A   1      41.406  23.685  26.301  1.00  0.00    -0.237 OA
ATOM     68  O   UNL A   1      42.903  25.311  25.207  1.00  0.00    -0.744 OA
ENDBRANCH  64  65
ENDBRANCH  45  59
BRANCH  46  69
ATOM     69  C   UNL A   1      39.890  34.204  36.968  1.00  0.00    -0.014 A 
ATOM     70  C   UNL A   1      39.164  33.868  38.125  1.00  0.00     0.010 A 
ATOM     71  C   UNL A   1      40.404  35.508  36.842  1.00  0.00     0.010 A 
ATOM     72  C   UNL A   1      38.940  34.820  39.124  1.00  0.00     0.020 A 
ATOM     73  C   UNL A   1      40.209  36.453  37.854  1.00  0.00     0.020 A 
ATOM     74  C   UNL A   1      39.467  36.106  38.984  1.00  0.00     0.054 A 
BRANCH  74  75
ATOM     75  S   UNL A   1      39.204  37.310  40.316  1.00  0.00     0.124 S 
ATOM     76  O   UNL A   1      38.407  36.542  41.266  1.00  0.00    -0.237 OA
ATOM     77  O   UNL A   1      40.570  37.617  40.736  1.00  0.00    -0.237 OA
ATOM     78  O   UNL A   1      38.504  38.407  39.652  1.00  0.00    -0.744 OA
ENDBRANCH  74  75
ENDBRANCH  46  69
BRANCH  58  79
ATOM     79  C   UNL A   1      36.835  32.835  30.840  1.00  0.00    -0.014 A 
ATOM     80  C   UNL A   1      35.522  32.599  31.285  1.00  0.00     0.010 A 
ATOM     81  C   UNL A   1      37.049  33.704  29.755  1.00  0.00     0.010 A 
ATOM     82  C   UNL A   1      34.441  33.198  30.633  1.00  0.00     0.020 A 
ATOM     83  C   UNL A   1      35.972  34.331  29.123  1.00  0.00     0.020 A 
ATOM     84  C   UNL A   1      34.673  34.062  29.558  1.00  0.00     0.054 A 
BRANCH  84  85
ATOM     85  S   UNL A   1      33.255  34.864  28.763  1.00  0.00     0.124 S 
ATOM     86  O   UNL A   1      32.383  35.138  29.902  1.00  0.00    -0.237 OA
ATOM     87  O   UNL A   1      33.862  36.037  28.138  1.00  0.00    -0.237 OA
ATOM     88  O   UNL A   1      32.763  33.853  27.830  1.00  0.00    -0.744 OA
ENDBRANCH  84  85
ENDBRANCH  58  79
ENDBRANCH  32  33
ENDBRANCH  24  27
ENDBRANCH  22  23
ENDBRANCH  21  22
ENDBRANCH  20  21
ENDBRANCH   3  20
TORSDOF 20
ENDMDL
MODEL 3
REMARK VINA RESULT:      -9.0      6.878     12.602
REMARK SMILES CC[C@@H]1CCC[C@](CCCCCO)(C(=O)NCCCNC(=O)c2ccc(-c3c4nc(c(-c5ccc(S(=O)(=O)[O-])cc5)c5ccc([nH]5)c(-c5ccc(S(=O)(=O)[O-])cc5)c5nc(c(-c6ccc(S(=O)(=O)[O-])cc6)c6ccc3[nH]6)C=C5)C=C4)cc2)C1
REMARK SMILES IDX 14 1 15 2 16 3 7 5 3 6 4 7 83 8 5 9 6 10 2 11 1 12 8 13 9 14
REMARK SMILES IDX 10 15 11 16 12 17 13 18 17 20 18 21 19 22 20 23 21 24 22 26
REMARK SMILES IDX 23 27 24 28 82 29 25 30 81 31 26 32 27 33 28 34 75 35 29 36
REMARK SMILES IDX 80 37 74 38 76 39 30 40 79 41 73 42 72 43 31 45 61 46 42 47
REMARK SMILES IDX 60 48 43 49 46 50 59 51 77 52 44 53 45 54 58 56 78 57 47 58
REMARK SMILES IDX 32 59 33 60 41 61 34 62 40 63 35 64 36 65 37 66 38 67 39 68
REMARK SMILES IDX 62 69 63 70 71 71 64 72 70 73 65 74 66 75 67 76 68 77 69 78
REMARK SMILES IDX 48 79 49 80 57 81 50 82 56 83 51 84 52 85 53 86 54 87 55 88
REMARK H PARENT 16 4 13 19 20 25 76 44 46 55
REMARK Flexibility Score: inf
ROOT
ATOM      1  C   UNL A   1      43.221  40.707  29.759  1.00  0.00     0.226 C 
ATOM      2  O   UNL A   1      42.373  41.345  30.406  1.00  0.00    -0.274 OA
ATOM      3  N   UNL A   1      44.383  40.566  30.428  1.00  0.00    -0.356 N 
ATOM      4  H   UNL A   1      44.524  41.257  31.114  1.00  0.00     0.163 HD
ENDROOT
BRANCH   1   5
ATOM      5  C   UNL A   1      42.866  40.161  28.337  1.00  0.00     0.049 C 
ATOM      6  C   UNL A   1      43.552  40.969  25.899  1.00  0.00    -0.010 C 
ATOM      7  C   UNL A   1      42.074  41.267  25.605  1.00  0.00     0.003 C 
ATOM      8  C   UNL A   1      43.826  41.036  27.413  1.00  0.00     0.020 C 
ATOM      9  C   UNL A   1      41.116  40.462  26.483  1.00  0.00     0.001 C 
ATOM     10  C   UNL A   1      41.438  40.621  27.969  1.00  0.00     0.017 C 
BRANCH   6  11
ATOM     11  C   UNL A   1      44.459  41.940  25.115  1.00  0.00     0.000 C 
ATOM     12  C   UNL A   1      43.732  42.681  23.999  1.00  0.00     0.004 C 
ENDBRANCH   6  11
BRANCH   5  13
ATOM     13  C   UNL A   1      43.222  38.682  27.980  1.00  0.00     0.017 C 
BRANCH  13  14
ATOM     14  C   UNL A   1      42.343  37.416  28.008  1.00  0.00     0.001 C 
BRANCH  14  15
ATOM     15  C   UNL A   1      42.817  36.080  28.573  1.00  0.00     0.002 C 
BRANCH  15  16
ATOM     16  C   UNL A   1      43.509  35.189  27.542  1.00  0.00     0.028 C 
BRANCH  16  17
ATOM     17  C   UNL A   1      42.962  35.357  26.126  1.00  0.00     0.156 C 
BRANCH  17  18
ATOM     18  O   UNL A   1      43.265  34.216  25.335  1.00  0.00    -0.396 OA
ATOM     19  H   UNL A   1      43.552  34.501  24.453  1.00  0.00     0.210 HD
ENDBRANCH  17  18
ENDBRANCH  16  17
ENDBRANCH  15  16
ENDBRANCH  14  15
ENDBRANCH  13  14
ENDBRANCH   5  13
ENDBRANCH   1   5
BRANCH   3  20
ATOM     20  C   UNL A   1      45.458  39.614  30.348  1.00  0.00     0.117 C 
BRANCH  20  21
ATOM     21  C   UNL A   1      45.230  38.379  31.204  1.00  0.00     0.042 C 
BRANCH  21  22
ATOM     22  C   UNL A   1      45.966  37.159  30.684  1.00  0.00     0.118 C 
BRANCH  22  23
ATOM     23  N   UNL A   1      47.075  37.535  29.807  1.00  0.00    -0.352 N 
ATOM     24  C   UNL A   1      47.882  36.751  29.019  1.00  0.00     0.251 C 
ATOM     25  H   UNL A   1      47.274  38.499  29.778  1.00  0.00     0.163 HD
ATOM     26  O   UNL A   1      48.902  37.235  28.531  1.00  0.00    -0.269 OA
BRANCH  24  27
ATOM     27  C   UNL A   1      47.541  35.332  28.779  1.00  0.00     0.039 A 
ATOM     28  C   UNL A   1      47.619  34.419  29.835  1.00  0.00     0.014 A 
ATOM     29  C   UNL A   1      47.138  34.900  27.515  1.00  0.00     0.014 A 
ATOM     30  C   UNL A   1      47.229  33.093  29.632  1.00  0.00     0.010 A 
ATOM     31  C   UNL A   1      46.630  33.620  27.349  1.00  0.00     0.010 A 
ATOM     32  C   UNL A   1      46.692  32.694  28.398  1.00  0.00    -0.014 A 
BRANCH  32  33
ATOM     33  C   UNL A   1      46.220  31.307  28.158  1.00  0.00     0.031 A 
ATOM     34  C   UNL A   1      44.792  30.941  28.472  1.00  0.00     0.074 A 
ATOM     35  C   UNL A   1      47.090  30.368  27.737  1.00  0.00     0.049 A 
ATOM     36  N   UNL A   1      44.208  29.772  28.412  1.00  0.00    -0.248 NA
ATOM     37  C   UNL A   1      43.913  32.023  28.951  1.00  0.00     0.031 C 
ATOM     38  C   UNL A   1      48.511  30.593  27.453  1.00  0.00     0.029 A 
ATOM     39  N   UNL A   1      46.910  29.033  27.478  1.00  0.00    -0.354 N 
ATOM     40  C   UNL A   1      42.911  29.975  28.869  1.00  0.00     0.074 A 
ATOM     41  C   UNL A   1      42.810  31.360  29.266  1.00  0.00     0.031 C 
ATOM     42  C   UNL A   1      49.061  29.446  27.022  1.00  0.00     0.029 A 
ATOM     43  C   UNL A   1      48.048  28.395  27.046  1.00  0.00     0.049 A 
ATOM     44  H   UNL A   1      46.045  28.575  27.592  1.00  0.00     0.167 HD
ATOM     45  C   UNL A   1      41.884  29.095  28.926  1.00  0.00     0.031 A 
ATOM     46  C   UNL A   1      48.255  27.107  26.711  1.00  0.00     0.031 A 
ATOM     47  C   UNL A   1      41.988  27.724  28.506  1.00  0.00     0.049 A 
ATOM     48  C   UNL A   1      47.100  26.146  26.781  1.00  0.00     0.074 A 
ATOM     49  C   UNL A   1      40.996  26.761  28.459  1.00  0.00     0.029 A 
ATOM     50  N   UNL A   1      43.155  27.122  28.056  1.00  0.00    -0.354 N 
ATOM     51  N   UNL A   1      45.861  26.374  27.148  1.00  0.00    -0.248 NA
ATOM     52  C   UNL A   1      47.366  24.759  26.379  1.00  0.00     0.031 C 
ATOM     53  C   UNL A   1      41.576  25.561  28.039  1.00  0.00     0.029 A 
ATOM     54  C   UNL A   1      42.913  25.793  27.755  1.00  0.00     0.049 A 
ATOM     55  H   UNL A   1      44.024  27.573  27.965  1.00  0.00     0.167 HD
ATOM     56  C   UNL A   1      45.192  25.164  26.993  1.00  0.00     0.074 A 
ATOM     57  C   UNL A   1      46.161  24.215  26.483  1.00  0.00     0.031 C 
ATOM     58  C   UNL A   1      43.894  24.866  27.247  1.00  0.00     0.031 A 
BRANCH  45  59
ATOM     59  C   UNL A   1      40.565  29.591  29.460  1.00  0.00    -0.014 A 
ATOM     60  C   UNL A   1      40.380  29.839  30.833  1.00  0.00     0.010 A 
ATOM     61  C   UNL A   1      39.502  29.845  28.574  1.00  0.00     0.010 A 
ATOM     62  C   UNL A   1      39.147  30.287  31.314  1.00  0.00     0.020 A 
ATOM     63  C   UNL A   1      38.278  30.327  29.046  1.00  0.00     0.020 A 
ATOM     64  C   UNL A   1      38.103  30.529  30.416  1.00  0.00     0.054 A 
BRANCH  64  65
ATOM     65  S   UNL A   1      36.523  31.136  31.067  1.00  0.00     0.124 S 
ATOM     66  O   UNL A   1      35.781  31.421  29.841  1.00  0.00    -0.237 OA
ATOM     67  O   UNL A   1      36.039  29.997  31.843  1.00  0.00    -0.237 OA
ATOM     68  O   UNL A   1      36.899  32.308  31.853  1.00  0.00    -0.744 OA
ENDBRANCH  64  65
ENDBRANCH  45  59
BRANCH  46  69
ATOM     69  C   UNL A   1      49.603  26.661  26.261  1.00  0.00    -0.014 A 
ATOM     70  C   UNL A   1      50.007  26.841  24.926  1.00  0.00     0.010 A 
ATOM     71  C   UNL A   1      50.500  26.068  27.170  1.00  0.00     0.010 A 
ATOM     72  C   UNL A   1      51.272  26.419  24.504  1.00  0.00     0.020 A 
ATOM     73  C   UNL A   1      51.776  25.674  26.759  1.00  0.00     0.020 A 
ATOM     74  C   UNL A   1      52.150  25.841  25.425  1.00  0.00     0.054 A 
BRANCH  74  75
ATOM     75  S   UNL A   1      53.804  25.345  24.865  1.00  0.00     0.124 S 
ATOM     76  O   UNL A   1      53.909  26.033  23.583  1.00  0.00    -0.237 OA
ATOM     77  O   UNL A   1      54.663  25.856  25.931  1.00  0.00    -0.237 OA
ATOM     78  O   UNL A   1      53.716  23.888  24.790  1.00  0.00    -0.744 OA
ENDBRANCH  74  75
ENDBRANCH  46  69
BRANCH  58  79
ATOM     79  C   UNL A   1      43.431  23.467  26.940  1.00  0.00    -0.014 A 
ATOM     80  C   UNL A   1      43.435  22.968  25.626  1.00  0.00     0.010 A 
ATOM     81  C   UNL A   1      43.049  22.621  27.997  1.00  0.00     0.010 A 
ATOM     82  C   UNL A   1      43.033  21.654  25.372  1.00  0.00     0.020 A 
ATOM     83  C   UNL A   1      42.679  21.297  27.749  1.00  0.00     0.020 A 
ATOM     84  C   UNL A   1      42.659  20.827  26.435  1.00  0.00     0.054 A 
BRANCH  84  85
ATOM     85  S   UNL A   1      42.190  19.112  26.082  1.00  0.00     0.124 S 
ATOM     86  O   UNL A   1      42.525  18.440  27.333  1.00  0.00    -0.237 OA
ATOM     87  O   UNL A   1      40.762  19.226  25.791  1.00  0.00    -0.237 OA
ATOM     88  O   UNL A   1      43.025  18.752  24.938  1.00  0.00    -0.744 OA
ENDBRANCH  84  85
ENDBRANCH  58  79
ENDBRANCH  32  33
ENDBRANCH  24  27
ENDBRANCH  22  23
ENDBRANCH  21  22
ENDBRANCH  20  21
ENDBRANCH   3  20
TORSDOF 20
ENDMDL
