MODEL 1
REMARK VINA RESULT:     -10.4      0.000      0.000
REMARK SMILES CC[NH2+]C[C@@H](C)C(=O)N1CCO[C@@H](CC(=O)NCCCNC(=O)c2ccc(-c3c4nc(c(-c5ccc(S(=O)(=O)[O-])cc5)c5ccc([nH]5)c(-c5ccc(S(=O)(=O)[O-])cc5)c5nc(c(-c6ccc(S(=O)(=O)[O-])cc6)c6ccc3[nH]6)C=C5)C=C4)cc2)C1
REMARK SMILES IDX 15 1 16 2 17 3 14 5 13 6 9 7 10 8 84 9 11 10 12 11 7 12 8 13
REMARK SMILES IDX 5 14 6 15 4 16 3 17 2 20 1 21 18 22 19 23 20 24 21 25 22 26
REMARK SMILES IDX 23 28 24 29 25 30 83 31 26 32 82 33 27 34 28 35 29 36 76 37
REMARK SMILES IDX 30 38 81 39 75 40 77 41 31 42 80 43 74 44 73 45 32 47 62 48
REMARK SMILES IDX 43 49 61 50 44 51 47 52 60 53 78 54 45 55 46 56 59 58 79 59
REMARK SMILES IDX 48 60 33 61 34 62 42 63 35 64 41 65 36 66 37 67 38 68 39 69
REMARK SMILES IDX 40 70 63 71 64 72 72 73 65 74 71 75 66 76 67 77 68 78 69 79
REMARK SMILES IDX 70 80 49 81 50 82 58 83 51 84 57 85 52 86 53 87 54 88 55 89
REMARK SMILES IDX 56 90
REMARK H PARENT 17 4 3 18 3 19 21 27 77 46 47 57
REMARK Flexibility Score: inf
ROOT
ATOM      1  C   UNL A   1      33.375  28.762  24.541  1.00  0.00     0.222 C 
ATOM      2  O   UNL A   1      33.464  29.029  23.342  1.00  0.00    -0.275 OA
ATOM      3  N   UNL A   1      33.376  29.795  25.433  1.00  0.00    -0.356 N 
ATOM      4  H   UNL A   1      33.428  30.687  25.018  1.00  0.00     0.163 HD
ENDROOT
BRANCH   1   5
ATOM      5  C   UNL A   1      33.302  27.324  25.004  1.00  0.00     0.133 C 
BRANCH   5   6
ATOM      6  C   UNL A   1      33.631  26.337  23.882  1.00  0.00     0.147 C 
ATOM      7  N   UNL A   1      34.733  24.132  23.478  1.00  0.00    -0.337 N 
ATOM      8  C   UNL A   1      33.455  23.605  23.012  1.00  0.00     0.148 C 
ATOM      9  C   UNL A   1      34.573  25.243  24.393  1.00  0.00     0.152 C 
ATOM     10  C   UNL A   1      32.609  24.740  22.434  1.00  0.00     0.182 C 
ATOM     11  O   UNL A   1      32.385  25.763  23.424  1.00  0.00    -0.374 OA
BRANCH   7  12
ATOM     12  C   UNL A   1      35.790  23.276  23.766  1.00  0.00     0.231 C 
ATOM     13  O   UNL A   1      36.402  22.686  22.875  1.00  0.00    -0.274 OA
BRANCH  12  14
ATOM     14  C   UNL A   1      36.008  22.938  25.239  1.00  0.00     0.130 C 
ATOM     15  C   UNL A   1      37.317  23.563  25.729  1.00  0.00     0.024 C 
BRANCH  14  16
ATOM     16  C   UNL A   1      35.914  21.433  25.506  1.00  0.00     0.273 C 
BRANCH  16  17
ATOM     17  N   UNL A   1      34.603  20.933  25.925  1.00  0.00    -0.346 N 
ATOM     18  H   UNL A   1      34.744  20.190  26.609  1.00  0.00     0.346 HD
ATOM     19  H   UNL A   1      34.090  21.723  26.315  1.00  0.00     0.346 HD
BRANCH  17  20
ATOM     20  C   UNL A   1      33.806  20.401  24.820  1.00  0.00     0.257 C 
ATOM     21  C   UNL A   1      33.044  19.179  25.307  1.00  0.00     0.071 C 
ENDBRANCH  17  20
ENDBRANCH  16  17
ENDBRANCH  14  16
ENDBRANCH  12  14
ENDBRANCH   7  12
ENDBRANCH   5   6
ENDBRANCH   1   5
BRANCH   3  22
ATOM     22  C   UNL A   1      33.312  29.812  26.891  1.00  0.00     0.117 C 
BRANCH  22  23
ATOM     23  C   UNL A   1      34.643  29.432  27.545  1.00  0.00     0.042 C 
BRANCH  23  24
ATOM     24  C   UNL A   1      35.458  30.607  28.067  1.00  0.00     0.118 C 
BRANCH  24  25
ATOM     25  N   UNL A   1      35.512  30.625  29.519  1.00  0.00    -0.352 N 
ATOM     26  C   UNL A   1      36.467  30.133  30.377  1.00  0.00     0.251 C 
ATOM     27  H   UNL A   1      34.743  31.058  29.956  1.00  0.00     0.163 HD
ATOM     28  O   UNL A   1      36.185  30.035  31.570  1.00  0.00    -0.269 OA
BRANCH  26  29
ATOM     29  C   UNL A   1      37.815  29.717  29.906  1.00  0.00     0.039 A 
ATOM     30  C   UNL A   1      38.746  29.275  30.852  1.00  0.00     0.014 A 
ATOM     31  C   UNL A   1      38.209  29.836  28.570  1.00  0.00     0.014 A 
ATOM     32  C   UNL A   1      40.044  28.922  30.459  1.00  0.00     0.010 A 
ATOM     33  C   UNL A   1      39.477  29.410  28.166  1.00  0.00     0.010 A 
ATOM     34  C   UNL A   1      40.418  28.966  29.107  1.00  0.00    -0.014 A 
BRANCH  34  35
ATOM     35  C   UNL A   1      41.791  28.586  28.670  1.00  0.00     0.031 A 
ATOM     36  C   UNL A   1      42.886  29.622  28.607  1.00  0.00     0.074 A 
ATOM     37  C   UNL A   1      42.052  27.320  28.285  1.00  0.00     0.049 A 
ATOM     38  N   UNL A   1      44.125  29.492  28.202  1.00  0.00    -0.248 NA
ATOM     39  C   UNL A   1      42.537  30.987  29.035  1.00  0.00     0.031 C 
ATOM     40  C   UNL A   1      41.082  26.223  28.263  1.00  0.00     0.029 A 
ATOM     41  N   UNL A   1      43.215  26.742  27.834  1.00  0.00    -0.354 N 
ATOM     42  C   UNL A   1      44.693  30.758  28.303  1.00  0.00     0.074 A 
ATOM     43  C   UNL A   1      43.654  31.650  28.768  1.00  0.00     0.031 C 
ATOM     44  C   UNL A   1      41.695  25.102  27.848  1.00  0.00     0.029 A 
ATOM     45  C   UNL A   1      43.090  25.405  27.538  1.00  0.00     0.049 A 
ATOM     46  H   UNL A   1      44.059  27.240  27.732  1.00  0.00     0.167 HD
ATOM     47  C   UNL A   1      45.967  31.145  28.047  1.00  0.00     0.031 A 
ATOM     48  C   UNL A   1      43.990  24.520  27.066  1.00  0.00     0.031 A 
ATOM     49  C   UNL A   1      47.012  30.258  27.609  1.00  0.00     0.049 A 
ATOM     50  C   UNL A   1      45.401  24.968  26.802  1.00  0.00     0.074 A 
ATOM     51  C   UNL A   1      48.346  30.548  27.376  1.00  0.00     0.029 A 
ATOM     52  N   UNL A   1      46.844  28.908  27.341  1.00  0.00    -0.354 N 
ATOM     53  N   UNL A   1      45.929  26.160  26.950  1.00  0.00    -0.248 NA
ATOM     54  C   UNL A   1      46.343  23.949  26.316  1.00  0.00     0.031 C 
ATOM     55  C   UNL A   1      48.977  29.382  26.930  1.00  0.00     0.029 A 
ATOM     56  C   UNL A   1      48.046  28.354  26.931  1.00  0.00     0.049 A 
ATOM     57  H   UNL A   1      45.997  28.415  27.430  1.00  0.00     0.167 HD
ATOM     58  C   UNL A   1      47.268  26.026  26.602  1.00  0.00     0.074 A 
ATOM     59  C   UNL A   1      47.474  24.637  26.246  1.00  0.00     0.031 C 
ATOM     60  C   UNL A   1      48.241  26.970  26.583  1.00  0.00     0.031 A 
BRANCH  47  61
ATOM     61  C   UNL A   1      46.303  32.601  28.234  1.00  0.00    -0.014 A 
ATOM     62  C   UNL A   1      46.777  33.086  29.467  1.00  0.00     0.010 A 
ATOM     63  C   UNL A   1      46.179  33.492  27.152  1.00  0.00     0.010 A 
ATOM     64  C   UNL A   1      47.077  34.441  29.627  1.00  0.00     0.020 A 
ATOM     65  C   UNL A   1      46.503  34.843  27.300  1.00  0.00     0.020 A 
ATOM     66  C   UNL A   1      46.931  35.313  28.544  1.00  0.00     0.054 A 
BRANCH  66  67
ATOM     67  S   UNL A   1      47.339  37.066  28.775  1.00  0.00     0.124 S 
ATOM     68  O   UNL A   1      48.711  36.991  29.272  1.00  0.00    -0.237 OA
ATOM     69  O   UNL A   1      47.187  37.613  27.430  1.00  0.00    -0.237 OA
ATOM     70  O   UNL A   1      46.350  37.526  29.746  1.00  0.00    -0.744 OA
ENDBRANCH  66  67
ENDBRANCH  47  61
BRANCH  48  71
ATOM     71  C   UNL A   1      43.585  23.107  26.832  1.00  0.00    -0.014 A 
ATOM     72  C   UNL A   1      43.665  22.548  25.545  1.00  0.00     0.010 A 
ATOM     73  C   UNL A   1      43.137  22.308  27.900  1.00  0.00     0.010 A 
ATOM     74  C   UNL A   1      43.288  21.220  25.325  1.00  0.00     0.020 A 
ATOM     75  C   UNL A   1      42.783  20.972  27.689  1.00  0.00     0.020 A 
ATOM     76  C   UNL A   1      42.850  20.440  26.399  1.00  0.00     0.054 A 
BRANCH  76  77
ATOM     77  S   UNL A   1      42.419  18.702  26.102  1.00  0.00     0.124 S 
ATOM     78  O   UNL A   1      41.034  18.807  25.655  1.00  0.00    -0.237 OA
ATOM     79  O   UNL A   1      43.385  18.306  25.080  1.00  0.00    -0.237 OA
ATOM     80  O   UNL A   1      42.613  18.076  27.407  1.00  0.00    -0.744 OA
ENDBRANCH  76  77
ENDBRANCH  48  71
BRANCH  60  81
ATOM     81  C   UNL A   1      49.629  26.534  26.199  1.00  0.00    -0.014 A 
ATOM     82  C   UNL A   1      50.113  26.709  24.891  1.00  0.00     0.010 A 
ATOM     83  C   UNL A   1      50.483  25.997  27.180  1.00  0.00     0.010 A 
ATOM     84  C   UNL A   1      51.418  26.331  24.564  1.00  0.00     0.020 A 
ATOM     85  C   UNL A   1      51.796  25.640  26.863  1.00  0.00     0.020 A 
ATOM     86  C   UNL A   1      52.252  25.799  25.553  1.00  0.00     0.054 A 
BRANCH  86  87
ATOM     87  S   UNL A   1      53.959  25.365  25.117  1.00  0.00     0.124 S 
ATOM     88  O   UNL A   1      54.690  25.769  26.314  1.00  0.00    -0.237 OA
ATOM     89  O   UNL A   1      53.877  23.925  24.886  1.00  0.00    -0.237 OA
ATOM     90  O   UNL A   1      54.225  26.166  23.924  1.00  0.00    -0.744 OA
ENDBRANCH  86  87
ENDBRANCH  60  81
ENDBRANCH  34  35
ENDBRANCH  26  29
ENDBRANCH  24  25
ENDBRANCH  23  24
ENDBRANCH  22  23
ENDBRANCH   3  22
TORSDOF 19
ENDMDL
MODEL 2
REMARK VINA RESULT:     -10.3      3.368      4.213
REMARK SMILES CC[NH2+]C[C@@H](C)C(=O)N1CCO[C@@H](CC(=O)NCCCNC(=O)c2ccc(-c3c4nc(c(-c5ccc(S(=O)(=O)[O-])cc5)c5ccc([nH]5)c(-c5ccc(S(=O)(=O)[O-])cc5)c5nc(c(-c6ccc(S(=O)(=O)[O-])cc6)c6ccc3[nH]6)C=C5)C=C4)cc2)C1
REMARK SMILES IDX 15 1 16 2 17 3 14 5 13 6 9 7 10 8 84 9 11 10 12 11 7 12 8 13
REMARK SMILES IDX 5 14 6 15 4 16 3 17 2 20 1 21 18 22 19 23 20 24 21 25 22 26
REMARK SMILES IDX 23 28 24 29 25 30 83 31 26 32 82 33 27 34 28 35 29 36 76 37
REMARK SMILES IDX 30 38 81 39 75 40 77 41 31 42 80 43 74 44 73 45 32 47 62 48
REMARK SMILES IDX 43 49 61 50 44 51 47 52 60 53 78 54 45 55 46 56 59 58 79 59
REMARK SMILES IDX 48 60 33 61 34 62 42 63 35 64 41 65 36 66 37 67 38 68 39 69
REMARK SMILES IDX 40 70 63 71 64 72 72 73 65 74 71 75 66 76 67 77 68 78 69 79
REMARK SMILES IDX 70 80 49 81 50 82 58 83 51 84 57 85 52 86 53 87 54 88 55 89
REMARK SMILES IDX 56 90
REMARK H PARENT 17 4 3 18 3 19 21 27 77 46 47 57
REMARK Flexibility Score: inf
ROOT
ATOM      1  C   UNL A   1      30.550  26.018  24.739  1.00  0.00     0.222 C 
ATOM      2  O   UNL A   1      30.003  25.955  23.637  1.00  0.00    -0.275 OA
ATOM      3  N   UNL A   1      30.974  27.239  25.178  1.00  0.00    -0.356 N 
ATOM      4  H   UNL A   1      30.777  27.981  24.563  1.00  0.00     0.163 HD
ENDROOT
BRANCH   1   5
ATOM      5  C   UNL A   1      30.773  24.767  25.559  1.00  0.00     0.133 C 
BRANCH   5   6
ATOM      6  C   UNL A   1      32.081  24.061  25.194  1.00  0.00     0.147 C 
ATOM      7  N   UNL A   1      32.945  21.973  24.128  1.00  0.00    -0.337 N 
ATOM      8  C   UNL A   1      33.573  22.789  23.095  1.00  0.00     0.148 C 
ATOM      9  C   UNL A   1      31.803  22.628  24.732  1.00  0.00     0.152 C 
ATOM     10  C   UNL A   1      33.903  24.172  23.658  1.00  0.00     0.182 C 
ATOM     11  O   UNL A   1      32.711  24.823  24.139  1.00  0.00    -0.374 OA
BRANCH   7  12
ATOM     12  C   UNL A   1      32.823  20.597  23.969  1.00  0.00     0.231 C 
ATOM     13  O   UNL A   1      32.127  20.112  23.078  1.00  0.00    -0.274 OA
BRANCH  12  14
ATOM     14  C   UNL A   1      33.411  19.732  25.081  1.00  0.00     0.130 C 
ATOM     15  C   UNL A   1      34.922  19.582  24.882  1.00  0.00     0.024 C 
BRANCH  14  16
ATOM     16  C   UNL A   1      32.680  18.393  25.219  1.00  0.00     0.273 C 
BRANCH  16  17
ATOM     17  N   UNL A   1      33.172  17.301  24.378  1.00  0.00    -0.346 N 
ATOM     18  H   UNL A   1      32.452  17.072  23.692  1.00  0.00     0.346 HD
ATOM     19  H   UNL A   1      34.034  17.622  23.940  1.00  0.00     0.346 HD
BRANCH  17  20
ATOM     20  C   UNL A   1      33.495  16.090  25.132  1.00  0.00     0.257 C 
ATOM     21  C   UNL A   1      35.006  15.936  25.194  1.00  0.00     0.071 C 
ENDBRANCH  17  20
ENDBRANCH  16  17
ENDBRANCH  14  16
ENDBRANCH  12  14
ENDBRANCH   7  12
ENDBRANCH   5   6
ENDBRANCH   1   5
BRANCH   3  22
ATOM     22  C   UNL A   1      31.667  27.638  26.400  1.00  0.00     0.117 C 
BRANCH  22  23
ATOM     23  C   UNL A   1      33.185  27.462  26.302  1.00  0.00     0.042 C 
BRANCH  23  24
ATOM     24  C   UNL A   1      33.934  28.661  25.740  1.00  0.00     0.118 C 
BRANCH  24  25
ATOM     25  N   UNL A   1      33.666  29.871  26.499  1.00  0.00    -0.352 N 
ATOM     26  C   UNL A   1      34.367  30.439  27.537  1.00  0.00     0.251 C 
ATOM     27  H   UNL A   1      32.856  30.360  26.226  1.00  0.00     0.163 HD
ATOM     28  O   UNL A   1      33.821  31.324  28.195  1.00  0.00    -0.269 OA
BRANCH  26  29
ATOM     29  C   UNL A   1      35.748  30.013  27.886  1.00  0.00     0.039 A 
ATOM     30  C   UNL A   1      35.989  29.513  29.171  1.00  0.00     0.014 A 
ATOM     31  C   UNL A   1      36.824  30.178  27.010  1.00  0.00     0.014 A 
ATOM     32  C   UNL A   1      37.284  29.148  29.559  1.00  0.00     0.010 A 
ATOM     33  C   UNL A   1      38.103  29.741  27.368  1.00  0.00     0.010 A 
ATOM     34  C   UNL A   1      38.354  29.239  28.655  1.00  0.00    -0.014 A 
BRANCH  34  35
ATOM     35  C   UNL A   1      39.737  28.847  29.047  1.00  0.00     0.031 A 
ATOM     36  C   UNL A   1      40.629  29.825  29.772  1.00  0.00     0.074 A 
ATOM     37  C   UNL A   1      40.215  27.630  28.718  1.00  0.00     0.049 A 
ATOM     38  N   UNL A   1      41.876  29.684  30.147  1.00  0.00    -0.248 NA
ATOM     39  C   UNL A   1      40.052  31.139  30.099  1.00  0.00     0.031 C 
ATOM     40  C   UNL A   1      39.475  26.598  27.989  1.00  0.00     0.029 A 
ATOM     41  N   UNL A   1      41.441  27.056  28.951  1.00  0.00    -0.354 N 
ATOM     42  C   UNL A   1      42.239  30.894  30.729  1.00  0.00     0.074 A 
ATOM     43  C   UNL A   1      41.094  31.772  30.621  1.00  0.00     0.031 C 
ATOM     44  C   UNL A   1      40.251  25.509  27.859  1.00  0.00     0.029 A 
ATOM     45  C   UNL A   1      41.556  25.777  28.459  1.00  0.00     0.049 A 
ATOM     46  H   UNL A   1      42.170  27.518  29.426  1.00  0.00     0.167 HD
ATOM     47  C   UNL A   1      43.410  31.244  31.314  1.00  0.00     0.031 A 
ATOM     48  C   UNL A   1      42.591  24.915  28.481  1.00  0.00     0.031 A 
ATOM     49  C   UNL A   1      44.544  30.368  31.447  1.00  0.00     0.049 A 
ATOM     50  C   UNL A   1      43.878  25.319  29.148  1.00  0.00     0.074 A 
ATOM     51  C   UNL A   1      45.754  30.616  32.072  1.00  0.00     0.029 A 
ATOM     52  N   UNL A   1      44.608  29.075  30.952  1.00  0.00    -0.354 N 
ATOM     53  N   UNL A   1      44.181  26.452  29.735  1.00  0.00    -0.248 NA
ATOM     54  C   UNL A   1      44.960  24.323  29.165  1.00  0.00     0.031 C 
ATOM     55  C   UNL A   1      46.566  29.486  31.921  1.00  0.00     0.029 A 
ATOM     56  C   UNL A   1      45.842  28.517  31.244  1.00  0.00     0.049 A 
ATOM     57  H   UNL A   1      43.884  28.620  30.465  1.00  0.00     0.167 HD
ATOM     58  C   UNL A   1      45.477  26.295  30.213  1.00  0.00     0.074 A 
ATOM     59  C   UNL A   1      45.898  24.955  29.858  1.00  0.00     0.031 C 
ATOM     60  C   UNL A   1      46.249  27.181  30.889  1.00  0.00     0.031 A 
BRANCH  47  61
ATOM     61  C   UNL A   1      43.527  32.644  31.856  1.00  0.00    -0.014 A 
ATOM     62  C   UNL A   1      43.165  32.943  33.183  1.00  0.00     0.010 A 
ATOM     63  C   UNL A   1      44.040  33.670  31.041  1.00  0.00     0.010 A 
ATOM     64  C   UNL A   1      43.272  34.249  33.669  1.00  0.00     0.020 A 
ATOM     65  C   UNL A   1      44.173  34.972  31.531  1.00  0.00     0.020 A 
ATOM     66  C   UNL A   1      43.769  35.257  32.837  1.00  0.00     0.054 A 
BRANCH  66  67
ATOM     67  S   UNL A   1      43.908  36.941  33.497  1.00  0.00     0.124 S 
ATOM     68  O   UNL A   1      42.693  37.050  34.300  1.00  0.00    -0.237 OA
ATOM     69  O   UNL A   1      45.157  36.891  34.251  1.00  0.00    -0.237 OA
ATOM     70  O   UNL A   1      43.940  37.780  32.300  1.00  0.00    -0.744 OA
ENDBRANCH  66  67
ENDBRANCH  47  61
BRANCH  48  71
ATOM     71  C   UNL A   1      42.445  23.567  27.868  1.00  0.00    -0.014 A 
ATOM     72  C   UNL A   1      43.066  23.272  26.641  1.00  0.00     0.010 A 
ATOM     73  C   UNL A   1      41.699  22.565  28.517  1.00  0.00     0.010 A 
ATOM     74  C   UNL A   1      42.931  22.005  26.065  1.00  0.00     0.020 A 
ATOM     75  C   UNL A   1      41.583  21.289  27.957  1.00  0.00     0.020 A 
ATOM     76  C   UNL A   1      42.191  21.021  26.727  1.00  0.00     0.054 A 
BRANCH  76  77
ATOM     77  S   UNL A   1      42.075  19.367  25.990  1.00  0.00     0.124 S 
ATOM     78  O   UNL A   1      40.639  19.234  25.770  1.00  0.00    -0.237 OA
ATOM     79  O   UNL A   1      42.891  19.500  24.784  1.00  0.00    -0.237 OA
ATOM     80  O   UNL A   1      42.637  18.496  27.019  1.00  0.00    -0.744 OA
ENDBRANCH  76  77
ENDBRANCH  48  71
BRANCH  60  81
ATOM     81  C   UNL A   1      47.615  26.726  31.326  1.00  0.00    -0.014 A 
ATOM     82  C   UNL A   1      47.801  26.038  32.537  1.00  0.00     0.010 A 
ATOM     83  C   UNL A   1      48.719  26.937  30.479  1.00  0.00     0.010 A 
ATOM     84  C   UNL A   1      49.072  25.590  32.906  1.00  0.00     0.020 A 
ATOM     85  C   UNL A   1      49.987  26.470  30.833  1.00  0.00     0.020 A 
ATOM     86  C   UNL A   1      50.158  25.809  32.051  1.00  0.00     0.054 A 
BRANCH  86  87
ATOM     87  S   UNL A   1      51.789  25.172  32.528  1.00  0.00     0.124 S 
ATOM     88  O   UNL A   1      51.534  23.740  32.643  1.00  0.00    -0.237 OA
ATOM     89  O   UNL A   1      52.632  25.573  31.405  1.00  0.00    -0.237 OA
ATOM     90  O   UNL A   1      52.074  25.858  33.786  1.00  0.00    -0.744 OA
ENDBRANCH  86  87
ENDBRANCH  60  81
ENDBRANCH  34  35
ENDBRANCH  26  29
ENDBRANCH  24  25
ENDBRANCH  23  24
ENDBRANCH  22  23
ENDBRANCH   3  22
TORSDOF 19
ENDMDL
MODEL 3
REMARK VINA RESULT:     -10.2      4.162      7.224
REMARK SMILES CC[NH2+]C[C@@H](C)C(=O)N1CCO[C@@H](CC(=O)NCCCNC(=O)c2ccc(-c3c4nc(c(-c5ccc(S(=O)(=O)[O-])cc5)c5ccc([nH]5)c(-c5ccc(S(=O)(=O)[O-])cc5)c5nc(c(-c6ccc(S(=O)(=O)[O-])cc6)c6ccc3[nH]6)C=C5)C=C4)cc2)C1
REMARK SMILES IDX 15 1 16 2 17 3 14 5 13 6 9 7 10 8 84 9 11 10 12 11 7 12 8 13
REMARK SMILES IDX 5 14 6 15 4 16 3 17 2 20 1 21 18 22 19 23 20 24 21 25 22 26
REMARK SMILES IDX 23 28 24 29 25 30 83 31 26 32 82 33 27 34 28 35 29 36 76 37
REMARK SMILES IDX 30 38 81 39 75 40 77 41 31 42 80 43 74 44 73 45 32 47 62 48
REMARK SMILES IDX 43 49 61 50 44 51 47 52 60 53 78 54 45 55 46 56 59 58 79 59
REMARK SMILES IDX 48 60 33 61 34 62 42 63 35 64 41 65 36 66 37 67 38 68 39 69
REMARK SMILES IDX 40 70 63 71 64 72 72 73 65 74 71 75 66 76 67 77 68 78 69 79
REMARK SMILES IDX 70 80 49 81 50 82 58 83 51 84 57 85 52 86 53 87 54 88 55 89
REMARK SMILES IDX 56 90
REMARK H PARENT 17 4 3 18 3 19 21 27 77 46 47 57
REMARK Flexibility Score: inf
ROOT
ATOM      1  C   UNL A   1      35.033  35.120  33.093  1.00  0.00     0.222 C 
ATOM      2  O   UNL A   1      34.643  36.216  33.500  1.00  0.00    -0.275 OA
ATOM      3  N   UNL A   1      35.170  34.946  31.746  1.00  0.00    -0.356 N 
ATOM      4  H   UNL A   1      34.959  35.745  31.212  1.00  0.00     0.163 HD
ENDROOT
BRANCH   1   5
ATOM      5  C   UNL A   1      35.313  33.995  34.064  1.00  0.00     0.133 C 
BRANCH   5   6
ATOM      6  C   UNL A   1      36.796  33.905  34.432  1.00  0.00     0.147 C 
ATOM      7  N   UNL A   1      38.796  32.436  34.142  1.00  0.00    -0.337 N 
ATOM      8  C   UNL A   1      39.460  33.522  33.428  1.00  0.00     0.148 C 
ATOM      9  C   UNL A   1      37.353  32.525  34.067  1.00  0.00     0.152 C 
ATOM     10  C   UNL A   1      38.916  34.866  33.913  1.00  0.00     0.182 C 
ATOM     11  O   UNL A   1      37.493  34.944  33.707  1.00  0.00    -0.374 OA
BRANCH   7  12
ATOM     12  C   UNL A   1      39.312  31.146  34.108  1.00  0.00     0.231 C 
ATOM     13  O   UNL A   1      39.138  30.408  33.138  1.00  0.00    -0.274 OA
BRANCH  12  14
ATOM     14  C   UNL A   1      39.908  30.619  35.412  1.00  0.00     0.130 C 
ATOM     15  C   UNL A   1      40.561  31.767  36.187  1.00  0.00     0.024 C 
BRANCH  14  16
ATOM     16  C   UNL A   1      40.844  29.430  35.180  1.00  0.00     0.273 C 
BRANCH  16  17
ATOM     17  N   UNL A   1      40.934  28.459  36.273  1.00  0.00    -0.346 N 
ATOM     18  H   UNL A   1      41.155  28.960  37.133  1.00  0.00     0.346 HD
ATOM     19  H   UNL A   1      40.036  27.980  36.325  1.00  0.00     0.346 HD
BRANCH  17  20
ATOM     20  C   UNL A   1      41.958  27.437  36.056  1.00  0.00     0.257 C 
ATOM     21  C   UNL A   1      43.299  28.122  35.841  1.00  0.00     0.071 C 
ENDBRANCH  17  20
ENDBRANCH  16  17
ENDBRANCH  14  16
ENDBRANCH  12  14
ENDBRANCH   7  12
ENDBRANCH   5   6
ENDBRANCH   1   5
BRANCH   3  22
ATOM     22  C   UNL A   1      35.575  33.785  30.959  1.00  0.00     0.117 C 
BRANCH  22  23
ATOM     23  C   UNL A   1      34.404  33.138  30.215  1.00  0.00     0.042 C 
BRANCH  23  24
ATOM     24  C   UNL A   1      34.703  32.739  28.777  1.00  0.00     0.118 C 
BRANCH  24  25
ATOM     25  N   UNL A   1      34.003  31.525  28.396  1.00  0.00    -0.352 N 
ATOM     26  C   UNL A   1      34.497  30.292  28.036  1.00  0.00     0.251 C 
ATOM     27  H   UNL A   1      33.021  31.595  28.396  1.00  0.00     0.163 HD
ATOM     28  O   UNL A   1      33.731  29.487  27.510  1.00  0.00    -0.269 OA
BRANCH  26  29
ATOM     29  C   UNL A   1      35.918  29.914  28.258  1.00  0.00     0.039 A 
ATOM     30  C   UNL A   1      36.301  29.473  29.530  1.00  0.00     0.014 A 
ATOM     31  C   UNL A   1      36.895  30.068  27.271  1.00  0.00     0.014 A 
ATOM     32  C   UNL A   1      37.638  29.155  29.798  1.00  0.00     0.010 A 
ATOM     33  C   UNL A   1      38.215  29.676  27.514  1.00  0.00     0.010 A 
ATOM     34  C   UNL A   1      38.608  29.234  28.786  1.00  0.00    -0.014 A 
BRANCH  34  35
ATOM     35  C   UNL A   1      40.034  28.891  29.050  1.00  0.00     0.031 A 
ATOM     36  C   UNL A   1      40.964  29.913  29.657  1.00  0.00     0.074 A 
ATOM     37  C   UNL A   1      40.514  27.678  28.708  1.00  0.00     0.049 A 
ATOM     38  N   UNL A   1      42.245  29.817  29.911  1.00  0.00    -0.248 NA
ATOM     39  C   UNL A   1      40.383  31.220  30.005  1.00  0.00     0.031 C 
ATOM     40  C   UNL A   1      39.737  26.606  28.083  1.00  0.00     0.029 A 
ATOM     41  N   UNL A   1      41.774  27.144  28.833  1.00  0.00    -0.354 N 
ATOM     42  C   UNL A   1      42.627  31.053  30.422  1.00  0.00     0.074 A 
ATOM     43  C   UNL A   1      41.451  31.896  30.405  1.00  0.00     0.031 C 
ATOM     44  C   UNL A   1      40.529  25.535  27.906  1.00  0.00     0.029 A 
ATOM     45  C   UNL A   1      41.878  25.855  28.366  1.00  0.00     0.049 A 
ATOM     46  H   UNL A   1      42.531  27.639  29.222  1.00  0.00     0.167 HD
ATOM     47  C   UNL A   1      43.839  31.451  30.880  1.00  0.00     0.031 A 
ATOM     48  C   UNL A   1      42.935  25.022  28.309  1.00  0.00     0.031 A 
ATOM     49  C   UNL A   1      45.006  30.610  30.923  1.00  0.00     0.049 A 
ATOM     50  C   UNL A   1      44.268  25.480  28.835  1.00  0.00     0.074 A 
ATOM     51  C   UNL A   1      46.264  30.909  31.419  1.00  0.00     0.029 A 
ATOM     52  N   UNL A   1      45.060  29.305  30.458  1.00  0.00    -0.354 N 
ATOM     53  N   UNL A   1      44.594  26.637  29.359  1.00  0.00    -0.248 NA
ATOM     54  C   UNL A   1      45.375  24.515  28.771  1.00  0.00     0.031 C 
ATOM     55  C   UNL A   1      47.090  29.797  31.219  1.00  0.00     0.029 A 
ATOM     56  C   UNL A   1      46.332  28.789  30.642  1.00  0.00     0.049 A 
ATOM     57  H   UNL A   1      44.305  28.817  30.058  1.00  0.00     0.167 HD
ATOM     58  C   UNL A   1      45.935  26.529  29.711  1.00  0.00     0.074 A 
ATOM     59  C   UNL A   1      46.358  25.192  29.351  1.00  0.00     0.031 C 
ATOM     60  C   UNL A   1      46.742  27.456  30.284  1.00  0.00     0.031 A 
BRANCH  47  61
ATOM     61  C   UNL A   1      43.967  32.869  31.370  1.00  0.00    -0.014 A 
ATOM     62  C   UNL A   1      44.313  33.914  30.493  1.00  0.00     0.010 A 
ATOM     63  C   UNL A   1      43.702  33.170  32.719  1.00  0.00     0.010 A 
ATOM     64  C   UNL A   1      44.436  35.223  30.964  1.00  0.00     0.020 A 
ATOM     65  C   UNL A   1      43.797  34.483  33.189  1.00  0.00     0.020 A 
ATOM     66  C   UNL A   1      44.184  35.499  32.312  1.00  0.00     0.054 A 
BRANCH  66  67
ATOM     67  S   UNL A   1      44.338  37.210  32.895  1.00  0.00     0.124 S 
ATOM     68  O   UNL A   1      45.686  37.214  33.458  1.00  0.00    -0.237 OA
ATOM     69  O   UNL A   1      44.165  37.986  31.671  1.00  0.00    -0.237 OA
ATOM     70  O   UNL A   1      43.256  37.341  33.869  1.00  0.00    -0.744 OA
ENDBRANCH  66  67
ENDBRANCH  47  61
BRANCH  48  71
ATOM     71  C   UNL A   1      42.769  23.653  27.749  1.00  0.00    -0.014 A 
ATOM     72  C   UNL A   1      42.398  22.583  28.583  1.00  0.00     0.010 A 
ATOM     73  C   UNL A   1      42.963  23.416  26.376  1.00  0.00     0.010 A 
ATOM     74  C   UNL A   1      42.240  21.298  28.057  1.00  0.00     0.020 A 
ATOM     75  C   UNL A   1      42.781  22.138  25.841  1.00  0.00     0.020 A 
ATOM     76  C   UNL A   1      42.431  21.083  26.689  1.00  0.00     0.054 A 
BRANCH  76  77
ATOM     77  S   UNL A   1      42.165  19.418  26.018  1.00  0.00     0.124 S 
ATOM     78  O   UNL A   1      43.016  19.431  24.833  1.00  0.00    -0.237 OA
ATOM     79  O   UNL A   1      42.616  18.560  27.111  1.00  0.00    -0.237 OA
ATOM     80  O   UNL A   1      40.728  19.381  25.760  1.00  0.00    -0.744 OA
ENDBRANCH  76  77
ENDBRANCH  48  71
BRANCH  60  81
ATOM     81  C   UNL A   1      48.157  27.051  30.595  1.00  0.00    -0.014 A 
ATOM     82  C   UNL A   1      49.232  27.490  29.803  1.00  0.00     0.010 A 
ATOM     83  C   UNL A   1      48.419  26.269  31.735  1.00  0.00     0.010 A 
ATOM     84  C   UNL A   1      50.542  27.133  30.132  1.00  0.00     0.020 A 
ATOM     85  C   UNL A   1      49.730  25.930  32.080  1.00  0.00     0.020 A 
ATOM     86  C   UNL A   1      50.784  26.355  31.269  1.00  0.00     0.054 A 
BRANCH  86  87
ATOM     87  S   UNL A   1      52.498  25.949  31.704  1.00  0.00     0.124 S 
ATOM     88  O   UNL A   1      52.341  24.674  32.398  1.00  0.00    -0.237 OA
ATOM     89  O   UNL A   1      53.153  25.880  30.401  1.00  0.00    -0.237 OA
ATOM     90  O   UNL A   1      52.915  27.069  32.545  1.00  0.00    -0.744 OA
ENDBRANCH  86  87
ENDBRANCH  60  81
ENDBRANCH  34  35
ENDBRANCH  26  29
ENDBRANCH  24  25
ENDBRANCH  23  24
ENDBRANCH  22  23
ENDBRANCH   3  22
TORSDOF 19
ENDMDL
