MODEL 1
REMARK VINA RESULT:     -12.1      0.000      0.000
REMARK SMILES C[C@H]1CCC[C@@H]1n1c(SCC(=O)NCCCNC(=O)c2ccc(-c3c4nc(c(-c5ccc(S(=O)(=O)[O-])cc5)c5ccc([nH]5)c(-c5ccc(S(=O)(=O)[O-])cc5)c5nc(c(-c6ccc(S(=O)(=O)[O-])cc6)c6ccc3[nH]6)C=C5)C=C4)cc2)nc2cnccc21
REMARK SMILES IDX 15 1 14 2 13 3 11 4 12 5 10 7 9 8 8 9 7 10 86 11 80 12 81 13
REMARK SMILES IDX 85 14 82 15 84 16 83 17 6 18 1 19 2 20 3 21 4 22 5 23 16 24
REMARK SMILES IDX 17 25 18 26 19 28 20 29 21 30 79 31 22 32 78 33 23 34 24 35
REMARK SMILES IDX 25 36 72 37 26 38 77 39 71 40 73 41 27 42 76 43 70 44 69 45
REMARK SMILES IDX 28 47 58 48 39 49 57 50 40 51 43 52 56 53 74 54 41 55 42 56
REMARK SMILES IDX 55 58 75 59 44 60 29 61 30 62 38 63 31 64 37 65 32 66 33 67
REMARK SMILES IDX 34 68 35 69 36 70 59 71 60 72 68 73 61 74 67 75 62 76 63 77
REMARK SMILES IDX 64 78 65 79 66 80 45 81 46 82 54 83 47 84 53 85 48 86 49 87
REMARK SMILES IDX 50 88 51 89 52 90
REMARK H PARENT 13 6 17 27 73 46 43 57
REMARK Flexibility Score: inf
ROOT
ATOM      1  C   UNL A   1      38.892  21.335  26.054  1.00  0.00     0.042 C 
ENDROOT
BRANCH   1   2
ATOM      2  C   UNL A   1      37.833  22.165  25.346  1.00  0.00     0.117 C 
BRANCH   2   3
ATOM      3  N   UNL A   1      36.792  22.617  26.238  1.00  0.00    -0.355 N 
ATOM      4  C   UNL A   1      35.617  23.218  25.948  1.00  0.00     0.230 C 
ATOM      5  O   UNL A   1      34.728  23.086  26.800  1.00  0.00    -0.274 OA
ATOM      6  H   UNL A   1      36.963  22.465  27.196  1.00  0.00     0.163 HD
BRANCH   4   7
ATOM      7  C   UNL A   1      35.321  23.881  24.628  1.00  0.00     0.178 C 
BRANCH   7   8
ATOM      8  S   UNL A   1      33.818  24.763  24.272  1.00  0.00    -0.078 SA
BRANCH   8   9
ATOM      9  C   UNL A   1      33.295  26.114  25.218  1.00  0.00     0.169 A 
ATOM     10  N   UNL A   1      32.156  26.929  25.148  1.00  0.00    -0.315 N 
ATOM     11  C   UNL A   1      32.403  28.017  25.998  1.00  0.00     0.072 A 
ATOM     12  N   UNL A   1      34.256  26.733  25.879  1.00  0.00    -0.221 NA
ATOM     13  C   UNL A   1      33.761  27.930  26.292  1.00  0.00     0.108 A 
ATOM     14  C   UNL A   1      31.662  29.097  26.496  1.00  0.00     0.049 A 
ATOM     15  C   UNL A   1      34.411  28.998  26.926  1.00  0.00     0.141 A 
ATOM     16  C   UNL A   1      32.382  30.102  27.133  1.00  0.00     0.113 A 
ATOM     17  N   UNL A   1      33.714  30.094  27.323  1.00  0.00    -0.262 NA
BRANCH  10  18
ATOM     18  C   UNL A   1      31.081  26.857  24.152  1.00  0.00     0.093 C 
ATOM     19  C   UNL A   1      31.114  28.975  22.641  1.00  0.00     0.010 C 
ATOM     20  C   UNL A   1      30.371  28.157  23.693  1.00  0.00     0.009 C 
ATOM     21  C   UNL A   1      29.029  27.679  23.134  1.00  0.00     0.005 C 
ATOM     22  C   UNL A   1      28.602  26.599  24.096  1.00  0.00     0.002 C 
ATOM     23  C   UNL A   1      29.898  26.036  24.651  1.00  0.00     0.026 C 
ENDBRANCH  10  18
ENDBRANCH   8   9
ENDBRANCH   7   8
ENDBRANCH   4   7
ENDBRANCH   2   3
ENDBRANCH   1   2
BRANCH   1  24
ATOM     24  C   UNL A   1      40.093  22.114  26.603  1.00  0.00     0.118 C 
BRANCH  24  25
ATOM     25  N   UNL A   1      41.232  22.270  25.714  1.00  0.00    -0.352 N 
ATOM     26  C   UNL A   1      42.246  23.182  25.596  1.00  0.00     0.251 C 
ATOM     27  H   UNL A   1      41.287  21.554  25.042  1.00  0.00     0.163 HD
ATOM     28  O   UNL A   1      43.176  22.863  24.848  1.00  0.00    -0.269 OA
BRANCH  26  29
ATOM     29  C   UNL A   1      42.259  24.530  26.222  1.00  0.00     0.039 A 
ATOM     30  C   UNL A   1      42.902  24.855  27.413  1.00  0.00     0.014 A 
ATOM     31  C   UNL A   1      41.487  25.520  25.582  1.00  0.00     0.014 A 
ATOM     32  C   UNL A   1      42.650  26.070  28.038  1.00  0.00     0.010 A 
ATOM     33  C   UNL A   1      41.269  26.756  26.180  1.00  0.00     0.010 A 
ATOM     34  C   UNL A   1      41.795  27.002  27.445  1.00  0.00    -0.014 A 
BRANCH  34  35
ATOM     35  C   UNL A   1      41.514  28.229  28.184  1.00  0.00     0.031 A 
ATOM     36  C   UNL A   1      42.535  29.313  28.077  1.00  0.00     0.074 A 
ATOM     37  C   UNL A   1      40.369  28.431  28.864  1.00  0.00     0.049 A 
ATOM     38  N   UNL A   1      43.218  29.874  29.022  1.00  0.00    -0.248 NA
ATOM     39  C   UNL A   1      42.890  29.776  26.728  1.00  0.00     0.031 C 
ATOM     40  C   UNL A   1      39.138  27.634  28.840  1.00  0.00     0.029 A 
ATOM     41  N   UNL A   1      40.031  29.492  29.647  1.00  0.00    -0.354 N 
ATOM     42  C   UNL A   1      43.996  30.861  28.415  1.00  0.00     0.074 A 
ATOM     43  C   UNL A   1      43.823  30.689  26.993  1.00  0.00     0.031 C 
ATOM     44  C   UNL A   1      38.127  28.368  29.357  1.00  0.00     0.029 A 
ATOM     45  C   UNL A   1      38.670  29.608  29.887  1.00  0.00     0.049 A 
ATOM     46  H   UNL A   1      40.694  30.122  30.011  1.00  0.00     0.167 HD
ATOM     47  C   UNL A   1      44.636  31.839  29.118  1.00  0.00     0.031 A 
ATOM     48  C   UNL A   1      38.035  30.694  30.394  1.00  0.00     0.031 A 
ATOM     49  C   UNL A   1      44.730  31.527  30.516  1.00  0.00     0.049 A 
ATOM     50  C   UNL A   1      39.051  31.507  31.108  1.00  0.00     0.074 A 
ATOM     51  C   UNL A   1      45.361  30.539  31.246  1.00  0.00     0.029 A 
ATOM     52  N   UNL A   1      43.828  32.110  31.372  1.00  0.00    -0.354 N 
ATOM     53  N   UNL A   1      39.660  31.122  32.195  1.00  0.00    -0.248 NA
ATOM     54  C   UNL A   1      39.694  32.590  30.380  1.00  0.00     0.031 C 
ATOM     55  C   UNL A   1      44.469  30.253  32.317  1.00  0.00     0.029 A 
ATOM     56  C   UNL A   1      43.378  31.117  32.204  1.00  0.00     0.049 A 
ATOM     57  H   UNL A   1      43.559  33.057  31.386  1.00  0.00     0.167 HD
ATOM     58  C   UNL A   1      40.951  31.615  32.072  1.00  0.00     0.074 A 
ATOM     59  C   UNL A   1      40.886  32.586  30.983  1.00  0.00     0.031 C 
ATOM     60  C   UNL A   1      42.012  31.004  32.678  1.00  0.00     0.031 A 
BRANCH  47  61
ATOM     61  C   UNL A   1      44.966  33.211  28.584  1.00  0.00    -0.014 A 
ATOM     62  C   UNL A   1      44.019  34.037  27.949  1.00  0.00     0.010 A 
ATOM     63  C   UNL A   1      46.198  33.809  28.934  1.00  0.00     0.010 A 
ATOM     64  C   UNL A   1      44.276  35.383  27.671  1.00  0.00     0.020 A 
ATOM     65  C   UNL A   1      46.448  35.171  28.701  1.00  0.00     0.020 A 
ATOM     66  C   UNL A   1      45.482  35.948  28.070  1.00  0.00     0.054 A 
BRANCH  66  67
ATOM     67  S   UNL A   1      45.713  37.729  27.831  1.00  0.00     0.124 S 
ATOM     68  O   UNL A   1      46.993  37.775  27.131  1.00  0.00    -0.237 OA
ATOM     69  O   UNL A   1      44.545  38.091  27.033  1.00  0.00    -0.237 OA
ATOM     70  O   UNL A   1      45.723  38.258  29.192  1.00  0.00    -0.744 OA
ENDBRANCH  66  67
ENDBRANCH  47  61
BRANCH  48  71
ATOM     71  C   UNL A   1      36.775  31.292  29.880  1.00  0.00    -0.014 A 
ATOM     72  C   UNL A   1      36.745  31.889  28.603  1.00  0.00     0.010 A 
ATOM     73  C   UNL A   1      35.715  31.570  30.762  1.00  0.00     0.010 A 
ATOM     74  C   UNL A   1      35.751  32.807  28.254  1.00  0.00     0.020 A 
ATOM     75  C   UNL A   1      34.716  32.498  30.421  1.00  0.00     0.020 A 
ATOM     76  C   UNL A   1      34.768  33.142  29.183  1.00  0.00     0.054 A 
BRANCH  76  77
ATOM     77  S   UNL A   1      33.640  34.508  28.788  1.00  0.00     0.124 S 
ATOM     78  O   UNL A   1      32.712  33.868  27.853  1.00  0.00    -0.237 OA
ATOM     79  O   UNL A   1      33.073  34.833  30.099  1.00  0.00    -0.237 OA
ATOM     80  O   UNL A   1      34.506  35.523  28.217  1.00  0.00    -0.744 OA
ENDBRANCH  76  77
ENDBRANCH  48  71
BRANCH  60  81
ATOM     81  C   UNL A   1      41.764  29.913  33.698  1.00  0.00    -0.014 A 
ATOM     82  C   UNL A   1      42.196  30.146  35.018  1.00  0.00     0.010 A 
ATOM     83  C   UNL A   1      41.346  28.613  33.351  1.00  0.00     0.010 A 
ATOM     84  C   UNL A   1      42.256  29.108  35.950  1.00  0.00     0.020 A 
ATOM     85  C   UNL A   1      41.378  27.571  34.292  1.00  0.00     0.020 A 
ATOM     86  C   UNL A   1      41.862  27.821  35.577  1.00  0.00     0.054 A 
BRANCH  86  87
ATOM     87  S   UNL A   1      42.035  26.486  36.793  1.00  0.00     0.124 S 
ATOM     88  O   UNL A   1      42.449  25.360  35.961  1.00  0.00    -0.237 OA
ATOM     89  O   UNL A   1      43.061  27.003  37.696  1.00  0.00    -0.237 OA
ATOM     90  O   UNL A   1      40.702  26.366  37.380  1.00  0.00    -0.744 OA
ENDBRANCH  86  87
ENDBRANCH  60  81
ENDBRANCH  34  35
ENDBRANCH  26  29
ENDBRANCH  24  25
ENDBRANCH   1  24
TORSDOF 16
ENDMDL
MODEL 2
REMARK VINA RESULT:     -12.1      4.228      7.097
REMARK SMILES C[C@H]1CCC[C@@H]1n1c(SCC(=O)NCCCNC(=O)c2ccc(-c3c4nc(c(-c5ccc(S(=O)(=O)[O-])cc5)c5ccc([nH]5)c(-c5ccc(S(=O)(=O)[O-])cc5)c5nc(c(-c6ccc(S(=O)(=O)[O-])cc6)c6ccc3[nH]6)C=C5)C=C4)cc2)nc2cnccc21
REMARK SMILES IDX 15 1 14 2 13 3 11 4 12 5 10 7 9 8 8 9 7 10 86 11 80 12 81 13
REMARK SMILES IDX 85 14 82 15 84 16 83 17 6 18 1 19 2 20 3 21 4 22 5 23 16 24
REMARK SMILES IDX 17 25 18 26 19 28 20 29 21 30 79 31 22 32 78 33 23 34 24 35
REMARK SMILES IDX 25 36 72 37 26 38 77 39 71 40 73 41 27 42 76 43 70 44 69 45
REMARK SMILES IDX 28 47 58 48 39 49 57 50 40 51 43 52 56 53 74 54 41 55 42 56
REMARK SMILES IDX 55 58 75 59 44 60 29 61 30 62 38 63 31 64 37 65 32 66 33 67
REMARK SMILES IDX 34 68 35 69 36 70 59 71 60 72 68 73 61 74 67 75 62 76 63 77
REMARK SMILES IDX 64 78 65 79 66 80 45 81 46 82 54 83 47 84 53 85 48 86 49 87
REMARK SMILES IDX 50 88 51 89 52 90
REMARK H PARENT 13 6 17 27 73 46 43 57
REMARK Flexibility Score: inf
ROOT
ATOM      1  C   UNL A   1      41.851  19.475  25.918  1.00  0.00     0.042 C 
ENDROOT
BRANCH   1   2
ATOM      2  C   UNL A   1      43.339  19.157  25.905  1.00  0.00     0.117 C 
BRANCH   2   3
ATOM      3  N   UNL A   1      43.859  18.990  24.568  1.00  0.00    -0.355 N 
ATOM      4  C   UNL A   1      45.033  19.410  24.048  1.00  0.00     0.230 C 
ATOM      5  O   UNL A   1      45.441  18.770  23.070  1.00  0.00    -0.274 OA
ATOM      6  H   UNL A   1      43.274  18.499  23.947  1.00  0.00     0.163 HD
BRANCH   4   7
ATOM      7  C   UNL A   1      45.890  20.480  24.675  1.00  0.00     0.178 C 
BRANCH   7   8
ATOM      8  S   UNL A   1      45.541  22.221  24.574  1.00  0.00    -0.078 SA
BRANCH   8   9
ATOM      9  C   UNL A   1      45.076  23.151  25.958  1.00  0.00     0.169 A 
ATOM     10  N   UNL A   1      45.394  24.453  26.367  1.00  0.00    -0.315 N 
ATOM     11  C   UNL A   1      44.943  24.566  27.691  1.00  0.00     0.072 A 
ATOM     12  N   UNL A   1      44.661  22.438  26.989  1.00  0.00    -0.221 NA
ATOM     13  C   UNL A   1      44.652  23.259  28.074  1.00  0.00     0.108 A 
ATOM     14  C   UNL A   1      44.812  25.599  28.628  1.00  0.00     0.049 A 
ATOM     15  C   UNL A   1      44.404  22.961  29.421  1.00  0.00     0.141 A 
ATOM     16  C   UNL A   1      44.543  25.218  29.938  1.00  0.00     0.113 A 
ATOM     17  N   UNL A   1      44.375  23.949  30.353  1.00  0.00    -0.262 NA
BRANCH  10  18
ATOM     18  C   UNL A   1      46.301  25.391  25.697  1.00  0.00     0.093 C 
ATOM     19  C   UNL A   1      48.672  25.262  26.761  1.00  0.00     0.010 C 
ATOM     20  C   UNL A   1      47.418  26.094  26.512  1.00  0.00     0.009 C 
ATOM     21  C   UNL A   1      47.767  27.334  25.685  1.00  0.00     0.005 C 
ATOM     22  C   UNL A   1      46.429  27.831  25.198  1.00  0.00     0.002 C 
ATOM     23  C   UNL A   1      45.556  26.591  25.123  1.00  0.00     0.026 C 
ENDBRANCH  10  18
ENDBRANCH   8   9
ENDBRANCH   7   8
ENDBRANCH   4   7
ENDBRANCH   2   3
ENDBRANCH   1   2
BRANCH   1  24
ATOM     24  C   UNL A   1      41.465  20.838  26.503  1.00  0.00     0.118 C 
BRANCH  24  25
ATOM     25  N   UNL A   1      40.052  21.175  26.499  1.00  0.00    -0.352 N 
ATOM     26  C   UNL A   1      39.337  22.341  26.562  1.00  0.00     0.251 C 
ATOM     27  H   UNL A   1      39.474  20.381  26.436  1.00  0.00     0.163 HD
ATOM     28  O   UNL A   1      38.133  22.251  26.304  1.00  0.00    -0.269 OA
BRANCH  26  29
ATOM     29  C   UNL A   1      39.884  23.655  26.992  1.00  0.00     0.039 A 
ATOM     30  C   UNL A   1      41.059  23.836  27.716  1.00  0.00     0.014 A 
ATOM     31  C   UNL A   1      39.092  24.783  26.702  1.00  0.00     0.014 A 
ATOM     32  C   UNL A   1      41.354  25.072  28.279  1.00  0.00     0.010 A 
ATOM     33  C   UNL A   1      39.407  26.033  27.224  1.00  0.00     0.010 A 
ATOM     34  C   UNL A   1      40.501  26.159  28.073  1.00  0.00    -0.014 A 
BRANCH  34  35
ATOM     35  C   UNL A   1      40.826  27.411  28.750  1.00  0.00     0.031 A 
ATOM     36  C   UNL A   1      42.004  28.161  28.221  1.00  0.00     0.074 A 
ATOM     37  C   UNL A   1      40.076  27.926  29.742  1.00  0.00     0.049 A 
ATOM     38  N   UNL A   1      43.090  28.500  28.840  1.00  0.00    -0.248 NA
ATOM     39  C   UNL A   1      41.996  28.512  26.794  1.00  0.00     0.031 C 
ATOM     40  C   UNL A   1      38.743  27.512  30.190  1.00  0.00     0.029 A 
ATOM     41  N   UNL A   1      40.320  29.034  30.494  1.00  0.00    -0.354 N 
ATOM     42  C   UNL A   1      43.853  29.229  27.927  1.00  0.00     0.074 A 
ATOM     43  C   UNL A   1      43.174  29.121  26.659  1.00  0.00     0.031 C 
ATOM     44  C   UNL A   1      38.201  28.499  30.939  1.00  0.00     0.029 A 
ATOM     45  C   UNL A   1      39.203  29.530  31.150  1.00  0.00     0.049 A 
ATOM     46  H   UNL A   1      41.211  29.448  30.565  1.00  0.00     0.167 HD
ATOM     47  C   UNL A   1      44.931  29.980  28.293  1.00  0.00     0.031 A 
ATOM     48  C   UNL A   1      39.093  30.749  31.735  1.00  0.00     0.031 A 
ATOM     49  C   UNL A   1      45.401  29.646  29.608  1.00  0.00     0.049 A 
ATOM     50  C   UNL A   1      40.469  31.236  32.005  1.00  0.00     0.074 A 
ATOM     51  C   UNL A   1      45.950  28.516  30.180  1.00  0.00     0.029 A 
ATOM     52  N   UNL A   1      45.032  30.457  30.654  1.00  0.00    -0.354 N 
ATOM     53  N   UNL A   1      41.280  30.688  32.867  1.00  0.00    -0.248 NA
ATOM     54  C   UNL A   1      41.097  32.096  31.014  1.00  0.00     0.031 C 
ATOM     55  C   UNL A   1      45.428  28.488  31.504  1.00  0.00     0.029 A 
ATOM     56  C   UNL A   1      44.637  29.627  31.672  1.00  0.00     0.049 A 
ATOM     57  H   UNL A   1      45.048  31.441  30.669  1.00  0.00     0.167 HD
ATOM     58  C   UNL A   1      42.537  30.794  32.289  1.00  0.00     0.074 A 
ATOM     59  C   UNL A   1      42.373  31.750  31.197  1.00  0.00     0.031 C 
ATOM     60  C   UNL A   1      43.533  29.904  32.571  1.00  0.00     0.031 A 
BRANCH  47  61
ATOM     61  C   UNL A   1      45.419  31.205  27.560  1.00  0.00    -0.014 A 
ATOM     62  C   UNL A   1      44.743  32.440  27.592  1.00  0.00     0.010 A 
ATOM     63  C   UNL A   1      46.722  31.208  27.012  1.00  0.00     0.010 A 
ATOM     64  C   UNL A   1      45.324  33.616  27.106  1.00  0.00     0.020 A 
ATOM     65  C   UNL A   1      47.331  32.390  26.564  1.00  0.00     0.020 A 
ATOM     66  C   UNL A   1      46.624  33.588  26.615  1.00  0.00     0.054 A 
BRANCH  66  67
ATOM     67  S   UNL A   1      47.393  35.157  26.139  1.00  0.00     0.124 S 
ATOM     68  O   UNL A   1      48.120  35.516  27.353  1.00  0.00    -0.237 OA
ATOM     69  O   UNL A   1      48.220  34.767  25.001  1.00  0.00    -0.237 OA
ATOM     70  O   UNL A   1      46.254  36.012  25.815  1.00  0.00    -0.744 OA
ENDBRANCH  66  67
ENDBRANCH  47  61
BRANCH  48  71
ATOM     71  C   UNL A   1      37.944  31.683  31.605  1.00  0.00    -0.014 A 
ATOM     72  C   UNL A   1      38.079  33.029  32.006  1.00  0.00     0.010 A 
ATOM     73  C   UNL A   1      36.644  31.181  31.409  1.00  0.00     0.010 A 
ATOM     74  C   UNL A   1      36.961  33.814  32.298  1.00  0.00     0.020 A 
ATOM     75  C   UNL A   1      35.516  31.963  31.707  1.00  0.00     0.020 A 
ATOM     76  C   UNL A   1      35.686  33.262  32.192  1.00  0.00     0.054 A 
BRANCH  76  77
ATOM     77  S   UNL A   1      34.277  34.226  32.806  1.00  0.00     0.124 S 
ATOM     78  O   UNL A   1      33.882  34.973  31.610  1.00  0.00    -0.237 OA
ATOM     79  O   UNL A   1      33.339  33.179  33.220  1.00  0.00    -0.237 OA
ATOM     80  O   UNL A   1      34.838  35.019  33.885  1.00  0.00    -0.744 OA
ENDBRANCH  76  77
ENDBRANCH  48  71
BRANCH  60  81
ATOM     81  C   UNL A   1      43.358  28.922  33.711  1.00  0.00    -0.014 A 
ATOM     82  C   UNL A   1      42.636  27.742  33.447  1.00  0.00     0.010 A 
ATOM     83  C   UNL A   1      43.667  29.231  35.050  1.00  0.00     0.010 A 
ATOM     84  C   UNL A   1      42.195  26.920  34.486  1.00  0.00     0.020 A 
ATOM     85  C   UNL A   1      43.250  28.395  36.098  1.00  0.00     0.020 A 
ATOM     86  C   UNL A   1      42.490  27.260  35.809  1.00  0.00     0.054 A 
BRANCH  86  87
ATOM     87  S   UNL A   1      41.827  26.211  37.132  1.00  0.00     0.124 S 
ATOM     88  O   UNL A   1      40.568  26.878  37.455  1.00  0.00    -0.237 OA
ATOM     89  O   UNL A   1      41.691  24.912  36.476  1.00  0.00    -0.237 OA
ATOM     90  O   UNL A   1      42.846  26.270  38.177  1.00  0.00    -0.744 OA
ENDBRANCH  86  87
ENDBRANCH  60  81
ENDBRANCH  34  35
ENDBRANCH  26  29
ENDBRANCH  24  25
ENDBRANCH   1  24
TORSDOF 16
ENDMDL
MODEL 3
REMARK VINA RESULT:     -11.9      1.231      2.130
REMARK SMILES C[C@H]1CCC[C@@H]1n1c(SCC(=O)NCCCNC(=O)c2ccc(-c3c4nc(c(-c5ccc(S(=O)(=O)[O-])cc5)c5ccc([nH]5)c(-c5ccc(S(=O)(=O)[O-])cc5)c5nc(c(-c6ccc(S(=O)(=O)[O-])cc6)c6ccc3[nH]6)C=C5)C=C4)cc2)nc2cnccc21
REMARK SMILES IDX 15 1 14 2 13 3 11 4 12 5 10 7 9 8 8 9 7 10 86 11 80 12 81 13
REMARK SMILES IDX 85 14 82 15 84 16 83 17 6 18 1 19 2 20 3 21 4 22 5 23 16 24
REMARK SMILES IDX 17 25 18 26 19 28 20 29 21 30 79 31 22 32 78 33 23 34 24 35
REMARK SMILES IDX 25 36 72 37 26 38 77 39 71 40 73 41 27 42 76 43 70 44 69 45
REMARK SMILES IDX 28 47 58 48 39 49 57 50 40 51 43 52 56 53 74 54 41 55 42 56
REMARK SMILES IDX 55 58 75 59 44 60 29 61 30 62 38 63 31 64 37 65 32 66 33 67
REMARK SMILES IDX 34 68 35 69 36 70 59 71 60 72 68 73 61 74 67 75 62 76 63 77
REMARK SMILES IDX 64 78 65 79 66 80 45 81 46 82 54 83 47 84 53 85 48 86 49 87
REMARK SMILES IDX 50 88 51 89 52 90
REMARK H PARENT 13 6 17 27 73 46 43 57
REMARK Flexibility Score: inf
ROOT
ATOM      1  C   UNL A   1      39.817  21.230  26.510  1.00  0.00     0.042 C 
ENDROOT
BRANCH   1   2
ATOM      2  C   UNL A   1      38.825  21.930  25.594  1.00  0.00     0.117 C 
BRANCH   2   3
ATOM      3  N   UNL A   1      37.594  22.273  26.266  1.00  0.00    -0.355 N 
ATOM      4  C   UNL A   1      36.411  22.660  25.741  1.00  0.00     0.230 C 
ATOM      5  O   UNL A   1      35.419  22.449  26.451  1.00  0.00    -0.274 OA
ATOM      6  H   UNL A   1      37.621  22.215  27.249  1.00  0.00     0.163 HD
BRANCH   4   7
ATOM      7  C   UNL A   1      36.250  23.177  24.335  1.00  0.00     0.178 C 
BRANCH   7   8
ATOM      8  S   UNL A   1      34.743  23.063  23.398  1.00  0.00    -0.078 SA
BRANCH   8   9
ATOM      9  C   UNL A   1      33.262  23.776  23.943  1.00  0.00     0.169 A 
ATOM     10  N   UNL A   1      32.852  25.109  24.074  1.00  0.00    -0.315 N 
ATOM     11  C   UNL A   1      31.657  25.079  24.810  1.00  0.00     0.072 A 
ATOM     12  N   UNL A   1      32.519  22.994  24.705  1.00  0.00    -0.221 NA
ATOM     13  C   UNL A   1      31.587  23.780  25.308  1.00  0.00     0.108 A 
ATOM     14  C   UNL A   1      30.669  26.005  25.170  1.00  0.00     0.049 A 
ATOM     15  C   UNL A   1      30.643  23.456  26.292  1.00  0.00     0.141 A 
ATOM     16  C   UNL A   1      29.758  25.594  26.137  1.00  0.00     0.113 A 
ATOM     17  N   UNL A   1      29.745  24.381  26.719  1.00  0.00    -0.262 NA
BRANCH  10  18
ATOM     18  C   UNL A   1      33.653  26.309  23.808  1.00  0.00     0.093 C 
ATOM     19  C   UNL A   1      33.929  27.706  25.987  1.00  0.00     0.010 C 
ATOM     20  C   UNL A   1      33.350  27.622  24.577  1.00  0.00     0.009 C 
ATOM     21  C   UNL A   1      33.949  28.723  23.698  1.00  0.00     0.005 C 
ATOM     22  C   UNL A   1      33.605  28.290  22.295  1.00  0.00     0.002 C 
ATOM     23  C   UNL A   1      33.516  26.776  22.364  1.00  0.00     0.026 C 
ENDBRANCH  10  18
ENDBRANCH   8   9
ENDBRANCH   7   8
ENDBRANCH   4   7
ENDBRANCH   2   3
ENDBRANCH   1   2
BRANCH   1  24
ATOM     24  C   UNL A   1      41.086  22.020  26.848  1.00  0.00     0.118 C 
BRANCH  24  25
ATOM     25  N   UNL A   1      41.944  22.389  25.734  1.00  0.00    -0.352 N 
ATOM     26  C   UNL A   1      42.728  23.470  25.437  1.00  0.00     0.251 C 
ATOM     27  H   UNL A   1      41.965  21.701  25.031  1.00  0.00     0.163 HD
ATOM     28  O   UNL A   1      43.500  23.331  24.483  1.00  0.00    -0.269 OA
BRANCH  26  29
ATOM     29  C   UNL A   1      42.651  24.792  26.112  1.00  0.00     0.039 A 
ATOM     30  C   UNL A   1      43.370  25.157  27.247  1.00  0.00     0.014 A 
ATOM     31  C   UNL A   1      41.711  25.702  25.591  1.00  0.00     0.014 A 
ATOM     32  C   UNL A   1      43.046  26.316  27.942  1.00  0.00     0.010 A 
ATOM     33  C   UNL A   1      41.415  26.888  26.256  1.00  0.00     0.010 A 
ATOM     34  C   UNL A   1      42.035  27.157  27.472  1.00  0.00    -0.014 A 
BRANCH  34  35
ATOM     35  C   UNL A   1      41.693  28.321  28.283  1.00  0.00     0.031 A 
ATOM     36  C   UNL A   1      42.687  29.435  28.293  1.00  0.00     0.074 A 
ATOM     37  C   UNL A   1      40.517  28.447  28.929  1.00  0.00     0.049 A 
ATOM     38  N   UNL A   1      43.318  29.945  29.302  1.00  0.00    -0.248 NA
ATOM     39  C   UNL A   1      43.080  30.001  26.995  1.00  0.00     0.031 C 
ATOM     40  C   UNL A   1      39.311  27.624  28.801  1.00  0.00     0.029 A 
ATOM     41  N   UNL A   1      40.122  29.441  29.771  1.00  0.00    -0.354 N 
ATOM     42  C   UNL A   1      44.091  30.991  28.796  1.00  0.00     0.074 A 
ATOM     43  C   UNL A   1      43.978  30.916  27.360  1.00  0.00     0.031 C 
ATOM     44  C   UNL A   1      38.261  28.294  29.328  1.00  0.00     0.029 A 
ATOM     45  C   UNL A   1      38.749  29.505  29.964  1.00  0.00     0.049 A 
ATOM     46  H   UNL A   1      40.753  30.059  30.204  1.00  0.00     0.167 HD
ATOM     47  C   UNL A   1      44.678  31.932  29.590  1.00  0.00     0.031 A 
ATOM     48  C   UNL A   1      38.067  30.537  30.519  1.00  0.00     0.031 A 
ATOM     49  C   UNL A   1      44.727  31.524  30.966  1.00  0.00     0.049 A 
ATOM     50  C   UNL A   1      39.032  31.322  31.328  1.00  0.00     0.074 A 
ATOM     51  C   UNL A   1      45.357  30.503  31.649  1.00  0.00     0.029 A 
ATOM     52  N   UNL A   1      43.778  32.023  31.824  1.00  0.00    -0.354 N 
ATOM     53  N   UNL A   1      39.610  30.877  32.409  1.00  0.00    -0.248 NA
ATOM     54  C   UNL A   1      39.673  32.470  30.704  1.00  0.00     0.031 C 
ATOM     55  C   UNL A   1      44.433  30.119  32.662  1.00  0.00     0.029 A 
ATOM     56  C   UNL A   1      43.323  30.963  32.566  1.00  0.00     0.049 A 
ATOM     57  H   UNL A   1      43.482  32.959  31.893  1.00  0.00     0.167 HD
ATOM     58  C   UNL A   1      40.891  31.408  32.373  1.00  0.00     0.074 A 
ATOM     59  C   UNL A   1      40.840  32.452  31.352  1.00  0.00     0.031 C 
ATOM     60  C   UNL A   1      41.944  30.782  32.976  1.00  0.00     0.031 A 
BRANCH  47  61
ATOM     61  C   UNL A   1      44.990  33.346  29.167  1.00  0.00    -0.014 A 
ATOM     62  C   UNL A   1      46.285  33.897  29.224  1.00  0.00     0.010 A 
ATOM     63  C   UNL A   1      44.015  34.086  28.460  1.00  0.00     0.010 A 
ATOM     64  C   UNL A   1      46.600  35.116  28.617  1.00  0.00     0.020 A 
ATOM     65  C   UNL A   1      44.332  35.288  27.809  1.00  0.00     0.020 A 
ATOM     66  C   UNL A   1      45.626  35.794  27.893  1.00  0.00     0.054 A 
BRANCH  66  67
ATOM     67  S   UNL A   1      46.113  37.289  26.993  1.00  0.00     0.124 S 
ATOM     68  O   UNL A   1      47.069  37.896  27.915  1.00  0.00    -0.237 OA
ATOM     69  O   UNL A   1      46.683  36.742  25.765  1.00  0.00    -0.237 OA
ATOM     70  O   UNL A   1      44.857  38.014  26.827  1.00  0.00    -0.744 OA
ENDBRANCH  66  67
ENDBRANCH  47  61
BRANCH  48  71
ATOM     71  C   UNL A   1      36.811  31.139  30.000  1.00  0.00    -0.014 A 
ATOM     72  C   UNL A   1      36.752  31.616  28.674  1.00  0.00     0.010 A 
ATOM     73  C   UNL A   1      35.799  31.543  30.890  1.00  0.00     0.010 A 
ATOM     74  C   UNL A   1      35.782  32.540  28.277  1.00  0.00     0.020 A 
ATOM     75  C   UNL A   1      34.825  32.477  30.501  1.00  0.00     0.020 A 
ATOM     76  C   UNL A   1      34.852  33.001  29.207  1.00  0.00     0.054 A 
BRANCH  76  77
ATOM     77  S   UNL A   1      33.763  34.372  28.727  1.00  0.00     0.124 S 
ATOM     78  O   UNL A   1      32.887  33.729  27.745  1.00  0.00    -0.237 OA
ATOM     79  O   UNL A   1      33.121  34.719  29.997  1.00  0.00    -0.237 OA
ATOM     80  O   UNL A   1      34.672  35.372  28.198  1.00  0.00    -0.744 OA
ENDBRANCH  76  77
ENDBRANCH  48  71
BRANCH  60  81
ATOM     81  C   UNL A   1      41.687  29.616  33.907  1.00  0.00    -0.014 A 
ATOM     82  C   UNL A   1      41.721  29.870  35.292  1.00  0.00     0.010 A 
ATOM     83  C   UNL A   1      41.650  28.276  33.473  1.00  0.00     0.010 A 
ATOM     84  C   UNL A   1      41.766  28.822  36.215  1.00  0.00     0.020 A 
ATOM     85  C   UNL A   1      41.668  27.219  34.397  1.00  0.00     0.020 A 
ATOM     86  C   UNL A   1      41.756  27.501  35.762  1.00  0.00     0.054 A 
BRANCH  86  87
ATOM     87  S   UNL A   1      41.901  26.173  36.990  1.00  0.00     0.124 S 
ATOM     88  O   UNL A   1      40.559  26.135  37.564  1.00  0.00    -0.237 OA
ATOM     89  O   UNL A   1      42.262  25.016  36.173  1.00  0.00    -0.237 OA
ATOM     90  O   UNL A   1      42.949  26.640  37.895  1.00  0.00    -0.744 OA
ENDBRANCH  86  87
ENDBRANCH  60  81
ENDBRANCH  34  35
ENDBRANCH  26  29
ENDBRANCH  24  25
ENDBRANCH   1  24
TORSDOF 16
ENDMDL
