MODEL 1
REMARK VINA RESULT:     -11.8      0.000      0.000
REMARK SMILES Cc1cc(C)cc(OCC(=O)Nc2ccc(O)cc2C(=O)NCCCNC(=O)c2ccc(-c3c4nc(c(-c5ccc(S(=O)(=O)[O-])cc5)c5ccc([nH]5)c(-c5ccc(S(=O)(=O)[O-])cc5)c5nc(c(-c6ccc(S(=O)(=O)[O-])cc6)c6ccc3[nH]6)C=C5)C=C4)cc2)c1
REMARK SMILES IDX 23 1 22 2 20 3 21 4 19 6 13 7 14 8 15 9 18 10 16 11 12 12
REMARK SMILES IDX 10 13 11 14 9 16 8 17 7 18 1 19 2 20 3 21 89 22 4 23 5 24
REMARK SMILES IDX 6 25 17 26 24 28 25 29 26 30 27 31 28 33 29 34 30 35 88 36
REMARK SMILES IDX 31 37 87 38 32 39 33 40 34 41 81 42 35 43 86 44 80 45 82 46
REMARK SMILES IDX 36 47 85 48 79 49 78 50 37 52 67 53 48 54 66 55 49 56 52 57
REMARK SMILES IDX 65 58 83 59 50 60 51 61 64 63 84 64 53 65 38 66 39 67 47 68
REMARK SMILES IDX 40 69 46 70 41 71 42 72 43 73 44 74 45 75 68 76 69 77 77 78
REMARK SMILES IDX 70 79 76 80 71 81 72 82 73 83 74 84 75 85 54 86 55 87 63 88
REMARK SMILES IDX 56 89 62 90 57 91 58 92 59 93 60 94 61 95
REMARK H PARENT 22 5 12 15 17 27 26 32 82 51 52 62
REMARK Flexibility Score: inf
ROOT
ATOM      1  C   UNL A   1      34.691  22.549  24.692  1.00  0.00     0.118 C 
ENDROOT
BRANCH   1   2
ATOM      2  N   UNL A   1      33.686  21.728  24.065  1.00  0.00    -0.352 N 
ATOM      3  C   UNL A   1      32.636  22.077  23.241  1.00  0.00     0.253 C 
ATOM      4  O   UNL A   1      32.003  21.146  22.739  1.00  0.00    -0.269 OA
ATOM      5  H   UNL A   1      33.759  20.766  24.256  1.00  0.00     0.163 HD
BRANCH   3   6
ATOM      6  C   UNL A   1      32.166  23.482  22.969  1.00  0.00     0.067 A 
ATOM      7  C   UNL A   1      31.184  24.231  23.650  1.00  0.00     0.054 A 
ATOM      8  C   UNL A   1      30.872  25.534  23.229  1.00  0.00     0.031 A 
ATOM      9  C   UNL A   1      31.524  26.121  22.149  1.00  0.00     0.048 A 
ATOM     10  C   UNL A   1      32.815  24.099  21.878  1.00  0.00     0.062 A 
ATOM     11  C   UNL A   1      32.499  25.397  21.486  1.00  0.00     0.116 A 
BRANCH   7  12
ATOM     12  N   UNL A   1      30.579  23.791  24.831  1.00  0.00    -0.322 N 
ATOM     13  C   UNL A   1      30.890  24.165  26.118  1.00  0.00     0.262 C 
ATOM     14  O   UNL A   1      30.100  23.827  27.006  1.00  0.00    -0.271 OA
ATOM     15  H   UNL A   1      29.847  23.140  24.731  1.00  0.00     0.170 HD
BRANCH  13  16
ATOM     16  C   UNL A   1      32.064  25.142  26.416  1.00  0.00     0.329 C 
BRANCH  16  17
ATOM     17  O   UNL A   1      31.847  26.264  27.262  1.00  0.00    -0.484 OA
BRANCH  17  18
ATOM     18  C   UNL A   1      32.047  27.459  26.626  1.00  0.00     0.120 A 
ATOM     19  C   UNL A   1      30.496  29.629  23.944  1.00  0.00     0.044 C 
ATOM     20  C   UNL A   1      31.389  29.174  25.059  1.00  0.00    -0.047 A 
ATOM     21  C   UNL A   1      32.240  30.073  25.715  1.00  0.00     0.007 A 
ATOM     22  C   UNL A   1      31.353  27.845  25.482  1.00  0.00     0.049 A 
ATOM     23  C   UNL A   1      33.026  29.658  26.800  1.00  0.00    -0.047 A 
ATOM     24  C   UNL A   1      33.937  30.627  27.488  1.00  0.00     0.044 C 
ATOM     25  C   UNL A   1      32.931  28.339  27.245  1.00  0.00     0.049 A 
ENDBRANCH  17  18
ENDBRANCH  16  17
ENDBRANCH  13  16
ENDBRANCH   7  12
BRANCH  11  26
ATOM     26  O   UNL A   1      33.189  25.937  20.442  1.00  0.00    -0.508 OA
ATOM     27  H   UNL A   1      32.866  25.841  19.568  1.00  0.00     0.293 HD
ENDBRANCH  11  26
ENDBRANCH   3   6
ENDBRANCH   1   2
BRANCH   1  28
ATOM     28  C   UNL A   1      35.987  22.798  23.954  1.00  0.00     0.042 C 
BRANCH  28  29
ATOM     29  C   UNL A   1      37.071  23.506  24.742  1.00  0.00     0.118 C 
BRANCH  29  30
ATOM     30  N   UNL A   1      38.120  22.634  25.259  1.00  0.00    -0.352 N 
ATOM     31  C   UNL A   1      39.171  22.843  26.124  1.00  0.00     0.251 C 
ATOM     32  H   UNL A   1      38.066  21.711  24.922  1.00  0.00     0.163 HD
ATOM     33  O   UNL A   1      39.942  21.906  26.344  1.00  0.00    -0.269 OA
BRANCH  31  34
ATOM     34  C   UNL A   1      39.430  24.157  26.760  1.00  0.00     0.039 A 
ATOM     35  C   UNL A   1      38.982  24.379  28.069  1.00  0.00     0.014 A 
ATOM     36  C   UNL A   1      40.085  25.189  26.094  1.00  0.00     0.014 A 
ATOM     37  C   UNL A   1      39.275  25.583  28.719  1.00  0.00     0.010 A 
ATOM     38  C   UNL A   1      40.510  26.317  26.788  1.00  0.00     0.010 A 
ATOM     39  C   UNL A   1      40.095  26.544  28.104  1.00  0.00    -0.014 A 
BRANCH  39  40
ATOM     40  C   UNL A   1      40.500  27.797  28.799  1.00  0.00     0.031 A 
ATOM     41  C   UNL A   1      41.876  27.917  29.413  1.00  0.00     0.074 A 
ATOM     42  C   UNL A   1      39.615  28.808  28.931  1.00  0.00     0.049 A 
ATOM     43  N   UNL A   1      42.388  28.901  30.107  1.00  0.00    -0.248 NA
ATOM     44  C   UNL A   1      42.787  26.767  29.257  1.00  0.00     0.031 C 
ATOM     45  C   UNL A   1      38.235  28.801  28.436  1.00  0.00     0.029 A 
ATOM     46  N   UNL A   1      39.744  30.042  29.520  1.00  0.00    -0.354 N 
ATOM     47  C   UNL A   1      43.662  28.484  30.479  1.00  0.00     0.074 A 
ATOM     48  C   UNL A   1      43.820  27.130  30.001  1.00  0.00     0.031 C 
ATOM     49  C   UNL A   1      37.666  29.990  28.693  1.00  0.00     0.029 A 
ATOM     50  C   UNL A   1      38.617  30.826  29.416  1.00  0.00     0.049 A 
ATOM     51  H   UNL A   1      40.565  30.338  29.973  1.00  0.00     0.167 HD
ATOM     52  C   UNL A   1      44.632  29.174  31.124  1.00  0.00     0.031 A 
ATOM     53  C   UNL A   1      38.375  32.077  29.854  1.00  0.00     0.031 A 
ATOM     54  C   UNL A   1      44.486  30.532  31.575  1.00  0.00     0.049 A 
ATOM     55  C   UNL A   1      39.467  32.818  30.579  1.00  0.00     0.074 A 
ATOM     56  C   UNL A   1      45.425  31.338  32.195  1.00  0.00     0.029 A 
ATOM     57  N   UNL A   1      43.333  31.290  31.441  1.00  0.00    -0.354 N 
ATOM     58  N   UNL A   1      40.685  32.423  30.863  1.00  0.00    -0.248 NA
ATOM     59  C   UNL A   1      39.155  34.182  31.029  1.00  0.00     0.031 C 
ATOM     60  C   UNL A   1      44.822  32.566  32.484  1.00  0.00     0.029 A 
ATOM     61  C   UNL A   1      43.530  32.547  31.985  1.00  0.00     0.049 A 
ATOM     62  H   UNL A   1      42.497  30.978  31.023  1.00  0.00     0.167 HD
ATOM     63  C   UNL A   1      41.295  33.502  31.495  1.00  0.00     0.074 A 
ATOM     64  C   UNL A   1      40.319  34.571  31.529  1.00  0.00     0.031 C 
ATOM     65  C   UNL A   1      42.547  33.601  32.004  1.00  0.00     0.031 A 
BRANCH  52  66
ATOM     66  C   UNL A   1      45.950  28.480  31.361  1.00  0.00    -0.014 A 
ATOM     67  C   UNL A   1      47.001  28.590  30.431  1.00  0.00     0.010 A 
ATOM     68  C   UNL A   1      46.164  27.764  32.553  1.00  0.00     0.010 A 
ATOM     69  C   UNL A   1      48.230  27.973  30.675  1.00  0.00     0.020 A 
ATOM     70  C   UNL A   1      47.404  27.171  32.815  1.00  0.00     0.020 A 
ATOM     71  C   UNL A   1      48.426  27.270  31.867  1.00  0.00     0.054 A 
BRANCH  71  72
ATOM     72  S   UNL A   1      50.050  26.526  32.176  1.00  0.00     0.124 S 
ATOM     73  O   UNL A   1      50.223  26.763  33.607  1.00  0.00    -0.237 OA
ATOM     74  O   UNL A   1      49.840  25.133  31.792  1.00  0.00    -0.237 OA
ATOM     75  O   UNL A   1      50.950  27.282  31.308  1.00  0.00    -0.744 OA
ENDBRANCH  71  72
ENDBRANCH  52  66
BRANCH  53  76
ATOM     76  C   UNL A   1      37.054  32.723  29.611  1.00  0.00    -0.014 A 
ATOM     77  C   UNL A   1      36.830  33.479  28.446  1.00  0.00     0.010 A 
ATOM     78  C   UNL A   1      36.019  32.611  30.558  1.00  0.00     0.010 A 
ATOM     79  C   UNL A   1      35.616  34.147  28.254  1.00  0.00     0.020 A 
ATOM     80  C   UNL A   1      34.791  33.248  30.353  1.00  0.00     0.020 A 
ATOM     81  C   UNL A   1      34.606  34.030  29.213  1.00  0.00     0.054 A 
BRANCH  81  82
ATOM     82  S   UNL A   1      33.037  34.901  28.940  1.00  0.00     0.124 S 
ATOM     83  O   UNL A   1      33.491  36.187  28.421  1.00  0.00    -0.237 OA
ATOM     84  O   UNL A   1      32.356  34.034  27.983  1.00  0.00    -0.237 OA
ATOM     85  O   UNL A   1      32.434  34.941  30.271  1.00  0.00    -0.744 OA
ENDBRANCH  81  82
ENDBRANCH  53  76
BRANCH  65  86
ATOM     86  C   UNL A   1      42.948  34.924  32.602  1.00  0.00    -0.014 A 
ATOM     87  C   UNL A   1      43.583  35.913  31.832  1.00  0.00     0.010 A 
ATOM     88  C   UNL A   1      42.651  35.190  33.951  1.00  0.00     0.010 A 
ATOM     89  C   UNL A   1      43.958  37.127  32.412  1.00  0.00     0.020 A 
ATOM     90  C   UNL A   1      42.992  36.417  34.527  1.00  0.00     0.020 A 
ATOM     91  C   UNL A   1      43.661  37.370  33.757  1.00  0.00     0.054 A 
BRANCH  91  92
ATOM     92  S   UNL A   1      44.137  38.964  34.480  1.00  0.00     0.124 S 
ATOM     93  O   UNL A   1      44.052  38.685  35.911  1.00  0.00    -0.237 OA
ATOM     94  O   UNL A   1      45.486  39.162  33.956  1.00  0.00    -0.237 OA
ATOM     95  O   UNL A   1      43.132  39.891  33.964  1.00  0.00    -0.744 OA
ENDBRANCH  91  92
ENDBRANCH  65  86
ENDBRANCH  39  40
ENDBRANCH  31  34
ENDBRANCH  29  30
ENDBRANCH  28  29
ENDBRANCH   1  28
TORSDOF 18
ENDMDL
MODEL 2
REMARK VINA RESULT:     -11.4      2.601      9.131
REMARK SMILES Cc1cc(C)cc(OCC(=O)Nc2ccc(O)cc2C(=O)NCCCNC(=O)c2ccc(-c3c4nc(c(-c5ccc(S(=O)(=O)[O-])cc5)c5ccc([nH]5)c(-c5ccc(S(=O)(=O)[O-])cc5)c5nc(c(-c6ccc(S(=O)(=O)[O-])cc6)c6ccc3[nH]6)C=C5)C=C4)cc2)c1
REMARK SMILES IDX 23 1 22 2 20 3 21 4 19 6 13 7 14 8 15 9 18 10 16 11 12 12
REMARK SMILES IDX 10 13 11 14 9 16 8 17 7 18 1 19 2 20 3 21 89 22 4 23 5 24
REMARK SMILES IDX 6 25 17 26 24 28 25 29 26 30 27 31 28 33 29 34 30 35 88 36
REMARK SMILES IDX 31 37 87 38 32 39 33 40 34 41 81 42 35 43 86 44 80 45 82 46
REMARK SMILES IDX 36 47 85 48 79 49 78 50 37 52 67 53 48 54 66 55 49 56 52 57
REMARK SMILES IDX 65 58 83 59 50 60 51 61 64 63 84 64 53 65 38 66 39 67 47 68
REMARK SMILES IDX 40 69 46 70 41 71 42 72 43 73 44 74 45 75 68 76 69 77 77 78
REMARK SMILES IDX 70 79 76 80 71 81 72 82 73 83 74 84 75 85 54 86 55 87 63 88
REMARK SMILES IDX 56 89 62 90 57 91 58 92 59 93 60 94 61 95
REMARK H PARENT 22 5 12 15 17 27 26 32 82 51 52 62
REMARK Flexibility Score: inf
ROOT
ATOM      1  C   UNL A   1      31.660  27.438  26.397  1.00  0.00     0.118 C 
ENDROOT
BRANCH   1   2
ATOM      2  N   UNL A   1      30.734  27.755  25.338  1.00  0.00    -0.352 N 
ATOM      3  C   UNL A   1      30.402  27.046  24.202  1.00  0.00     0.253 C 
ATOM      4  O   UNL A   1      29.474  27.499  23.528  1.00  0.00    -0.269 OA
ATOM      5  H   UNL A   1      30.264  28.613  25.442  1.00  0.00     0.163 HD
BRANCH   3   6
ATOM      6  C   UNL A   1      31.121  25.826  23.690  1.00  0.00     0.067 A 
ATOM      7  C   UNL A   1      31.097  24.510  24.198  1.00  0.00     0.054 A 
ATOM      8  C   UNL A   1      31.859  23.502  23.583  1.00  0.00     0.031 A 
ATOM      9  C   UNL A   1      32.638  23.768  22.461  1.00  0.00     0.048 A 
ATOM     10  C   UNL A   1      31.916  26.070  22.551  1.00  0.00     0.062 A 
ATOM     11  C   UNL A   1      32.653  25.053  21.949  1.00  0.00     0.116 A 
BRANCH   7  12
ATOM     12  N   UNL A   1      30.238  24.109  25.226  1.00  0.00    -0.322 N 
ATOM     13  C   UNL A   1      30.582  23.745  26.507  1.00  0.00     0.262 C 
ATOM     14  O   UNL A   1      29.661  23.630  27.323  1.00  0.00    -0.271 OA
ATOM     15  H   UNL A   1      29.277  24.086  25.009  1.00  0.00     0.170 HD
BRANCH  13  16
ATOM     16  C   UNL A   1      32.069  23.684  26.959  1.00  0.00     0.329 C 
BRANCH  16  17
ATOM     17  O   UNL A   1      32.636  22.438  27.345  1.00  0.00    -0.484 OA
BRANCH  17  18
ATOM     18  C   UNL A   1      33.594  21.994  26.475  1.00  0.00     0.120 A 
ATOM     19  C   UNL A   1      37.251  22.512  25.655  1.00  0.00     0.044 C 
ATOM     20  C   UNL A   1      35.863  21.943  25.652  1.00  0.00    -0.047 A 
ATOM     21  C   UNL A   1      35.583  20.730  25.010  1.00  0.00     0.007 A 
ATOM     22  C   UNL A   1      34.838  22.605  26.327  1.00  0.00     0.049 A 
ATOM     23  C   UNL A   1      34.298  20.167  25.064  1.00  0.00    -0.047 A 
ATOM     24  C   UNL A   1      34.010  18.874  24.367  1.00  0.00     0.044 C 
ATOM     25  C   UNL A   1      33.301  20.816  25.794  1.00  0.00     0.049 A 
ENDBRANCH  17  18
ENDBRANCH  16  17
ENDBRANCH  13  16
ENDBRANCH   7  12
BRANCH  11  26
ATOM     26  O   UNL A   1      33.375  25.357  20.834  1.00  0.00    -0.508 OA
ATOM     27  H   UNL A   1      33.749  24.672  20.317  1.00  0.00     0.293 HD
ENDBRANCH  11  26
ENDBRANCH   3   6
ENDBRANCH   1   2
BRANCH   1  28
ATOM     28  C   UNL A   1      33.074  27.048  26.030  1.00  0.00     0.042 C 
BRANCH  28  29
ATOM     29  C   UNL A   1      34.074  28.185  25.955  1.00  0.00     0.118 C 
BRANCH  29  30
ATOM     30  N   UNL A   1      33.681  29.393  26.672  1.00  0.00    -0.352 N 
ATOM     31  C   UNL A   1      34.342  30.217  27.555  1.00  0.00     0.251 C 
ATOM     32  H   UNL A   1      32.756  29.677  26.487  1.00  0.00     0.163 HD
ATOM     33  O   UNL A   1      33.723  31.161  28.049  1.00  0.00    -0.269 OA
BRANCH  31  34
ATOM     34  C   UNL A   1      35.749  29.981  27.962  1.00  0.00     0.039 A 
ATOM     35  C   UNL A   1      36.008  29.435  29.226  1.00  0.00     0.014 A 
ATOM     36  C   UNL A   1      36.824  30.303  27.141  1.00  0.00     0.014 A 
ATOM     37  C   UNL A   1      37.321  29.135  29.608  1.00  0.00     0.010 A 
ATOM     38  C   UNL A   1      38.107  29.864  27.454  1.00  0.00     0.010 A 
ATOM     39  C   UNL A   1      38.380  29.293  28.701  1.00  0.00    -0.014 A 
BRANCH  39  40
ATOM     40  C   UNL A   1      39.776  28.901  29.041  1.00  0.00     0.031 A 
ATOM     41  C   UNL A   1      40.691  29.876  29.746  1.00  0.00     0.074 A 
ATOM     42  C   UNL A   1      40.243  27.691  28.669  1.00  0.00     0.049 A 
ATOM     43  N   UNL A   1      41.951  29.738  30.071  1.00  0.00    -0.248 NA
ATOM     44  C   UNL A   1      40.128  31.192  30.103  1.00  0.00     0.031 C 
ATOM     45  C   UNL A   1      39.484  26.675  27.933  1.00  0.00     0.029 A 
ATOM     46  N   UNL A   1      41.470  27.104  28.860  1.00  0.00    -0.354 N 
ATOM     47  C   UNL A   1      42.329  30.945  30.651  1.00  0.00     0.074 A 
ATOM     48  C   UNL A   1      41.192  31.831  30.565  1.00  0.00     0.031 C 
ATOM     49  C   UNL A   1      40.242  25.576  27.783  1.00  0.00     0.029 A 
ATOM     50  C   UNL A   1      41.556  25.823  28.365  1.00  0.00     0.049 A 
ATOM     51  H   UNL A   1      42.219  27.558  29.310  1.00  0.00     0.167 HD
ATOM     52  C   UNL A   1      43.503  31.279  31.238  1.00  0.00     0.031 A 
ATOM     53  C   UNL A   1      42.578  24.944  28.375  1.00  0.00     0.031 A 
ATOM     54  C   UNL A   1      44.627  30.389  31.351  1.00  0.00     0.049 A 
ATOM     55  C   UNL A   1      43.876  25.346  29.025  1.00  0.00     0.074 A 
ATOM     56  C   UNL A   1      45.843  30.613  31.970  1.00  0.00     0.029 A 
ATOM     57  N   UNL A   1      44.667  29.099  30.843  1.00  0.00    -0.354 N 
ATOM     58  N   UNL A   1      44.187  26.472  29.621  1.00  0.00    -0.248 NA
ATOM     59  C   UNL A   1      44.956  24.349  29.016  1.00  0.00     0.031 C 
ATOM     60  C   UNL A   1      46.639  29.478  31.791  1.00  0.00     0.029 A 
ATOM     61  C   UNL A   1      45.895  28.523  31.118  1.00  0.00     0.049 A 
ATOM     62  H   UNL A   1      43.931  28.660  30.357  1.00  0.00     0.167 HD
ATOM     63  C   UNL A   1      45.487  26.305  30.087  1.00  0.00     0.074 A 
ATOM     64  C   UNL A   1      45.892  24.964  29.724  1.00  0.00     0.031 C 
ATOM     65  C   UNL A   1      46.278  27.183  30.754  1.00  0.00     0.031 A 
BRANCH  52  66
ATOM     66  C   UNL A   1      43.625  32.661  31.830  1.00  0.00    -0.014 A 
ATOM     67  C   UNL A   1      44.074  33.744  31.050  1.00  0.00     0.010 A 
ATOM     68  C   UNL A   1      43.228  32.896  33.159  1.00  0.00     0.010 A 
ATOM     69  C   UNL A   1      44.152  35.027  31.596  1.00  0.00     0.020 A 
ATOM     70  C   UNL A   1      43.275  34.185  33.700  1.00  0.00     0.020 A 
ATOM     71  C   UNL A   1      43.748  35.241  32.916  1.00  0.00     0.054 A 
BRANCH  71  72
ATOM     72  S   UNL A   1      43.810  36.928  33.578  1.00  0.00     0.124 S 
ATOM     73  O   UNL A   1      42.562  37.003  34.333  1.00  0.00    -0.237 OA
ATOM     74  O   UNL A   1      45.030  36.910  34.381  1.00  0.00    -0.237 OA
ATOM     75  O   UNL A   1      43.865  37.769  32.384  1.00  0.00    -0.744 OA
ENDBRANCH  71  72
ENDBRANCH  52  66
BRANCH  53  76
ATOM     76  C   UNL A   1      42.422  23.593  27.767  1.00  0.00    -0.014 A 
ATOM     77  C   UNL A   1      41.853  22.537  28.504  1.00  0.00     0.010 A 
ATOM     78  C   UNL A   1      42.868  23.343  26.456  1.00  0.00     0.010 A 
ATOM     79  C   UNL A   1      41.776  21.251  27.961  1.00  0.00     0.020 A 
ATOM     80  C   UNL A   1      42.760  22.066  25.896  1.00  0.00     0.020 A 
ATOM     81  C   UNL A   1      42.234  21.024  26.660  1.00  0.00     0.054 A 
BRANCH  81  82
ATOM     82  S   UNL A   1      42.119  19.348  25.973  1.00  0.00     0.124 S 
ATOM     83  O   UNL A   1      42.965  19.447  24.789  1.00  0.00    -0.237 OA
ATOM     84  O   UNL A   1      42.641  18.524  27.060  1.00  0.00    -0.237 OA
ATOM     85  O   UNL A   1      40.690  19.186  25.709  1.00  0.00    -0.744 OA
ENDBRANCH  81  82
ENDBRANCH  53  76
BRANCH  65  86
ATOM     86  C   UNL A   1      47.642  26.704  31.172  1.00  0.00    -0.014 A 
ATOM     87  C   UNL A   1      48.771  26.905  30.358  1.00  0.00     0.010 A 
ATOM     88  C   UNL A   1      47.800  26.069  32.418  1.00  0.00     0.010 A 
ATOM     89  C   UNL A   1      50.024  26.438  30.761  1.00  0.00     0.020 A 
ATOM     90  C   UNL A   1      49.058  25.632  32.841  1.00  0.00     0.020 A 
ATOM     91  C   UNL A   1      50.158  25.803  31.999  1.00  0.00     0.054 A 
BRANCH  91  92
ATOM     92  S   UNL A   1      51.801  25.228  32.509  1.00  0.00     0.124 S 
ATOM     93  O   UNL A   1      51.547  23.825  32.824  1.00  0.00    -0.237 OA
ATOM     94  O   UNL A   1      52.609  25.469  31.316  1.00  0.00    -0.237 OA
ATOM     95  O   UNL A   1      52.124  26.076  33.655  1.00  0.00    -0.744 OA
ENDBRANCH  91  92
ENDBRANCH  65  86
ENDBRANCH  39  40
ENDBRANCH  31  34
ENDBRANCH  29  30
ENDBRANCH  28  29
ENDBRANCH   1  28
TORSDOF 18
ENDMDL
MODEL 3
REMARK VINA RESULT:     -11.3      2.222      2.875
REMARK SMILES Cc1cc(C)cc(OCC(=O)Nc2ccc(O)cc2C(=O)NCCCNC(=O)c2ccc(-c3c4nc(c(-c5ccc(S(=O)(=O)[O-])cc5)c5ccc([nH]5)c(-c5ccc(S(=O)(=O)[O-])cc5)c5nc(c(-c6ccc(S(=O)(=O)[O-])cc6)c6ccc3[nH]6)C=C5)C=C4)cc2)c1
REMARK SMILES IDX 23 1 22 2 20 3 21 4 19 6 13 7 14 8 15 9 18 10 16 11 12 12
REMARK SMILES IDX 10 13 11 14 9 16 8 17 7 18 1 19 2 20 3 21 89 22 4 23 5 24
REMARK SMILES IDX 6 25 17 26 24 28 25 29 26 30 27 31 28 33 29 34 30 35 88 36
REMARK SMILES IDX 31 37 87 38 32 39 33 40 34 41 81 42 35 43 86 44 80 45 82 46
REMARK SMILES IDX 36 47 85 48 79 49 78 50 37 52 67 53 48 54 66 55 49 56 52 57
REMARK SMILES IDX 65 58 83 59 50 60 51 61 64 63 84 64 53 65 38 66 39 67 47 68
REMARK SMILES IDX 40 69 46 70 41 71 42 72 43 73 44 74 45 75 68 76 69 77 77 78
REMARK SMILES IDX 70 79 76 80 71 81 72 82 73 83 74 84 75 85 54 86 55 87 63 88
REMARK SMILES IDX 56 89 62 90 57 91 58 92 59 93 60 94 61 95
REMARK H PARENT 22 5 12 15 17 27 26 32 82 51 52 62
REMARK Flexibility Score: inf
ROOT
ATOM      1  C   UNL A   1      35.549  23.068  23.803  1.00  0.00     0.118 C 
ENDROOT
BRANCH   1   2
ATOM      2  N   UNL A   1      34.463  22.147  24.026  1.00  0.00    -0.352 N 
ATOM      3  C   UNL A   1      33.120  22.263  23.730  1.00  0.00     0.253 C 
ATOM      4  O   UNL A   1      32.431  21.257  23.917  1.00  0.00    -0.269 OA
ATOM      5  H   UNL A   1      34.718  21.301  24.458  1.00  0.00     0.163 HD
BRANCH   3   6
ATOM      6  C   UNL A   1      32.430  23.521  23.275  1.00  0.00     0.067 A 
ATOM      7  C   UNL A   1      31.254  24.114  23.779  1.00  0.00     0.054 A 
ATOM      8  C   UNL A   1      30.753  25.293  23.202  1.00  0.00     0.031 A 
ATOM      9  C   UNL A   1      31.404  25.909  22.137  1.00  0.00     0.048 A 
ATOM     10  C   UNL A   1      33.073  24.165  22.196  1.00  0.00     0.062 A 
ATOM     11  C   UNL A   1      32.567  25.341  21.647  1.00  0.00     0.116 A 
BRANCH   7  12
ATOM     12  N   UNL A   1      30.610  23.659  24.934  1.00  0.00    -0.322 N 
ATOM     13  C   UNL A   1      30.842  24.056  26.230  1.00  0.00     0.262 C 
ATOM     14  O   UNL A   1      30.024  23.692  27.083  1.00  0.00    -0.271 OA
ATOM     15  H   UNL A   1      29.911  22.977  24.805  1.00  0.00     0.170 HD
BRANCH  13  16
ATOM     16  C   UNL A   1      31.958  25.084  26.575  1.00  0.00     0.329 C 
BRANCH  16  17
ATOM     17  O   UNL A   1      31.607  26.337  27.148  1.00  0.00    -0.484 OA
BRANCH  17  18
ATOM     18  C   UNL A   1      32.180  27.399  26.504  1.00  0.00     0.120 A 
ATOM     19  C   UNL A   1      34.049  28.209  23.316  1.00  0.00     0.044 C 
ATOM     20  C   UNL A   1      33.317  28.381  24.614  1.00  0.00    -0.047 A 
ATOM     21  C   UNL A   1      32.902  29.647  25.046  1.00  0.00     0.007 A 
ATOM     22  C   UNL A   1      33.008  27.265  25.392  1.00  0.00     0.049 A 
ATOM     23  C   UNL A   1      32.162  29.796  26.229  1.00  0.00    -0.047 A 
ATOM     24  C   UNL A   1      31.732  31.157  26.684  1.00  0.00     0.044 C 
ATOM     25  C   UNL A   1      31.812  28.661  26.961  1.00  0.00     0.049 A 
ENDBRANCH  17  18
ENDBRANCH  16  17
ENDBRANCH  13  16
ENDBRANCH   7  12
BRANCH  11  26
ATOM     26  O   UNL A   1      33.258  25.922  20.627  1.00  0.00    -0.508 OA
ATOM     27  H   UNL A   1      33.102  26.819  20.407  1.00  0.00     0.293 HD
ENDBRANCH  11  26
ENDBRANCH   3   6
ENDBRANCH   1   2
BRANCH   1  28
ATOM     28  C   UNL A   1      35.919  24.033  24.907  1.00  0.00     0.042 C 
BRANCH  28  29
ATOM     29  C   UNL A   1      36.366  23.404  26.211  1.00  0.00     0.118 C 
BRANCH  29  30
ATOM     30  N   UNL A   1      37.376  22.361  26.073  1.00  0.00    -0.352 N 
ATOM     31  C   UNL A   1      38.742  22.349  26.249  1.00  0.00     0.251 C 
ATOM     32  H   UNL A   1      37.008  21.491  25.798  1.00  0.00     0.163 HD
ATOM     33  O   UNL A   1      39.353  21.306  26.007  1.00  0.00    -0.269 OA
BRANCH  31  34
ATOM     34  C   UNL A   1      39.500  23.550  26.676  1.00  0.00     0.039 A 
ATOM     35  C   UNL A   1      39.675  24.601  25.766  1.00  0.00     0.014 A 
ATOM     36  C   UNL A   1      40.063  23.662  27.943  1.00  0.00     0.014 A 
ATOM     37  C   UNL A   1      40.324  25.776  26.165  1.00  0.00     0.010 A 
ATOM     38  C   UNL A   1      40.566  24.882  28.385  1.00  0.00     0.010 A 
ATOM     39  C   UNL A   1      40.725  25.951  27.498  1.00  0.00    -0.014 A 
BRANCH  39  40
ATOM     40  C   UNL A   1      41.337  27.221  27.978  1.00  0.00     0.031 A 
ATOM     41  C   UNL A   1      42.834  27.417  27.915  1.00  0.00     0.074 A 
ATOM     42  C   UNL A   1      40.557  28.178  28.523  1.00  0.00     0.049 A 
ATOM     43  N   UNL A   1      43.554  28.425  28.337  1.00  0.00    -0.248 NA
ATOM     44  C   UNL A   1      43.634  26.323  27.332  1.00  0.00     0.031 C 
ATOM     45  C   UNL A   1      39.103  28.095  28.697  1.00  0.00     0.029 A 
ATOM     46  N   UNL A   1      40.874  29.414  29.030  1.00  0.00    -0.354 N 
ATOM     47  C   UNL A   1      44.878  28.081  28.086  1.00  0.00     0.074 A 
ATOM     48  C   UNL A   1      44.872  26.741  27.547  1.00  0.00     0.031 C 
ATOM     49  C   UNL A   1      38.652  29.247  29.219  1.00  0.00     0.029 A 
ATOM     50  C   UNL A   1      39.784  30.132  29.465  1.00  0.00     0.049 A 
ATOM     51  H   UNL A   1      41.796  29.756  29.077  1.00  0.00     0.167 HD
ATOM     52  C   UNL A   1      45.999  28.822  28.251  1.00  0.00     0.031 A 
ATOM     53  C   UNL A   1      39.702  31.365  30.004  1.00  0.00     0.031 A 
ATOM     54  C   UNL A   1      46.004  30.167  28.761  1.00  0.00     0.049 A 
ATOM     55  C   UNL A   1      40.966  32.164  30.187  1.00  0.00     0.074 A 
ATOM     56  C   UNL A   1      47.080  31.022  28.921  1.00  0.00     0.029 A 
ATOM     57  N   UNL A   1      44.878  30.857  29.182  1.00  0.00    -0.354 N 
ATOM     58  N   UNL A   1      42.200  31.838  29.884  1.00  0.00    -0.248 NA
ATOM     59  C   UNL A   1      40.822  33.504  30.772  1.00  0.00     0.031 C 
ATOM     60  C   UNL A   1      46.611  32.211  29.488  1.00  0.00     0.029 A 
ATOM     61  C   UNL A   1      45.235  32.120  29.619  1.00  0.00     0.049 A 
ATOM     62  H   UNL A   1      43.960  30.500  29.172  1.00  0.00     0.167 HD
ATOM     63  C   UNL A   1      42.974  32.947  30.211  1.00  0.00     0.074 A 
ATOM     64  C   UNL A   1      42.065  33.957  30.711  1.00  0.00     0.031 C 
ATOM     65  C   UNL A   1      44.316  33.116  30.109  1.00  0.00     0.031 A 
BRANCH  52  66
ATOM     66  C   UNL A   1      47.316  28.205  27.852  1.00  0.00    -0.014 A 
ATOM     67  C   UNL A   1      48.068  27.450  28.773  1.00  0.00     0.010 A 
ATOM     68  C   UNL A   1      47.779  28.326  26.529  1.00  0.00     0.010 A 
ATOM     69  C   UNL A   1      49.270  26.853  28.386  1.00  0.00     0.020 A 
ATOM     70  C   UNL A   1      48.966  27.703  26.130  1.00  0.00     0.020 A 
ATOM     71  C   UNL A   1      49.709  26.979  27.065  1.00  0.00     0.054 A 
BRANCH  71  72
ATOM     72  S   UNL A   1      51.246  26.147  26.582  1.00  0.00     0.124 S 
ATOM     73  O   UNL A   1      51.090  24.836  27.207  1.00  0.00    -0.237 OA
ATOM     74  O   UNL A   1      51.170  26.160  25.123  1.00  0.00    -0.237 OA
ATOM     75  O   UNL A   1      52.293  26.989  27.157  1.00  0.00    -0.744 OA
ENDBRANCH  71  72
ENDBRANCH  52  66
BRANCH  53  76
ATOM     76  C   UNL A   1      38.382  31.934  30.398  1.00  0.00    -0.014 A 
ATOM     77  C   UNL A   1      37.653  32.738  29.502  1.00  0.00     0.010 A 
ATOM     78  C   UNL A   1      37.859  31.702  31.684  1.00  0.00     0.010 A 
ATOM     79  C   UNL A   1      36.452  33.335  29.899  1.00  0.00     0.020 A 
ATOM     80  C   UNL A   1      36.640  32.267  32.071  1.00  0.00     0.020 A 
ATOM     81  C   UNL A   1      35.955  33.097  31.183  1.00  0.00     0.054 A 
BRANCH  81  82
ATOM     82  S   UNL A   1      34.391  33.876  31.674  1.00  0.00     0.124 S 
ATOM     83  O   UNL A   1      33.837  32.889  32.593  1.00  0.00    -0.237 OA
ATOM     84  O   UNL A   1      34.837  35.128  32.280  1.00  0.00    -0.237 OA
ATOM     85  O   UNL A   1      33.674  34.026  30.409  1.00  0.00    -0.744 OA
ENDBRANCH  81  82
ENDBRANCH  53  76
BRANCH  65  86
ATOM     86  C   UNL A   1      44.875  34.456  30.505  1.00  0.00    -0.014 A 
ATOM     87  C   UNL A   1      45.332  34.702  31.811  1.00  0.00     0.010 A 
ATOM     88  C   UNL A   1      44.975  35.475  29.540  1.00  0.00     0.010 A 
ATOM     89  C   UNL A   1      45.834  35.958  32.159  1.00  0.00     0.020 A 
ATOM     90  C   UNL A   1      45.509  36.722  29.874  1.00  0.00     0.020 A 
ATOM     91  C   UNL A   1      45.917  36.961  31.187  1.00  0.00     0.054 A 
BRANCH  91  92
ATOM     92  S   UNL A   1      46.595  38.576  31.659  1.00  0.00     0.124 S 
ATOM     93  O   UNL A   1      45.571  39.491  31.163  1.00  0.00    -0.237 OA
ATOM     94  O   UNL A   1      46.693  38.469  33.112  1.00  0.00    -0.237 OA
ATOM     95  O   UNL A   1      47.875  38.632  30.956  1.00  0.00    -0.744 OA
ENDBRANCH  91  92
ENDBRANCH  65  86
ENDBRANCH  39  40
ENDBRANCH  31  34
ENDBRANCH  29  30
ENDBRANCH  28  29
ENDBRANCH   1  28
TORSDOF 18
ENDMDL
