MODEL 1
REMARK VINA RESULT:     -10.4      0.000      0.000
REMARK SMILES CCOc1ccccc1NC(=O)N[C@@](C)(CC)C(=O)NCCCNC(=O)c1ccc(-c2c3nc(c(-c4ccc(S(=O)(=O)[O-])cc4)c4ccc([nH]4)c(-c4ccc(S(=O)(=O)[O-])cc4)c4nc(c(-c5ccc(S(=O)(=O)[O-])cc5)c5ccc2[nH]5)C=C4)C=C3)cc1
REMARK SMILES IDX 21 1 20 2 18 3 19 4 14 6 15 7 13 8 10 9 11 10 12 12 9 14
REMARK SMILES IDX 4 15 5 16 6 17 8 18 7 19 3 20 2 21 1 22 16 23 17 24 22 25
REMARK SMILES IDX 23 26 24 27 25 28 26 30 27 31 28 32 86 33 29 34 85 35 30 36
REMARK SMILES IDX 31 37 32 38 79 39 33 40 84 41 78 42 80 43 34 44 83 45 77 46
REMARK SMILES IDX 76 47 35 49 65 50 46 51 64 52 47 53 50 54 63 55 81 56 48 57
REMARK SMILES IDX 49 58 62 60 82 61 51 62 36 63 37 64 45 65 38 66 44 67 39 68
REMARK SMILES IDX 40 69 41 70 42 71 43 72 66 73 67 74 75 75 68 76 74 77 69 78
REMARK SMILES IDX 70 79 71 80 72 81 73 82 52 83 53 84 61 85 54 86 60 87 55 88
REMARK SMILES IDX 56 89 57 90 58 91 59 92
REMARK H PARENT 20 5 10 11 13 13 24 29 80 48 50 59
REMARK Flexibility Score: inf
ROOT
ATOM      1  C   UNL A   1      34.518  23.324  26.014  1.00  0.00     0.117 C 
ENDROOT
BRANCH   1   2
ATOM      2  N   UNL A   1      34.032  23.805  24.743  1.00  0.00    -0.354 N 
ATOM      3  C   UNL A   1      32.682  23.993  24.574  1.00  0.00     0.245 C 
ATOM      4  O   UNL A   1      31.957  24.251  25.538  1.00  0.00    -0.272 OA
ATOM      5  H   UNL A   1      34.658  23.996  24.009  1.00  0.00     0.163 HD
BRANCH   3   6
ATOM      6  C   UNL A   1      32.129  23.834  23.125  1.00  0.00     0.117 C 
ATOM      7  C   UNL A   1      30.603  23.614  23.407  1.00  0.00     0.045 C 
BRANCH   6   8
ATOM      8  N   UNL A   1      32.150  24.998  22.204  1.00  0.00    -0.324 N 
ATOM      9  N   UNL A   1      33.541  26.802  22.878  1.00  0.00    -0.305 N 
ATOM     10  C   UNL A   1      33.046  25.959  21.974  1.00  0.00     0.320 C 
ATOM     11  H   UNL A   1      34.420  27.149  22.604  1.00  0.00     0.172 HD
ATOM     12  O   UNL A   1      33.435  26.081  20.806  1.00  0.00    -0.248 OA
ATOM     13  H   UNL A   1      31.340  25.077  21.652  1.00  0.00     0.166 HD
BRANCH   9  14
ATOM     14  C   UNL A   1      33.144  27.326  24.114  1.00  0.00     0.085 A 
ATOM     15  C   UNL A   1      31.858  27.889  24.164  1.00  0.00     0.142 A 
ATOM     16  C   UNL A   1      31.437  28.662  25.244  1.00  0.00     0.048 A 
ATOM     17  C   UNL A   1      32.257  28.756  26.362  1.00  0.00     0.004 A 
ATOM     18  C   UNL A   1      33.867  27.278  25.292  1.00  0.00     0.030 A 
ATOM     19  C   UNL A   1      33.442  28.018  26.406  1.00  0.00     0.002 A 
BRANCH  15  20
ATOM     20  O   UNL A   1      30.967  27.605  23.151  1.00  0.00    -0.492 OA
BRANCH  20  21
ATOM     21  C   UNL A   1      30.608  28.831  22.474  1.00  0.00     0.226 C 
ATOM     22  C   UNL A   1      29.118  29.118  22.609  1.00  0.00     0.049 C 
ENDBRANCH  20  21
ENDBRANCH  15  20
ENDBRANCH   9  14
ENDBRANCH   6   8
BRANCH   6  23
ATOM     23  C   UNL A   1      32.611  22.494  22.481  1.00  0.00     0.035 C 
ATOM     24  C   UNL A   1      32.381  21.198  23.248  1.00  0.00     0.007 C 
ENDBRANCH   6  23
ENDBRANCH   3   6
ENDBRANCH   1   2
BRANCH   1  25
ATOM     25  C   UNL A   1      35.900  23.856  26.347  1.00  0.00     0.042 C 
BRANCH  25  26
ATOM     26  C   UNL A   1      36.881  23.675  25.198  1.00  0.00     0.118 C 
BRANCH  26  27
ATOM     27  N   UNL A   1      37.953  22.741  25.533  1.00  0.00    -0.352 N 
ATOM     28  C   UNL A   1      39.178  22.950  26.111  1.00  0.00     0.251 C 
ATOM     29  H   UNL A   1      37.763  21.801  25.305  1.00  0.00     0.163 HD
ATOM     30  O   UNL A   1      40.034  22.061  26.054  1.00  0.00    -0.269 OA
BRANCH  28  31
ATOM     31  C   UNL A   1      39.490  24.227  26.784  1.00  0.00     0.039 A 
ATOM     32  C   UNL A   1      39.064  24.435  28.099  1.00  0.00     0.014 A 
ATOM     33  C   UNL A   1      40.178  25.237  26.110  1.00  0.00     0.014 A 
ATOM     34  C   UNL A   1      39.395  25.622  28.755  1.00  0.00     0.010 A 
ATOM     35  C   UNL A   1      40.601  26.368  26.798  1.00  0.00     0.010 A 
ATOM     36  C   UNL A   1      40.206  26.581  28.125  1.00  0.00    -0.014 A 
BRANCH  36  37
ATOM     37  C   UNL A   1      40.643  27.812  28.833  1.00  0.00     0.031 A 
ATOM     38  C   UNL A   1      42.015  27.887  29.455  1.00  0.00     0.074 A 
ATOM     39  C   UNL A   1      39.782  28.840  28.970  1.00  0.00     0.049 A 
ATOM     40  N   UNL A   1      42.557  28.863  30.136  1.00  0.00    -0.248 NA
ATOM     41  C   UNL A   1      42.877  26.700  29.322  1.00  0.00     0.031 C 
ATOM     42  C   UNL A   1      38.404  28.864  28.470  1.00  0.00     0.029 A 
ATOM     43  N   UNL A   1      39.935  30.063  29.572  1.00  0.00    -0.354 N 
ATOM     44  C   UNL A   1      43.810  28.403  30.526  1.00  0.00     0.074 A 
ATOM     45  C   UNL A   1      43.924  27.040  30.060  1.00  0.00     0.031 C 
ATOM     46  C   UNL A   1      37.854  30.057  28.748  1.00  0.00     0.029 A 
ATOM     47  C   UNL A   1      38.821  30.867  29.480  1.00  0.00     0.049 A 
ATOM     48  H   UNL A   1      40.762  30.340  30.026  1.00  0.00     0.167 HD
ATOM     49  C   UNL A   1      44.789  29.062  31.189  1.00  0.00     0.031 A 
ATOM     50  C   UNL A   1      38.603  32.117  29.934  1.00  0.00     0.031 A 
ATOM     51  C   UNL A   1      44.680  30.425  31.633  1.00  0.00     0.049 A 
ATOM     52  C   UNL A   1      39.711  32.834  30.654  1.00  0.00     0.074 A 
ATOM     53  C   UNL A   1      45.639  31.209  32.252  1.00  0.00     0.029 A 
ATOM     54  N   UNL A   1      43.544  31.210  31.505  1.00  0.00    -0.354 N 
ATOM     55  N   UNL A   1      40.919  32.408  30.940  1.00  0.00    -0.248 NA
ATOM     56  C   UNL A   1      39.432  34.204  31.103  1.00  0.00     0.031 C 
ATOM     57  C   UNL A   1      45.064  32.449  32.547  1.00  0.00     0.029 A 
ATOM     58  C   UNL A   1      43.768  32.460  32.058  1.00  0.00     0.049 A 
ATOM     59  H   UNL A   1      42.703  30.921  31.085  1.00  0.00     0.167 HD
ATOM     60  C   UNL A   1      41.552  33.468  31.582  1.00  0.00     0.074 A 
ATOM     61  C   UNL A   1      40.600  34.559  31.621  1.00  0.00     0.031 C 
ATOM     62  C   UNL A   1      42.805  33.532  32.095  1.00  0.00     0.031 A 
BRANCH  49  63
ATOM     63  C   UNL A   1      46.068  28.314  31.472  1.00  0.00    -0.014 A 
ATOM     64  C   UNL A   1      46.202  27.514  32.621  1.00  0.00     0.010 A 
ATOM     65  C   UNL A   1      47.136  28.383  30.559  1.00  0.00     0.010 A 
ATOM     66  C   UNL A   1      47.395  26.831  32.873  1.00  0.00     0.020 A 
ATOM     67  C   UNL A   1      48.319  27.677  30.792  1.00  0.00     0.020 A 
ATOM     68  C   UNL A   1      48.447  26.918  31.958  1.00  0.00     0.054 A 
BRANCH  68  69
ATOM     69  S   UNL A   1      49.974  26.000  32.299  1.00  0.00     0.124 S 
ATOM     70  O   UNL A   1      49.910  24.929  31.308  1.00  0.00    -0.237 OA
ATOM     71  O   UNL A   1      51.008  27.006  32.070  1.00  0.00    -0.237 OA
ATOM     72  O   UNL A   1      49.820  25.574  33.688  1.00  0.00    -0.744 OA
ENDBRANCH  68  69
ENDBRANCH  49  63
BRANCH  50  73
ATOM     73  C   UNL A   1      37.289  32.777  29.699  1.00  0.00    -0.014 A 
ATOM     74  C   UNL A   1      36.308  32.794  30.705  1.00  0.00     0.010 A 
ATOM     75  C   UNL A   1      37.016  33.400  28.468  1.00  0.00     0.010 A 
ATOM     76  C   UNL A   1      35.069  33.402  30.478  1.00  0.00     0.020 A 
ATOM     77  C   UNL A   1      35.791  34.036  28.247  1.00  0.00     0.020 A 
ATOM     78  C   UNL A   1      34.819  34.020  29.249  1.00  0.00     0.054 A 
BRANCH  78  79
ATOM     79  S   UNL A   1      33.222  34.841  28.991  1.00  0.00     0.124 S 
ATOM     80  O   UNL A   1      33.632  36.175  28.561  1.00  0.00    -0.237 OA
ATOM     81  O   UNL A   1      32.600  34.008  27.964  1.00  0.00    -0.237 OA
ATOM     82  O   UNL A   1      32.587  34.773  30.305  1.00  0.00    -0.744 OA
ENDBRANCH  78  79
ENDBRANCH  50  73
BRANCH  62  83
ATOM     83  C   UNL A   1      43.227  34.832  32.723  1.00  0.00    -0.014 A 
ATOM     84  C   UNL A   1      43.661  35.914  31.936  1.00  0.00     0.010 A 
ATOM     85  C   UNL A   1      43.145  34.989  34.118  1.00  0.00     0.010 A 
ATOM     86  C   UNL A   1      44.043  37.115  32.537  1.00  0.00     0.020 A 
ATOM     87  C   UNL A   1      43.497  36.199  34.721  1.00  0.00     0.020 A 
ATOM     88  C   UNL A   1      43.961  37.250  33.926  1.00  0.00     0.054 A 
BRANCH  88  89
ATOM     89  S   UNL A   1      44.432  38.830  34.679  1.00  0.00     0.124 S 
ATOM     90  O   UNL A   1      44.420  38.503  36.102  1.00  0.00    -0.237 OA
ATOM     91  O   UNL A   1      45.750  39.080  34.101  1.00  0.00    -0.237 OA
ATOM     92  O   UNL A   1      43.382  39.749  34.242  1.00  0.00    -0.744 OA
ENDBRANCH  88  89
ENDBRANCH  62  83
ENDBRANCH  36  37
ENDBRANCH  28  31
ENDBRANCH  26  27
ENDBRANCH  25  26
ENDBRANCH   1  25
TORSDOF 18
ENDMDL
MODEL 2
REMARK VINA RESULT:     -10.1      4.162     10.113
REMARK SMILES CCOc1ccccc1NC(=O)N[C@@](C)(CC)C(=O)NCCCNC(=O)c1ccc(-c2c3nc(c(-c4ccc(S(=O)(=O)[O-])cc4)c4ccc([nH]4)c(-c4ccc(S(=O)(=O)[O-])cc4)c4nc(c(-c5ccc(S(=O)(=O)[O-])cc5)c5ccc2[nH]5)C=C4)C=C3)cc1
REMARK SMILES IDX 21 1 20 2 18 3 19 4 14 6 15 7 13 8 10 9 11 10 12 12 9 14
REMARK SMILES IDX 4 15 5 16 6 17 8 18 7 19 3 20 2 21 1 22 16 23 17 24 22 25
REMARK SMILES IDX 23 26 24 27 25 28 26 30 27 31 28 32 86 33 29 34 85 35 30 36
REMARK SMILES IDX 31 37 32 38 79 39 33 40 84 41 78 42 80 43 34 44 83 45 77 46
REMARK SMILES IDX 76 47 35 49 65 50 46 51 64 52 47 53 50 54 63 55 81 56 48 57
REMARK SMILES IDX 49 58 62 60 82 61 51 62 36 63 37 64 45 65 38 66 44 67 39 68
REMARK SMILES IDX 40 69 41 70 42 71 43 72 66 73 67 74 75 75 68 76 74 77 69 78
REMARK SMILES IDX 70 79 71 80 72 81 73 82 52 83 53 84 61 85 54 86 60 87 55 88
REMARK SMILES IDX 56 89 57 90 58 91 59 92
REMARK H PARENT 20 5 10 11 13 13 24 29 80 48 50 59
REMARK Flexibility Score: inf
ROOT
ATOM      1  C   UNL A   1      34.497  31.389  27.953  1.00  0.00     0.117 C 
ENDROOT
BRANCH   1   2
ATOM      2  N   UNL A   1      34.258  30.584  26.778  1.00  0.00    -0.354 N 
ATOM      3  C   UNL A   1      32.964  30.334  26.395  1.00  0.00     0.245 C 
ATOM      4  O   UNL A   1      32.060  31.127  26.673  1.00  0.00    -0.272 OA
ATOM      5  H   UNL A   1      35.012  30.220  26.261  1.00  0.00     0.163 HD
BRANCH   3   6
ATOM      6  C   UNL A   1      32.706  29.002  25.628  1.00  0.00     0.117 C 
ATOM      7  C   UNL A   1      33.875  28.109  26.172  1.00  0.00     0.045 C 
BRANCH   6   8
ATOM      8  N   UNL A   1      31.489  28.207  25.934  1.00  0.00    -0.324 N 
ATOM      9  N   UNL A   1      31.602  25.909  25.345  1.00  0.00    -0.305 N 
ATOM     10  C   UNL A   1      31.285  26.909  26.164  1.00  0.00     0.320 C 
ATOM     11  H   UNL A   1      31.722  25.064  25.836  1.00  0.00     0.172 HD
ATOM     12  O   UNL A   1      30.735  26.620  27.233  1.00  0.00    -0.248 OA
ATOM     13  H   UNL A   1      30.667  28.747  25.975  1.00  0.00     0.166 HD
BRANCH   9  14
ATOM     14  C   UNL A   1      31.810  25.738  23.970  1.00  0.00     0.085 A 
ATOM     15  C   UNL A   1      32.694  24.712  23.601  1.00  0.00     0.142 A 
ATOM     16  C   UNL A   1      33.181  24.596  22.301  1.00  0.00     0.048 A 
ATOM     17  C   UNL A   1      32.666  25.429  21.315  1.00  0.00     0.004 A 
ATOM     18  C   UNL A   1      31.177  26.433  22.956  1.00  0.00     0.030 A 
ATOM     19  C   UNL A   1      31.625  26.304  21.633  1.00  0.00     0.002 A 
BRANCH  15  20
ATOM     20  O   UNL A   1      33.028  23.753  24.533  1.00  0.00    -0.492 OA
BRANCH  20  21
ATOM     21  C   UNL A   1      33.621  22.618  23.860  1.00  0.00     0.226 C 
ATOM     22  C   UNL A   1      34.375  21.729  24.841  1.00  0.00     0.049 C 
ENDBRANCH  20  21
ENDBRANCH  15  20
ENDBRANCH   9  14
ENDBRANCH   6   8
BRANCH   6  23
ATOM     23  C   UNL A   1      33.004  29.162  24.103  1.00  0.00     0.035 C 
ATOM     24  C   UNL A   1      34.252  28.497  23.535  1.00  0.00     0.007 C 
ENDBRANCH   6  23
ENDBRANCH   3   6
ENDBRANCH   1   2
BRANCH   1  25
ATOM     25  C   UNL A   1      35.837  32.101  27.906  1.00  0.00     0.042 C 
BRANCH  25  26
ATOM     26  C   UNL A   1      36.269  32.611  29.274  1.00  0.00     0.118 C 
BRANCH  26  27
ATOM     27  N   UNL A   1      35.972  31.654  30.336  1.00  0.00    -0.352 N 
ATOM     28  C   UNL A   1      36.628  30.516  30.728  1.00  0.00     0.251 C 
ATOM     29  H   UNL A   1      35.163  31.860  30.859  1.00  0.00     0.163 HD
ATOM     30  O   UNL A   1      36.055  29.712  31.470  1.00  0.00    -0.269 OA
BRANCH  28  31
ATOM     31  C   UNL A   1      38.001  30.235  30.261  1.00  0.00     0.039 A 
ATOM     32  C   UNL A   1      39.038  30.136  31.193  1.00  0.00     0.014 A 
ATOM     33  C   UNL A   1      38.276  30.097  28.900  1.00  0.00     0.014 A 
ATOM     34  C   UNL A   1      40.330  29.825  30.761  1.00  0.00     0.010 A 
ATOM     35  C   UNL A   1      39.535  29.680  28.483  1.00  0.00     0.010 A 
ATOM     36  C   UNL A   1      40.580  29.550  29.406  1.00  0.00    -0.014 A 
BRANCH  36  37
ATOM     37  C   UNL A   1      41.927  29.133  28.937  1.00  0.00     0.031 A 
ATOM     38  C   UNL A   1      43.052  30.134  28.864  1.00  0.00     0.074 A 
ATOM     39  C   UNL A   1      42.121  27.866  28.519  1.00  0.00     0.049 A 
ATOM     40  N   UNL A   1      44.281  29.961  28.452  1.00  0.00    -0.248 NA
ATOM     41  C   UNL A   1      42.748  31.516  29.274  1.00  0.00     0.031 C 
ATOM     42  C   UNL A   1      41.095  26.819  28.480  1.00  0.00     0.029 A 
ATOM     43  N   UNL A   1      43.246  27.241  28.045  1.00  0.00    -0.354 N 
ATOM     44  C   UNL A   1      44.889  31.209  28.538  1.00  0.00     0.074 A 
ATOM     45  C   UNL A   1      43.878  32.142  28.980  1.00  0.00     0.031 C 
ATOM     46  C   UNL A   1      41.648  25.674  28.049  1.00  0.00     0.029 A 
ATOM     47  C   UNL A   1      43.055  25.912  27.742  1.00  0.00     0.049 A 
ATOM     48  H   UNL A   1      44.110  27.699  27.933  1.00  0.00     0.167 HD
ATOM     49  C   UNL A   1      46.178  31.545  28.296  1.00  0.00     0.031 A 
ATOM     50  C   UNL A   1      43.914  24.988  27.271  1.00  0.00     0.031 A 
ATOM     51  C   UNL A   1      47.186  30.610  27.876  1.00  0.00     0.049 A 
ATOM     52  C   UNL A   1      45.344  25.382  27.024  1.00  0.00     0.074 A 
ATOM     53  C   UNL A   1      48.537  30.833  27.672  1.00  0.00     0.029 A 
ATOM     54  N   UNL A   1      46.955  29.271  27.598  1.00  0.00    -0.354 N 
ATOM     55  N   UNL A   1      45.917  26.551  27.191  1.00  0.00    -0.248 NA
ATOM     56  C   UNL A   1      46.246  24.330  26.538  1.00  0.00     0.031 C 
ATOM     57  C   UNL A   1      49.111  29.643  27.216  1.00  0.00     0.029 A 
ATOM     58  C   UNL A   1      48.133  28.662  27.196  1.00  0.00     0.049 A 
ATOM     59  H   UNL A   1      46.084  28.820  27.673  1.00  0.00     0.167 HD
ATOM     60  C   UNL A   1      47.254  26.368  26.851  1.00  0.00     0.074 A 
ATOM     61  C   UNL A   1      47.406  24.973  26.493  1.00  0.00     0.031 C 
ATOM     62  C   UNL A   1      48.263  27.273  26.835  1.00  0.00     0.031 A 
BRANCH  49  63
ATOM     63  C   UNL A   1      46.571  32.989  28.484  1.00  0.00    -0.014 A 
ATOM     64  C   UNL A   1      47.001  33.467  29.735  1.00  0.00     0.010 A 
ATOM     65  C   UNL A   1      46.545  33.870  27.388  1.00  0.00     0.010 A 
ATOM     66  C   UNL A   1      47.357  34.809  29.896  1.00  0.00     0.020 A 
ATOM     67  C   UNL A   1      46.930  35.206  27.538  1.00  0.00     0.020 A 
ATOM     68  C   UNL A   1      47.318  35.670  28.797  1.00  0.00     0.054 A 
BRANCH  68  69
ATOM     69  S   UNL A   1      47.810  37.400  29.031  1.00  0.00     0.124 S 
ATOM     70  O   UNL A   1      46.959  38.089  28.063  1.00  0.00    -0.237 OA
ATOM     71  O   UNL A   1      47.482  37.637  30.435  1.00  0.00    -0.237 OA
ATOM     72  O   UNL A   1      49.237  37.401  28.719  1.00  0.00    -0.744 OA
ENDBRANCH  68  69
ENDBRANCH  49  63
BRANCH  50  73
ATOM     73  C   UNL A   1      43.450  23.595  27.023  1.00  0.00    -0.014 A 
ATOM     74  C   UNL A   1      43.240  23.133  25.713  1.00  0.00     0.010 A 
ATOM     75  C   UNL A   1      43.224  22.718  28.101  1.00  0.00     0.010 A 
ATOM     76  C   UNL A   1      42.790  21.829  25.483  1.00  0.00     0.020 A 
ATOM     77  C   UNL A   1      42.803  21.404  27.875  1.00  0.00     0.020 A 
ATOM     78  C   UNL A   1      42.575  20.973  26.567  1.00  0.00     0.054 A 
BRANCH  78  79
ATOM     79  S   UNL A   1      42.035  19.271  26.244  1.00  0.00     0.124 S 
ATOM     80  O   UNL A   1      42.804  18.929  25.051  1.00  0.00    -0.237 OA
ATOM     81  O   UNL A   1      42.426  18.578  27.470  1.00  0.00    -0.237 OA
ATOM     82  O   UNL A   1      40.593  19.402  26.046  1.00  0.00    -0.744 OA
ENDBRANCH  78  79
ENDBRANCH  50  73
BRANCH  62  83
ATOM     83  C   UNL A   1      49.627  26.776  26.437  1.00  0.00    -0.014 A 
ATOM     84  C   UNL A   1      50.084  26.888  25.112  1.00  0.00     0.010 A 
ATOM     85  C   UNL A   1      50.480  26.230  27.413  1.00  0.00     0.010 A 
ATOM     86  C   UNL A   1      51.355  26.426  24.763  1.00  0.00     0.020 A 
ATOM     87  C   UNL A   1      51.763  25.795  27.074  1.00  0.00     0.020 A 
ATOM     88  C   UNL A   1      52.186  25.881  25.746  1.00  0.00     0.054 A 
BRANCH  88  89
ATOM     89  S   UNL A   1      53.844  25.319  25.273  1.00  0.00     0.124 S 
ATOM     90  O   UNL A   1      53.751  23.879  25.499  1.00  0.00    -0.237 OA
ATOM     91  O   UNL A   1      53.936  25.732  23.875  1.00  0.00    -0.237 OA
ATOM     92  O   UNL A   1      54.728  26.037  26.188  1.00  0.00    -0.744 OA
ENDBRANCH  88  89
ENDBRANCH  62  83
ENDBRANCH  36  37
ENDBRANCH  28  31
ENDBRANCH  26  27
ENDBRANCH  25  26
ENDBRANCH   1  25
TORSDOF 18
ENDMDL
MODEL 3
REMARK VINA RESULT:     -10.0      3.911      5.385
REMARK SMILES CCOc1ccccc1NC(=O)N[C@@](C)(CC)C(=O)NCCCNC(=O)c1ccc(-c2c3nc(c(-c4ccc(S(=O)(=O)[O-])cc4)c4ccc([nH]4)c(-c4ccc(S(=O)(=O)[O-])cc4)c4nc(c(-c5ccc(S(=O)(=O)[O-])cc5)c5ccc2[nH]5)C=C4)C=C3)cc1
REMARK SMILES IDX 21 1 20 2 18 3 19 4 14 6 15 7 13 8 10 9 11 10 12 12 9 14
REMARK SMILES IDX 4 15 5 16 6 17 8 18 7 19 3 20 2 21 1 22 16 23 17 24 22 25
REMARK SMILES IDX 23 26 24 27 25 28 26 30 27 31 28 32 86 33 29 34 85 35 30 36
REMARK SMILES IDX 31 37 32 38 79 39 33 40 84 41 78 42 80 43 34 44 83 45 77 46
REMARK SMILES IDX 76 47 35 49 65 50 46 51 64 52 47 53 50 54 63 55 81 56 48 57
REMARK SMILES IDX 49 58 62 60 82 61 51 62 36 63 37 64 45 65 38 66 44 67 39 68
REMARK SMILES IDX 40 69 41 70 42 71 43 72 66 73 67 74 75 75 68 76 74 77 69 78
REMARK SMILES IDX 70 79 71 80 72 81 73 82 52 83 53 84 61 85 54 86 60 87 55 88
REMARK SMILES IDX 56 89 57 90 58 91 59 92
REMARK H PARENT 20 5 10 11 13 13 24 29 80 48 50 59
REMARK Flexibility Score: inf
ROOT
ATOM      1  C   UNL A   1      36.871  22.101  24.839  1.00  0.00     0.117 C 
ENDROOT
BRANCH   1   2
ATOM      2  N   UNL A   1      35.475  21.740  24.773  1.00  0.00    -0.354 N 
ATOM      3  C   UNL A   1      34.532  22.658  25.165  1.00  0.00     0.245 C 
ATOM      4  O   UNL A   1      34.760  23.868  25.086  1.00  0.00    -0.272 OA
ATOM      5  H   UNL A   1      35.203  20.851  24.453  1.00  0.00     0.163 HD
BRANCH   3   6
ATOM      6  C   UNL A   1      33.195  22.091  25.731  1.00  0.00     0.117 C 
ATOM      7  C   UNL A   1      33.726  20.991  26.715  1.00  0.00     0.045 C 
BRANCH   6   8
ATOM      8  N   UNL A   1      32.344  22.949  26.593  1.00  0.00    -0.324 N 
ATOM      9  N   UNL A   1      30.526  24.009  25.493  1.00  0.00    -0.305 N 
ATOM     10  C   UNL A   1      31.074  23.347  26.509  1.00  0.00     0.320 C 
ATOM     11  H   UNL A   1      29.552  23.870  25.454  1.00  0.00     0.172 HD
ATOM     12  O   UNL A   1      30.350  23.084  27.477  1.00  0.00    -0.248 OA
ATOM     13  H   UNL A   1      32.811  23.294  27.387  1.00  0.00     0.166 HD
BRANCH   9  14
ATOM     14  C   UNL A   1      30.965  24.853  24.465  1.00  0.00     0.085 A 
ATOM     15  C   UNL A   1      30.936  26.230  24.738  1.00  0.00     0.142 A 
ATOM     16  C   UNL A   1      31.102  27.181  23.733  1.00  0.00     0.048 A 
ATOM     17  C   UNL A   1      31.450  26.754  22.458  1.00  0.00     0.004 A 
ATOM     18  C   UNL A   1      31.484  24.453  23.247  1.00  0.00     0.030 A 
ATOM     19  C   UNL A   1      31.697  25.398  22.232  1.00  0.00     0.002 A 
BRANCH  15  20
ATOM     20  O   UNL A   1      30.813  26.647  26.046  1.00  0.00    -0.492 OA
BRANCH  20  21
ATOM     21  C   UNL A   1      31.861  27.597  26.345  1.00  0.00     0.226 C 
ATOM     22  C   UNL A   1      31.572  28.345  27.641  1.00  0.00     0.049 C 
ENDBRANCH  20  21
ENDBRANCH  15  20
ENDBRANCH   9  14
ENDBRANCH   6   8
BRANCH   6  23
ATOM     23  C   UNL A   1      32.410  21.298  24.636  1.00  0.00     0.035 C 
ATOM     24  C   UNL A   1      32.474  19.776  24.659  1.00  0.00     0.007 C 
ENDBRANCH   6  23
ENDBRANCH   3   6
ENDBRANCH   1   2
BRANCH   1  25
ATOM     25  C   UNL A   1      37.769  20.902  25.085  1.00  0.00     0.042 C 
BRANCH  25  26
ATOM     26  C   UNL A   1      38.942  21.234  25.996  1.00  0.00     0.118 C 
BRANCH  26  27
ATOM     27  N   UNL A   1      39.938  20.166  26.021  1.00  0.00    -0.352 N 
ATOM     28  C   UNL A   1      41.307  20.217  26.064  1.00  0.00     0.251 C 
ATOM     29  H   UNL A   1      39.562  19.256  26.003  1.00  0.00     0.163 HD
ATOM     30  O   UNL A   1      41.959  19.200  25.805  1.00  0.00    -0.269 OA
BRANCH  28  31
ATOM     31  C   UNL A   1      42.008  21.471  26.402  1.00  0.00     0.039 A 
ATOM     32  C   UNL A   1      42.301  22.391  25.391  1.00  0.00     0.014 A 
ATOM     33  C   UNL A   1      42.407  21.733  27.713  1.00  0.00     0.014 A 
ATOM     34  C   UNL A   1      42.923  23.599  25.712  1.00  0.00     0.010 A 
ATOM     35  C   UNL A   1      42.924  22.979  28.048  1.00  0.00     0.010 A 
ATOM     36  C   UNL A   1      43.199  23.924  27.051  1.00  0.00    -0.014 A 
BRANCH  36  37
ATOM     37  C   UNL A   1      43.781  25.239  27.425  1.00  0.00     0.031 A 
ATOM     38  C   UNL A   1      45.232  25.537  27.145  1.00  0.00     0.074 A 
ATOM     39  C   UNL A   1      43.017  26.142  28.072  1.00  0.00     0.049 A 
ATOM     40  N   UNL A   1      45.920  26.614  27.426  1.00  0.00    -0.248 NA
ATOM     41  C   UNL A   1      46.022  24.477  26.495  1.00  0.00     0.031 C 
ATOM     42  C   UNL A   1      41.617  25.947  28.458  1.00  0.00     0.029 A 
ATOM     43  N   UNL A   1      43.310  27.405  28.521  1.00  0.00    -0.354 N 
ATOM     44  C   UNL A   1      47.219  26.354  27.006  1.00  0.00     0.074 A 
ATOM     45  C   UNL A   1      47.240  24.998  26.508  1.00  0.00     0.031 C 
ATOM     46  C   UNL A   1      41.161  27.065  29.046  1.00  0.00     0.029 A 
ATOM     47  C   UNL A   1      42.244  28.039  29.118  1.00  0.00     0.049 A 
ATOM     48  H   UNL A   1      44.198  27.818  28.427  1.00  0.00     0.167 HD
ATOM     49  C   UNL A   1      48.294  27.178  27.008  1.00  0.00     0.031 A 
ATOM     50  C   UNL A   1      42.149  29.268  29.662  1.00  0.00     0.031 A 
ATOM     51  C   UNL A   1      48.265  28.534  27.485  1.00  0.00     0.049 A 
ATOM     52  C   UNL A   1      43.353  30.170  29.639  1.00  0.00     0.074 A 
ATOM     53  C   UNL A   1      49.280  29.475  27.468  1.00  0.00     0.029 A 
ATOM     54  N   UNL A   1      47.163  29.144  28.065  1.00  0.00    -0.354 N 
ATOM     55  N   UNL A   1      44.551  29.933  29.161  1.00  0.00    -0.248 NA
ATOM     56  C   UNL A   1      43.187  31.509  30.218  1.00  0.00     0.031 C 
ATOM     57  C   UNL A   1      48.807  30.637  28.087  1.00  0.00     0.029 A 
ATOM     58  C   UNL A   1      47.481  30.440  28.435  1.00  0.00     0.049 A 
ATOM     59  H   UNL A   1      46.285  28.719  28.195  1.00  0.00     0.167 HD
ATOM     60  C   UNL A   1      45.276  31.103  29.361  1.00  0.00     0.074 A 
ATOM     61  C   UNL A   1      44.374  32.051  29.982  1.00  0.00     0.031 C 
ATOM     62  C   UNL A   1      46.571  31.368  29.060  1.00  0.00     0.031 A 
BRANCH  49  63
ATOM     63  C   UNL A   1      49.594  26.632  26.474  1.00  0.00    -0.014 A 
ATOM     64  C   UNL A   1      50.002  26.891  25.152  1.00  0.00     0.010 A 
ATOM     65  C   UNL A   1      50.437  25.881  27.313  1.00  0.00     0.010 A 
ATOM     66  C   UNL A   1      51.207  26.375  24.668  1.00  0.00     0.020 A 
ATOM     67  C   UNL A   1      51.657  25.389  26.842  1.00  0.00     0.020 A 
ATOM     68  C   UNL A   1      52.026  25.626  25.516  1.00  0.00     0.054 A 
BRANCH  68  69
ATOM     69  S   UNL A   1      53.597  24.990  24.868  1.00  0.00     0.124 S 
ATOM     70  O   UNL A   1      54.570  25.650  25.733  1.00  0.00    -0.237 OA
ATOM     71  O   UNL A   1      53.461  23.548  25.062  1.00  0.00    -0.237 OA
ATOM     72  O   UNL A   1      53.601  25.430  23.475  1.00  0.00    -0.744 OA
ENDBRANCH  68  69
ENDBRANCH  49  63
BRANCH  50  73
ATOM     73  C   UNL A   1      40.860  29.725  30.252  1.00  0.00    -0.014 A 
ATOM     74  C   UNL A   1      39.839  30.234  29.432  1.00  0.00     0.010 A 
ATOM     75  C   UNL A   1      40.645  29.644  31.640  1.00  0.00     0.010 A 
ATOM     76  C   UNL A   1      38.635  30.675  29.989  1.00  0.00     0.020 A 
ATOM     77  C   UNL A   1      39.432  30.056  32.199  1.00  0.00     0.020 A 
ATOM     78  C   UNL A   1      38.439  30.583  31.371  1.00  0.00     0.054 A 
BRANCH  78  79
ATOM     79  S   UNL A   1      36.852  31.120  32.068  1.00  0.00     0.124 S 
ATOM     80  O   UNL A   1      36.557  32.307  31.271  1.00  0.00    -0.237 OA
ATOM     81  O   UNL A   1      35.993  29.963  31.824  1.00  0.00    -0.237 OA
ATOM     82  O   UNL A   1      37.164  31.369  33.473  1.00  0.00    -0.744 OA
ENDBRANCH  78  79
ENDBRANCH  50  73
BRANCH  62  83
ATOM     83  C   UNL A   1      47.084  32.746  29.380  1.00  0.00    -0.014 A 
ATOM     84  C   UNL A   1      47.706  33.025  30.610  1.00  0.00     0.010 A 
ATOM     85  C   UNL A   1      46.982  33.766  28.417  1.00  0.00     0.010 A 
ATOM     86  C   UNL A   1      48.180  34.308  30.886  1.00  0.00     0.020 A 
ATOM     87  C   UNL A   1      47.483  35.044  28.677  1.00  0.00     0.020 A 
ATOM     88  C   UNL A   1      48.064  35.311  29.919  1.00  0.00     0.054 A 
BRANCH  88  89
ATOM     89  S   UNL A   1      48.718  36.961  30.290  1.00  0.00     0.124 S 
ATOM     90  O   UNL A   1      47.527  37.796  30.155  1.00  0.00    -0.237 OA
ATOM     91  O   UNL A   1      49.228  36.805  31.650  1.00  0.00    -0.237 OA
ATOM     92  O   UNL A   1      49.741  37.167  29.267  1.00  0.00    -0.744 OA
ENDBRANCH  88  89
ENDBRANCH  62  83
ENDBRANCH  36  37
ENDBRANCH  28  31
ENDBRANCH  26  27
ENDBRANCH  25  26
ENDBRANCH   1  25
TORSDOF 18
ENDMDL
