MODEL 1
REMARK VINA RESULT:     -12.1      0.000      0.000
REMARK SMILES O=C(NCCCNC(=O)[C@@H]1CCCN1C(=O)[C@@H]1CCCN1C(=O)OCC1c2ccccc2-c2ccccc21)c1ccc(-c2c3nc(c(-c4ccc(S(=O)(=O)[O-])cc4)c4ccc([nH]4)c(-c4ccc(S(=O)(=O)[O-])cc4)c4nc(c(-c5ccc(S(=O)(=O)[O-])cc5)c5ccc2[nH]5)C=C4)C=C3)cc1
REMARK SMILES IDX 7 1 8 2 9 3 6 5 5 6 4 7 3 8 1 9 2 10 39 12 40 13 98 14 41 15
REMARK SMILES IDX 97 16 42 17 43 18 44 19 91 20 45 21 96 22 90 23 92 24 46 25
REMARK SMILES IDX 95 26 89 27 88 28 47 30 77 31 58 32 76 33 59 34 62 35 75 36
REMARK SMILES IDX 93 37 60 38 61 39 74 41 94 42 63 43 48 44 49 45 57 46 50 47
REMARK SMILES IDX 56 48 51 49 52 50 53 51 54 52 55 53 78 54 79 55 87 56 80 57
REMARK SMILES IDX 86 58 81 59 82 60 83 61 84 62 85 63 64 64 65 65 73 66 66 67
REMARK SMILES IDX 72 68 67 69 68 70 69 71 70 72 71 73 10 74 11 75 14 76 12 77
REMARK SMILES IDX 13 78 15 79 16 80 17 81 18 82 21 83 19 84 20 85 22 86 23 87
REMARK SMILES IDX 24 88 25 89 26 90 27 91 38 92 28 93 32 94 33 95 37 96 29 97
REMARK SMILES IDX 31 98 34 99 36 100 30 101 35 102
REMARK H PARENT 7 4 3 11 92 29 62 40
REMARK Flexibility Score: inf
ROOT
ATOM      1  N   UNL A   1      37.386  21.997  24.218  1.00  0.00    -0.354 N 
ATOM      2  C   UNL A   1      36.212  22.502  23.745  1.00  0.00     0.242 C 
ATOM      3  O   UNL A   1      36.276  23.162  22.701  1.00  0.00    -0.273 OA
ATOM      4  H   UNL A   1      38.097  21.936  23.539  1.00  0.00     0.163 HD
ENDROOT
BRANCH   1   5
ATOM      5  C   UNL A   1      37.787  21.531  25.534  1.00  0.00     0.117 C 
BRANCH   5   6
ATOM      6  C   UNL A   1      39.286  21.354  25.794  1.00  0.00     0.042 C 
BRANCH   6   7
ATOM      7  C   UNL A   1      39.751  20.148  26.599  1.00  0.00     0.118 C 
BRANCH   7   8
ATOM      8  N   UNL A   1      40.857  19.444  25.996  1.00  0.00    -0.352 N 
ATOM      9  O   UNL A   1      42.934  19.200  25.171  1.00  0.00    -0.269 OA
ATOM     10  C   UNL A   1      42.139  19.889  25.802  1.00  0.00     0.251 C 
ATOM     11  H   UNL A   1      40.666  18.529  25.684  1.00  0.00     0.163 HD
BRANCH  10  12
ATOM     12  C   UNL A   1      42.554  21.208  26.330  1.00  0.00     0.039 A 
ATOM     13  C   UNL A   1      42.830  21.399  27.690  1.00  0.00     0.014 A 
ATOM     14  C   UNL A   1      42.725  22.256  25.425  1.00  0.00     0.014 A 
ATOM     15  C   UNL A   1      43.249  22.653  28.146  1.00  0.00     0.010 A 
ATOM     16  C   UNL A   1      43.182  23.494  25.876  1.00  0.00     0.010 A 
ATOM     17  C   UNL A   1      43.456  23.704  27.238  1.00  0.00    -0.014 A 
BRANCH  17  18
ATOM     18  C   UNL A   1      44.047  25.003  27.663  1.00  0.00     0.031 A 
ATOM     19  C   UNL A   1      43.170  26.131  28.129  1.00  0.00     0.074 A 
ATOM     20  C   UNL A   1      45.372  25.201  27.513  1.00  0.00     0.049 A 
ATOM     21  N   UNL A   1      43.484  27.380  28.363  1.00  0.00    -0.248 NA
ATOM     22  C   UNL A   1      41.750  25.815  28.342  1.00  0.00     0.031 C 
ATOM     23  C   UNL A   1      46.331  24.190  27.066  1.00  0.00     0.029 A 
ATOM     24  N   UNL A   1      46.135  26.330  27.687  1.00  0.00    -0.354 N 
ATOM     25  C   UNL A   1      42.298  28.010  28.723  1.00  0.00     0.074 A 
ATOM     26  C   UNL A   1      41.255  27.006  28.652  1.00  0.00     0.031 C 
ATOM     27  C   UNL A   1      47.552  24.742  26.995  1.00  0.00     0.029 A 
ATOM     28  C   UNL A   1      47.452  26.160  27.326  1.00  0.00     0.049 A 
ATOM     29  H   UNL A   1      45.776  27.177  28.037  1.00  0.00     0.167 HD
ATOM     30  C   UNL A   1      42.097  29.304  29.075  1.00  0.00     0.031 A 
ATOM     31  C   UNL A   1      48.462  27.048  27.226  1.00  0.00     0.031 A 
ATOM     32  C   UNL A   1      43.140  30.298  29.116  1.00  0.00     0.049 A 
ATOM     33  C   UNL A   1      48.212  28.489  27.567  1.00  0.00     0.074 A 
ATOM     34  C   UNL A   1      43.046  31.628  29.491  1.00  0.00     0.029 A 
ATOM     35  N   UNL A   1      44.462  30.080  28.753  1.00  0.00    -0.354 N 
ATOM     36  N   UNL A   1      47.092  29.061  27.941  1.00  0.00    -0.248 NA
ATOM     37  C   UNL A   1      49.358  29.404  27.482  1.00  0.00     0.031 C 
ATOM     38  C   UNL A   1      44.292  32.229  29.287  1.00  0.00     0.029 A 
ATOM     39  C   UNL A   1      45.186  31.256  28.868  1.00  0.00     0.049 A 
ATOM     40  H   UNL A   1      44.830  29.216  28.458  1.00  0.00     0.167 HD
ATOM     41  C   UNL A   1      47.407  30.396  28.173  1.00  0.00     0.074 A 
ATOM     42  C   UNL A   1      48.821  30.546  27.893  1.00  0.00     0.031 C 
ATOM     43  C   UNL A   1      46.596  31.398  28.594  1.00  0.00     0.031 A 
BRANCH  30  44
ATOM     44  C   UNL A   1      40.683  29.729  29.391  1.00  0.00    -0.014 A 
ATOM     45  C   UNL A   1      40.275  30.011  30.708  1.00  0.00     0.010 A 
ATOM     46  C   UNL A   1      39.746  29.855  28.348  1.00  0.00     0.010 A 
ATOM     47  C   UNL A   1      38.943  30.341  30.983  1.00  0.00     0.020 A 
ATOM     48  C   UNL A   1      38.423  30.221  28.613  1.00  0.00     0.020 A 
ATOM     49  C   UNL A   1      38.024  30.433  29.933  1.00  0.00     0.054 A 
BRANCH  49  50
ATOM     50  S   UNL A   1      36.297  30.832  30.322  1.00  0.00     0.124 S 
ATOM     51  O   UNL A   1      36.395  32.234  30.722  1.00  0.00    -0.237 OA
ATOM     52  O   UNL A   1      35.618  30.589  29.052  1.00  0.00    -0.237 OA
ATOM     53  O   UNL A   1      35.958  29.902  31.397  1.00  0.00    -0.744 OA
ENDBRANCH  49  50
ENDBRANCH  30  44
BRANCH  31  54
ATOM     54  C   UNL A   1      49.800  26.576  26.772  1.00  0.00    -0.014 A 
ATOM     55  C   UNL A   1      50.741  26.099  27.698  1.00  0.00     0.010 A 
ATOM     56  C   UNL A   1      50.108  26.534  25.398  1.00  0.00     0.010 A 
ATOM     57  C   UNL A   1      51.964  25.580  27.260  1.00  0.00     0.020 A 
ATOM     58  C   UNL A   1      51.316  25.989  24.955  1.00  0.00     0.020 A 
ATOM     59  C   UNL A   1      52.238  25.516  25.890  1.00  0.00     0.054 A 
BRANCH  59  60
ATOM     60  S   UNL A   1      53.788  24.746  25.347  1.00  0.00     0.124 S 
ATOM     61  O   UNL A   1      54.171  25.593  24.222  1.00  0.00    -0.237 OA
ATOM     62  O   UNL A   1      54.628  24.858  26.537  1.00  0.00    -0.237 OA
ATOM     63  O   UNL A   1      53.392  23.383  24.999  1.00  0.00    -0.744 OA
ENDBRANCH  59  60
ENDBRANCH  31  54
BRANCH  43  64
ATOM     64  C   UNL A   1      47.217  32.748  28.848  1.00  0.00    -0.014 A 
ATOM     65  C   UNL A   1      47.696  33.118  30.116  1.00  0.00     0.010 A 
ATOM     66  C   UNL A   1      47.416  33.620  27.760  1.00  0.00     0.010 A 
ATOM     67  C   UNL A   1      48.356  34.338  30.292  1.00  0.00     0.020 A 
ATOM     68  C   UNL A   1      48.099  34.827  27.926  1.00  0.00     0.020 A 
ATOM     69  C   UNL A   1      48.562  35.180  29.193  1.00  0.00     0.054 A 
BRANCH  69  70
ATOM     70  S   UNL A   1      49.501  36.715  29.431  1.00  0.00     0.124 S 
ATOM     71  O   UNL A   1      48.798  37.643  28.549  1.00  0.00    -0.237 OA
ATOM     72  O   UNL A   1      49.344  36.966  30.861  1.00  0.00    -0.237 OA
ATOM     73  O   UNL A   1      50.855  36.363  29.011  1.00  0.00    -0.744 OA
ENDBRANCH  69  70
ENDBRANCH  43  64
ENDBRANCH  17  18
ENDBRANCH  10  12
ENDBRANCH   7   8
ENDBRANCH   6   7
ENDBRANCH   5   6
ENDBRANCH   1   5
BRANCH   2  74
ATOM     74  C   UNL A   1      34.859  22.374  24.477  1.00  0.00     0.174 C 
ATOM     75  C   UNL A   1      34.566  20.875  24.622  1.00  0.00     0.037 C 
ATOM     76  N   UNL A   1      33.679  22.956  23.862  1.00  0.00    -0.329 N 
ATOM     77  C   UNL A   1      33.101  20.673  24.282  1.00  0.00     0.024 C 
ATOM     78  C   UNL A   1      32.628  21.970  23.669  1.00  0.00     0.120 C 
BRANCH  76  79
ATOM     79  C   UNL A   1      33.358  24.276  23.662  1.00  0.00     0.246 C 
ATOM     80  O   UNL A   1      33.562  24.762  22.535  1.00  0.00    -0.272 OA
BRANCH  79  81
ATOM     81  C   UNL A   1      32.771  25.235  24.742  1.00  0.00     0.178 C 
ATOM     82  C   UNL A   1      33.048  25.108  26.232  1.00  0.00     0.037 C 
ATOM     83  N   UNL A   1      31.342  25.531  24.766  1.00  0.00    -0.296 N 
ATOM     84  C   UNL A   1      32.246  26.267  26.814  1.00  0.00     0.024 C 
ATOM     85  C   UNL A   1      30.961  26.203  25.998  1.00  0.00     0.124 C 
BRANCH  83  86
ATOM     86  C   UNL A   1      30.506  25.449  23.693  1.00  0.00     0.410 C 
ATOM     87  O   UNL A   1      30.217  24.400  23.126  1.00  0.00    -0.224 OA
BRANCH  86  88
ATOM     88  O   UNL A   1      30.179  26.687  23.257  1.00  0.00    -0.448 OA
BRANCH  88  89
ATOM     89  C   UNL A   1      30.889  27.237  22.138  1.00  0.00     0.248 C 
BRANCH  89  90
ATOM     90  C   UNL A   1      31.132  28.749  22.304  1.00  0.00     0.088 C 
ATOM     91  C   UNL A   1      29.872  29.600  22.476  1.00  0.00    -0.029 A 
ATOM     92  C   UNL A   1      31.897  29.088  23.578  1.00  0.00    -0.029 A 
ATOM     93  C   UNL A   1      28.854  29.842  21.568  1.00  0.00     0.005 A 
ATOM     94  C   UNL A   1      29.893  30.252  23.731  1.00  0.00    -0.014 A 
ATOM     95  C   UNL A   1      31.113  29.900  24.422  1.00  0.00    -0.014 A 
ATOM     96  C   UNL A   1      33.152  28.645  23.963  1.00  0.00     0.005 A 
ATOM     97  C   UNL A   1      27.861  30.762  21.920  1.00  0.00     0.000 A 
ATOM     98  C   UNL A   1      28.887  31.133  24.095  1.00  0.00     0.009 A 
ATOM     99  C   UNL A   1      31.561  30.231  25.690  1.00  0.00     0.009 A 
ATOM    100  C   UNL A   1      33.597  28.969  25.245  1.00  0.00     0.000 A 
ATOM    101  C   UNL A   1      27.869  31.392  23.175  1.00  0.00     0.001 A 
ATOM    102  C   UNL A   1      32.806  29.749  26.103  1.00  0.00     0.001 A 
ENDBRANCH  89  90
ENDBRANCH  88  89
ENDBRANCH  86  88
ENDBRANCH  83  86
ENDBRANCH  79  81
ENDBRANCH  76  79
ENDBRANCH   2  74
TORSDOF 19
ENDMDL
MODEL 2
REMARK VINA RESULT:     -11.6      0.806      7.677
REMARK SMILES O=C(NCCCNC(=O)[C@@H]1CCCN1C(=O)[C@@H]1CCCN1C(=O)OCC1c2ccccc2-c2ccccc21)c1ccc(-c2c3nc(c(-c4ccc(S(=O)(=O)[O-])cc4)c4ccc([nH]4)c(-c4ccc(S(=O)(=O)[O-])cc4)c4nc(c(-c5ccc(S(=O)(=O)[O-])cc5)c5ccc2[nH]5)C=C4)C=C3)cc1
REMARK SMILES IDX 7 1 8 2 9 3 6 5 5 6 4 7 3 8 1 9 2 10 39 12 40 13 98 14 41 15
REMARK SMILES IDX 97 16 42 17 43 18 44 19 91 20 45 21 96 22 90 23 92 24 46 25
REMARK SMILES IDX 95 26 89 27 88 28 47 30 77 31 58 32 76 33 59 34 62 35 75 36
REMARK SMILES IDX 93 37 60 38 61 39 74 41 94 42 63 43 48 44 49 45 57 46 50 47
REMARK SMILES IDX 56 48 51 49 52 50 53 51 54 52 55 53 78 54 79 55 87 56 80 57
REMARK SMILES IDX 86 58 81 59 82 60 83 61 84 62 85 63 64 64 65 65 73 66 66 67
REMARK SMILES IDX 72 68 67 69 68 70 69 71 70 72 71 73 10 74 11 75 14 76 12 77
REMARK SMILES IDX 13 78 15 79 16 80 17 81 18 82 21 83 19 84 20 85 22 86 23 87
REMARK SMILES IDX 24 88 25 89 26 90 27 91 38 92 28 93 32 94 33 95 37 96 29 97
REMARK SMILES IDX 31 98 34 99 36 100 30 101 35 102
REMARK H PARENT 7 4 3 11 92 29 62 40
REMARK Flexibility Score: inf
ROOT
ATOM      1  N   UNL A   1      37.445  21.979  24.305  1.00  0.00    -0.354 N 
ATOM      2  C   UNL A   1      36.260  22.402  23.781  1.00  0.00     0.242 C 
ATOM      3  O   UNL A   1      36.315  22.981  22.689  1.00  0.00    -0.273 OA
ATOM      4  H   UNL A   1      38.167  21.892  23.641  1.00  0.00     0.163 HD
ENDROOT
BRANCH   1   5
ATOM      5  C   UNL A   1      37.844  21.632  25.658  1.00  0.00     0.117 C 
BRANCH   5   6
ATOM      6  C   UNL A   1      39.337  21.420  25.921  1.00  0.00     0.042 C 
BRANCH   6   7
ATOM      7  C   UNL A   1      39.775  20.188  26.701  1.00  0.00     0.118 C 
BRANCH   7   8
ATOM      8  N   UNL A   1      40.880  19.484  26.096  1.00  0.00    -0.352 N 
ATOM      9  O   UNL A   1      42.922  19.263  25.181  1.00  0.00    -0.269 OA
ATOM     10  C   UNL A   1      42.129  19.966  25.798  1.00  0.00     0.251 C 
ATOM     11  H   UNL A   1      40.717  18.540  25.867  1.00  0.00     0.163 HD
BRANCH  10  12
ATOM     12  C   UNL A   1      42.509  21.340  26.198  1.00  0.00     0.039 A 
ATOM     13  C   UNL A   1      42.843  21.651  27.523  1.00  0.00     0.014 A 
ATOM     14  C   UNL A   1      42.586  22.318  25.206  1.00  0.00     0.014 A 
ATOM     15  C   UNL A   1      43.226  22.955  27.856  1.00  0.00     0.010 A 
ATOM     16  C   UNL A   1      43.007  23.606  25.534  1.00  0.00     0.010 A 
ATOM     17  C   UNL A   1      43.338  23.937  26.859  1.00  0.00    -0.014 A 
BRANCH  17  18
ATOM     18  C   UNL A   1      43.889  25.289  27.148  1.00  0.00     0.031 A 
ATOM     19  C   UNL A   1      45.342  25.594  26.914  1.00  0.00     0.074 A 
ATOM     20  C   UNL A   1      43.098  26.208  27.738  1.00  0.00     0.049 A 
ATOM     21  N   UNL A   1      46.034  26.645  27.273  1.00  0.00    -0.248 NA
ATOM     22  C   UNL A   1      46.121  24.573  26.198  1.00  0.00     0.031 C 
ATOM     23  C   UNL A   1      41.673  26.035  28.024  1.00  0.00     0.029 A 
ATOM     24  N   UNL A   1      43.388  27.456  28.233  1.00  0.00    -0.354 N 
ATOM     25  C   UNL A   1      47.338  26.403  26.853  1.00  0.00     0.074 A 
ATOM     26  C   UNL A   1      47.340  25.093  26.234  1.00  0.00     0.031 C 
ATOM     27  C   UNL A   1      41.213  27.131  28.647  1.00  0.00     0.029 A 
ATOM     28  C   UNL A   1      42.322  28.054  28.866  1.00  0.00     0.049 A 
ATOM     29  H   UNL A   1      44.271  27.882  28.143  1.00  0.00     0.167 HD
ATOM     30  C   UNL A   1      48.431  27.197  26.977  1.00  0.00     0.031 A 
ATOM     31  C   UNL A   1      42.246  29.194  29.581  1.00  0.00     0.031 A 
ATOM     32  C   UNL A   1      48.420  28.488  27.619  1.00  0.00     0.049 A 
ATOM     33  C   UNL A   1      43.477  30.036  29.756  1.00  0.00     0.074 A 
ATOM     34  C   UNL A   1      49.464  29.384  27.767  1.00  0.00     0.029 A 
ATOM     35  N   UNL A   1      47.316  29.060  28.237  1.00  0.00    -0.354 N 
ATOM     36  N   UNL A   1      44.694  29.811  29.322  1.00  0.00    -0.248 NA
ATOM     37  C   UNL A   1      43.327  31.289  30.509  1.00  0.00     0.031 C 
ATOM     38  C   UNL A   1      49.012  30.462  28.533  1.00  0.00     0.029 A 
ATOM     39  C   UNL A   1      47.662  30.282  28.791  1.00  0.00     0.049 A 
ATOM     40  H   UNL A   1      46.419  28.656  28.275  1.00  0.00     0.167 HD
ATOM     41  C   UNL A   1      45.447  30.912  29.715  1.00  0.00     0.074 A 
ATOM     42  C   UNL A   1      44.549  31.800  30.426  1.00  0.00     0.031 C 
ATOM     43  C   UNL A   1      46.761  31.165  29.492  1.00  0.00     0.031 A 
BRANCH  30  44
ATOM     44  C   UNL A   1      49.742  26.664  26.453  1.00  0.00    -0.014 A 
ATOM     45  C   UNL A   1      50.539  25.787  27.212  1.00  0.00     0.010 A 
ATOM     46  C   UNL A   1      50.182  27.042  25.170  1.00  0.00     0.010 A 
ATOM     47  C   UNL A   1      51.780  25.358  26.730  1.00  0.00     0.020 A 
ATOM     48  C   UNL A   1      51.405  26.586  24.668  1.00  0.00     0.020 A 
ATOM     49  C   UNL A   1      52.209  25.769  25.464  1.00  0.00     0.054 A 
BRANCH  49  50
ATOM     50  S   UNL A   1      53.836  25.222  24.876  1.00  0.00     0.124 S 
ATOM     51  O   UNL A   1      54.726  25.789  25.887  1.00  0.00    -0.237 OA
ATOM     52  O   UNL A   1      53.711  23.767  24.895  1.00  0.00    -0.237 OA
ATOM     53  O   UNL A   1      53.945  25.819  23.547  1.00  0.00    -0.744 OA
ENDBRANCH  49  50
ENDBRANCH  30  44
BRANCH  31  54
ATOM     54  C   UNL A   1      40.943  29.584  30.188  1.00  0.00    -0.014 A 
ATOM     55  C   UNL A   1      40.665  29.292  31.533  1.00  0.00     0.010 A 
ATOM     56  C   UNL A   1      40.003  30.319  29.439  1.00  0.00     0.010 A 
ATOM     57  C   UNL A   1      39.476  29.733  32.122  1.00  0.00     0.020 A 
ATOM     58  C   UNL A   1      38.828  30.787  30.032  1.00  0.00     0.020 A 
ATOM     59  C   UNL A   1      38.571  30.490  31.372  1.00  0.00     0.054 A 
BRANCH  59  60
ATOM     60  S   UNL A   1      37.085  31.133  32.189  1.00  0.00     0.124 S 
ATOM     61  O   UNL A   1      36.460  31.906  31.120  1.00  0.00    -0.237 OA
ATOM     62  O   UNL A   1      36.386  29.911  32.578  1.00  0.00    -0.237 OA
ATOM     63  O   UNL A   1      37.617  31.918  33.301  1.00  0.00    -0.744 OA
ENDBRANCH  59  60
ENDBRANCH  31  54
BRANCH  43  64
ATOM     64  C   UNL A   1      47.313  32.487  29.960  1.00  0.00    -0.014 A 
ATOM     65  C   UNL A   1      47.245  33.644  29.165  1.00  0.00     0.010 A 
ATOM     66  C   UNL A   1      47.819  32.586  31.271  1.00  0.00     0.010 A 
ATOM     67  C   UNL A   1      47.677  34.873  29.671  1.00  0.00     0.020 A 
ATOM     68  C   UNL A   1      48.226  33.818  31.789  1.00  0.00     0.020 A 
ATOM     69  C   UNL A   1      48.156  34.954  30.984  1.00  0.00     0.054 A 
BRANCH  69  70
ATOM     70  S   UNL A   1      48.625  36.577  31.645  1.00  0.00     0.124 S 
ATOM     71  O   UNL A   1      47.463  37.395  31.305  1.00  0.00    -0.237 OA
ATOM     72  O   UNL A   1      48.804  36.302  33.068  1.00  0.00    -0.237 OA
ATOM     73  O   UNL A   1      49.851  36.907  30.921  1.00  0.00    -0.744 OA
ENDBRANCH  69  70
ENDBRANCH  43  64
ENDBRANCH  17  18
ENDBRANCH  10  12
ENDBRANCH   7   8
ENDBRANCH   6   7
ENDBRANCH   5   6
ENDBRANCH   1   5
BRANCH   2  74
ATOM     74  C   UNL A   1      34.903  22.281  24.505  1.00  0.00     0.174 C 
ATOM     75  C   UNL A   1      34.594  20.783  24.636  1.00  0.00     0.037 C 
ATOM     76  N   UNL A   1      33.731  22.879  23.890  1.00  0.00    -0.329 N 
ATOM     77  C   UNL A   1      33.129  20.598  24.288  1.00  0.00     0.024 C 
ATOM     78  C   UNL A   1      32.671  21.905  23.683  1.00  0.00     0.120 C 
BRANCH  76  79
ATOM     79  C   UNL A   1      33.424  24.204  23.699  1.00  0.00     0.246 C 
ATOM     80  O   UNL A   1      33.693  24.713  22.596  1.00  0.00    -0.272 OA
BRANCH  79  81
ATOM     81  C   UNL A   1      32.777  25.142  24.764  1.00  0.00     0.178 C 
ATOM     82  C   UNL A   1      33.001  25.008  26.262  1.00  0.00     0.037 C 
ATOM     83  N   UNL A   1      31.343  25.410  24.736  1.00  0.00    -0.296 N 
ATOM     84  C   UNL A   1      32.154  26.146  26.822  1.00  0.00     0.024 C 
ATOM     85  C   UNL A   1      30.903  26.063  25.958  1.00  0.00     0.124 C 
BRANCH  83  86
ATOM     86  C   UNL A   1      30.550  25.320  23.631  1.00  0.00     0.410 C 
ATOM     87  O   UNL A   1      30.241  24.263  23.092  1.00  0.00    -0.224 OA
BRANCH  86  88
ATOM     88  O   UNL A   1      30.294  26.553  23.136  1.00  0.00    -0.448 OA
BRANCH  88  89
ATOM     89  C   UNL A   1      31.183  27.101  22.152  1.00  0.00     0.248 C 
BRANCH  89  90
ATOM     90  C   UNL A   1      31.385  28.616  22.346  1.00  0.00     0.088 C 
ATOM     91  C   UNL A   1      30.100  29.432  22.507  1.00  0.00    -0.029 A 
ATOM     92  C   UNL A   1      32.117  28.953  23.639  1.00  0.00    -0.029 A 
ATOM     93  C   UNL A   1      29.094  29.663  21.584  1.00  0.00     0.005 A 
ATOM     94  C   UNL A   1      30.082  30.064  23.772  1.00  0.00    -0.014 A 
ATOM     95  C   UNL A   1      31.297  29.732  24.481  1.00  0.00    -0.014 A 
ATOM     96  C   UNL A   1      33.375  28.535  24.042  1.00  0.00     0.005 A 
ATOM     97  C   UNL A   1      28.071  30.553  21.931  1.00  0.00     0.000 A 
ATOM     98  C   UNL A   1      29.047  30.914  24.130  1.00  0.00     0.009 A 
ATOM     99  C   UNL A   1      31.712  30.053  25.762  1.00  0.00     0.009 A 
ATOM    100  C   UNL A   1      33.787  28.850  25.337  1.00  0.00     0.000 A 
ATOM    101  C   UNL A   1      28.040  31.163  23.195  1.00  0.00     0.001 A 
ATOM    102  C   UNL A   1      32.961  29.595  26.192  1.00  0.00     0.001 A 
ENDBRANCH  89  90
ENDBRANCH  88  89
ENDBRANCH  86  88
ENDBRANCH  83  86
ENDBRANCH  79  81
ENDBRANCH  76  79
ENDBRANCH   2  74
TORSDOF 19
ENDMDL
MODEL 3
REMARK VINA RESULT:     -10.6      6.276     12.023
REMARK SMILES O=C(NCCCNC(=O)[C@@H]1CCCN1C(=O)[C@@H]1CCCN1C(=O)OCC1c2ccccc2-c2ccccc21)c1ccc(-c2c3nc(c(-c4ccc(S(=O)(=O)[O-])cc4)c4ccc([nH]4)c(-c4ccc(S(=O)(=O)[O-])cc4)c4nc(c(-c5ccc(S(=O)(=O)[O-])cc5)c5ccc2[nH]5)C=C4)C=C3)cc1
REMARK SMILES IDX 7 1 8 2 9 3 6 5 5 6 4 7 3 8 1 9 2 10 39 12 40 13 98 14 41 15
REMARK SMILES IDX 97 16 42 17 43 18 44 19 91 20 45 21 96 22 90 23 92 24 46 25
REMARK SMILES IDX 95 26 89 27 88 28 47 30 77 31 58 32 76 33 59 34 62 35 75 36
REMARK SMILES IDX 93 37 60 38 61 39 74 41 94 42 63 43 48 44 49 45 57 46 50 47
REMARK SMILES IDX 56 48 51 49 52 50 53 51 54 52 55 53 78 54 79 55 87 56 80 57
REMARK SMILES IDX 86 58 81 59 82 60 83 61 84 62 85 63 64 64 65 65 73 66 66 67
REMARK SMILES IDX 72 68 67 69 68 70 69 71 70 72 71 73 10 74 11 75 14 76 12 77
REMARK SMILES IDX 13 78 15 79 16 80 17 81 18 82 21 83 19 84 20 85 22 86 23 87
REMARK SMILES IDX 24 88 25 89 26 90 27 91 38 92 28 93 32 94 33 95 37 96 29 97
REMARK SMILES IDX 31 98 34 99 36 100 30 101 35 102
REMARK H PARENT 7 4 3 11 92 29 62 40
REMARK Flexibility Score: inf
ROOT
ATOM      1  N   UNL A   1      45.950  29.101  26.558  1.00  0.00    -0.354 N 
ATOM      2  C   UNL A   1      45.939  27.919  25.878  1.00  0.00     0.242 C 
ATOM      3  O   UNL A   1      44.899  27.646  25.264  1.00  0.00    -0.273 OA
ATOM      4  H   UNL A   1      45.276  29.747  26.247  1.00  0.00     0.163 HD
ENDROOT
BRANCH   1   5
ATOM      5  C   UNL A   1      46.768  29.585  27.656  1.00  0.00     0.117 C 
BRANCH   5   6
ATOM      6  C   UNL A   1      47.729  30.740  27.364  1.00  0.00     0.042 C 
BRANCH   6   7
ATOM      7  C   UNL A   1      47.189  32.164  27.383  1.00  0.00     0.118 C 
BRANCH   7   8
ATOM      8  N   UNL A   1      46.399  32.497  26.222  1.00  0.00    -0.352 N 
ATOM      9  O   UNL A   1      44.512  32.805  25.040  1.00  0.00    -0.269 OA
ATOM     10  C   UNL A   1      45.037  32.622  26.134  1.00  0.00     0.251 C 
ATOM     11  H   UNL A   1      46.902  32.653  25.390  1.00  0.00     0.163 HD
BRANCH  10  12
ATOM     12  C   UNL A   1      44.200  32.512  27.350  1.00  0.00     0.039 A 
ATOM     13  C   UNL A   1      43.635  31.292  27.743  1.00  0.00     0.014 A 
ATOM     14  C   UNL A   1      44.034  33.651  28.140  1.00  0.00     0.014 A 
ATOM     15  C   UNL A   1      42.875  31.223  28.915  1.00  0.00     0.010 A 
ATOM     16  C   UNL A   1      43.310  33.569  29.329  1.00  0.00     0.010 A 
ATOM     17  C   UNL A   1      42.730  32.355  29.734  1.00  0.00    -0.014 A 
BRANCH  17  18
ATOM     18  C   UNL A   1      42.062  32.282  31.062  1.00  0.00     0.031 A 
ATOM     19  C   UNL A   1      40.636  32.728  31.231  1.00  0.00     0.074 A 
ATOM     20  C   UNL A   1      42.785  31.924  32.142  1.00  0.00     0.049 A 
ATOM     21  N   UNL A   1      39.951  32.907  32.331  1.00  0.00    -0.248 NA
ATOM     22  C   UNL A   1      39.891  33.028  29.999  1.00  0.00     0.031 C 
ATOM     23  C   UNL A   1      44.178  31.476  32.114  1.00  0.00     0.029 A 
ATOM     24  N   UNL A   1      42.459  31.914  33.476  1.00  0.00    -0.354 N 
ATOM     25  C   UNL A   1      38.702  33.368  31.931  1.00  0.00     0.074 A 
ATOM     26  C   UNL A   1      38.737  33.463  30.485  1.00  0.00     0.031 C 
ATOM     27  C   UNL A   1      44.590  31.240  33.369  1.00  0.00     0.029 A 
ATOM     28  C   UNL A   1      43.515  31.583  34.294  1.00  0.00     0.049 A 
ATOM     29  H   UNL A   1      41.559  32.123  33.815  1.00  0.00     0.167 HD
ATOM     30  C   UNL A   1      37.629  33.688  32.698  1.00  0.00     0.031 A 
ATOM     31  C   UNL A   1      43.629  31.595  35.637  1.00  0.00     0.031 A 
ATOM     32  C   UNL A   1      37.618  33.614  34.137  1.00  0.00     0.049 A 
ATOM     33  C   UNL A   1      42.450  32.003  36.473  1.00  0.00     0.074 A 
ATOM     34  C   UNL A   1      36.573  33.883  35.004  1.00  0.00     0.029 A 
ATOM     35  N   UNL A   1      38.706  33.263  34.925  1.00  0.00    -0.354 N 
ATOM     36  N   UNL A   1      41.264  32.402  36.079  1.00  0.00    -0.248 NA
ATOM     37  C   UNL A   1      42.617  31.956  37.931  1.00  0.00     0.031 C 
ATOM     38  C   UNL A   1      37.047  33.764  36.313  1.00  0.00     0.029 A 
ATOM     39  C   UNL A   1      38.365  33.336  36.266  1.00  0.00     0.049 A 
ATOM     40  H   UNL A   1      39.590  33.000  34.580  1.00  0.00     0.167 HD
ATOM     41  C   UNL A   1      40.530  32.617  37.240  1.00  0.00     0.074 A 
ATOM     42  C   UNL A   1      41.407  32.308  38.352  1.00  0.00     0.031 C 
ATOM     43  C   UNL A   1      39.242  33.020  37.368  1.00  0.00     0.031 A 
BRANCH  30  44
ATOM     44  C   UNL A   1      36.397  34.199  31.992  1.00  0.00    -0.014 A 
ATOM     45  C   UNL A   1      35.990  33.680  30.748  1.00  0.00     0.010 A 
ATOM     46  C   UNL A   1      35.624  35.212  32.590  1.00  0.00     0.010 A 
ATOM     47  C   UNL A   1      34.880  34.214  30.086  1.00  0.00     0.020 A 
ATOM     48  C   UNL A   1      34.492  35.724  31.948  1.00  0.00     0.020 A 
ATOM     49  C   UNL A   1      34.144  35.241  30.686  1.00  0.00     0.054 A 
BRANCH  49  50
ATOM     50  S   UNL A   1      32.728  35.936  29.790  1.00  0.00     0.124 S 
ATOM     51  O   UNL A   1      33.367  36.958  28.965  1.00  0.00    -0.237 OA
ATOM     52  O   UNL A   1      32.209  34.779  29.065  1.00  0.00    -0.237 OA
ATOM     53  O   UNL A   1      31.861  36.446  30.850  1.00  0.00    -0.744 OA
ENDBRANCH  49  50
ENDBRANCH  30  44
BRANCH  31  54
ATOM     54  C   UNL A   1      44.927  31.210  36.259  1.00  0.00    -0.014 A 
ATOM     55  C   UNL A   1      45.912  32.178  36.514  1.00  0.00     0.010 A 
ATOM     56  C   UNL A   1      45.152  29.880  36.667  1.00  0.00     0.010 A 
ATOM     57  C   UNL A   1      47.094  31.827  37.172  1.00  0.00     0.020 A 
ATOM     58  C   UNL A   1      46.319  29.533  37.353  1.00  0.00     0.020 A 
ATOM     59  C   UNL A   1      47.285  30.510  37.600  1.00  0.00     0.054 A 
BRANCH  59  60
ATOM     60  S   UNL A   1      48.782  30.106  38.540  1.00  0.00     0.124 S 
ATOM     61  O   UNL A   1      49.697  29.676  37.486  1.00  0.00    -0.237 OA
ATOM     62  O   UNL A   1      49.106  31.380  39.177  1.00  0.00    -0.237 OA
ATOM     63  O   UNL A   1      48.342  29.054  39.454  1.00  0.00    -0.744 OA
ENDBRANCH  59  60
ENDBRANCH  31  54
BRANCH  43  64
ATOM     64  C   UNL A   1      38.661  33.094  38.756  1.00  0.00    -0.014 A 
ATOM     65  C   UNL A   1      38.759  34.255  39.542  1.00  0.00     0.010 A 
ATOM     66  C   UNL A   1      37.909  32.004  39.238  1.00  0.00     0.010 A 
ATOM     67  C   UNL A   1      38.123  34.322  40.785  1.00  0.00     0.020 A 
ATOM     68  C   UNL A   1      37.248  32.078  40.466  1.00  0.00     0.020 A 
ATOM     69  C   UNL A   1      37.362  33.236  41.235  1.00  0.00     0.054 A 
BRANCH  69  70
ATOM     70  S   UNL A   1      36.473  33.383  42.809  1.00  0.00     0.124 S 
ATOM     71  O   UNL A   1      36.180  31.987  43.127  1.00  0.00    -0.237 OA
ATOM     72  O   UNL A   1      37.456  34.031  43.672  1.00  0.00    -0.237 OA
ATOM     73  O   UNL A   1      35.309  34.201  42.476  1.00  0.00    -0.744 OA
ENDBRANCH  69  70
ENDBRANCH  43  64
ENDBRANCH  17  18
ENDBRANCH  10  12
ENDBRANCH   7   8
ENDBRANCH   6   7
ENDBRANCH   5   6
ENDBRANCH   1   5
BRANCH   2  74
ATOM     74  C   UNL A   1      47.090  26.892  25.910  1.00  0.00     0.174 C 
ATOM     75  C   UNL A   1      48.050  27.255  24.770  1.00  0.00     0.037 C 
ATOM     76  N   UNL A   1      46.771  25.487  25.733  1.00  0.00    -0.329 N 
ATOM     77  C   UNL A   1      48.439  25.959  24.085  1.00  0.00     0.024 C 
ATOM     78  C   UNL A   1      47.502  24.901  24.621  1.00  0.00     0.120 C 
BRANCH  76  79
ATOM     79  C   UNL A   1      46.089  24.632  26.566  1.00  0.00     0.246 C 
ATOM     80  O   UNL A   1      46.578  24.396  27.686  1.00  0.00    -0.272 OA
BRANCH  79  81
ATOM     81  C   UNL A   1      44.752  23.910  26.220  1.00  0.00     0.178 C 
ATOM     82  C   UNL A   1      44.261  23.667  24.801  1.00  0.00     0.037 C 
ATOM     83  N   UNL A   1      43.507  24.318  26.861  1.00  0.00    -0.296 N 
ATOM     84  C   UNL A   1      42.937  22.946  25.033  1.00  0.00     0.024 C 
ATOM     85  C   UNL A   1      42.353  23.727  26.203  1.00  0.00     0.124 C 
BRANCH  83  86
ATOM     86  C   UNL A   1      43.415  24.944  28.069  1.00  0.00     0.410 C 
ATOM     87  O   UNL A   1      43.613  24.391  29.145  1.00  0.00    -0.224 OA
BRANCH  86  88
ATOM     88  O   UNL A   1      42.927  26.196  27.913  1.00  0.00    -0.448 OA
BRANCH  88  89
ATOM     89  C   UNL A   1      41.660  26.522  28.501  1.00  0.00     0.248 C 
BRANCH  89  90
ATOM     90  C   UNL A   1      41.593  28.000  28.933  1.00  0.00     0.088 C 
ATOM     91  C   UNL A   1      40.233  28.676  28.746  1.00  0.00    -0.029 A 
ATOM     92  C   UNL A   1      41.816  28.188  30.429  1.00  0.00    -0.029 A 
ATOM     93  C   UNL A   1      39.561  28.967  27.570  1.00  0.00     0.005 A 
ATOM     94  C   UNL A   1      39.725  29.100  29.995  1.00  0.00    -0.014 A 
ATOM     95  C   UNL A   1      40.675  28.758  31.030  1.00  0.00    -0.014 A 
ATOM     96  C   UNL A   1      42.918  27.814  31.181  1.00  0.00     0.005 A 
ATOM     97  C   UNL A   1      38.376  29.707  27.654  1.00  0.00     0.000 A 
ATOM     98  C   UNL A   1      38.530  29.798  30.080  1.00  0.00     0.009 A 
ATOM     99  C   UNL A   1      40.607  28.908  32.404  1.00  0.00     0.009 A 
ATOM    100  C   UNL A   1      42.844  27.954  32.567  1.00  0.00     0.000 A 
ATOM    101  C   UNL A   1      37.859  30.109  28.896  1.00  0.00     0.001 A 
ATOM    102  C   UNL A   1      41.697  28.489  33.174  1.00  0.00     0.001 A 
ENDBRANCH  89  90
ENDBRANCH  88  89
ENDBRANCH  86  88
ENDBRANCH  83  86
ENDBRANCH  79  81
ENDBRANCH  76  79
ENDBRANCH   2  74
TORSDOF 19
ENDMDL
