MODEL 1
REMARK VINA RESULT:     -11.0      0.000      0.000
REMARK SMILES C[C@H]([C@@H](C)C(=O)NCCCNC(=O)c1ccc(-c2c3nc(c(-c4ccc(S(=O)(=O)[O-])cc4)c4ccc([nH]4)c(-c4ccc(S(=O)(=O)[O-])cc4)c4nc(c(-c5ccc(S(=O)(=O)[O-])cc5)c5ccc2[nH]5)C=C4)C=C3)cc1)[NH+]1CCN(c2nccs2)CC1
REMARK SMILES IDX 9 1 8 2 7 3 5 4 6 5 3 7 4 8 2 9 1 10 74 11 75 12 84 13 76 15
REMARK SMILES IDX 83 16 77 17 78 18 79 19 82 20 80 21 81 22 10 23 11 24 12 25
REMARK SMILES IDX 13 27 14 28 15 29 73 30 16 31 72 32 17 33 18 34 19 35 66 36
REMARK SMILES IDX 20 37 71 38 65 39 67 40 21 41 70 42 64 43 63 44 22 46 52 47
REMARK SMILES IDX 33 48 51 49 34 50 37 51 50 52 68 53 35 54 36 55 49 57 69 58
REMARK SMILES IDX 38 59 23 60 24 61 32 62 25 63 31 64 26 65 27 66 28 67 29 68
REMARK SMILES IDX 30 69 53 70 54 71 62 72 55 73 61 74 56 75 57 76 58 77 59 78
REMARK SMILES IDX 60 79 39 80 40 81 48 82 41 83 47 84 42 85 43 86 44 87 45 88
REMARK SMILES IDX 46 89
REMARK H PARENT 7 6 74 14 11 26 67 45 37 56
REMARK Flexibility Score: inf
ROOT
ATOM      1  C   UNL A   1      46.067  25.311  25.849  1.00  0.00     0.042 C 
ENDROOT
BRANCH   1   2
ATOM      2  C   UNL A   1      46.589  23.907  25.510  1.00  0.00     0.117 C 
BRANCH   2   3
ATOM      3  N   UNL A   1      45.975  23.273  24.354  1.00  0.00    -0.356 N 
ATOM      4  C   UNL A   1      45.198  22.170  24.220  1.00  0.00     0.228 C 
ATOM      5  O   UNL A   1      44.483  22.127  23.210  1.00  0.00    -0.275 OA
ATOM      6  H   UNL A   1      46.160  23.734  23.503  1.00  0.00     0.163 HD
BRANCH   4   7
ATOM      7  C   UNL A   1      45.091  21.050  25.245  1.00  0.00     0.133 C 
ATOM      8  C   UNL A   1      46.229  20.057  24.957  1.00  0.00     0.024 C 
BRANCH   7   9
ATOM      9  C   UNL A   1      43.690  20.398  25.428  1.00  0.00     0.193 C 
ATOM     10  C   UNL A   1      43.808  18.860  25.296  1.00  0.00     0.076 C 
BRANCH   9  11
ATOM     11  N   UNL A   1      42.938  20.538  26.688  1.00  0.00    -0.329 N 
ATOM     12  C   UNL A   1      42.663  21.843  27.281  1.00  0.00     0.284 C 
ATOM     13  C   UNL A   1      41.766  19.669  26.836  1.00  0.00     0.284 C 
ATOM     14  H   UNL A   1      43.716  20.201  27.254  1.00  0.00     0.348 HD
ATOM     15  C   UNL A   1      41.332  22.537  26.912  1.00  0.00     0.180 C 
ATOM     16  C   UNL A   1      40.495  20.251  26.214  1.00  0.00     0.180 C 
ATOM     17  N   UNL A   1      40.219  21.641  26.585  1.00  0.00    -0.337 N 
BRANCH  17  18
ATOM     18  C   UNL A   1      39.019  22.144  26.154  1.00  0.00     0.185 A 
ATOM     19  N   UNL A   1      38.164  21.443  25.435  1.00  0.00    -0.229 NA
ATOM     20  S   UNL A   1      38.496  23.782  26.423  1.00  0.00    -0.106 S 
ATOM     21  C   UNL A   1      37.036  22.178  25.141  1.00  0.00     0.125 A 
ATOM     22  C   UNL A   1      37.067  23.492  25.537  1.00  0.00     0.088 A 
ENDBRANCH  17  18
ENDBRANCH   9  11
ENDBRANCH   7   9
ENDBRANCH   4   7
ENDBRANCH   2   3
ENDBRANCH   1   2
BRANCH   1  23
ATOM     23  C   UNL A   1      44.708  25.386  26.546  1.00  0.00     0.118 C 
BRANCH  23  24
ATOM     24  N   UNL A   1      43.618  25.482  25.588  1.00  0.00    -0.352 N 
ATOM     25  C   UNL A   1      42.328  25.925  25.749  1.00  0.00     0.251 C 
ATOM     26  H   UNL A   1      43.841  25.181  24.678  1.00  0.00     0.163 HD
ATOM     27  O   UNL A   1      41.505  25.660  24.873  1.00  0.00    -0.269 OA
BRANCH  25  28
ATOM     28  C   UNL A   1      41.897  26.705  26.939  1.00  0.00     0.039 A 
ATOM     29  C   UNL A   1      42.400  28.002  27.099  1.00  0.00     0.014 A 
ATOM     30  C   UNL A   1      41.111  26.155  27.954  1.00  0.00     0.014 A 
ATOM     31  C   UNL A   1      42.104  28.739  28.251  1.00  0.00     0.010 A 
ATOM     32  C   UNL A   1      40.756  26.920  29.073  1.00  0.00     0.010 A 
ATOM     33  C   UNL A   1      41.271  28.211  29.250  1.00  0.00    -0.014 A 
BRANCH  33  34
ATOM     34  C   UNL A   1      40.977  28.996  30.483  1.00  0.00     0.031 A 
ATOM     35  C   UNL A   1      41.830  28.842  31.720  1.00  0.00     0.074 A 
ATOM     36  C   UNL A   1      39.945  29.864  30.497  1.00  0.00     0.049 A 
ATOM     37  N   UNL A   1      41.763  29.494  32.855  1.00  0.00    -0.248 NA
ATOM     38  C   UNL A   1      42.882  27.814  31.686  1.00  0.00     0.031 C 
ATOM     39  C   UNL A   1      39.006  30.078  29.394  1.00  0.00     0.029 A 
ATOM     40  N   UNL A   1      39.517  30.735  31.471  1.00  0.00    -0.354 N 
ATOM     41  C   UNL A   1      42.756  28.956  33.666  1.00  0.00     0.074 A 
ATOM     42  C   UNL A   1      43.375  27.886  32.915  1.00  0.00     0.031 C 
ATOM     43  C   UNL A   1      38.139  31.045  29.736  1.00  0.00     0.029 A 
ATOM     44  C   UNL A   1      38.441  31.501  31.090  1.00  0.00     0.049 A 
ATOM     45  H   UNL A   1      39.942  30.803  32.355  1.00  0.00     0.167 HD
ATOM     46  C   UNL A   1      43.140  29.329  34.912  1.00  0.00     0.031 A 
ATOM     47  C   UNL A   1      37.775  32.472  31.747  1.00  0.00     0.031 A 
ATOM     48  C   UNL A   1      42.534  30.397  35.665  1.00  0.00     0.049 A 
ATOM     49  C   UNL A   1      38.227  32.880  33.123  1.00  0.00     0.074 A 
ATOM     50  C   UNL A   1      42.886  30.877  36.915  1.00  0.00     0.029 A 
ATOM     51  N   UNL A   1      41.452  31.151  35.239  1.00  0.00    -0.354 N 
ATOM     52  N   UNL A   1      39.215  32.403  33.841  1.00  0.00    -0.248 NA
ATOM     53  C   UNL A   1      37.483  33.972  33.768  1.00  0.00     0.031 C 
ATOM     54  C   UNL A   1      41.988  31.894  37.264  1.00  0.00     0.029 A 
ATOM     55  C   UNL A   1      41.112  32.081  36.208  1.00  0.00     0.049 A 
ATOM     56  H   UNL A   1      40.992  31.042  34.375  1.00  0.00     0.167 HD
ATOM     57  C   UNL A   1      39.224  33.152  35.014  1.00  0.00     0.074 A 
ATOM     58  C   UNL A   1      38.158  34.125  34.899  1.00  0.00     0.031 C 
ATOM     59  C   UNL A   1      40.042  33.040  36.090  1.00  0.00     0.031 A 
BRANCH  46  60
ATOM     60  C   UNL A   1      44.284  28.575  35.542  1.00  0.00    -0.014 A 
ATOM     61  C   UNL A   1      45.612  29.012  35.384  1.00  0.00     0.010 A 
ATOM     62  C   UNL A   1      44.028  27.440  36.332  1.00  0.00     0.010 A 
ATOM     63  C   UNL A   1      46.666  28.303  35.966  1.00  0.00     0.020 A 
ATOM     64  C   UNL A   1      45.079  26.743  36.940  1.00  0.00     0.020 A 
ATOM     65  C   UNL A   1      46.393  27.169  36.736  1.00  0.00     0.054 A 
BRANCH  65  66
ATOM     66  S   UNL A   1      47.780  26.275  37.491  1.00  0.00     0.124 S 
ATOM     67  O   UNL A   1      47.425  26.313  38.907  1.00  0.00    -0.237 OA
ATOM     68  O   UNL A   1      47.698  24.962  36.858  1.00  0.00    -0.237 OA
ATOM     69  O   UNL A   1      48.948  27.071  37.119  1.00  0.00    -0.744 OA
ENDBRANCH  65  66
ENDBRANCH  46  60
BRANCH  47  70
ATOM     70  C   UNL A   1      36.619  33.145  31.095  1.00  0.00    -0.014 A 
ATOM     71  C   UNL A   1      35.318  32.996  31.610  1.00  0.00     0.010 A 
ATOM     72  C   UNL A   1      36.818  33.952  29.960  1.00  0.00     0.010 A 
ATOM     73  C   UNL A   1      34.236  33.631  30.993  1.00  0.00     0.020 A 
ATOM     74  C   UNL A   1      35.742  34.609  29.357  1.00  0.00     0.020 A 
ATOM     75  C   UNL A   1      34.455  34.436  29.871  1.00  0.00     0.054 A 
BRANCH  75  76
ATOM     76  S   UNL A   1      33.047  35.300  29.121  1.00  0.00     0.124 S 
ATOM     77  O   UNL A   1      32.191  35.546  30.277  1.00  0.00    -0.237 OA
ATOM     78  O   UNL A   1      33.676  36.482  28.535  1.00  0.00    -0.237 OA
ATOM     79  O   UNL A   1      32.532  34.335  28.151  1.00  0.00    -0.744 OA
ENDBRANCH  75  76
ENDBRANCH  47  70
BRANCH  59  80
ATOM     80  C   UNL A   1      39.831  34.010  37.222  1.00  0.00    -0.014 A 
ATOM     81  C   UNL A   1      40.315  35.329  37.151  1.00  0.00     0.010 A 
ATOM     82  C   UNL A   1      39.111  33.605  38.361  1.00  0.00     0.010 A 
ATOM     83  C   UNL A   1      40.120  36.212  38.218  1.00  0.00     0.020 A 
ATOM     84  C   UNL A   1      38.891  34.493  39.418  1.00  0.00     0.020 A 
ATOM     85  C   UNL A   1      39.414  35.786  39.347  1.00  0.00     0.054 A 
BRANCH  85  86
ATOM     86  S   UNL A   1      39.154  36.955  40.710  1.00  0.00     0.124 S 
ATOM     87  O   UNL A   1      38.467  36.124  41.695  1.00  0.00    -0.237 OA
ATOM     88  O   UNL A   1      40.516  37.349  41.061  1.00  0.00    -0.237 OA
ATOM     89  O   UNL A   1      38.342  38.011  40.110  1.00  0.00    -0.744 OA
ENDBRANCH  85  86
ENDBRANCH  59  80
ENDBRANCH  33  34
ENDBRANCH  25  28
ENDBRANCH  23  24
ENDBRANCH   1  23
TORSDOF 16
ENDMDL
MODEL 2
REMARK VINA RESULT:     -10.7      4.526     10.969
REMARK SMILES C[C@H]([C@@H](C)C(=O)NCCCNC(=O)c1ccc(-c2c3nc(c(-c4ccc(S(=O)(=O)[O-])cc4)c4ccc([nH]4)c(-c4ccc(S(=O)(=O)[O-])cc4)c4nc(c(-c5ccc(S(=O)(=O)[O-])cc5)c5ccc2[nH]5)C=C4)C=C3)cc1)[NH+]1CCN(c2nccs2)CC1
REMARK SMILES IDX 9 1 8 2 7 3 5 4 6 5 3 7 4 8 2 9 1 10 74 11 75 12 84 13 76 15
REMARK SMILES IDX 83 16 77 17 78 18 79 19 82 20 80 21 81 22 10 23 11 24 12 25
REMARK SMILES IDX 13 27 14 28 15 29 73 30 16 31 72 32 17 33 18 34 19 35 66 36
REMARK SMILES IDX 20 37 71 38 65 39 67 40 21 41 70 42 64 43 63 44 22 46 52 47
REMARK SMILES IDX 33 48 51 49 34 50 37 51 50 52 68 53 35 54 36 55 49 57 69 58
REMARK SMILES IDX 38 59 23 60 24 61 32 62 25 63 31 64 26 65 27 66 28 67 29 68
REMARK SMILES IDX 30 69 53 70 54 71 62 72 55 73 61 74 56 75 57 76 58 77 59 78
REMARK SMILES IDX 60 79 39 80 40 81 48 82 41 83 47 84 42 85 43 86 44 87 45 88
REMARK SMILES IDX 46 89
REMARK H PARENT 7 6 74 14 11 26 67 45 37 56
REMARK Flexibility Score: inf
ROOT
ATOM      1  C   UNL A   1      33.437  27.698  26.758  1.00  0.00     0.042 C 
ENDROOT
BRANCH   1   2
ATOM      2  C   UNL A   1      31.975  27.439  26.369  1.00  0.00     0.117 C 
BRANCH   2   3
ATOM      3  N   UNL A   1      31.433  26.156  26.789  1.00  0.00    -0.356 N 
ATOM      4  C   UNL A   1      31.790  24.877  26.512  1.00  0.00     0.228 C 
ATOM      5  O   UNL A   1      31.435  24.023  27.335  1.00  0.00    -0.275 OA
ATOM      6  H   UNL A   1      30.658  26.230  27.392  1.00  0.00     0.163 HD
BRANCH   4   7
ATOM      7  C   UNL A   1      32.642  24.449  25.327  1.00  0.00     0.133 C 
ATOM      8  C   UNL A   1      34.036  24.094  25.871  1.00  0.00     0.024 C 
BRANCH   7   9
ATOM      9  C   UNL A   1      32.649  25.393  24.090  1.00  0.00     0.193 C 
ATOM     10  C   UNL A   1      33.889  25.096  23.211  1.00  0.00     0.076 C 
BRANCH   9  11
ATOM     11  N   UNL A   1      31.560  25.364  23.097  1.00  0.00    -0.329 N 
ATOM     12  C   UNL A   1      30.161  25.225  23.491  1.00  0.00     0.284 C 
ATOM     13  C   UNL A   1      31.671  26.323  21.993  1.00  0.00     0.284 C 
ATOM     14  H   UNL A   1      31.793  24.421  22.787  1.00  0.00     0.348 HD
ATOM     15  C   UNL A   1      29.343  26.518  23.714  1.00  0.00     0.180 C 
ATOM     16  C   UNL A   1      31.099  27.702  22.325  1.00  0.00     0.180 C 
ATOM     17  N   UNL A   1      29.760  27.677  22.918  1.00  0.00    -0.337 N 
BRANCH  17  18
ATOM     18  C   UNL A   1      29.167  28.899  23.100  1.00  0.00     0.185 A 
ATOM     19  N   UNL A   1      29.830  29.964  23.507  1.00  0.00    -0.229 NA
ATOM     20  S   UNL A   1      27.464  29.196  22.900  1.00  0.00    -0.106 S 
ATOM     21  C   UNL A   1      29.004  31.064  23.600  1.00  0.00     0.125 A 
ATOM     22  C   UNL A   1      27.672  30.822  23.374  1.00  0.00     0.088 A 
ENDBRANCH  17  18
ENDBRANCH   9  11
ENDBRANCH   7   9
ENDBRANCH   4   7
ENDBRANCH   2   3
ENDBRANCH   1   2
BRANCH   1  23
ATOM     23  C   UNL A   1      34.173  28.784  25.971  1.00  0.00     0.118 C 
BRANCH  23  24
ATOM     24  N   UNL A   1      33.763  30.117  26.383  1.00  0.00    -0.352 N 
ATOM     25  C   UNL A   1      34.188  30.895  27.432  1.00  0.00     0.251 C 
ATOM     26  H   UNL A   1      33.069  30.527  25.818  1.00  0.00     0.163 HD
ATOM     27  O   UNL A   1      33.510  31.872  27.747  1.00  0.00    -0.269 OA
BRANCH  25  28
ATOM     28  C   UNL A   1      35.430  30.596  28.192  1.00  0.00     0.039 A 
ATOM     29  C   UNL A   1      36.622  31.204  27.781  1.00  0.00     0.014 A 
ATOM     30  C   UNL A   1      35.473  29.647  29.217  1.00  0.00     0.014 A 
ATOM     31  C   UNL A   1      37.834  30.878  28.401  1.00  0.00     0.010 A 
ATOM     32  C   UNL A   1      36.674  29.376  29.885  1.00  0.00     0.010 A 
ATOM     33  C   UNL A   1      37.875  29.965  29.467  1.00  0.00    -0.014 A 
BRANCH  33  34
ATOM     34  C   UNL A   1      39.173  29.609  30.108  1.00  0.00     0.031 A 
ATOM     35  C   UNL A   1      39.648  30.329  31.349  1.00  0.00     0.074 A 
ATOM     36  C   UNL A   1      39.934  28.626  29.585  1.00  0.00     0.049 A 
ATOM     37  N   UNL A   1      40.714  30.104  32.076  1.00  0.00    -0.248 NA
ATOM     38  C   UNL A   1      38.830  31.457  31.823  1.00  0.00     0.031 C 
ATOM     39  C   UNL A   1      39.627  27.881  28.362  1.00  0.00     0.029 A 
ATOM     40  N   UNL A   1      41.117  28.078  30.019  1.00  0.00    -0.354 N 
ATOM     41  C   UNL A   1      40.696  31.059  33.088  1.00  0.00     0.074 A 
ATOM     42  C   UNL A   1      39.545  31.900  32.848  1.00  0.00     0.031 C 
ATOM     43  C   UNL A   1      40.574  26.949  28.167  1.00  0.00     0.029 A 
ATOM     44  C   UNL A   1      41.568  27.045  29.231  1.00  0.00     0.049 A 
ATOM     45  H   UNL A   1      41.595  28.395  30.818  1.00  0.00     0.167 HD
ATOM     46  C   UNL A   1      41.542  31.210  34.137  1.00  0.00     0.031 A 
ATOM     47  C   UNL A   1      42.653  26.254  29.353  1.00  0.00     0.031 A 
ATOM     48  C   UNL A   1      42.687  30.373  34.387  1.00  0.00     0.049 A 
ATOM     49  C   UNL A   1      43.571  26.431  30.532  1.00  0.00     0.074 A 
ATOM     50  C   UNL A   1      43.575  30.422  35.448  1.00  0.00     0.029 A 
ATOM     51  N   UNL A   1      43.104  29.335  33.568  1.00  0.00    -0.354 N 
ATOM     52  N   UNL A   1      43.493  27.296  31.515  1.00  0.00    -0.248 NA
ATOM     53  C   UNL A   1      44.712  25.509  30.627  1.00  0.00     0.031 C 
ATOM     54  C   UNL A   1      44.554  29.441  35.248  1.00  0.00     0.029 A 
ATOM     55  C   UNL A   1      44.244  28.747  34.090  1.00  0.00     0.049 A 
ATOM     56  H   UNL A   1      42.655  29.057  32.736  1.00  0.00     0.167 HD
ATOM     57  C   UNL A   1      44.564  27.008  32.355  1.00  0.00     0.074 A 
ATOM     58  C   UNL A   1      45.260  25.878  31.777  1.00  0.00     0.031 C 
ATOM     59  C   UNL A   1      44.937  27.628  33.503  1.00  0.00     0.031 A 
BRANCH  46  60
ATOM     60  C   UNL A   1      41.254  32.329  35.105  1.00  0.00    -0.014 A 
ATOM     61  C   UNL A   1      40.366  32.144  36.181  1.00  0.00     0.010 A 
ATOM     62  C   UNL A   1      41.907  33.567  34.965  1.00  0.00     0.010 A 
ATOM     63  C   UNL A   1      40.100  33.188  37.070  1.00  0.00     0.020 A 
ATOM     64  C   UNL A   1      41.665  34.607  35.870  1.00  0.00     0.020 A 
ATOM     65  C   UNL A   1      40.748  34.416  36.905  1.00  0.00     0.054 A 
BRANCH  65  66
ATOM     66  S   UNL A   1      40.393  35.751  38.082  1.00  0.00     0.124 S 
ATOM     67  O   UNL A   1      39.770  36.751  37.220  1.00  0.00    -0.237 OA
ATOM     68  O   UNL A   1      39.502  35.106  39.041  1.00  0.00    -0.237 OA
ATOM     69  O   UNL A   1      41.709  36.111  38.604  1.00  0.00    -0.744 OA
ENDBRANCH  65  66
ENDBRANCH  46  60
BRANCH  47  70
ATOM     70  C   UNL A   1      42.916  25.200  28.335  1.00  0.00    -0.014 A 
ATOM     71  C   UNL A   1      43.677  25.485  27.187  1.00  0.00     0.010 A 
ATOM     72  C   UNL A   1      42.414  23.898  28.519  1.00  0.00     0.010 A 
ATOM     73  C   UNL A   1      43.920  24.491  26.235  1.00  0.00     0.020 A 
ATOM     74  C   UNL A   1      42.678  22.896  27.582  1.00  0.00     0.020 A 
ATOM     75  C   UNL A   1      43.421  23.201  26.440  1.00  0.00     0.054 A 
BRANCH  75  76
ATOM     76  S   UNL A   1      43.798  21.910  25.222  1.00  0.00     0.124 S 
ATOM     77  O   UNL A   1      42.746  20.931  25.482  1.00  0.00    -0.237 OA
ATOM     78  O   UNL A   1      43.694  22.629  23.955  1.00  0.00    -0.237 OA
ATOM     79  O   UNL A   1      45.151  21.489  25.579  1.00  0.00    -0.744 OA
ENDBRANCH  75  76
ENDBRANCH  47  70
BRANCH  59  80
ATOM     80  C   UNL A   1      46.142  27.083  34.222  1.00  0.00    -0.014 A 
ATOM     81  C   UNL A   1      46.018  26.053  35.173  1.00  0.00     0.010 A 
ATOM     82  C   UNL A   1      47.421  27.586  33.921  1.00  0.00     0.010 A 
ATOM     83  C   UNL A   1      47.148  25.568  35.841  1.00  0.00     0.020 A 
ATOM     84  C   UNL A   1      48.554  27.086  34.567  1.00  0.00     0.020 A 
ATOM     85  C   UNL A   1      48.407  26.092  35.536  1.00  0.00     0.054 A 
BRANCH  85  86
ATOM     86  S   UNL A   1      49.861  25.432  36.400  1.00  0.00     0.124 S 
ATOM     87  O   UNL A   1      49.978  26.343  37.535  1.00  0.00    -0.237 OA
ATOM     88  O   UNL A   1      49.450  24.069  36.729  1.00  0.00    -0.237 OA
ATOM     89  O   UNL A   1      50.928  25.532  35.407  1.00  0.00    -0.744 OA
ENDBRANCH  85  86
ENDBRANCH  59  80
ENDBRANCH  33  34
ENDBRANCH  25  28
ENDBRANCH  23  24
ENDBRANCH   1  23
TORSDOF 16
ENDMDL
MODEL 3
REMARK VINA RESULT:     -10.6      5.938      9.409
REMARK SMILES C[C@H]([C@@H](C)C(=O)NCCCNC(=O)c1ccc(-c2c3nc(c(-c4ccc(S(=O)(=O)[O-])cc4)c4ccc([nH]4)c(-c4ccc(S(=O)(=O)[O-])cc4)c4nc(c(-c5ccc(S(=O)(=O)[O-])cc5)c5ccc2[nH]5)C=C4)C=C3)cc1)[NH+]1CCN(c2nccs2)CC1
REMARK SMILES IDX 9 1 8 2 7 3 5 4 6 5 3 7 4 8 2 9 1 10 74 11 75 12 84 13 76 15
REMARK SMILES IDX 83 16 77 17 78 18 79 19 82 20 80 21 81 22 10 23 11 24 12 25
REMARK SMILES IDX 13 27 14 28 15 29 73 30 16 31 72 32 17 33 18 34 19 35 66 36
REMARK SMILES IDX 20 37 71 38 65 39 67 40 21 41 70 42 64 43 63 44 22 46 52 47
REMARK SMILES IDX 33 48 51 49 34 50 37 51 50 52 68 53 35 54 36 55 49 57 69 58
REMARK SMILES IDX 38 59 23 60 24 61 32 62 25 63 31 64 26 65 27 66 28 67 29 68
REMARK SMILES IDX 30 69 53 70 54 71 62 72 55 73 61 74 56 75 57 76 58 77 59 78
REMARK SMILES IDX 60 79 39 80 40 81 48 82 41 83 47 84 42 85 43 86 44 87 45 88
REMARK SMILES IDX 46 89
REMARK H PARENT 7 6 74 14 11 26 67 45 37 56
REMARK Flexibility Score: inf
ROOT
ATOM      1  C   UNL A   1      38.464  19.522  24.999  1.00  0.00     0.042 C 
ENDROOT
BRANCH   1   2
ATOM      2  C   UNL A   1      37.045  20.108  25.026  1.00  0.00     0.117 C 
BRANCH   2   3
ATOM      3  N   UNL A   1      36.921  21.418  25.647  1.00  0.00    -0.356 N 
ATOM      4  C   UNL A   1      36.086  22.462  25.420  1.00  0.00     0.228 C 
ATOM      5  O   UNL A   1      35.928  23.247  26.365  1.00  0.00    -0.275 OA
ATOM      6  H   UNL A   1      37.568  21.576  26.373  1.00  0.00     0.163 HD
BRANCH   4   7
ATOM      7  C   UNL A   1      35.292  22.680  24.141  1.00  0.00     0.133 C 
ATOM      8  C   UNL A   1      36.294  23.066  23.041  1.00  0.00     0.024 C 
BRANCH   7   9
ATOM      9  C   UNL A   1      34.046  23.608  24.239  1.00  0.00     0.193 C 
ATOM     10  C   UNL A   1      33.970  24.516  22.987  1.00  0.00     0.076 C 
BRANCH   9  11
ATOM     11  N   UNL A   1      32.681  23.055  24.296  1.00  0.00    -0.329 N 
ATOM     12  C   UNL A   1      32.097  22.326  23.175  1.00  0.00     0.284 C 
ATOM     13  C   UNL A   1      32.299  22.413  25.558  1.00  0.00     0.284 C 
ATOM     14  H   UNL A   1      32.247  23.974  24.208  1.00  0.00     0.348 HD
ATOM     15  C   UNL A   1      32.254  20.788  23.153  1.00  0.00     0.180 C 
ATOM     16  C   UNL A   1      32.712  20.942  25.640  1.00  0.00     0.180 C 
ATOM     17  N   UNL A   1      32.349  20.143  24.467  1.00  0.00    -0.337 N 
BRANCH  17  18
ATOM     18  C   UNL A   1      32.583  18.796  24.569  1.00  0.00     0.185 A 
ATOM     19  N   UNL A   1      32.410  18.122  25.689  1.00  0.00    -0.229 NA
ATOM     20  S   UNL A   1      33.210  17.815  23.275  1.00  0.00    -0.106 S 
ATOM     21  C   UNL A   1      32.707  16.786  25.520  1.00  0.00     0.125 A 
ATOM     22  C   UNL A   1      33.222  16.446  24.294  1.00  0.00     0.088 A 
ENDBRANCH  17  18
ENDBRANCH   9  11
ENDBRANCH   7   9
ENDBRANCH   4   7
ENDBRANCH   2   3
ENDBRANCH   1   2
BRANCH   1  23
ATOM     23  C   UNL A   1      39.434  20.029  26.066  1.00  0.00     0.118 C 
BRANCH  23  24
ATOM     24  N   UNL A   1      40.655  19.240  26.102  1.00  0.00    -0.352 N 
ATOM     25  C   UNL A   1      41.968  19.633  26.177  1.00  0.00     0.251 C 
ATOM     26  H   UNL A   1      40.516  18.265  26.067  1.00  0.00     0.163 HD
ATOM     27  O   UNL A   1      42.842  18.805  25.918  1.00  0.00    -0.269 OA
BRANCH  25  28
ATOM     28  C   UNL A   1      42.364  21.015  26.555  1.00  0.00     0.039 A 
ATOM     29  C   UNL A   1      42.587  21.944  25.533  1.00  0.00     0.014 A 
ATOM     30  C   UNL A   1      42.635  21.384  27.876  1.00  0.00     0.014 A 
ATOM     31  C   UNL A   1      43.057  23.228  25.832  1.00  0.00     0.010 A 
ATOM     32  C   UNL A   1      43.035  22.691  28.181  1.00  0.00     0.010 A 
ATOM     33  C   UNL A   1      43.280  23.621  27.162  1.00  0.00    -0.014 A 
BRANCH  33  34
ATOM     34  C   UNL A   1      43.800  24.985  27.469  1.00  0.00     0.031 A 
ATOM     35  C   UNL A   1      45.246  25.338  27.214  1.00  0.00     0.074 A 
ATOM     36  C   UNL A   1      42.971  25.922  27.973  1.00  0.00     0.049 A 
ATOM     37  N   UNL A   1      45.851  26.491  27.357  1.00  0.00    -0.248 NA
ATOM     38  C   UNL A   1      46.130  24.254  26.756  1.00  0.00     0.031 C 
ATOM     39  C   UNL A   1      41.564  25.708  28.319  1.00  0.00     0.029 A 
ATOM     40  N   UNL A   1      43.189  27.245  28.274  1.00  0.00    -0.354 N 
ATOM     41  C   UNL A   1      47.181  26.272  27.010  1.00  0.00     0.074 A 
ATOM     42  C   UNL A   1      47.306  24.864  26.705  1.00  0.00     0.031 C 
ATOM     43  C   UNL A   1      41.036  26.866  28.745  1.00  0.00     0.029 A 
ATOM     44  C   UNL A   1      42.068  27.898  28.731  1.00  0.00     0.049 A 
ATOM     45  H   UNL A   1      44.064  27.683  28.171  1.00  0.00     0.167 HD
ATOM     46  C   UNL A   1      48.201  27.161  26.927  1.00  0.00     0.031 A 
ATOM     47  C   UNL A   1      41.884  29.185  29.088  1.00  0.00     0.031 A 
ATOM     48  C   UNL A   1      48.083  28.566  27.223  1.00  0.00     0.049 A 
ATOM     49  C   UNL A   1      43.026  30.157  28.975  1.00  0.00     0.074 A 
ATOM     50  C   UNL A   1      49.051  29.551  27.122  1.00  0.00     0.029 A 
ATOM     51  N   UNL A   1      46.930  29.186  27.676  1.00  0.00    -0.354 N 
ATOM     52  N   UNL A   1      44.257  29.940  28.577  1.00  0.00    -0.248 NA
ATOM     53  C   UNL A   1      42.747  31.554  29.342  1.00  0.00     0.031 C 
ATOM     54  C   UNL A   1      48.494  30.761  27.557  1.00  0.00     0.029 A 
ATOM     55  C   UNL A   1      47.165  30.537  27.876  1.00  0.00     0.049 A 
ATOM     56  H   UNL A   1      46.070  28.733  27.833  1.00  0.00     0.167 HD
ATOM     57  C   UNL A   1      44.892  31.177  28.625  1.00  0.00     0.074 A 
ATOM     58  C   UNL A   1      43.906  32.139  29.071  1.00  0.00     0.031 C 
ATOM     59  C   UNL A   1      46.180  31.486  28.329  1.00  0.00     0.031 A 
BRANCH  46  60
ATOM     60  C   UNL A   1      49.545  26.637  26.488  1.00  0.00    -0.014 A 
ATOM     61  C   UNL A   1      49.989  26.806  25.164  1.00  0.00     0.010 A 
ATOM     62  C   UNL A   1      50.391  26.004  27.416  1.00  0.00     0.010 A 
ATOM     63  C   UNL A   1      51.233  26.311  24.764  1.00  0.00     0.020 A 
ATOM     64  C   UNL A   1      51.650  25.531  27.027  1.00  0.00     0.020 A 
ATOM     65  C   UNL A   1      52.054  25.671  25.698  1.00  0.00     0.054 A 
BRANCH  65  66
ATOM     66  S   UNL A   1      53.670  25.050  25.155  1.00  0.00     0.124 S 
ATOM     67  O   UNL A   1      53.490  23.606  25.272  1.00  0.00    -0.237 OA
ATOM     68  O   UNL A   1      53.769  25.561  23.791  1.00  0.00    -0.237 OA
ATOM     69  O   UNL A   1      54.606  25.640  26.108  1.00  0.00    -0.744 OA
ENDBRANCH  65  66
ENDBRANCH  46  60
BRANCH  47  70
ATOM     70  C   UNL A   1      40.547  29.634  29.565  1.00  0.00    -0.014 A 
ATOM     71  C   UNL A   1      40.288  29.778  30.940  1.00  0.00     0.010 A 
ATOM     72  C   UNL A   1      39.529  29.933  28.641  1.00  0.00     0.010 A 
ATOM     73  C   UNL A   1      39.030  30.200  31.383  1.00  0.00     0.020 A 
ATOM     74  C   UNL A   1      38.280  30.380  29.079  1.00  0.00     0.020 A 
ATOM     75  C   UNL A   1      38.034  30.501  30.449  1.00  0.00     0.054 A 
BRANCH  75  76
ATOM     76  S   UNL A   1      36.429  31.104  31.040  1.00  0.00     0.124 S 
ATOM     77  O   UNL A   1      36.787  32.389  31.632  1.00  0.00    -0.237 OA
ATOM     78  O   UNL A   1      35.643  31.170  29.810  1.00  0.00    -0.237 OA
ATOM     79  O   UNL A   1      36.003  30.073  31.984  1.00  0.00    -0.744 OA
ENDBRANCH  75  76
ENDBRANCH  47  70
BRANCH  59  80
ATOM     80  C   UNL A   1      46.590  32.929  28.456  1.00  0.00    -0.014 A 
ATOM     81  C   UNL A   1      46.404  33.835  27.397  1.00  0.00     0.010 A 
ATOM     82  C   UNL A   1      47.143  33.392  29.665  1.00  0.00     0.010 A 
ATOM     83  C   UNL A   1      46.804  35.169  27.528  1.00  0.00     0.020 A 
ATOM     84  C   UNL A   1      47.518  34.730  29.809  1.00  0.00     0.020 A 
ATOM     85  C   UNL A   1      47.363  35.606  28.733  1.00  0.00     0.054 A 
BRANCH  85  86
ATOM     86  S   UNL A   1      47.854  37.346  28.888  1.00  0.00     0.124 S 
ATOM     87  O   UNL A   1      46.883  37.849  29.856  1.00  0.00    -0.237 OA
ATOM     88  O   UNL A   1      49.230  37.251  29.371  1.00  0.00    -0.237 OA
ATOM     89  O   UNL A   1      47.711  37.869  27.532  1.00  0.00    -0.744 OA
ENDBRANCH  85  86
ENDBRANCH  59  80
ENDBRANCH  33  34
ENDBRANCH  25  28
ENDBRANCH  23  24
ENDBRANCH   1  23
TORSDOF 16
ENDMDL
