MODEL 1
REMARK VINA RESULT:     -11.6      0.000      0.000
REMARK SMILES COc1ccc(CCNc2ncnc3sc(C(=O)NCCCNC(=O)c4ccc(-c5c6nc(c(-c7ccc(S(=O)(=O)[O-])cc7)c7ccc([nH]7)c(-c7ccc(S(=O)(=O)[O-])cc7)c7nc(c(-c8ccc(S(=O)(=O)[O-])cc8)c8ccc5[nH]8)C=C7)C=C6)cc4)c(C)c23)cc1OC
REMARK SMILES IDX 20 1 19 2 17 3 18 4 16 6 10 7 11 8 88 9 12 10 14 11 86 12
REMARK SMILES IDX 13 13 15 14 87 15 9 16 8 18 7 19 6 20 3 21 4 22 90 23 5 24
REMARK SMILES IDX 89 25 2 26 1 27 91 28 92 29 21 30 22 31 23 32 24 33 25 35
REMARK SMILES IDX 26 36 27 37 85 38 28 39 84 40 29 41 30 42 31 43 78 44 32 45
REMARK SMILES IDX 83 46 77 47 79 48 33 49 82 50 76 51 75 52 34 54 64 55 45 56
REMARK SMILES IDX 63 57 46 58 49 59 62 60 80 61 47 62 48 63 61 65 81 66 50 67
REMARK SMILES IDX 35 68 36 69 44 70 37 71 43 72 38 73 39 74 40 75 41 76 42 77
REMARK SMILES IDX 65 78 66 79 74 80 67 81 73 82 68 83 69 84 70 85 71 86 72 87
REMARK SMILES IDX 51 88 52 89 60 90 53 91 59 92 54 93 55 94 56 95 57 96 58 97
REMARK H PARENT 19 5 9 17 23 34 79 53 49 64
REMARK Flexibility Score: inf
ROOT
ATOM      1  C   UNL A   1      38.461  20.596  25.370  1.00  0.00     0.118 C 
ENDROOT
BRANCH   1   2
ATOM      2  N   UNL A   1      38.516  21.981  25.791  1.00  0.00    -0.351 N 
ATOM      3  C   UNL A   1      37.570  22.973  25.846  1.00  0.00     0.261 C 
ATOM      4  O   UNL A   1      38.012  24.063  26.217  1.00  0.00    -0.268 OA
ATOM      5  H   UNL A   1      39.407  22.266  26.098  1.00  0.00     0.163 HD
BRANCH   3   6
ATOM      6  C   UNL A   1      36.147  22.755  25.567  1.00  0.00     0.098 A 
ATOM      7  C   UNL A   1      32.953  23.026  23.589  1.00  0.00     0.138 A 
ATOM      8  N   UNL A   1      31.697  22.895  24.068  1.00  0.00    -0.219 NA
ATOM      9  C   UNL A   1      34.043  22.807  24.467  1.00  0.00     0.057 A 
ATOM     10  C   UNL A   1      31.530  22.460  25.325  1.00  0.00     0.225 A 
ATOM     11  C   UNL A   1      33.710  22.354  25.727  1.00  0.00     0.129 A 
ATOM     12  C   UNL A   1      35.486  23.017  24.365  1.00  0.00    -0.014 A 
ATOM     13  N   UNL A   1      32.476  22.141  26.211  1.00  0.00    -0.225 NA
ATOM     14  S   UNL A   1      35.066  22.036  26.679  1.00  0.00    -0.110 S 
ATOM     15  C   UNL A   1      36.144  23.548  23.135  1.00  0.00     0.047 C 
BRANCH   7  16
ATOM     16  N   UNL A   1      33.139  23.355  22.268  1.00  0.00    -0.369 N 
ATOM     17  H   UNL A   1      33.685  22.752  21.713  1.00  0.00     0.162 HD
BRANCH  16  18
ATOM     18  C   UNL A   1      32.578  24.536  21.643  1.00  0.00     0.119 C 
BRANCH  18  19
ATOM     19  C   UNL A   1      33.430  25.782  21.978  1.00  0.00     0.057 C 
BRANCH  19  20
ATOM     20  C   UNL A   1      32.948  26.620  23.148  1.00  0.00    -0.042 A 
ATOM     21  C   UNL A   1      32.031  28.149  25.343  1.00  0.00     0.160 A 
ATOM     22  C   UNL A   1      33.074  27.242  25.504  1.00  0.00     0.051 A 
ATOM     23  C   UNL A   1      31.434  28.304  24.085  1.00  0.00     0.160 A 
ATOM     24  C   UNL A   1      33.503  26.480  24.421  1.00  0.00     0.008 A 
ATOM     25  C   UNL A   1      31.901  27.536  23.000  1.00  0.00     0.054 A 
BRANCH  21  26
ATOM     26  O   UNL A   1      31.683  28.938  26.405  1.00  0.00    -0.493 OA
ATOM     27  C   UNL A   1      31.546  28.195  27.618  1.00  0.00     0.278 C 
ENDBRANCH  21  26
BRANCH  23  28
ATOM     28  O   UNL A   1      30.409  29.146  23.741  1.00  0.00    -0.493 OA
ATOM     29  C   UNL A   1      29.330  28.594  23.000  1.00  0.00     0.278 C 
ENDBRANCH  23  28
ENDBRANCH  19  20
ENDBRANCH  18  19
ENDBRANCH  16  18
ENDBRANCH   7  16
ENDBRANCH   3   6
ENDBRANCH   1   2
BRANCH   1  30
ATOM     30  C   UNL A   1      39.691  19.819  25.853  1.00  0.00     0.042 C 
BRANCH  30  31
ATOM     31  C   UNL A   1      40.671  20.714  26.590  1.00  0.00     0.118 C 
BRANCH  31  32
ATOM     32  N   UNL A   1      41.908  20.901  25.831  1.00  0.00    -0.352 N 
ATOM     33  C   UNL A   1      42.637  22.057  25.626  1.00  0.00     0.251 C 
ATOM     34  H   UNL A   1      42.271  20.089  25.409  1.00  0.00     0.163 HD
ATOM     35  O   UNL A   1      43.450  22.124  24.724  1.00  0.00    -0.269 OA
BRANCH  33  36
ATOM     36  C   UNL A   1      42.394  23.204  26.518  1.00  0.00     0.039 A 
ATOM     37  C   UNL A   1      42.965  23.260  27.792  1.00  0.00     0.014 A 
ATOM     38  C   UNL A   1      41.624  24.256  26.032  1.00  0.00     0.014 A 
ATOM     39  C   UNL A   1      42.826  24.428  28.539  1.00  0.00     0.010 A 
ATOM     40  C   UNL A   1      41.637  25.457  26.689  1.00  0.00     0.010 A 
ATOM     41  C   UNL A   1      42.179  25.533  27.968  1.00  0.00    -0.014 A 
BRANCH  41  42
ATOM     42  C   UNL A   1      42.138  26.822  28.650  1.00  0.00     0.031 A 
ATOM     43  C   UNL A   1      43.287  27.724  28.368  1.00  0.00     0.074 A 
ATOM     44  C   UNL A   1      41.027  27.272  29.273  1.00  0.00     0.049 A 
ATOM     45  N   UNL A   1      44.228  28.086  29.176  1.00  0.00    -0.248 NA
ATOM     46  C   UNL A   1      43.493  28.170  26.980  1.00  0.00     0.031 C 
ATOM     47  C   UNL A   1      39.705  26.634  29.342  1.00  0.00     0.029 A 
ATOM     48  N   UNL A   1      40.804  28.477  29.859  1.00  0.00    -0.354 N 
ATOM     49  C   UNL A   1      45.011  28.994  28.468  1.00  0.00     0.074 A 
ATOM     50  C   UNL A   1      44.641  28.842  27.084  1.00  0.00     0.031 C 
ATOM     51  C   UNL A   1      38.778  27.553  29.689  1.00  0.00     0.029 A 
ATOM     52  C   UNL A   1      39.461  28.778  30.054  1.00  0.00     0.049 A 
ATOM     53  H   UNL A   1      41.532  29.086  30.123  1.00  0.00     0.167 HD
ATOM     54  C   UNL A   1      45.706  29.984  29.101  1.00  0.00     0.031 A 
ATOM     55  C   UNL A   1      38.942  29.963  30.459  1.00  0.00     0.031 A 
ATOM     56  C   UNL A   1      45.741  29.774  30.527  1.00  0.00     0.049 A 
ATOM     57  C   UNL A   1      40.038  30.706  31.124  1.00  0.00     0.074 A 
ATOM     58  C   UNL A   1      46.207  28.777  31.360  1.00  0.00     0.029 A 
ATOM     59  N   UNL A   1      44.862  30.520  31.279  1.00  0.00    -0.354 N 
ATOM     60  N   UNL A   1      40.604  30.308  32.229  1.00  0.00    -0.248 NA
ATOM     61  C   UNL A   1      40.816  31.646  30.332  1.00  0.00     0.031 C 
ATOM     62  C   UNL A   1      45.238  28.690  32.404  1.00  0.00     0.029 A 
ATOM     63  C   UNL A   1      44.277  29.682  32.192  1.00  0.00     0.049 A 
ATOM     64  H   UNL A   1      44.685  31.483  31.180  1.00  0.00     0.167 HD
ATOM     65  C   UNL A   1      41.954  30.583  32.058  1.00  0.00     0.074 A 
ATOM     66  C   UNL A   1      42.006  31.509  30.927  1.00  0.00     0.031 C 
ATOM     67  C   UNL A   1      42.912  29.818  32.662  1.00  0.00     0.031 A 
BRANCH  54  68
ATOM     68  C   UNL A   1      45.976  31.348  28.504  1.00  0.00    -0.014 A 
ATOM     69  C   UNL A   1      44.876  32.160  28.152  1.00  0.00     0.010 A 
ATOM     70  C   UNL A   1      47.237  31.742  28.012  1.00  0.00     0.010 A 
ATOM     71  C   UNL A   1      45.017  33.241  27.272  1.00  0.00     0.020 A 
ATOM     72  C   UNL A   1      47.397  32.846  27.170  1.00  0.00     0.020 A 
ATOM     73  C   UNL A   1      46.278  33.562  26.771  1.00  0.00     0.054 A 
BRANCH  73  74
ATOM     74  S   UNL A   1      46.434  34.870  25.531  1.00  0.00     0.124 S 
ATOM     75  O   UNL A   1      47.823  34.717  25.110  1.00  0.00    -0.237 OA
ATOM     76  O   UNL A   1      45.425  34.485  24.547  1.00  0.00    -0.237 OA
ATOM     77  O   UNL A   1      46.135  36.088  26.280  1.00  0.00    -0.744 OA
ENDBRANCH  73  74
ENDBRANCH  54  68
BRANCH  55  78
ATOM     78  C   UNL A   1      37.657  30.586  30.056  1.00  0.00    -0.014 A 
ATOM     79  C   UNL A   1      36.756  31.079  31.017  1.00  0.00     0.010 A 
ATOM     80  C   UNL A   1      37.440  30.944  28.708  1.00  0.00     0.010 A 
ATOM     81  C   UNL A   1      35.714  31.949  30.651  1.00  0.00     0.020 A 
ATOM     82  C   UNL A   1      36.401  31.806  28.336  1.00  0.00     0.020 A 
ATOM     83  C   UNL A   1      35.556  32.324  29.314  1.00  0.00     0.054 A 
BRANCH  83  84
ATOM     84  S   UNL A   1      34.324  33.587  28.875  1.00  0.00     0.124 S 
ATOM     85  O   UNL A   1      33.470  32.875  27.929  1.00  0.00    -0.237 OA
ATOM     86  O   UNL A   1      33.714  33.898  30.166  1.00  0.00    -0.237 OA
ATOM     87  O   UNL A   1      35.123  34.666  28.297  1.00  0.00    -0.744 OA
ENDBRANCH  83  84
ENDBRANCH  55  78
BRANCH  67  88
ATOM     88  C   UNL A   1      42.487  28.861  33.754  1.00  0.00    -0.014 A 
ATOM     89  C   UNL A   1      42.011  27.556  33.513  1.00  0.00     0.010 A 
ATOM     90  C   UNL A   1      42.729  29.248  35.082  1.00  0.00     0.010 A 
ATOM     91  C   UNL A   1      41.763  26.674  34.577  1.00  0.00     0.020 A 
ATOM     92  C   UNL A   1      42.502  28.370  36.145  1.00  0.00     0.020 A 
ATOM     93  C   UNL A   1      42.011  27.089  35.889  1.00  0.00     0.054 A 
BRANCH  93  94
ATOM     94  S   UNL A   1      41.735  25.933  37.260  1.00  0.00     0.124 S 
ATOM     95  O   UNL A   1      41.919  24.632  36.623  1.00  0.00    -0.237 OA
ATOM     96  O   UNL A   1      42.767  26.314  38.222  1.00  0.00    -0.237 OA
ATOM     97  O   UNL A   1      40.366  26.221  37.689  1.00  0.00    -0.744 OA
ENDBRANCH  93  94
ENDBRANCH  67  88
ENDBRANCH  41  42
ENDBRANCH  33  36
ENDBRANCH  31  32
ENDBRANCH  30  31
ENDBRANCH   1  30
TORSDOF 19
ENDMDL
MODEL 2
REMARK VINA RESULT:     -10.8      1.431      2.015
REMARK SMILES COc1ccc(CCNc2ncnc3sc(C(=O)NCCCNC(=O)c4ccc(-c5c6nc(c(-c7ccc(S(=O)(=O)[O-])cc7)c7ccc([nH]7)c(-c7ccc(S(=O)(=O)[O-])cc7)c7nc(c(-c8ccc(S(=O)(=O)[O-])cc8)c8ccc5[nH]8)C=C7)C=C6)cc4)c(C)c23)cc1OC
REMARK SMILES IDX 20 1 19 2 17 3 18 4 16 6 10 7 11 8 88 9 12 10 14 11 86 12
REMARK SMILES IDX 13 13 15 14 87 15 9 16 8 18 7 19 6 20 3 21 4 22 90 23 5 24
REMARK SMILES IDX 89 25 2 26 1 27 91 28 92 29 21 30 22 31 23 32 24 33 25 35
REMARK SMILES IDX 26 36 27 37 85 38 28 39 84 40 29 41 30 42 31 43 78 44 32 45
REMARK SMILES IDX 83 46 77 47 79 48 33 49 82 50 76 51 75 52 34 54 64 55 45 56
REMARK SMILES IDX 63 57 46 58 49 59 62 60 80 61 47 62 48 63 61 65 81 66 50 67
REMARK SMILES IDX 35 68 36 69 44 70 37 71 43 72 38 73 39 74 40 75 41 76 42 77
REMARK SMILES IDX 65 78 66 79 74 80 67 81 73 82 68 83 69 84 70 85 71 86 72 87
REMARK SMILES IDX 51 88 52 89 60 90 53 91 59 92 54 93 55 94 56 95 57 96 58 97
REMARK H PARENT 19 5 9 17 23 34 79 53 49 64
REMARK Flexibility Score: inf
ROOT
ATOM      1  C   UNL A   1      39.566  20.003  26.114  1.00  0.00     0.118 C 
ENDROOT
BRANCH   1   2
ATOM      2  N   UNL A   1      39.262  21.419  26.100  1.00  0.00    -0.351 N 
ATOM      3  C   UNL A   1      38.124  22.121  25.791  1.00  0.00     0.261 C 
ATOM      4  O   UNL A   1      38.266  23.346  25.843  1.00  0.00    -0.268 OA
ATOM      5  H   UNL A   1      40.021  21.989  26.362  1.00  0.00     0.163 HD
BRANCH   3   6
ATOM      6  C   UNL A   1      36.833  21.490  25.500  1.00  0.00     0.098 A 
ATOM      7  C   UNL A   1      33.094  21.074  25.682  1.00  0.00     0.138 A 
ATOM      8  N   UNL A   1      32.399  19.941  25.444  1.00  0.00    -0.219 NA
ATOM      9  C   UNL A   1      34.497  21.067  25.482  1.00  0.00     0.057 A 
ATOM     10  C   UNL A   1      33.046  18.886  24.927  1.00  0.00     0.225 A 
ATOM     11  C   UNL A   1      35.014  19.909  24.937  1.00  0.00     0.129 A 
ATOM     12  C   UNL A   1      35.569  22.011  25.789  1.00  0.00    -0.014 A 
ATOM     13  N   UNL A   1      34.340  18.793  24.618  1.00  0.00    -0.225 NA
ATOM     14  S   UNL A   1      36.673  20.015  24.651  1.00  0.00    -0.110 S 
ATOM     15  C   UNL A   1      35.326  23.336  26.430  1.00  0.00     0.047 C 
BRANCH   7  16
ATOM     16  N   UNL A   1      32.426  22.200  26.097  1.00  0.00    -0.369 N 
ATOM     17  H   UNL A   1      32.836  22.749  26.805  1.00  0.00     0.162 HD
BRANCH  16  18
ATOM     18  C   UNL A   1      31.153  22.630  25.554  1.00  0.00     0.119 C 
BRANCH  18  19
ATOM     19  C   UNL A   1      30.631  23.870  26.314  1.00  0.00     0.057 C 
BRANCH  19  20
ATOM     20  C   UNL A   1      31.206  25.205  25.880  1.00  0.00    -0.042 A 
ATOM     21  C   UNL A   1      32.272  27.709  25.108  1.00  0.00     0.160 A 
ATOM     22  C   UNL A   1      33.029  26.827  25.873  1.00  0.00     0.051 A 
ATOM     23  C   UNL A   1      30.974  27.351  24.719  1.00  0.00     0.160 A 
ATOM     24  C   UNL A   1      32.486  25.606  26.264  1.00  0.00     0.008 A 
ATOM     25  C   UNL A   1      30.455  26.101  25.110  1.00  0.00     0.054 A 
BRANCH  21  26
ATOM     26  O   UNL A   1      32.858  28.866  24.674  1.00  0.00    -0.493 OA
ATOM     27  C   UNL A   1      32.967  29.846  25.709  1.00  0.00     0.278 C 
ENDBRANCH  21  26
BRANCH  23  28
ATOM     28  O   UNL A   1      30.092  28.083  23.966  1.00  0.00    -0.493 OA
ATOM     29  C   UNL A   1      30.206  27.990  22.553  1.00  0.00     0.278 C 
ENDBRANCH  23  28
ENDBRANCH  19  20
ENDBRANCH  18  19
ENDBRANCH  16  18
ENDBRANCH   7  16
ENDBRANCH   3   6
ENDBRANCH   1   2
BRANCH   1  30
ATOM     30  C   UNL A   1      41.076  19.760  26.210  1.00  0.00     0.042 C 
BRANCH  30  31
ATOM     31  C   UNL A   1      41.823  21.008  26.645  1.00  0.00     0.118 C 
BRANCH  31  32
ATOM     32  N   UNL A   1      42.769  21.456  25.622  1.00  0.00    -0.352 N 
ATOM     33  C   UNL A   1      43.129  22.744  25.272  1.00  0.00     0.251 C 
ATOM     34  H   UNL A   1      43.211  20.739  25.112  1.00  0.00     0.163 HD
ATOM     35  O   UNL A   1      43.671  22.968  24.208  1.00  0.00    -0.269 OA
BRANCH  33  36
ATOM     36  C   UNL A   1      42.826  23.835  26.216  1.00  0.00     0.039 A 
ATOM     37  C   UNL A   1      43.562  23.993  27.394  1.00  0.00     0.014 A 
ATOM     38  C   UNL A   1      41.823  24.734  25.873  1.00  0.00     0.014 A 
ATOM     39  C   UNL A   1      43.337  25.121  28.179  1.00  0.00     0.010 A 
ATOM     40  C   UNL A   1      41.726  25.922  26.548  1.00  0.00     0.010 A 
ATOM     41  C   UNL A   1      42.431  26.095  27.734  1.00  0.00    -0.014 A 
BRANCH  41  42
ATOM     42  C   UNL A   1      42.269  27.359  28.445  1.00  0.00     0.031 A 
ATOM     43  C   UNL A   1      43.352  28.354  28.218  1.00  0.00     0.074 A 
ATOM     44  C   UNL A   1      41.110  27.706  29.044  1.00  0.00     0.049 A 
ATOM     45  N   UNL A   1      44.238  28.768  29.062  1.00  0.00    -0.248 NA
ATOM     46  C   UNL A   1      43.562  28.850  26.847  1.00  0.00     0.031 C 
ATOM     47  C   UNL A   1      39.840  26.966  29.058  1.00  0.00     0.029 A 
ATOM     48  N   UNL A   1      40.776  28.875  29.650  1.00  0.00    -0.354 N 
ATOM     49  C   UNL A   1      44.967  29.751  28.399  1.00  0.00     0.074 A 
ATOM     50  C   UNL A   1      44.650  29.606  27.001  1.00  0.00     0.031 C 
ATOM     51  C   UNL A   1      38.834  27.801  29.398  1.00  0.00     0.029 A 
ATOM     52  C   UNL A   1      39.409  29.066  29.811  1.00  0.00     0.049 A 
ATOM     53  H   UNL A   1      41.447  29.531  29.950  1.00  0.00     0.167 HD
ATOM     54  C   UNL A   1      45.565  30.776  29.074  1.00  0.00     0.031 A 
ATOM     55  C   UNL A   1      38.787  30.197  30.227  1.00  0.00     0.031 A 
ATOM     56  C   UNL A   1      45.576  30.534  30.496  1.00  0.00     0.049 A 
ATOM     57  C   UNL A   1      39.803  31.006  30.942  1.00  0.00     0.074 A 
ATOM     58  C   UNL A   1      46.094  29.555  31.320  1.00  0.00     0.029 A 
ATOM     59  N   UNL A   1      44.621  31.190  31.238  1.00  0.00    -0.354 N 
ATOM     60  N   UNL A   1      40.367  30.625  32.054  1.00  0.00    -0.248 NA
ATOM     61  C   UNL A   1      40.527  32.023  30.195  1.00  0.00     0.031 C 
ATOM     62  C   UNL A   1      45.106  29.368  32.332  1.00  0.00     0.029 A 
ATOM     63  C   UNL A   1      44.077  30.287  32.114  1.00  0.00     0.049 A 
ATOM     64  H   UNL A   1      44.372  32.139  31.155  1.00  0.00     0.167 HD
ATOM     65  C   UNL A   1      41.695  31.008  31.930  1.00  0.00     0.074 A 
ATOM     66  C   UNL A   1      41.707  31.963  30.823  1.00  0.00     0.031 C 
ATOM     67  C   UNL A   1      42.693  30.304  32.545  1.00  0.00     0.031 A 
BRANCH  54  68
ATOM     68  C   UNL A   1      45.745  32.172  28.518  1.00  0.00    -0.014 A 
ATOM     69  C   UNL A   1      47.056  32.652  28.310  1.00  0.00     0.010 A 
ATOM     70  C   UNL A   1      44.707  33.124  28.467  1.00  0.00     0.010 A 
ATOM     71  C   UNL A   1      47.320  34.020  28.165  1.00  0.00     0.020 A 
ATOM     72  C   UNL A   1      44.953  34.486  28.278  1.00  0.00     0.020 A 
ATOM     73  C   UNL A   1      46.264  34.930  28.171  1.00  0.00     0.054 A 
BRANCH  73  74
ATOM     74  S   UNL A   1      46.619  36.703  28.122  1.00  0.00     0.124 S 
ATOM     75  O   UNL A   1      45.467  37.257  28.826  1.00  0.00    -0.237 OA
ATOM     76  O   UNL A   1      47.895  36.783  28.827  1.00  0.00    -0.237 OA
ATOM     77  O   UNL A   1      46.683  36.999  26.692  1.00  0.00    -0.744 OA
ENDBRANCH  73  74
ENDBRANCH  54  68
BRANCH  55  78
ATOM     78  C   UNL A   1      37.470  30.728  29.800  1.00  0.00    -0.014 A 
ATOM     79  C   UNL A   1      36.543  31.214  30.740  1.00  0.00     0.010 A 
ATOM     80  C   UNL A   1      37.232  31.012  28.438  1.00  0.00     0.010 A 
ATOM     81  C   UNL A   1      35.454  32.007  30.338  1.00  0.00     0.020 A 
ATOM     82  C   UNL A   1      36.147  31.796  28.030  1.00  0.00     0.020 A 
ATOM     83  C   UNL A   1      35.275  32.311  28.985  1.00  0.00     0.054 A 
BRANCH  83  84
ATOM     84  S   UNL A   1      33.974  33.482  28.494  1.00  0.00     0.124 S 
ATOM     85  O   UNL A   1      33.600  34.086  29.769  1.00  0.00    -0.237 OA
ATOM     86  O   UNL A   1      34.673  34.360  27.558  1.00  0.00    -0.237 OA
ATOM     87  O   UNL A   1      32.951  32.630  27.890  1.00  0.00    -0.744 OA
ENDBRANCH  83  84
ENDBRANCH  55  78
BRANCH  67  88
ATOM     88  C   UNL A   1      42.313  29.290  33.602  1.00  0.00    -0.014 A 
ATOM     89  C   UNL A   1      42.015  27.941  33.323  1.00  0.00     0.010 A 
ATOM     90  C   UNL A   1      42.416  29.688  34.945  1.00  0.00     0.010 A 
ATOM     91  C   UNL A   1      41.804  27.023  34.365  1.00  0.00     0.020 A 
ATOM     92  C   UNL A   1      42.226  28.776  35.986  1.00  0.00     0.020 A 
ATOM     93  C   UNL A   1      41.911  27.448  35.692  1.00  0.00     0.054 A 
BRANCH  93  94
ATOM     94  S   UNL A   1      41.684  26.251  37.037  1.00  0.00     0.124 S 
ATOM     95  O   UNL A   1      40.428  26.685  37.642  1.00  0.00    -0.237 OA
ATOM     96  O   UNL A   1      41.634  24.972  36.331  1.00  0.00    -0.237 OA
ATOM     97  O   UNL A   1      42.869  26.439  37.875  1.00  0.00    -0.744 OA
ENDBRANCH  93  94
ENDBRANCH  67  88
ENDBRANCH  41  42
ENDBRANCH  33  36
ENDBRANCH  31  32
ENDBRANCH  30  31
ENDBRANCH   1  30
TORSDOF 19
ENDMDL
MODEL 3
REMARK VINA RESULT:     -10.4      1.885      2.587
REMARK SMILES COc1ccc(CCNc2ncnc3sc(C(=O)NCCCNC(=O)c4ccc(-c5c6nc(c(-c7ccc(S(=O)(=O)[O-])cc7)c7ccc([nH]7)c(-c7ccc(S(=O)(=O)[O-])cc7)c7nc(c(-c8ccc(S(=O)(=O)[O-])cc8)c8ccc5[nH]8)C=C7)C=C6)cc4)c(C)c23)cc1OC
REMARK SMILES IDX 20 1 19 2 17 3 18 4 16 6 10 7 11 8 88 9 12 10 14 11 86 12
REMARK SMILES IDX 13 13 15 14 87 15 9 16 8 18 7 19 6 20 3 21 4 22 90 23 5 24
REMARK SMILES IDX 89 25 2 26 1 27 91 28 92 29 21 30 22 31 23 32 24 33 25 35
REMARK SMILES IDX 26 36 27 37 85 38 28 39 84 40 29 41 30 42 31 43 78 44 32 45
REMARK SMILES IDX 83 46 77 47 79 48 33 49 82 50 76 51 75 52 34 54 64 55 45 56
REMARK SMILES IDX 63 57 46 58 49 59 62 60 80 61 47 62 48 63 61 65 81 66 50 67
REMARK SMILES IDX 35 68 36 69 44 70 37 71 43 72 38 73 39 74 40 75 41 76 42 77
REMARK SMILES IDX 65 78 66 79 74 80 67 81 73 82 68 83 69 84 70 85 71 86 72 87
REMARK SMILES IDX 51 88 52 89 60 90 53 91 59 92 54 93 55 94 56 95 57 96 58 97
REMARK H PARENT 19 5 9 17 23 34 79 53 49 64
REMARK Flexibility Score: inf
ROOT
ATOM      1  C   UNL A   1      39.755  21.193  26.138  1.00  0.00     0.118 C 
ENDROOT
BRANCH   1   2
ATOM      2  N   UNL A   1      39.177  22.509  26.324  1.00  0.00    -0.351 N 
ATOM      3  C   UNL A   1      37.933  23.022  26.059  1.00  0.00     0.261 C 
ATOM      4  O   UNL A   1      37.828  24.226  26.308  1.00  0.00    -0.268 OA
ATOM      5  H   UNL A   1      39.800  23.162  26.717  1.00  0.00     0.163 HD
BRANCH   3   6
ATOM      6  C   UNL A   1      36.801  22.213  25.596  1.00  0.00     0.098 A 
ATOM      7  C   UNL A   1      33.173  21.429  24.954  1.00  0.00     0.138 A 
ATOM      8  N   UNL A   1      32.635  20.202  24.782  1.00  0.00    -0.219 NA
ATOM      9  C   UNL A   1      34.578  21.541  25.101  1.00  0.00     0.057 A 
ATOM     10  C   UNL A   1      33.457  19.151  24.649  1.00  0.00     0.225 A 
ATOM     11  C   UNL A   1      35.289  20.370  24.931  1.00  0.00     0.129 A 
ATOM     12  C   UNL A   1      35.475  22.634  25.467  1.00  0.00    -0.014 A 
ATOM     13  N   UNL A   1      34.791  19.148  24.682  1.00  0.00    -0.225 NA
ATOM     14  S   UNL A   1      36.957  20.605  25.035  1.00  0.00    -0.110 S 
ATOM     15  C   UNL A   1      34.993  24.016  25.762  1.00  0.00     0.047 C 
BRANCH   7  16
ATOM     16  N   UNL A   1      32.352  22.529  24.972  1.00  0.00    -0.369 N 
ATOM     17  H   UNL A   1      32.689  23.366  24.578  1.00  0.00     0.162 HD
BRANCH  16  18
ATOM     18  C   UNL A   1      31.015  22.530  25.533  1.00  0.00     0.119 C 
BRANCH  18  19
ATOM     19  C   UNL A   1      30.851  23.694  26.536  1.00  0.00     0.057 C 
BRANCH  19  20
ATOM     20  C   UNL A   1      31.037  25.089  25.970  1.00  0.00    -0.042 A 
ATOM     21  C   UNL A   1      31.362  27.705  24.945  1.00  0.00     0.160 A 
ATOM     22  C   UNL A   1      32.121  27.274  26.029  1.00  0.00     0.051 A 
ATOM     23  C   UNL A   1      30.433  26.835  24.359  1.00  0.00     0.160 A 
ATOM     24  C   UNL A   1      31.937  25.992  26.537  1.00  0.00     0.008 A 
ATOM     25  C   UNL A   1      30.281  25.535  24.880  1.00  0.00     0.054 A 
BRANCH  21  26
ATOM     26  O   UNL A   1      31.619  28.942  24.419  1.00  0.00    -0.493 OA
ATOM     27  C   UNL A   1      31.628  29.969  25.414  1.00  0.00     0.278 C 
ENDBRANCH  21  26
BRANCH  23  28
ATOM     28  O   UNL A   1      29.610  27.082  23.291  1.00  0.00    -0.493 OA
ATOM     29  C   UNL A   1      28.251  27.386  23.569  1.00  0.00     0.278 C 
ENDBRANCH  23  28
ENDBRANCH  19  20
ENDBRANCH  18  19
ENDBRANCH  16  18
ENDBRANCH   7  16
ENDBRANCH   3   6
ENDBRANCH   1   2
BRANCH   1  30
ATOM     30  C   UNL A   1      41.281  21.268  26.018  1.00  0.00     0.042 C 
BRANCH  30  31
ATOM     31  C   UNL A   1      41.936  19.928  26.301  1.00  0.00     0.118 C 
BRANCH  31  32
ATOM     32  N   UNL A   1      43.050  19.668  25.389  1.00  0.00    -0.352 N 
ATOM     33  C   UNL A   1      43.898  20.568  24.770  1.00  0.00     0.251 C 
ATOM     34  H   UNL A   1      43.219  18.719  25.188  1.00  0.00     0.163 HD
ATOM     35  O   UNL A   1      44.557  20.234  23.805  1.00  0.00    -0.269 OA
BRANCH  33  36
ATOM     36  C   UNL A   1      43.970  21.940  25.302  1.00  0.00     0.039 A 
ATOM     37  C   UNL A   1      43.369  23.006  24.628  1.00  0.00     0.014 A 
ATOM     38  C   UNL A   1      44.606  22.133  26.524  1.00  0.00     0.014 A 
ATOM     39  C   UNL A   1      43.337  24.256  25.243  1.00  0.00     0.010 A 
ATOM     40  C   UNL A   1      44.421  23.310  27.199  1.00  0.00     0.010 A 
ATOM     41  C   UNL A   1      43.846  24.393  26.542  1.00  0.00    -0.014 A 
BRANCH  41  42
ATOM     42  C   UNL A   1      43.705  25.642  27.283  1.00  0.00     0.031 A 
ATOM     43  C   UNL A   1      44.725  26.680  26.974  1.00  0.00     0.074 A 
ATOM     44  C   UNL A   1      42.592  25.938  27.990  1.00  0.00     0.049 A 
ATOM     45  N   UNL A   1      45.669  27.117  27.740  1.00  0.00    -0.248 NA
ATOM     46  C   UNL A   1      44.791  27.199  25.597  1.00  0.00     0.031 C 
ATOM     47  C   UNL A   1      41.357  25.151  28.109  1.00  0.00     0.029 A 
ATOM     48  N   UNL A   1      42.273  27.087  28.641  1.00  0.00    -0.354 N 
ATOM     49  C   UNL A   1      46.298  28.134  27.028  1.00  0.00     0.074 A 
ATOM     50  C   UNL A   1      45.860  27.994  25.663  1.00  0.00     0.031 C 
ATOM     51  C   UNL A   1      40.357  25.944  28.551  1.00  0.00     0.029 A 
ATOM     52  C   UNL A   1      40.920  27.225  28.929  1.00  0.00     0.049 A 
ATOM     53  H   UNL A   1      42.944  27.765  28.889  1.00  0.00     0.167 HD
ATOM     54  C   UNL A   1      46.918  29.173  27.662  1.00  0.00     0.031 A 
ATOM     55  C   UNL A   1      40.299  28.326  29.416  1.00  0.00     0.031 A 
ATOM     56  C   UNL A   1      47.067  28.915  29.073  1.00  0.00     0.049 A 
ATOM     57  C   UNL A   1      41.345  29.165  30.048  1.00  0.00     0.074 A 
ATOM     58  C   UNL A   1      47.694  27.948  29.831  1.00  0.00     0.029 A 
ATOM     59  N   UNL A   1      46.160  29.526  29.908  1.00  0.00    -0.354 N 
ATOM     60  N   UNL A   1      42.022  28.793  31.099  1.00  0.00    -0.248 NA
ATOM     61  C   UNL A   1      41.961  30.216  29.253  1.00  0.00     0.031 C 
ATOM     62  C   UNL A   1      46.809  27.711  30.926  1.00  0.00     0.029 A 
ATOM     63  C   UNL A   1      45.732  28.594  30.816  1.00  0.00     0.049 A 
ATOM     64  H   UNL A   1      45.870  30.466  29.862  1.00  0.00     0.167 HD
ATOM     65  C   UNL A   1      43.318  29.226  30.860  1.00  0.00     0.074 A 
ATOM     66  C   UNL A   1      43.194  30.194  29.771  1.00  0.00     0.031 C 
ATOM     67  C   UNL A   1      44.393  28.554  31.371  1.00  0.00     0.031 A 
BRANCH  54  68
ATOM     68  C   UNL A   1      46.994  30.581  27.112  1.00  0.00    -0.014 A 
ATOM     69  C   UNL A   1      48.120  31.370  27.433  1.00  0.00     0.010 A 
ATOM     70  C   UNL A   1      45.892  31.252  26.546  1.00  0.00     0.010 A 
ATOM     71  C   UNL A   1      48.100  32.764  27.293  1.00  0.00     0.020 A 
ATOM     72  C   UNL A   1      45.877  32.636  26.359  1.00  0.00     0.020 A 
ATOM     73  C   UNL A   1      46.967  33.388  26.775  1.00  0.00     0.054 A 
BRANCH  73  74
ATOM     74  S   UNL A   1      46.893  35.195  26.724  1.00  0.00     0.124 S 
ATOM     75  O   UNL A   1      46.489  35.515  28.089  1.00  0.00    -0.237 OA
ATOM     76  O   UNL A   1      48.264  35.551  26.367  1.00  0.00    -0.237 OA
ATOM     77  O   UNL A   1      45.895  35.467  25.692  1.00  0.00    -0.744 OA
ENDBRANCH  73  74
ENDBRANCH  54  68
BRANCH  55  78
ATOM     78  C   UNL A   1      38.930  28.813  29.119  1.00  0.00    -0.014 A 
ATOM     79  C   UNL A   1      37.994  29.025  30.147  1.00  0.00     0.010 A 
ATOM     80  C   UNL A   1      38.628  29.331  27.841  1.00  0.00     0.010 A 
ATOM     81  C   UNL A   1      36.831  29.783  29.921  1.00  0.00     0.020 A 
ATOM     82  C   UNL A   1      37.469  30.081  27.607  1.00  0.00     0.020 A 
ATOM     83  C   UNL A   1      36.587  30.324  28.656  1.00  0.00     0.054 A 
BRANCH  83  84
ATOM     84  S   UNL A   1      35.179  31.450  28.419  1.00  0.00     0.124 S 
ATOM     85  O   UNL A   1      35.750  32.489  27.567  1.00  0.00    -0.237 OA
ATOM     86  O   UNL A   1      34.185  30.587  27.784  1.00  0.00    -0.237 OA
ATOM     87  O   UNL A   1      34.844  31.878  29.777  1.00  0.00    -0.744 OA
ENDBRANCH  83  84
ENDBRANCH  55  78
BRANCH  67  88
ATOM     88  C   UNL A   1      44.149  27.514  32.443  1.00  0.00    -0.014 A 
ATOM     89  C   UNL A   1      44.102  26.127  32.195  1.00  0.00     0.010 A 
ATOM     90  C   UNL A   1      44.121  27.955  33.776  1.00  0.00     0.010 A 
ATOM     91  C   UNL A   1      44.008  25.211  33.255  1.00  0.00     0.020 A 
ATOM     92  C   UNL A   1      44.045  27.049  34.837  1.00  0.00     0.020 A 
ATOM     93  C   UNL A   1      43.980  25.680  34.571  1.00  0.00     0.054 A 
BRANCH  93  94
ATOM     94  S   UNL A   1      43.904  24.494  35.943  1.00  0.00     0.124 S 
ATOM     95  O   UNL A   1      42.596  23.872  35.755  1.00  0.00    -0.237 OA
ATOM     96  O   UNL A   1      45.055  23.629  35.690  1.00  0.00    -0.237 OA
ATOM     97  O   UNL A   1      44.023  25.332  37.136  1.00  0.00    -0.744 OA
ENDBRANCH  93  94
ENDBRANCH  67  88
ENDBRANCH  41  42
ENDBRANCH  33  36
ENDBRANCH  31  32
ENDBRANCH  30  31
ENDBRANCH   1  30
TORSDOF 19
ENDMDL
