MODEL 1
REMARK VINA RESULT:     -11.9      0.000      0.000
REMARK SMILES CC[C@H]1Sc2ccc(S(=O)(=O)N3CCC(C(=O)NCCCNC(=O)c4ccc(-c5c6nc(c(-c7ccc(S(=O)(=O)[O-])cc7)c7ccc([nH]7)c(-c7ccc(S(=O)(=O)[O-])cc7)c7nc(c(-c8ccc(S(=O)(=O)[O-])cc8)c8ccc5[nH]8)C=C7)C=C6)cc4)CC3)cc2NC1=O
REMARK SMILES IDX 20 1 19 2 18 3 16 4 17 5 15 7 12 8 13 9 86 10 14 11 85 12
REMARK SMILES IDX 9 13 10 14 11 15 8 16 3 17 4 18 90 19 5 20 89 21 91 22 6 23
REMARK SMILES IDX 88 24 7 26 87 27 2 28 1 29 21 30 22 31 23 32 24 34 25 35
REMARK SMILES IDX 26 36 84 37 27 38 83 39 28 40 29 41 30 42 77 43 31 44 82 45
REMARK SMILES IDX 76 46 78 47 32 48 81 49 75 50 74 51 33 53 63 54 44 55 62 56
REMARK SMILES IDX 45 57 48 58 61 59 79 60 46 61 47 62 60 64 80 65 49 66 34 67
REMARK SMILES IDX 35 68 43 69 36 70 42 71 37 72 38 73 39 74 40 75 41 76 64 77
REMARK SMILES IDX 65 78 73 79 66 80 72 81 67 82 68 83 69 84 70 85 71 86 50 87
REMARK SMILES IDX 51 88 59 89 52 90 58 91 53 92 54 93 55 94 56 95 57 96
REMARK H PARENT 18 6 89 25 22 33 78 52 48 63
REMARK Flexibility Score: inf
ROOT
ATOM      1  C   UNL A   1      35.235  32.518  28.001  1.00  0.00     0.042 C 
ENDROOT
BRANCH   1   2
ATOM      2  C   UNL A   1      34.900  31.142  27.454  1.00  0.00     0.117 C 
BRANCH   2   3
ATOM      3  N   UNL A   1      33.543  30.729  27.793  1.00  0.00    -0.356 N 
ATOM      4  C   UNL A   1      32.656  29.948  27.116  1.00  0.00     0.223 C 
ATOM      5  O   UNL A   1      31.548  29.743  27.612  1.00  0.00    -0.275 OA
ATOM      6  H   UNL A   1      33.214  31.072  28.655  1.00  0.00     0.163 HD
BRANCH   4   7
ATOM      7  C   UNL A   1      33.035  29.317  25.787  1.00  0.00     0.081 C 
ATOM      8  N   UNL A   1      32.624  27.269  23.773  1.00  0.00    -0.198 NA
ATOM      9  C   UNL A   1      33.757  27.127  24.717  1.00  0.00     0.103 C 
ATOM     10  C   UNL A   1      31.952  28.573  23.586  1.00  0.00     0.103 C 
ATOM     11  C   UNL A   1      33.574  27.908  25.995  1.00  0.00     0.030 C 
ATOM     12  C   UNL A   1      31.869  29.444  24.815  1.00  0.00     0.030 C 
BRANCH   8  13
ATOM     13  S   UNL A   1      32.787  26.368  22.317  1.00  0.00     0.243 S 
ATOM     14  O   UNL A   1      34.019  26.789  21.681  1.00  0.00    -0.207 OA
ATOM     15  O   UNL A   1      31.520  26.388  21.626  1.00  0.00    -0.207 OA
BRANCH  13  16
ATOM     16  C   UNL A   1      33.053  24.674  22.824  1.00  0.00     0.084 A 
ATOM     17  C   UNL A   1      35.091  20.872  25.532  1.00  0.00     0.141 C 
ATOM     18  S   UNL A   1      33.574  20.491  24.586  1.00  0.00    -0.111 SA
ATOM     19  C   UNL A   1      36.165  21.458  24.621  1.00  0.00     0.237 C 
ATOM     20  C   UNL A   1      33.377  22.084  23.817  1.00  0.00     0.032 A 
ATOM     21  N   UNL A   1      35.809  22.445  23.745  1.00  0.00    -0.324 N 
ATOM     22  O   UNL A   1      37.356  21.164  24.742  1.00  0.00    -0.273 OA
ATOM     23  C   UNL A   1      32.094  22.600  23.607  1.00  0.00     0.018 A 
ATOM     24  C   UNL A   1      34.496  22.857  23.487  1.00  0.00     0.056 A 
ATOM     25  H   UNL A   1      36.532  22.901  23.257  1.00  0.00     0.170 HD
ATOM     26  C   UNL A   1      31.929  23.905  23.134  1.00  0.00     0.023 A 
ATOM     27  C   UNL A   1      34.330  24.125  22.949  1.00  0.00     0.049 A 
BRANCH  17  28
ATOM     28  C   UNL A   1      34.907  21.733  26.805  1.00  0.00     0.021 C 
ATOM     29  C   UNL A   1      33.541  21.784  27.487  1.00  0.00     0.005 C 
ENDBRANCH  17  28
ENDBRANCH  13  16
ENDBRANCH   8  13
ENDBRANCH   4   7
ENDBRANCH   2   3
ENDBRANCH   1   2
BRANCH   1  30
ATOM     30  C   UNL A   1      36.387  32.496  28.988  1.00  0.00     0.118 C 
BRANCH  30  31
ATOM     31  N   UNL A   1      36.031  31.822  30.229  1.00  0.00    -0.352 N 
ATOM     32  C   UNL A   1      36.590  30.714  30.816  1.00  0.00     0.251 C 
ATOM     33  H   UNL A   1      35.277  32.220  30.720  1.00  0.00     0.163 HD
ATOM     34  O   UNL A   1      36.003  30.153  31.735  1.00  0.00    -0.269 OA
BRANCH  32  35
ATOM     35  C   UNL A   1      37.884  30.199  30.325  1.00  0.00     0.039 A 
ATOM     36  C   UNL A   1      38.077  30.041  28.951  1.00  0.00     0.014 A 
ATOM     37  C   UNL A   1      38.907  29.877  31.219  1.00  0.00     0.014 A 
ATOM     38  C   UNL A   1      39.321  29.623  28.475  1.00  0.00     0.010 A 
ATOM     39  C   UNL A   1      40.173  29.569  30.740  1.00  0.00     0.010 A 
ATOM     40  C   UNL A   1      40.391  29.423  29.363  1.00  0.00    -0.014 A 
BRANCH  40  41
ATOM     41  C   UNL A   1      41.741  29.041  28.880  1.00  0.00     0.031 A 
ATOM     42  C   UNL A   1      42.826  30.081  28.787  1.00  0.00     0.074 A 
ATOM     43  C   UNL A   1      41.975  27.776  28.477  1.00  0.00     0.049 A 
ATOM     44  N   UNL A   1      44.046  29.962  28.329  1.00  0.00    -0.248 NA
ATOM     45  C   UNL A   1      42.490  31.442  29.244  1.00  0.00     0.031 C 
ATOM     46  C   UNL A   1      40.995  26.685  28.488  1.00  0.00     0.029 A 
ATOM     47  N   UNL A   1      43.111  27.192  27.979  1.00  0.00    -0.354 N 
ATOM     48  C   UNL A   1      44.616  31.224  28.441  1.00  0.00     0.074 A 
ATOM     49  C   UNL A   1      43.591  32.112  28.940  1.00  0.00     0.031 C 
ATOM     50  C   UNL A   1      41.585  25.559  28.056  1.00  0.00     0.029 A 
ATOM     51  C   UNL A   1      42.966  25.855  27.689  1.00  0.00     0.049 A 
ATOM     52  H   UNL A   1      43.953  27.685  27.841  1.00  0.00     0.167 HD
ATOM     53  C   UNL A   1      45.889  31.606  28.182  1.00  0.00     0.031 A 
ATOM     54  C   UNL A   1      43.843  24.970  27.178  1.00  0.00     0.031 A 
ATOM     55  C   UNL A   1      46.909  30.720  27.690  1.00  0.00     0.049 A 
ATOM     56  C   UNL A   1      45.239  25.435  26.851  1.00  0.00     0.074 A 
ATOM     57  C   UNL A   1      48.236  31.002  27.418  1.00  0.00     0.029 A 
ATOM     58  N   UNL A   1      46.717  29.377  27.399  1.00  0.00    -0.354 N 
ATOM     59  N   UNL A   1      45.771  26.623  27.009  1.00  0.00    -0.248 NA
ATOM     60  C   UNL A   1      46.153  24.433  26.284  1.00  0.00     0.031 C 
ATOM     61  C   UNL A   1      48.834  29.842  26.914  1.00  0.00     0.029 A 
ATOM     62  C   UNL A   1      47.897  28.822  26.934  1.00  0.00     0.049 A 
ATOM     63  H   UNL A   1      45.868  28.892  27.508  1.00  0.00     0.167 HD
ATOM     64  C   UNL A   1      47.095  26.500  26.598  1.00  0.00     0.074 A 
ATOM     65  C   UNL A   1      47.283  25.119  26.200  1.00  0.00     0.031 C 
ATOM     66  C   UNL A   1      48.068  27.443  26.554  1.00  0.00     0.031 A 
BRANCH  53  67
ATOM     67  C   UNL A   1      46.251  33.045  28.441  1.00  0.00    -0.014 A 
ATOM     68  C   UNL A   1      46.675  33.464  29.717  1.00  0.00     0.010 A 
ATOM     69  C   UNL A   1      46.219  33.982  27.392  1.00  0.00     0.010 A 
ATOM     70  C   UNL A   1      47.024  34.797  29.947  1.00  0.00     0.020 A 
ATOM     71  C   UNL A   1      46.597  35.310  27.610  1.00  0.00     0.020 A 
ATOM     72  C   UNL A   1      46.984  35.711  28.891  1.00  0.00     0.054 A 
BRANCH  72  73
ATOM     73  S   UNL A   1      47.479  37.426  29.213  1.00  0.00     0.124 S 
ATOM     74  O   UNL A   1      48.767  37.248  29.878  1.00  0.00    -0.237 OA
ATOM     75  O   UNL A   1      47.539  37.997  27.869  1.00  0.00    -0.237 OA
ATOM     76  O   UNL A   1      46.408  37.944  30.060  1.00  0.00    -0.744 OA
ENDBRANCH  72  73
ENDBRANCH  53  67
BRANCH  54  77
ATOM     77  C   UNL A   1      43.440  23.554  26.948  1.00  0.00    -0.014 A 
ATOM     78  C   UNL A   1      43.123  23.105  25.653  1.00  0.00     0.010 A 
ATOM     79  C   UNL A   1      43.344  22.654  28.024  1.00  0.00     0.010 A 
ATOM     80  C   UNL A   1      42.675  21.797  25.445  1.00  0.00     0.020 A 
ATOM     81  C   UNL A   1      42.931  21.334  27.816  1.00  0.00     0.020 A 
ATOM     82  C   UNL A   1      42.579  20.921  26.530  1.00  0.00     0.054 A 
BRANCH  82  83
ATOM     83  S   UNL A   1      42.003  19.226  26.235  1.00  0.00     0.124 S 
ATOM     84  O   UNL A   1      42.221  18.602  27.536  1.00  0.00    -0.237 OA
ATOM     85  O   UNL A   1      40.609  19.430  25.854  1.00  0.00    -0.237 OA
ATOM     86  O   UNL A   1      42.874  18.753  25.160  1.00  0.00    -0.744 OA
ENDBRANCH  82  83
ENDBRANCH  54  77
BRANCH  66  87
ATOM     87  C   UNL A   1      49.438  27.006  26.106  1.00  0.00    -0.014 A 
ATOM     88  C   UNL A   1      50.358  26.440  27.005  1.00  0.00     0.010 A 
ATOM     89  C   UNL A   1      49.787  27.117  24.746  1.00  0.00     0.010 A 
ATOM     90  C   UNL A   1      51.616  26.025  26.560  1.00  0.00     0.020 A 
ATOM     91  C   UNL A   1      51.031  26.673  24.292  1.00  0.00     0.020 A 
ATOM     92  C   UNL A   1      51.943  26.143  25.205  1.00  0.00     0.054 A 
BRANCH  92  93
ATOM     93  S   UNL A   1      53.565  25.553  24.647  1.00  0.00     0.124 S 
ATOM     94  O   UNL A   1      53.454  25.684  23.197  1.00  0.00    -0.237 OA
ATOM     95  O   UNL A   1      54.483  26.486  25.294  1.00  0.00    -0.237 OA
ATOM     96  O   UNL A   1      53.626  24.181  25.146  1.00  0.00    -0.744 OA
ENDBRANCH  92  93
ENDBRANCH  66  87
ENDBRANCH  40  41
ENDBRANCH  32  35
ENDBRANCH  30  31
ENDBRANCH   1  30
TORSDOF 16
ENDMDL
MODEL 2
REMARK VINA RESULT:     -11.7      3.457      4.518
REMARK SMILES CC[C@H]1Sc2ccc(S(=O)(=O)N3CCC(C(=O)NCCCNC(=O)c4ccc(-c5c6nc(c(-c7ccc(S(=O)(=O)[O-])cc7)c7ccc([nH]7)c(-c7ccc(S(=O)(=O)[O-])cc7)c7nc(c(-c8ccc(S(=O)(=O)[O-])cc8)c8ccc5[nH]8)C=C7)C=C6)cc4)CC3)cc2NC1=O
REMARK SMILES IDX 20 1 19 2 18 3 16 4 17 5 15 7 12 8 13 9 86 10 14 11 85 12
REMARK SMILES IDX 9 13 10 14 11 15 8 16 3 17 4 18 90 19 5 20 89 21 91 22 6 23
REMARK SMILES IDX 88 24 7 26 87 27 2 28 1 29 21 30 22 31 23 32 24 34 25 35
REMARK SMILES IDX 26 36 84 37 27 38 83 39 28 40 29 41 30 42 77 43 31 44 82 45
REMARK SMILES IDX 76 46 78 47 32 48 81 49 75 50 74 51 33 53 63 54 44 55 62 56
REMARK SMILES IDX 45 57 48 58 61 59 79 60 46 61 47 62 60 64 80 65 49 66 34 67
REMARK SMILES IDX 35 68 43 69 36 70 42 71 37 72 38 73 39 74 40 75 41 76 64 77
REMARK SMILES IDX 65 78 73 79 66 80 72 81 67 82 68 83 69 84 70 85 71 86 50 87
REMARK SMILES IDX 51 88 59 89 52 90 58 91 53 92 54 93 55 94 56 95 57 96
REMARK H PARENT 18 6 89 25 22 33 78 52 48 63
REMARK Flexibility Score: inf
ROOT
ATOM      1  C   UNL A   1      33.083  28.206  25.821  1.00  0.00     0.042 C 
ENDROOT
BRANCH   1   2
ATOM      2  C   UNL A   1      31.593  28.420  25.618  1.00  0.00     0.117 C 
BRANCH   2   3
ATOM      3  N   UNL A   1      31.203  28.286  24.218  1.00  0.00    -0.356 N 
ATOM      4  C   UNL A   1      31.168  27.194  23.406  1.00  0.00     0.223 C 
ATOM      5  O   UNL A   1      30.802  27.335  22.238  1.00  0.00    -0.275 OA
ATOM      6  H   UNL A   1      30.918  29.125  23.790  1.00  0.00     0.163 HD
BRANCH   4   7
ATOM      7  C   UNL A   1      31.544  25.820  23.936  1.00  0.00     0.081 C 
ATOM      8  N   UNL A   1      32.861  24.172  25.928  1.00  0.00    -0.198 NA
ATOM      9  C   UNL A   1      33.526  24.385  24.622  1.00  0.00     0.103 C 
ATOM     10  C   UNL A   1      31.418  24.448  26.097  1.00  0.00     0.103 C 
ATOM     11  C   UNL A   1      33.053  25.624  23.903  1.00  0.00     0.030 C 
ATOM     12  C   UNL A   1      30.876  25.599  25.288  1.00  0.00     0.030 C 
BRANCH   8  13
ATOM     13  S   UNL A   1      33.398  22.783  26.788  1.00  0.00     0.243 S 
ATOM     14  O   UNL A   1      32.410  22.494  27.807  1.00  0.00    -0.207 OA
ATOM     15  O   UNL A   1      34.797  22.955  27.101  1.00  0.00    -0.207 OA
BRANCH  13  16
ATOM     16  C   UNL A   1      33.309  21.429  25.624  1.00  0.00     0.084 A 
ATOM     17  C   UNL A   1      33.279  16.569  24.101  1.00  0.00     0.141 C 
ATOM     18  S   UNL A   1      32.669  17.812  22.907  1.00  0.00    -0.111 SA
ATOM     19  C   UNL A   1      34.681  16.925  24.584  1.00  0.00     0.237 C 
ATOM     20  C   UNL A   1      32.975  19.256  23.903  1.00  0.00     0.032 A 
ATOM     21  N   UNL A   1      34.932  18.213  24.965  1.00  0.00    -0.324 N 
ATOM     22  O   UNL A   1      35.548  16.066  24.764  1.00  0.00    -0.273 OA
ATOM     23  C   UNL A   1      32.088  20.337  23.849  1.00  0.00     0.018 A 
ATOM     24  C   UNL A   1      34.053  19.289  24.794  1.00  0.00     0.056 A 
ATOM     25  H   UNL A   1      35.798  18.399  25.394  1.00  0.00     0.170 HD
ATOM     26  C   UNL A   1      32.239  21.414  24.727  1.00  0.00     0.023 A 
ATOM     27  C   UNL A   1      34.243  20.392  25.613  1.00  0.00     0.049 A 
BRANCH  17  28
ATOM     28  C   UNL A   1      32.343  16.244  25.290  1.00  0.00     0.021 C 
ATOM     29  C   UNL A   1      32.262  14.811  25.812  1.00  0.00     0.005 C 
ENDBRANCH  17  28
ENDBRANCH  13  16
ENDBRANCH   8  13
ENDBRANCH   4   7
ENDBRANCH   2   3
ENDBRANCH   1   2
BRANCH   1  30
ATOM     30  C   UNL A   1      33.535  28.522  27.234  1.00  0.00     0.118 C 
BRANCH  30  31
ATOM     31  N   UNL A   1      33.515  29.952  27.509  1.00  0.00    -0.352 N 
ATOM     32  C   UNL A   1      34.448  30.736  28.139  1.00  0.00     0.251 C 
ATOM     33  H   UNL A   1      32.712  30.427  27.194  1.00  0.00     0.163 HD
ATOM     34  O   UNL A   1      34.149  31.873  28.489  1.00  0.00    -0.269 OA
BRANCH  32  35
ATOM     35  C   UNL A   1      35.797  30.198  28.407  1.00  0.00     0.039 A 
ATOM     36  C   UNL A   1      36.766  30.260  27.404  1.00  0.00     0.014 A 
ATOM     37  C   UNL A   1      36.106  29.637  29.648  1.00  0.00     0.014 A 
ATOM     38  C   UNL A   1      38.064  29.819  27.674  1.00  0.00     0.010 A 
ATOM     39  C   UNL A   1      37.420  29.302  29.948  1.00  0.00     0.010 A 
ATOM     40  C   UNL A   1      38.410  29.375  28.960  1.00  0.00    -0.014 A 
BRANCH  40  41
ATOM     41  C   UNL A   1      39.796  28.961  29.293  1.00  0.00     0.031 A 
ATOM     42  C   UNL A   1      40.715  29.921  30.001  1.00  0.00     0.074 A 
ATOM     43  C   UNL A   1      40.242  27.747  28.912  1.00  0.00     0.049 A 
ATOM     44  N   UNL A   1      41.976  29.773  30.319  1.00  0.00    -0.248 NA
ATOM     45  C   UNL A   1      40.153  31.229  30.382  1.00  0.00     0.031 C 
ATOM     46  C   UNL A   1      39.457  26.741  28.190  1.00  0.00     0.029 A 
ATOM     47  N   UNL A   1      41.466  27.152  29.078  1.00  0.00    -0.354 N 
ATOM     48  C   UNL A   1      42.354  30.963  30.929  1.00  0.00     0.074 A 
ATOM     49  C   UNL A   1      41.215  31.850  30.874  1.00  0.00     0.031 C 
ATOM     50  C   UNL A   1      40.207  25.642  28.013  1.00  0.00     0.029 A 
ATOM     51  C   UNL A   1      41.539  25.880  28.559  1.00  0.00     0.049 A 
ATOM     52  H   UNL A   1      42.222  27.594  29.528  1.00  0.00     0.167 HD
ATOM     53  C   UNL A   1      43.534  31.280  31.513  1.00  0.00     0.031 A 
ATOM     54  C   UNL A   1      42.564  25.008  28.520  1.00  0.00     0.031 A 
ATOM     55  C   UNL A   1      44.664  30.393  31.571  1.00  0.00     0.049 A 
ATOM     56  C   UNL A   1      43.882  25.407  29.132  1.00  0.00     0.074 A 
ATOM     57  C   UNL A   1      45.897  30.609  32.161  1.00  0.00     0.029 A 
ATOM     58  N   UNL A   1      44.700  29.119  31.023  1.00  0.00    -0.354 N 
ATOM     59  N   UNL A   1      44.204  26.520  29.747  1.00  0.00    -0.248 NA
ATOM     60  C   UNL A   1      44.972  24.425  29.052  1.00  0.00     0.031 C 
ATOM     61  C   UNL A   1      46.696  29.486  31.924  1.00  0.00     0.029 A 
ATOM     62  C   UNL A   1      45.939  28.544  31.246  1.00  0.00     0.049 A 
ATOM     63  H   UNL A   1      43.954  28.689  30.547  1.00  0.00     0.167 HD
ATOM     64  C   UNL A   1      45.522  26.355  30.161  1.00  0.00     0.074 A 
ATOM     65  C   UNL A   1      45.929  25.029  29.740  1.00  0.00     0.031 C 
ATOM     66  C   UNL A   1      46.323  27.220  30.829  1.00  0.00     0.031 A 
BRANCH  53  67
ATOM     67  C   UNL A   1      43.654  32.640  32.148  1.00  0.00    -0.014 A 
ATOM     68  C   UNL A   1      43.353  32.829  33.510  1.00  0.00     0.010 A 
ATOM     69  C   UNL A   1      44.119  33.733  31.395  1.00  0.00     0.010 A 
ATOM     70  C   UNL A   1      43.480  34.090  34.097  1.00  0.00     0.020 A 
ATOM     71  C   UNL A   1      44.278  34.990  31.986  1.00  0.00     0.020 A 
ATOM     72  C   UNL A   1      43.944  35.163  33.331  1.00  0.00     0.054 A 
BRANCH  72  73
ATOM     73  S   UNL A   1      44.134  36.779  34.131  1.00  0.00     0.124 S 
ATOM     74  O   UNL A   1      44.527  36.400  35.486  1.00  0.00    -0.237 OA
ATOM     75  O   UNL A   1      45.179  37.411  33.329  1.00  0.00    -0.237 OA
ATOM     76  O   UNL A   1      42.810  37.384  34.013  1.00  0.00    -0.744 OA
ENDBRANCH  72  73
ENDBRANCH  53  67
BRANCH  54  77
ATOM     77  C   UNL A   1      42.395  23.670  27.888  1.00  0.00    -0.014 A 
ATOM     78  C   UNL A   1      41.914  22.582  28.640  1.00  0.00     0.010 A 
ATOM     79  C   UNL A   1      42.740  23.467  26.539  1.00  0.00     0.010 A 
ATOM     80  C   UNL A   1      41.823  21.310  28.068  1.00  0.00     0.020 A 
ATOM     81  C   UNL A   1      42.616  22.203  25.953  1.00  0.00     0.020 A 
ATOM     82  C   UNL A   1      42.178  21.129  26.728  1.00  0.00     0.054 A 
BRANCH  82  83
ATOM     83  S   UNL A   1      42.045  19.469  26.006  1.00  0.00     0.124 S 
ATOM     84  O   UNL A   1      40.607  19.350  25.786  1.00  0.00    -0.237 OA
ATOM     85  O   UNL A   1      42.864  19.583  24.803  1.00  0.00    -0.237 OA
ATOM     86  O   UNL A   1      42.593  18.600  27.046  1.00  0.00    -0.744 OA
ENDBRANCH  82  83
ENDBRANCH  54  77
BRANCH  66  87
ATOM     87  C   UNL A   1      47.706  26.746  31.193  1.00  0.00    -0.014 A 
ATOM     88  C   UNL A   1      47.950  26.044  32.386  1.00  0.00     0.010 A 
ATOM     89  C   UNL A   1      48.768  26.962  30.295  1.00  0.00     0.010 A 
ATOM     90  C   UNL A   1      49.239  25.598  32.691  1.00  0.00     0.020 A 
ATOM     91  C   UNL A   1      50.050  26.489  30.581  1.00  0.00     0.020 A 
ATOM     92  C   UNL A   1      50.281  25.822  31.784  1.00  0.00     0.054 A 
BRANCH  92  93
ATOM     93  S   UNL A   1      51.933  25.191  32.184  1.00  0.00     0.124 S 
ATOM     94  O   UNL A   1      51.718  23.747  32.177  1.00  0.00    -0.237 OA
ATOM     95  O   UNL A   1      52.746  25.711  31.088  1.00  0.00    -0.237 OA
ATOM     96  O   UNL A   1      52.219  25.773  33.494  1.00  0.00    -0.744 OA
ENDBRANCH  92  93
ENDBRANCH  66  87
ENDBRANCH  40  41
ENDBRANCH  32  35
ENDBRANCH  30  31
ENDBRANCH   1  30
TORSDOF 16
ENDMDL
MODEL 3
REMARK VINA RESULT:     -11.5      4.714     11.191
REMARK SMILES CC[C@H]1Sc2ccc(S(=O)(=O)N3CCC(C(=O)NCCCNC(=O)c4ccc(-c5c6nc(c(-c7ccc(S(=O)(=O)[O-])cc7)c7ccc([nH]7)c(-c7ccc(S(=O)(=O)[O-])cc7)c7nc(c(-c8ccc(S(=O)(=O)[O-])cc8)c8ccc5[nH]8)C=C7)C=C6)cc4)CC3)cc2NC1=O
REMARK SMILES IDX 20 1 19 2 18 3 16 4 17 5 15 7 12 8 13 9 86 10 14 11 85 12
REMARK SMILES IDX 9 13 10 14 11 15 8 16 3 17 4 18 90 19 5 20 89 21 91 22 6 23
REMARK SMILES IDX 88 24 7 26 87 27 2 28 1 29 21 30 22 31 23 32 24 34 25 35
REMARK SMILES IDX 26 36 84 37 27 38 83 39 28 40 29 41 30 42 77 43 31 44 82 45
REMARK SMILES IDX 76 46 78 47 32 48 81 49 75 50 74 51 33 53 63 54 44 55 62 56
REMARK SMILES IDX 45 57 48 58 61 59 79 60 46 61 47 62 60 64 80 65 49 66 34 67
REMARK SMILES IDX 35 68 43 69 36 70 42 71 37 72 38 73 39 74 40 75 41 76 64 77
REMARK SMILES IDX 65 78 73 79 66 80 72 81 67 82 68 83 69 84 70 85 71 86 50 87
REMARK SMILES IDX 51 88 59 89 52 90 58 91 53 92 54 93 55 94 56 95 57 96
REMARK H PARENT 18 6 89 25 22 33 78 52 48 63
REMARK Flexibility Score: inf
ROOT
ATOM      1  C   UNL A   1      34.712  32.581  30.565  1.00  0.00     0.042 C 
ENDROOT
BRANCH   1   2
ATOM      2  C   UNL A   1      35.164  33.891  31.186  1.00  0.00     0.117 C 
BRANCH   2   3
ATOM      3  N   UNL A   1      36.480  34.302  30.708  1.00  0.00    -0.356 N 
ATOM      4  C   UNL A   1      37.708  34.193  31.286  1.00  0.00     0.223 C 
ATOM      5  O   UNL A   1      38.689  34.627  30.680  1.00  0.00    -0.275 OA
ATOM      6  H   UNL A   1      36.480  34.728  29.821  1.00  0.00     0.163 HD
BRANCH   4   7
ATOM      7  C   UNL A   1      37.873  33.523  32.640  1.00  0.00     0.081 C 
ATOM      8  N   UNL A   1      39.332  31.728  34.392  1.00  0.00    -0.198 NA
ATOM      9  C   UNL A   1      38.075  31.254  33.767  1.00  0.00     0.103 C 
ATOM     10  C   UNL A   1      39.649  33.172  34.454  1.00  0.00     0.103 C 
ATOM     11  C   UNL A   1      37.702  32.016  32.518  1.00  0.00     0.030 C 
ATOM     12  C   UNL A   1      39.171  33.994  33.284  1.00  0.00     0.030 C 
BRANCH   8  13
ATOM     13  S   UNL A   1      39.802  30.862  35.801  1.00  0.00     0.243 S 
ATOM     14  O   UNL A   1      38.712  29.975  36.150  1.00  0.00    -0.207 OA
ATOM     15  O   UNL A   1      40.362  31.801  36.745  1.00  0.00    -0.207 OA
BRANCH  13  16
ATOM     16  C   UNL A   1      41.150  29.804  35.291  1.00  0.00     0.084 A 
ATOM     17  C   UNL A   1      44.300  25.808  35.522  1.00  0.00     0.141 C 
ATOM     18  S   UNL A   1      44.245  26.726  33.942  1.00  0.00    -0.111 SA
ATOM     19  C   UNL A   1      44.610  26.748  36.684  1.00  0.00     0.237 C 
ATOM     20  C   UNL A   1      43.100  27.990  34.451  1.00  0.00     0.032 A 
ATOM     21  N   UNL A   1      43.929  27.930  36.765  1.00  0.00    -0.324 N 
ATOM     22  O   UNL A   1      45.352  26.417  37.612  1.00  0.00    -0.273 OA
ATOM     23  C   UNL A   1      42.163  28.486  33.538  1.00  0.00     0.018 A 
ATOM     24  C   UNL A   1      43.080  28.440  35.776  1.00  0.00     0.056 A 
ATOM     25  H   UNL A   1      44.045  28.464  37.583  1.00  0.00     0.170 HD
ATOM     26  C   UNL A   1      41.170  29.374  33.962  1.00  0.00     0.023 A 
ATOM     27  C   UNL A   1      42.140  29.378  36.177  1.00  0.00     0.049 A 
BRANCH  17  28
ATOM     28  C   UNL A   1      43.077  24.913  35.839  1.00  0.00     0.021 C 
ATOM     29  C   UNL A   1      42.718  23.769  34.892  1.00  0.00     0.005 C 
ENDBRANCH  17  28
ENDBRANCH  13  16
ENDBRANCH   8  13
ENDBRANCH   4   7
ENDBRANCH   2   3
ENDBRANCH   1   2
BRANCH   1  30
ATOM     30  C   UNL A   1      34.787  32.590  29.050  1.00  0.00     0.118 C 
BRANCH  30  31
ATOM     31  N   UNL A   1      34.086  31.458  28.460  1.00  0.00    -0.352 N 
ATOM     32  C   UNL A   1      34.584  30.269  27.987  1.00  0.00     0.251 C 
ATOM     33  H   UNL A   1      33.110  31.560  28.391  1.00  0.00     0.163 HD
ATOM     34  O   UNL A   1      33.870  29.539  27.309  1.00  0.00    -0.269 OA
BRANCH  32  35
ATOM     35  C   UNL A   1      35.980  29.890  28.284  1.00  0.00     0.039 A 
ATOM     36  C   UNL A   1      36.955  30.056  27.299  1.00  0.00     0.014 A 
ATOM     37  C   UNL A   1      36.327  29.376  29.536  1.00  0.00     0.014 A 
ATOM     38  C   UNL A   1      38.289  29.768  27.596  1.00  0.00     0.010 A 
ATOM     39  C   UNL A   1      37.664  29.195  29.863  1.00  0.00     0.010 A 
ATOM     40  C   UNL A   1      38.659  29.374  28.893  1.00  0.00    -0.014 A 
BRANCH  40  41
ATOM     41  C   UNL A   1      40.076  29.123  29.254  1.00  0.00     0.031 A 
ATOM     42  C   UNL A   1      40.708  27.794  28.935  1.00  0.00     0.074 A 
ATOM     43  C   UNL A   1      40.776  30.068  29.914  1.00  0.00     0.049 A 
ATOM     44  N   UNL A   1      41.906  27.359  29.227  1.00  0.00    -0.248 NA
ATOM     45  C   UNL A   1      39.876  26.813  28.215  1.00  0.00     0.031 C 
ATOM     46  C   UNL A   1      40.265  31.384  30.309  1.00  0.00     0.029 A 
ATOM     47  N   UNL A   1      42.070  30.068  30.369  1.00  0.00    -0.354 N 
ATOM     48  C   UNL A   1      41.969  26.062  28.731  1.00  0.00     0.074 A 
ATOM     49  C   UNL A   1      40.667  25.752  28.185  1.00  0.00     0.031 C 
ATOM     50  C   UNL A   1      41.246  32.075  30.911  1.00  0.00     0.029 A 
ATOM     51  C   UNL A   1      42.438  31.237  30.992  1.00  0.00     0.049 A 
ATOM     52  H   UNL A   1      42.678  29.301  30.260  1.00  0.00     0.167 HD
ATOM     53  C   UNL A   1      43.024  25.214  28.704  1.00  0.00     0.031 A 
ATOM     54  C   UNL A   1      43.601  31.592  31.570  1.00  0.00     0.031 A 
ATOM     55  C   UNL A   1      44.319  25.527  29.244  1.00  0.00     0.049 A 
ATOM     56  C   UNL A   1      44.743  30.609  31.571  1.00  0.00     0.074 A 
ATOM     57  C   UNL A   1      45.462  24.746  29.244  1.00  0.00     0.029 A 
ATOM     58  N   UNL A   1      44.647  26.717  29.876  1.00  0.00    -0.354 N 
ATOM     59  N   UNL A   1      44.796  29.405  31.054  1.00  0.00    -0.248 NA
ATOM     60  C   UNL A   1      45.986  31.040  32.226  1.00  0.00     0.031 C 
ATOM     61  C   UNL A   1      46.466  25.444  29.923  1.00  0.00     0.029 A 
ATOM     62  C   UNL A   1      45.969  26.686  30.286  1.00  0.00     0.049 A 
ATOM     63  H   UNL A   1      44.030  27.472  30.012  1.00  0.00     0.167 HD
ATOM     64  C   UNL A   1      46.090  28.950  31.287  1.00  0.00     0.074 A 
ATOM     65  C   UNL A   1      46.789  30.016  31.977  1.00  0.00     0.031 C 
ATOM     66  C   UNL A   1      46.650  27.760  30.961  1.00  0.00     0.031 A 
BRANCH  53  67
ATOM     67  C   UNL A   1      42.821  23.870  28.055  1.00  0.00    -0.014 A 
ATOM     68  C   UNL A   1      42.652  22.710  28.835  1.00  0.00     0.010 A 
ATOM     69  C   UNL A   1      42.747  23.766  26.654  1.00  0.00     0.010 A 
ATOM     70  C   UNL A   1      42.449  21.469  28.227  1.00  0.00     0.020 A 
ATOM     71  C   UNL A   1      42.513  22.531  26.042  1.00  0.00     0.020 A 
ATOM     72  C   UNL A   1      42.380  21.388  26.833  1.00  0.00     0.054 A 
BRANCH  72  73
ATOM     73  S   UNL A   1      42.078  19.768  26.075  1.00  0.00     0.124 S 
ATOM     74  O   UNL A   1      42.333  18.861  27.191  1.00  0.00    -0.237 OA
ATOM     75  O   UNL A   1      40.682  19.869  25.655  1.00  0.00    -0.237 OA
ATOM     76  O   UNL A   1      43.051  19.706  24.988  1.00  0.00    -0.744 OA
ENDBRANCH  72  73
ENDBRANCH  53  67
BRANCH  54  77
ATOM     77  C   UNL A   1      43.757  32.937  32.193  1.00  0.00    -0.014 A 
ATOM     78  C   UNL A   1      44.304  34.004  31.457  1.00  0.00     0.010 A 
ATOM     79  C   UNL A   1      43.388  33.151  33.533  1.00  0.00     0.010 A 
ATOM     80  C   UNL A   1      44.517  35.247  32.061  1.00  0.00     0.020 A 
ATOM     81  C   UNL A   1      43.566  34.403  34.131  1.00  0.00     0.020 A 
ATOM     82  C   UNL A   1      44.150  35.436  33.396  1.00  0.00     0.054 A 
BRANCH  82  83
ATOM     83  S   UNL A   1      44.430  37.059  34.157  1.00  0.00     0.124 S 
ATOM     84  O   UNL A   1      45.145  37.769  33.101  1.00  0.00    -0.237 OA
ATOM     85  O   UNL A   1      43.071  37.521  34.424  1.00  0.00    -0.237 OA
ATOM     86  O   UNL A   1      45.220  36.746  35.346  1.00  0.00    -0.744 OA
ENDBRANCH  82  83
ENDBRANCH  54  77
BRANCH  66  87
ATOM     87  C   UNL A   1      48.105  27.562  31.299  1.00  0.00    -0.014 A 
ATOM     88  C   UNL A   1      48.504  26.996  32.522  1.00  0.00     0.010 A 
ATOM     89  C   UNL A   1      49.087  27.902  30.348  1.00  0.00     0.010 A 
ATOM     90  C   UNL A   1      49.859  26.805  32.803  1.00  0.00     0.020 A 
ATOM     91  C   UNL A   1      50.440  27.682  30.612  1.00  0.00     0.020 A 
ATOM     92  C   UNL A   1      50.819  27.147  31.844  1.00  0.00     0.054 A 
BRANCH  92  93
ATOM     93  S   UNL A   1      52.568  26.846  32.217  1.00  0.00     0.124 S 
ATOM     94  O   UNL A   1      52.639  25.388  32.184  1.00  0.00    -0.237 OA
ATOM     95  O   UNL A   1      53.250  27.534  31.124  1.00  0.00    -0.237 OA
ATOM     96  O   UNL A   1      52.750  27.449  33.535  1.00  0.00    -0.744 OA
ENDBRANCH  92  93
ENDBRANCH  66  87
ENDBRANCH  40  41
ENDBRANCH  32  35
ENDBRANCH  30  31
ENDBRANCH   1  30
TORSDOF 16
ENDMDL
