MODEL 1
REMARK VINA RESULT:     -11.8      0.000      0.000
REMARK SMILES COc1cc([C@@H]2CC[NH2+][C@@H]2C(=O)NCCCNC(=O)c2ccc(-c3c4nc(c(-c5ccc(S(=O)(=O)[O-])cc5)c5ccc([nH]5)c(-c5ccc(S(=O)(=O)[O-])cc5)c5nc(c(-c6ccc(S(=O)(=O)[O-])cc6)c6ccc3[nH]6)C=C5)C=C4)cc2)cc(OC)c1OC
REMARK SMILES IDX 15 1 14 2 13 3 11 4 12 5 10 7 6 8 7 9 8 10 9 11 5 14 3 15
REMARK SMILES IDX 4 16 84 17 81 18 80 19 2 20 1 21 85 22 86 23 82 24 83 25
REMARK SMILES IDX 16 26 17 27 18 28 19 30 20 31 21 32 79 33 22 34 78 35 23 36
REMARK SMILES IDX 24 37 25 38 72 39 26 40 77 41 71 42 73 43 27 44 76 45 70 46
REMARK SMILES IDX 69 47 28 49 58 50 39 51 57 52 40 53 43 54 56 55 74 56 41 57
REMARK SMILES IDX 42 58 55 60 75 61 44 62 29 63 30 64 38 65 31 66 37 67 32 68
REMARK SMILES IDX 33 69 34 70 35 71 36 72 59 73 60 74 68 75 61 76 67 77 62 78
REMARK SMILES IDX 63 79 64 80 65 81 66 82 45 83 46 84 54 85 47 86 53 87 48 88
REMARK SMILES IDX 49 89 50 90 51 91 52 92
REMARK H PARENT 13 6 9 12 9 13 17 29 73 48 43 59
REMARK Flexibility Score: inf
ROOT
ATOM      1  C   UNL A   1      35.966  23.363  26.667  1.00  0.00     0.042 C 
ENDROOT
BRANCH   1   2
ATOM      2  C   UNL A   1      34.257  22.312  27.524  1.00  0.00     0.118 C 
BRANCH   2   3
ATOM      3  N   UNL A   1      32.794  22.069  27.014  1.00  0.00    -0.351 N 
ATOM      4  C   UNL A   1      32.329  21.906  25.738  1.00  0.00     0.278 C 
ATOM      5  O   UNL A   1      31.156  21.537  25.620  1.00  0.00    -0.268 OA
ATOM      6  H   UNL A   1      32.107  22.029  27.718  1.00  0.00     0.163 HD
BRANCH   4   7
ATOM      7  C   UNL A   1      33.272  22.104  24.507  1.00  0.00     0.280 C 
ATOM      8  C   UNL A   1      33.337  23.453  23.749  1.00  0.00     0.093 C 
ATOM      9  C   UNL A   1      32.791  23.190  22.357  1.00  0.00     0.076 C 
ATOM     10  C   UNL A   1      32.095  21.854  22.481  1.00  0.00     0.262 C 
ATOM     11  N   UNL A   1      32.905  21.115  23.450  1.00  0.00    -0.335 N 
ATOM     12  H   UNL A   1      33.743  20.744  23.003  1.00  0.00     0.346 HD
ATOM     13  H   UNL A   1      32.396  20.321  23.839  1.00  0.00     0.346 HD
BRANCH   8  14
ATOM     14  C   UNL A   1      32.726  24.610  24.517  1.00  0.00    -0.031 A 
ATOM     15  C   UNL A   1      30.814  26.962  23.814  1.00  0.00     0.164 A 
ATOM     16  C   UNL A   1      31.183  25.199  23.774  1.00  0.00     0.055 A 
ATOM     17  C   UNL A   1      31.942  28.130  24.613  1.00  0.00     0.203 A 
ATOM     18  C   UNL A   1      33.445  27.519  25.405  1.00  0.00     0.164 A 
ATOM     19  C   UNL A   1      33.834  25.758  25.402  1.00  0.00     0.055 A 
BRANCH  15  20
ATOM     20  O   UNL A   1      29.827  27.369  22.952  1.00  0.00    -0.493 OA
ATOM     21  C   UNL A   1      28.533  27.328  23.543  1.00  0.00     0.278 C 
ENDBRANCH  15  20
BRANCH  17  22
ATOM     22  O   UNL A   1      31.681  29.455  24.381  1.00  0.00    -0.490 OA
ATOM     23  C   UNL A   1      31.415  30.228  25.544  1.00  0.00     0.278 C 
ENDBRANCH  17  22
BRANCH  18  24
ATOM     24  O   UNL A   1      34.454  28.416  25.664  1.00  0.00    -0.493 OA
ATOM     25  C   UNL A   1      34.472  28.855  27.019  1.00  0.00     0.278 C 
ENDBRANCH  18  24
ENDBRANCH   8  14
ENDBRANCH   4   7
ENDBRANCH   2   3
ENDBRANCH   1   2
BRANCH   1  26
ATOM     26  C   UNL A   1      36.932  23.235  25.233  1.00  0.00     0.118 C 
BRANCH  26  27
ATOM     27  N   UNL A   1      38.256  22.653  25.446  1.00  0.00    -0.352 N 
ATOM     28  C   UNL A   1      39.372  22.969  26.151  1.00  0.00     0.251 C 
ATOM     29  H   UNL A   1      38.368  21.811  24.947  1.00  0.00     0.163 HD
ATOM     30  O   UNL A   1      40.295  22.160  26.203  1.00  0.00    -0.269 OA
BRANCH  28  31
ATOM     31  C   UNL A   1      39.525  24.293  26.742  1.00  0.00     0.039 A 
ATOM     32  C   UNL A   1      39.022  24.450  28.036  1.00  0.00     0.014 A 
ATOM     33  C   UNL A   1      40.209  25.322  26.098  1.00  0.00     0.014 A 
ATOM     34  C   UNL A   1      39.306  25.609  28.728  1.00  0.00     0.010 A 
ATOM     35  C   UNL A   1      40.572  26.441  26.817  1.00  0.00     0.010 A 
ATOM     36  C   UNL A   1      40.139  26.571  28.139  1.00  0.00    -0.014 A 
BRANCH  36  37
ATOM     37  C   UNL A   1      40.622  27.685  28.956  1.00  0.00     0.031 A 
ATOM     38  C   UNL A   1      39.752  28.879  29.150  1.00  0.00     0.074 A 
ATOM     39  C   UNL A   1      41.840  27.548  29.512  1.00  0.00     0.049 A 
ATOM     40  N   UNL A   1      39.919  29.879  29.967  1.00  0.00    -0.248 NA
ATOM     41  C   UNL A   1      38.545  28.976  28.309  1.00  0.00     0.031 C 
ATOM     42  C   UNL A   1      42.753  26.420  29.275  1.00  0.00     0.029 A 
ATOM     43  N   UNL A   1      42.504  28.325  30.414  1.00  0.00    -0.354 N 
ATOM     44  C   UNL A   1      38.832  30.714  29.755  1.00  0.00     0.074 A 
ATOM     45  C   UNL A   1      38.050  30.147  28.681  1.00  0.00     0.031 C 
ATOM     46  C   UNL A   1      43.823  26.542  30.075  1.00  0.00     0.029 A 
ATOM     47  C   UNL A   1      43.678  27.761  30.857  1.00  0.00     0.049 A 
ATOM     48  H   UNL A   1      42.176  29.203  30.719  1.00  0.00     0.167 HD
ATOM     49  C   UNL A   1      38.512  31.838  30.432  1.00  0.00     0.031 A 
ATOM     50  C   UNL A   1      44.515  28.177  31.824  1.00  0.00     0.031 A 
ATOM     51  C   UNL A   1      39.337  32.362  31.487  1.00  0.00     0.049 A 
ATOM     52  C   UNL A   1      44.117  29.414  32.579  1.00  0.00     0.074 A 
ATOM     53  C   UNL A   1      39.140  33.482  32.268  1.00  0.00     0.029 A 
ATOM     54  N   UNL A   1      40.530  31.779  31.904  1.00  0.00    -0.354 N 
ATOM     55  N   UNL A   1      43.047  30.163  32.421  1.00  0.00    -0.248 NA
ATOM     56  C   UNL A   1      45.012  29.848  33.652  1.00  0.00     0.031 C 
ATOM     57  C   UNL A   1      40.237  33.601  33.130  1.00  0.00     0.029 A 
ATOM     58  C   UNL A   1      41.089  32.524  32.924  1.00  0.00     0.049 A 
ATOM     59  H   UNL A   1      40.919  30.957  31.528  1.00  0.00     0.167 HD
ATOM     60  C   UNL A   1      43.135  31.156  33.385  1.00  0.00     0.074 A 
ATOM     61  C   UNL A   1      44.344  30.882  34.144  1.00  0.00     0.031 C 
ATOM     62  C   UNL A   1      42.309  32.206  33.624  1.00  0.00     0.031 A 
BRANCH  49  63
ATOM     63  C   UNL A   1      37.241  32.544  30.048  1.00  0.00    -0.014 A 
ATOM     64  C   UNL A   1      36.008  32.179  30.623  1.00  0.00     0.010 A 
ATOM     65  C   UNL A   1      37.271  33.591  29.110  1.00  0.00     0.010 A 
ATOM     66  C   UNL A   1      34.828  32.826  30.246  1.00  0.00     0.020 A 
ATOM     67  C   UNL A   1      36.096  34.259  28.750  1.00  0.00     0.020 A 
ATOM     68  C   UNL A   1      34.881  33.864  29.313  1.00  0.00     0.054 A 
BRANCH  68  69
ATOM     69  S   UNL A   1      33.338  34.713  28.874  1.00  0.00     0.124 S 
ATOM     70  O   UNL A   1      32.764  33.806  27.885  1.00  0.00    -0.237 OA
ATOM     71  O   UNL A   1      32.634  34.776  30.153  1.00  0.00    -0.237 OA
ATOM     72  O   UNL A   1      33.788  36.001  28.351  1.00  0.00    -0.744 OA
ENDBRANCH  68  69
ENDBRANCH  49  63
BRANCH  50  73
ATOM     73  C   UNL A   1      45.744  27.402  32.147  1.00  0.00    -0.014 A 
ATOM     74  C   UNL A   1      46.958  27.659  31.485  1.00  0.00     0.010 A 
ATOM     75  C   UNL A   1      45.713  26.408  33.142  1.00  0.00     0.010 A 
ATOM     76  C   UNL A   1      48.104  26.913  31.784  1.00  0.00     0.020 A 
ATOM     77  C   UNL A   1      46.862  25.680  33.466  1.00  0.00     0.020 A 
ATOM     78  C   UNL A   1      48.047  25.924  32.771  1.00  0.00     0.054 A 
BRANCH  78  79
ATOM     79  S   UNL A   1      49.546  24.976  33.156  1.00  0.00     0.124 S 
ATOM     80  O   UNL A   1      49.002  23.826  33.871  1.00  0.00    -0.237 OA
ATOM     81  O   UNL A   1      50.094  24.697  31.831  1.00  0.00    -0.237 OA
ATOM     82  O   UNL A   1      50.336  25.901  33.965  1.00  0.00    -0.744 OA
ENDBRANCH  78  79
ENDBRANCH  50  73
BRANCH  62  83
ATOM     83  C   UNL A   1      42.708  33.112  34.752  1.00  0.00    -0.014 A 
ATOM     84  C   UNL A   1      42.267  32.864  36.064  1.00  0.00     0.010 A 
ATOM     85  C   UNL A   1      43.548  34.209  34.495  1.00  0.00     0.010 A 
ATOM     86  C   UNL A   1      42.614  33.737  37.094  1.00  0.00     0.020 A 
ATOM     87  C   UNL A   1      43.925  35.064  35.530  1.00  0.00     0.020 A 
ATOM     88  C   UNL A   1      43.435  34.835  36.818  1.00  0.00     0.054 A 
BRANCH  88  89
ATOM     89  S   UNL A   1      43.878  35.950  38.174  1.00  0.00     0.124 S 
ATOM     90  O   UNL A   1      44.119  37.203  37.465  1.00  0.00    -0.237 OA
ATOM     91  O   UNL A   1      42.684  35.922  39.016  1.00  0.00    -0.237 OA
ATOM     92  O   UNL A   1      45.062  35.326  38.761  1.00  0.00    -0.744 OA
ENDBRANCH  88  89
ENDBRANCH  62  83
ENDBRANCH  36  37
ENDBRANCH  28  31
ENDBRANCH  26  27
ENDBRANCH   1  26
TORSDOF 17
ENDMDL
MODEL 2
REMARK VINA RESULT:     -11.5      1.376      3.146
REMARK SMILES COc1cc([C@@H]2CC[NH2+][C@@H]2C(=O)NCCCNC(=O)c2ccc(-c3c4nc(c(-c5ccc(S(=O)(=O)[O-])cc5)c5ccc([nH]5)c(-c5ccc(S(=O)(=O)[O-])cc5)c5nc(c(-c6ccc(S(=O)(=O)[O-])cc6)c6ccc3[nH]6)C=C5)C=C4)cc2)cc(OC)c1OC
REMARK SMILES IDX 15 1 14 2 13 3 11 4 12 5 10 7 6 8 7 9 8 10 9 11 5 14 3 15
REMARK SMILES IDX 4 16 84 17 81 18 80 19 2 20 1 21 85 22 86 23 82 24 83 25
REMARK SMILES IDX 16 26 17 27 18 28 19 30 20 31 21 32 79 33 22 34 78 35 23 36
REMARK SMILES IDX 24 37 25 38 72 39 26 40 77 41 71 42 73 43 27 44 76 45 70 46
REMARK SMILES IDX 69 47 28 49 58 50 39 51 57 52 40 53 43 54 56 55 74 56 41 57
REMARK SMILES IDX 42 58 55 60 75 61 44 62 29 63 30 64 38 65 31 66 37 67 32 68
REMARK SMILES IDX 33 69 34 70 35 71 36 72 59 73 60 74 68 75 61 76 67 77 62 78
REMARK SMILES IDX 63 79 64 80 65 81 66 82 45 83 46 84 54 85 47 86 53 87 48 88
REMARK SMILES IDX 49 89 50 90 51 91 52 92
REMARK H PARENT 13 6 9 12 9 13 17 29 73 48 43 59
REMARK Flexibility Score: inf
ROOT
ATOM      1  C   UNL A   1      35.936  23.845  25.629  1.00  0.00     0.042 C 
ENDROOT
BRANCH   1   2
ATOM      2  C   UNL A   1      34.345  25.334  25.511  1.00  0.00     0.118 C 
BRANCH   2   3
ATOM      3  N   UNL A   1      34.067  26.515  24.517  1.00  0.00    -0.351 N 
ATOM      4  C   UNL A   1      33.835  27.838  24.774  1.00  0.00     0.278 C 
ATOM      5  O   UNL A   1      33.834  28.599  23.802  1.00  0.00    -0.268 OA
ATOM      6  H   UNL A   1      34.058  26.266  23.565  1.00  0.00     0.163 HD
BRANCH   4   7
ATOM      7  C   UNL A   1      33.660  28.353  26.241  1.00  0.00     0.280 C 
ATOM      8  C   UNL A   1      32.269  28.396  26.920  1.00  0.00     0.093 C 
ATOM      9  C   UNL A   1      31.948  29.862  27.149  1.00  0.00     0.076 C 
ATOM     10  C   UNL A   1      32.940  30.596  26.276  1.00  0.00     0.262 C 
ATOM     11  N   UNL A   1      34.142  29.764  26.320  1.00  0.00    -0.335 N 
ATOM     12  H   UNL A   1      34.650  29.919  27.190  1.00  0.00     0.346 HD
ATOM     13  H   UNL A   1      34.782  29.986  25.557  1.00  0.00     0.346 HD
BRANCH   8  14
ATOM     14  C   UNL A   1      31.218  27.568  26.204  1.00  0.00    -0.031 A 
ATOM     15  C   UNL A   1      30.764  24.531  25.704  1.00  0.00     0.164 A 
ATOM     16  C   UNL A   1      31.108  25.879  26.848  1.00  0.00     0.055 A 
ATOM     17  C   UNL A   1      30.496  24.852  23.942  1.00  0.00     0.203 A 
ATOM     18  C   UNL A   1      30.548  26.548  23.327  1.00  0.00     0.164 A 
ATOM     19  C   UNL A   1      30.867  27.923  24.450  1.00  0.00     0.055 A 
BRANCH  15  20
ATOM     20  O   UNL A   1      31.032  23.275  26.188  1.00  0.00    -0.493 OA
ATOM     21  C   UNL A   1      29.895  22.667  26.791  1.00  0.00     0.278 C 
ENDBRANCH  15  20
BRANCH  17  22
ATOM     22  O   UNL A   1      30.477  23.744  23.137  1.00  0.00    -0.490 OA
ATOM     23  C   UNL A   1      31.689  23.002  23.106  1.00  0.00     0.278 C 
ENDBRANCH  17  22
BRANCH  18  24
ATOM     24  O   UNL A   1      30.721  26.745  21.978  1.00  0.00    -0.493 OA
ATOM     25  C   UNL A   1      31.970  26.253  21.501  1.00  0.00     0.278 C 
ENDBRANCH  18  24
ENDBRANCH   8  14
ENDBRANCH   4   7
ENDBRANCH   2   3
ENDBRANCH   1   2
BRANCH   1  26
ATOM     26  C   UNL A   1      37.294  23.375  24.658  1.00  0.00     0.118 C 
BRANCH  26  27
ATOM     27  N   UNL A   1      38.323  22.627  25.379  1.00  0.00    -0.352 N 
ATOM     28  C   UNL A   1      39.176  22.862  26.409  1.00  0.00     0.251 C 
ATOM     29  H   UNL A   1      38.423  21.713  25.026  1.00  0.00     0.163 HD
ATOM     30  O   UNL A   1      39.844  21.933  26.855  1.00  0.00    -0.269 OA
BRANCH  28  31
ATOM     31  C   UNL A   1      39.387  24.217  26.902  1.00  0.00     0.039 A 
ATOM     32  C   UNL A   1      38.887  24.491  28.178  1.00  0.00     0.014 A 
ATOM     33  C   UNL A   1      40.117  25.165  26.189  1.00  0.00     0.014 A 
ATOM     34  C   UNL A   1      39.221  25.684  28.786  1.00  0.00     0.010 A 
ATOM     35  C   UNL A   1      40.528  26.317  26.826  1.00  0.00     0.010 A 
ATOM     36  C   UNL A   1      40.097  26.562  28.132  1.00  0.00    -0.014 A 
BRANCH  36  37
ATOM     37  C   UNL A   1      40.627  27.710  28.869  1.00  0.00     0.031 A 
ATOM     38  C   UNL A   1      39.769  28.913  29.062  1.00  0.00     0.074 A 
ATOM     39  C   UNL A   1      41.876  27.597  29.356  1.00  0.00     0.049 A 
ATOM     40  N   UNL A   1      39.984  29.949  29.822  1.00  0.00    -0.248 NA
ATOM     41  C   UNL A   1      38.514  28.975  28.290  1.00  0.00     0.031 C 
ATOM     42  C   UNL A   1      42.775  26.457  29.115  1.00  0.00     0.029 A 
ATOM     43  N   UNL A   1      42.592  28.412  30.182  1.00  0.00    -0.354 N 
ATOM     44  C   UNL A   1      38.885  30.775  29.638  1.00  0.00     0.074 A 
ATOM     45  C   UNL A   1      38.041  30.162  28.640  1.00  0.00     0.031 C 
ATOM     46  C   UNL A   1      43.891  26.613  29.843  1.00  0.00     0.029 A 
ATOM     47  C   UNL A   1      43.791  27.866  30.578  1.00  0.00     0.049 A 
ATOM     48  H   UNL A   1      42.283  29.303  30.466  1.00  0.00     0.167 HD
ATOM     49  C   UNL A   1      38.606  31.929  30.283  1.00  0.00     0.031 A 
ATOM     50  C   UNL A   1      44.684  28.323  31.474  1.00  0.00     0.031 A 
ATOM     51  C   UNL A   1      39.492  32.497  31.262  1.00  0.00     0.049 A 
ATOM     52  C   UNL A   1      44.331  29.593  32.196  1.00  0.00     0.074 A 
ATOM     53  C   UNL A   1      39.341  33.651  32.003  1.00  0.00     0.029 A 
ATOM     54  N   UNL A   1      40.708  31.932  31.633  1.00  0.00    -0.354 N 
ATOM     55  N   UNL A   1      43.253  30.335  32.069  1.00  0.00    -0.248 NA
ATOM     56  C   UNL A   1      45.289  30.073  33.192  1.00  0.00     0.031 C 
ATOM     57  C   UNL A   1      40.487  33.806  32.792  1.00  0.00     0.029 A 
ATOM     58  C   UNL A   1      41.326  32.720  32.584  1.00  0.00     0.049 A 
ATOM     59  H   UNL A   1      41.074  31.093  31.271  1.00  0.00     0.167 HD
ATOM     60  C   UNL A   1      43.398  31.370  32.981  1.00  0.00     0.074 A 
ATOM     61  C   UNL A   1      44.650  31.128  33.678  1.00  0.00     0.031 C 
ATOM     62  C   UNL A   1      42.587  32.431  33.223  1.00  0.00     0.031 A 
BRANCH  49  63
ATOM     63  C   UNL A   1      37.313  32.619  29.945  1.00  0.00    -0.014 A 
ATOM     64  C   UNL A   1      37.250  33.564  28.903  1.00  0.00     0.010 A 
ATOM     65  C   UNL A   1      36.143  32.319  30.664  1.00  0.00     0.010 A 
ATOM     66  C   UNL A   1      36.050  34.217  28.606  1.00  0.00     0.020 A 
ATOM     67  C   UNL A   1      34.934  32.949  30.353  1.00  0.00     0.020 A 
ATOM     68  C   UNL A   1      34.898  33.903  29.333  1.00  0.00     0.054 A 
BRANCH  68  69
ATOM     69  S   UNL A   1      33.346  34.736  28.898  1.00  0.00     0.124 S 
ATOM     70  O   UNL A   1      33.823  36.017  28.385  1.00  0.00    -0.237 OA
ATOM     71  O   UNL A   1      32.770  33.835  27.902  1.00  0.00    -0.237 OA
ATOM     72  O   UNL A   1      32.622  34.803  30.165  1.00  0.00    -0.744 OA
ENDBRANCH  68  69
ENDBRANCH  49  63
BRANCH  50  73
ATOM     73  C   UNL A   1      45.931  27.561  31.756  1.00  0.00    -0.014 A 
ATOM     74  C   UNL A   1      47.118  27.822  31.047  1.00  0.00     0.010 A 
ATOM     75  C   UNL A   1      45.946  26.575  32.760  1.00  0.00     0.010 A 
ATOM     76  C   UNL A   1      48.281  27.088  31.309  1.00  0.00     0.020 A 
ATOM     77  C   UNL A   1      47.113  25.859  33.047  1.00  0.00     0.020 A 
ATOM     78  C   UNL A   1      48.269  26.107  32.306  1.00  0.00     0.054 A 
BRANCH  78  79
ATOM     79  S   UNL A   1      49.790  25.175  32.641  1.00  0.00     0.124 S 
ATOM     80  O   UNL A   1      50.207  24.783  31.299  1.00  0.00    -0.237 OA
ATOM     81  O   UNL A   1      50.632  26.169  33.302  1.00  0.00    -0.237 OA
ATOM     82  O   UNL A   1      49.338  24.083  33.501  1.00  0.00    -0.744 OA
ENDBRANCH  78  79
ENDBRANCH  50  73
BRANCH  62  83
ATOM     83  C   UNL A   1      43.052  33.386  34.283  1.00  0.00    -0.014 A 
ATOM     84  C   UNL A   1      42.684  33.201  35.628  1.00  0.00     0.010 A 
ATOM     85  C   UNL A   1      43.880  34.464  33.929  1.00  0.00     0.010 A 
ATOM     86  C   UNL A   1      43.091  34.119  36.595  1.00  0.00     0.020 A 
ATOM     87  C   UNL A   1      44.317  35.364  34.900  1.00  0.00     0.020 A 
ATOM     88  C   UNL A   1      43.899  35.197  36.223  1.00  0.00     0.054 A 
BRANCH  88  89
ATOM     89  S   UNL A   1      44.423  36.371  37.500  1.00  0.00     0.124 S 
ATOM     90  O   UNL A   1      45.868  36.408  37.298  1.00  0.00    -0.237 OA
ATOM     91  O   UNL A   1      43.704  37.588  37.130  1.00  0.00    -0.237 OA
ATOM     92  O   UNL A   1      43.981  35.747  38.744  1.00  0.00    -0.744 OA
ENDBRANCH  88  89
ENDBRANCH  62  83
ENDBRANCH  36  37
ENDBRANCH  28  31
ENDBRANCH  26  27
ENDBRANCH   1  26
TORSDOF 17
ENDMDL
MODEL 3
REMARK VINA RESULT:     -11.5      5.018      9.813
REMARK SMILES COc1cc([C@@H]2CC[NH2+][C@@H]2C(=O)NCCCNC(=O)c2ccc(-c3c4nc(c(-c5ccc(S(=O)(=O)[O-])cc5)c5ccc([nH]5)c(-c5ccc(S(=O)(=O)[O-])cc5)c5nc(c(-c6ccc(S(=O)(=O)[O-])cc6)c6ccc3[nH]6)C=C5)C=C4)cc2)cc(OC)c1OC
REMARK SMILES IDX 15 1 14 2 13 3 11 4 12 5 10 7 6 8 7 9 8 10 9 11 5 14 3 15
REMARK SMILES IDX 4 16 84 17 81 18 80 19 2 20 1 21 85 22 86 23 82 24 83 25
REMARK SMILES IDX 16 26 17 27 18 28 19 30 20 31 21 32 79 33 22 34 78 35 23 36
REMARK SMILES IDX 24 37 25 38 72 39 26 40 77 41 71 42 73 43 27 44 76 45 70 46
REMARK SMILES IDX 69 47 28 49 58 50 39 51 57 52 40 53 43 54 56 55 74 56 41 57
REMARK SMILES IDX 42 58 55 60 75 61 44 62 29 63 30 64 38 65 31 66 37 67 32 68
REMARK SMILES IDX 33 69 34 70 35 71 36 72 59 73 60 74 68 75 61 76 67 77 62 78
REMARK SMILES IDX 63 79 64 80 65 81 66 82 45 83 46 84 54 85 47 86 53 87 48 88
REMARK SMILES IDX 49 89 50 90 51 91 52 92
REMARK H PARENT 13 6 9 12 9 13 17 29 73 48 43 59
REMARK Flexibility Score: inf
ROOT
ATOM      1  C   UNL A   1      35.357  29.778  27.922  1.00  0.00     0.042 C 
ENDROOT
BRANCH   1   2
ATOM      2  C   UNL A   1      33.769  29.594  26.436  1.00  0.00     0.118 C 
BRANCH   2   3
ATOM      3  N   UNL A   1      33.788  29.399  24.880  1.00  0.00    -0.351 N 
ATOM      4  C   UNL A   1      32.814  28.923  24.046  1.00  0.00     0.278 C 
ATOM      5  O   UNL A   1      33.013  29.049  22.834  1.00  0.00    -0.268 OA
ATOM      6  H   UNL A   1      34.629  29.656  24.437  1.00  0.00     0.163 HD
BRANCH   4   7
ATOM      7  C   UNL A   1      31.487  28.326  24.619  1.00  0.00     0.280 C 
ATOM      8  C   UNL A   1      31.263  26.796  24.707  1.00  0.00     0.093 C 
ATOM      9  C   UNL A   1      30.130  26.473  23.749  1.00  0.00     0.076 C 
ATOM     10  C   UNL A   1      30.012  27.710  22.888  1.00  0.00     0.262 C 
ATOM     11  N   UNL A   1      30.341  28.811  23.794  1.00  0.00    -0.335 N 
ATOM     12  H   UNL A   1      29.543  29.034  24.388  1.00  0.00     0.346 HD
ATOM     13  H   UNL A   1      30.579  29.661  23.282  1.00  0.00     0.346 HD
BRANCH   8  14
ATOM     14  C   UNL A   1      32.537  25.987  24.559  1.00  0.00    -0.031 A 
ATOM     15  C   UNL A   1      33.328  23.366  23.082  1.00  0.00     0.164 A 
ATOM     16  C   UNL A   1      32.556  24.992  23.046  1.00  0.00     0.055 A 
ATOM     17  C   UNL A   1      34.107  22.739  24.592  1.00  0.00     0.203 A 
ATOM     18  C   UNL A   1      34.134  23.768  26.075  1.00  0.00     0.164 A 
ATOM     19  C   UNL A   1      33.390  25.411  26.066  1.00  0.00     0.055 A 
BRANCH  15  20
ATOM     20  O   UNL A   1      33.009  22.547  22.028  1.00  0.00    -0.493 OA
ATOM     21  C   UNL A   1      31.983  21.615  22.350  1.00  0.00     0.278 C 
ENDBRANCH  15  20
BRANCH  17  22
ATOM     22  O   UNL A   1      34.450  21.412  24.572  1.00  0.00    -0.490 OA
ATOM     23  C   UNL A   1      35.834  21.147  24.753  1.00  0.00     0.278 C 
ENDBRANCH  17  22
BRANCH  18  24
ATOM     24  O   UNL A   1      34.374  23.161  27.284  1.00  0.00    -0.493 OA
ATOM     25  C   UNL A   1      33.255  22.423  27.766  1.00  0.00     0.278 C 
ENDBRANCH  18  24
ENDBRANCH   8  14
ENDBRANCH   4   7
ENDBRANCH   2   3
ENDBRANCH   1   2
BRANCH   1  26
ATOM     26  C   UNL A   1      35.688  30.789  29.291  1.00  0.00     0.118 C 
BRANCH  26  27
ATOM     27  N   UNL A   1      35.993  30.060  30.521  1.00  0.00    -0.352 N 
ATOM     28  C   UNL A   1      37.109  29.693  31.201  1.00  0.00     0.251 C 
ATOM     29  H   UNL A   1      35.174  29.754  30.975  1.00  0.00     0.163 HD
ATOM     30  O   UNL A   1      36.991  29.173  32.308  1.00  0.00    -0.269 OA
BRANCH  28  31
ATOM     31  C   UNL A   1      38.424  29.805  30.582  1.00  0.00     0.039 A 
ATOM     32  C   UNL A   1      39.505  29.371  31.354  1.00  0.00     0.014 A 
ATOM     33  C   UNL A   1      38.595  30.236  29.268  1.00  0.00     0.014 A 
ATOM     34  C   UNL A   1      40.748  29.263  30.763  1.00  0.00     0.010 A 
ATOM     35  C   UNL A   1      39.813  30.044  28.651  1.00  0.00     0.010 A 
ATOM     36  C   UNL A   1      40.880  29.535  29.395  1.00  0.00    -0.014 A 
BRANCH  36  37
ATOM     37  C   UNL A   1      42.139  29.201  28.726  1.00  0.00     0.031 A 
ATOM     38  C   UNL A   1      43.217  30.227  28.647  1.00  0.00     0.074 A 
ATOM     39  C   UNL A   1      42.254  27.955  28.233  1.00  0.00     0.049 A 
ATOM     40  N   UNL A   1      44.451  30.077  28.258  1.00  0.00    -0.248 NA
ATOM     41  C   UNL A   1      42.866  31.604  29.036  1.00  0.00     0.031 C 
ATOM     42  C   UNL A   1      41.181  26.949  28.225  1.00  0.00     0.029 A 
ATOM     43  N   UNL A   1      43.321  27.303  27.688  1.00  0.00    -0.354 N 
ATOM     44  C   UNL A   1      45.030  31.332  28.375  1.00  0.00     0.074 A 
ATOM     45  C   UNL A   1      43.998  32.249  28.797  1.00  0.00     0.031 C 
ATOM     46  C   UNL A   1      41.671  25.785  27.772  1.00  0.00     0.029 A 
ATOM     47  C   UNL A   1      43.076  25.972  27.442  1.00  0.00     0.049 A 
ATOM     48  H   UNL A   1      44.180  27.741  27.490  1.00  0.00     0.167 HD
ATOM     49  C   UNL A   1      46.324  31.664  28.175  1.00  0.00     0.031 A 
ATOM     50  C   UNL A   1      43.921  25.009  27.032  1.00  0.00     0.031 A 
ATOM     51  C   UNL A   1      47.306  30.706  27.744  1.00  0.00     0.049 A 
ATOM     52  C   UNL A   1      45.359  25.403  26.847  1.00  0.00     0.074 A 
ATOM     53  C   UNL A   1      48.653  30.891  27.508  1.00  0.00     0.029 A 
ATOM     54  N   UNL A   1      47.028  29.368  27.486  1.00  0.00    -0.354 N 
ATOM     55  N   UNL A   1      45.917  26.580  27.029  1.00  0.00    -0.248 NA
ATOM     56  C   UNL A   1      46.283  24.347  26.432  1.00  0.00     0.031 C 
ATOM     57  C   UNL A   1      49.181  29.672  27.066  1.00  0.00     0.029 A 
ATOM     58  C   UNL A   1      48.175  28.715  27.080  1.00  0.00     0.049 A 
ATOM     59  H   UNL A   1      46.143  28.947  27.579  1.00  0.00     0.167 HD
ATOM     60  C   UNL A   1      47.266  26.404  26.759  1.00  0.00     0.074 A 
ATOM     61  C   UNL A   1      47.439  24.996  26.442  1.00  0.00     0.031 C 
ATOM     62  C   UNL A   1      48.274  27.313  26.759  1.00  0.00     0.031 A 
BRANCH  49  63
ATOM     63  C   UNL A   1      46.722  33.093  28.423  1.00  0.00    -0.014 A 
ATOM     64  C   UNL A   1      46.664  34.049  27.390  1.00  0.00     0.010 A 
ATOM     65  C   UNL A   1      47.149  33.496  29.700  1.00  0.00     0.010 A 
ATOM     66  C   UNL A   1      47.053  35.371  27.621  1.00  0.00     0.020 A 
ATOM     67  C   UNL A   1      47.514  34.823  29.943  1.00  0.00     0.020 A 
ATOM     68  C   UNL A   1      47.475  35.750  28.898  1.00  0.00     0.054 A 
BRANCH  68  69
ATOM     69  S   UNL A   1      47.935  37.483  29.180  1.00  0.00     0.124 S 
ATOM     70  O   UNL A   1      48.465  37.437  30.539  1.00  0.00    -0.237 OA
ATOM     71  O   UNL A   1      48.920  37.726  28.128  1.00  0.00    -0.237 OA
ATOM     72  O   UNL A   1      46.674  38.205  29.028  1.00  0.00    -0.744 OA
ENDBRANCH  68  69
ENDBRANCH  49  63
BRANCH  50  73
ATOM     73  C   UNL A   1      43.439  23.615  26.830  1.00  0.00    -0.014 A 
ATOM     74  C   UNL A   1      43.129  23.134  25.545  1.00  0.00     0.010 A 
ATOM     75  C   UNL A   1      43.307  22.745  27.928  1.00  0.00     0.010 A 
ATOM     76  C   UNL A   1      42.660  21.827  25.367  1.00  0.00     0.020 A 
ATOM     77  C   UNL A   1      42.868  21.429  27.753  1.00  0.00     0.020 A 
ATOM     78  C   UNL A   1      42.529  20.983  26.475  1.00  0.00     0.054 A 
BRANCH  78  79
ATOM     79  S   UNL A   1      41.934  19.287  26.224  1.00  0.00     0.124 S 
ATOM     80  O   UNL A   1      42.761  18.838  25.109  1.00  0.00    -0.237 OA
ATOM     81  O   UNL A   1      42.212  18.659  27.513  1.00  0.00    -0.237 OA
ATOM     82  O   UNL A   1      40.515  19.465  25.921  1.00  0.00    -0.744 OA
ENDBRANCH  78  79
ENDBRANCH  50  73
BRANCH  62  83
ATOM     83  C   UNL A   1      49.634  26.785  26.404  1.00  0.00    -0.014 A 
ATOM     84  C   UNL A   1      50.166  26.979  25.117  1.00  0.00     0.010 A 
ATOM     85  C   UNL A   1      50.389  26.108  27.376  1.00  0.00     0.010 A 
ATOM     86  C   UNL A   1      51.414  26.449  24.791  1.00  0.00     0.020 A 
ATOM     87  C   UNL A   1      51.652  25.607  27.063  1.00  0.00     0.020 A 
ATOM     88  C   UNL A   1      52.145  25.761  25.764  1.00  0.00     0.054 A 
BRANCH  88  89
ATOM     89  S   UNL A   1      53.767  25.090  25.319  1.00  0.00     0.124 S 
ATOM     90  O   UNL A   1      53.507  23.653  25.321  1.00  0.00    -0.237 OA
ATOM     91  O   UNL A   1      54.009  25.683  24.005  1.00  0.00    -0.237 OA
ATOM     92  O   UNL A   1      54.643  25.568  26.384  1.00  0.00    -0.744 OA
ENDBRANCH  88  89
ENDBRANCH  62  83
ENDBRANCH  36  37
ENDBRANCH  28  31
ENDBRANCH  26  27
ENDBRANCH   1  26
TORSDOF 17
ENDMDL
