MODEL 1
REMARK VINA RESULT:     -10.5      0.000      0.000
REMARK SMILES CC1(C)CCC[C@@H]1[NH2+]Cc1cc(C(=O)NCCCNC(=O)c2ccc(-c3c4nc(c(-c5ccc(S(=O)(=O)[O-])cc5)c5ccc([nH]5)c(-c5ccc(S(=O)(=O)[O-])cc5)c5nc(c(-c6ccc(S(=O)(=O)[O-])cc6)c6ccc3[nH]6)C=C5)C=C4)cc2)cs1
REMARK SMILES IDX 17 1 16 2 15 3 13 4 14 5 12 7 10 8 11 9 83 10 82 11 9 12
REMARK SMILES IDX 8 13 7 16 1 17 2 18 3 19 4 20 5 21 6 22 18 23 19 24 20 25
REMARK SMILES IDX 21 27 22 28 23 29 81 30 24 31 80 32 25 33 26 34 27 35 74 36
REMARK SMILES IDX 28 37 79 38 73 39 75 40 29 41 78 42 72 43 71 44 30 46 60 47
REMARK SMILES IDX 41 48 59 49 42 50 45 51 58 52 76 53 43 54 44 55 57 57 77 58
REMARK SMILES IDX 46 59 31 60 32 61 40 62 33 63 39 64 34 65 35 66 36 67 37 68
REMARK SMILES IDX 38 69 61 70 62 71 70 72 63 73 69 74 64 75 65 76 66 77 67 78
REMARK SMILES IDX 68 79 47 80 48 81 56 82 49 83 55 84 50 85 51 86 52 87 53 88
REMARK SMILES IDX 54 89
REMARK H PARENT 15 6 8 14 8 15 19 26 75 45 45 56
REMARK Flexibility Score: inf
ROOT
ATOM      1  C   UNL A   1      35.258  33.225  28.052  1.00  0.00     0.042 C 
ENDROOT
BRANCH   1   2
ATOM      2  C   UNL A   1      35.227  34.696  28.462  1.00  0.00     0.118 C 
BRANCH   2   3
ATOM      3  N   UNL A   1      33.910  35.280  28.280  1.00  0.00    -0.352 N 
ATOM      4  C   UNL A   1      33.077  35.907  29.169  1.00  0.00     0.252 C 
ATOM      5  O   UNL A   1      32.066  36.456  28.716  1.00  0.00    -0.269 OA
ATOM      6  H   UNL A   1      33.555  35.213  27.364  1.00  0.00     0.163 HD
BRANCH   4   7
ATOM      7  C   UNL A   1      33.409  35.975  30.592  1.00  0.00     0.051 A 
ATOM      8  C   UNL A   1      34.244  35.388  32.714  1.00  0.00     0.059 A 
ATOM      9  C   UNL A   1      33.830  34.932  31.478  1.00  0.00     0.035 A 
ATOM     10  S   UNL A   1      33.878  37.045  32.906  1.00  0.00    -0.142 S 
ATOM     11  C   UNL A   1      33.303  37.162  31.299  1.00  0.00     0.079 A 
BRANCH   8  12
ATOM     12  C   UNL A   1      34.951  34.603  33.787  1.00  0.00     0.308 C 
BRANCH  12  13
ATOM     13  N   UNL A   1      35.251  33.273  33.260  1.00  0.00    -0.339 N 
ATOM     14  H   UNL A   1      34.549  32.631  33.626  1.00  0.00     0.346 HD
ATOM     15  H   UNL A   1      35.245  33.378  32.247  1.00  0.00     0.346 HD
BRANCH  13  16
ATOM     16  C   UNL A   1      36.564  32.722  33.582  1.00  0.00     0.188 C 
ATOM     17  C   UNL A   1      38.339  34.530  34.028  1.00  0.00     0.017 C 
ATOM     18  C   UNL A   1      37.853  33.426  33.080  1.00  0.00     0.017 C 
ATOM     19  C   UNL A   1      37.724  33.982  31.649  1.00  0.00     0.017 C 
ATOM     20  C   UNL A   1      38.857  32.254  33.104  1.00  0.00     0.013 C 
ATOM     21  C   UNL A   1      38.082  31.073  32.545  1.00  0.00     0.007 C 
ATOM     22  C   UNL A   1      36.638  31.296  32.986  1.00  0.00     0.065 C 
ENDBRANCH  13  16
ENDBRANCH  12  13
ENDBRANCH   8  12
ENDBRANCH   4   7
ENDBRANCH   2   3
ENDBRANCH   1   2
BRANCH   1  23
ATOM     23  C   UNL A   1      34.607  32.295  29.070  1.00  0.00     0.118 C 
BRANCH  23  24
ATOM     24  N   UNL A   1      34.011  31.127  28.440  1.00  0.00    -0.352 N 
ATOM     25  C   UNL A   1      34.603  29.992  27.947  1.00  0.00     0.251 C 
ATOM     26  H   UNL A   1      33.031  31.156  28.354  1.00  0.00     0.163 HD
ATOM     27  O   UNL A   1      33.934  29.220  27.264  1.00  0.00    -0.269 OA
BRANCH  25  28
ATOM     28  C   UNL A   1      36.029  29.697  28.216  1.00  0.00     0.039 A 
ATOM     29  C   UNL A   1      36.382  29.186  29.468  1.00  0.00     0.014 A 
ATOM     30  C   UNL A   1      37.021  29.966  27.269  1.00  0.00     0.014 A 
ATOM     31  C   UNL A   1      37.720  28.907  29.755  1.00  0.00     0.010 A 
ATOM     32  C   UNL A   1      38.345  29.618  27.530  1.00  0.00     0.010 A 
ATOM     33  C   UNL A   1      38.711  29.098  28.779  1.00  0.00    -0.014 A 
BRANCH  33  34
ATOM     34  C   UNL A   1      40.133  28.771  29.053  1.00  0.00     0.031 A 
ATOM     35  C   UNL A   1      41.051  29.814  29.635  1.00  0.00     0.074 A 
ATOM     36  C   UNL A   1      40.612  27.556  28.722  1.00  0.00     0.049 A 
ATOM     37  N   UNL A   1      42.332  29.734  29.889  1.00  0.00    -0.248 NA
ATOM     38  C   UNL A   1      40.458  31.123  29.951  1.00  0.00     0.031 C 
ATOM     39  C   UNL A   1      39.832  26.475  28.112  1.00  0.00     0.029 A 
ATOM     40  N   UNL A   1      41.871  27.026  28.844  1.00  0.00    -0.354 N 
ATOM     41  C   UNL A   1      42.702  30.986  30.370  1.00  0.00     0.074 A 
ATOM     42  C   UNL A   1      41.520  31.819  30.331  1.00  0.00     0.031 C 
ATOM     43  C   UNL A   1      40.625  25.406  27.935  1.00  0.00     0.029 A 
ATOM     44  C   UNL A   1      41.976  25.736  28.378  1.00  0.00     0.049 A 
ATOM     45  H   UNL A   1      42.631  27.523  29.227  1.00  0.00     0.167 HD
ATOM     46  C   UNL A   1      43.911  31.400  30.817  1.00  0.00     0.031 A 
ATOM     47  C   UNL A   1      43.039  24.912  28.308  1.00  0.00     0.031 A 
ATOM     48  C   UNL A   1      45.079  30.560  30.871  1.00  0.00     0.049 A 
ATOM     49  C   UNL A   1      44.369  25.391  28.824  1.00  0.00     0.074 A 
ATOM     50  C   UNL A   1      46.336  30.865  31.365  1.00  0.00     0.029 A 
ATOM     51  N   UNL A   1      45.135  29.252  30.414  1.00  0.00    -0.354 N 
ATOM     52  N   UNL A   1      44.682  26.557  29.335  1.00  0.00    -0.248 NA
ATOM     53  C   UNL A   1      45.484  24.436  28.767  1.00  0.00     0.031 C 
ATOM     54  C   UNL A   1      47.166  29.758  31.161  1.00  0.00     0.029 A 
ATOM     55  C   UNL A   1      46.410  28.742  30.597  1.00  0.00     0.049 A 
ATOM     56  H   UNL A   1      44.381  28.759  30.020  1.00  0.00     0.167 HD
ATOM     57  C   UNL A   1      46.024  26.466  29.688  1.00  0.00     0.074 A 
ATOM     58  C   UNL A   1      46.457  25.127  29.345  1.00  0.00     0.031 C 
ATOM     59  C   UNL A   1      46.824  27.406  30.251  1.00  0.00     0.031 A 
BRANCH  46  60
ATOM     60  C   UNL A   1      44.035  32.828  31.280  1.00  0.00    -0.014 A 
ATOM     61  C   UNL A   1      43.785  33.187  32.618  1.00  0.00     0.010 A 
ATOM     62  C   UNL A   1      44.453  33.822  30.376  1.00  0.00     0.010 A 
ATOM     63  C   UNL A   1      43.907  34.516  33.031  1.00  0.00     0.020 A 
ATOM     64  C   UNL A   1      44.606  35.148  30.792  1.00  0.00     0.020 A 
ATOM     65  C   UNL A   1      44.316  35.489  32.114  1.00  0.00     0.054 A 
BRANCH  65  66
ATOM     66  S   UNL A   1      44.492  37.202  32.685  1.00  0.00     0.124 S 
ATOM     67  O   UNL A   1      43.515  37.259  33.769  1.00  0.00    -0.237 OA
ATOM     68  O   UNL A   1      45.891  37.260  33.098  1.00  0.00    -0.237 OA
ATOM     69  O   UNL A   1      44.160  37.997  31.505  1.00  0.00    -0.744 OA
ENDBRANCH  65  66
ENDBRANCH  46  60
BRANCH  47  70
ATOM     70  C   UNL A   1      42.882  23.544  27.742  1.00  0.00    -0.014 A 
ATOM     71  C   UNL A   1      42.278  22.523  28.496  1.00  0.00     0.010 A 
ATOM     72  C   UNL A   1      43.321  23.262  26.436  1.00  0.00     0.010 A 
ATOM     73  C   UNL A   1      42.133  21.239  27.963  1.00  0.00     0.020 A 
ATOM     74  C   UNL A   1      43.151  21.987  25.888  1.00  0.00     0.020 A 
ATOM     75  C   UNL A   1      42.569  20.980  26.660  1.00  0.00     0.054 A 
BRANCH  75  76
ATOM     76  S   UNL A   1      42.322  19.321  25.967  1.00  0.00     0.124 S 
ATOM     77  O   UNL A   1      42.858  18.469  27.023  1.00  0.00    -0.237 OA
ATOM     78  O   UNL A   1      40.874  19.268  25.783  1.00  0.00    -0.237 OA
ATOM     79  O   UNL A   1      43.098  19.350  24.729  1.00  0.00    -0.744 OA
ENDBRANCH  75  76
ENDBRANCH  47  70
BRANCH  59  80
ATOM     80  C   UNL A   1      48.240  27.008  30.572  1.00  0.00    -0.014 A 
ATOM     81  C   UNL A   1      49.293  27.264  29.677  1.00  0.00     0.010 A 
ATOM     82  C   UNL A   1      48.524  26.412  31.815  1.00  0.00     0.010 A 
ATOM     83  C   UNL A   1      50.602  26.900  30.006  1.00  0.00     0.020 A 
ATOM     84  C   UNL A   1      49.835  26.075  32.159  1.00  0.00     0.020 A 
ATOM     85  C   UNL A   1      50.864  26.307  31.245  1.00  0.00     0.054 A 
BRANCH  85  86
ATOM     86  S   UNL A   1      52.576  25.880  31.665  1.00  0.00     0.124 S 
ATOM     87  O   UNL A   1      53.247  26.017  30.375  1.00  0.00    -0.237 OA
ATOM     88  O   UNL A   1      52.922  26.889  32.664  1.00  0.00    -0.237 OA
ATOM     89  O   UNL A   1      52.477  24.514  32.175  1.00  0.00    -0.744 OA
ENDBRANCH  85  86
ENDBRANCH  59  80
ENDBRANCH  33  34
ENDBRANCH  25  28
ENDBRANCH  23  24
ENDBRANCH   1  23
TORSDOF 16
ENDMDL
MODEL 2
REMARK VINA RESULT:     -10.2      3.431      6.375
REMARK SMILES CC1(C)CCC[C@@H]1[NH2+]Cc1cc(C(=O)NCCCNC(=O)c2ccc(-c3c4nc(c(-c5ccc(S(=O)(=O)[O-])cc5)c5ccc([nH]5)c(-c5ccc(S(=O)(=O)[O-])cc5)c5nc(c(-c6ccc(S(=O)(=O)[O-])cc6)c6ccc3[nH]6)C=C5)C=C4)cc2)cs1
REMARK SMILES IDX 17 1 16 2 15 3 13 4 14 5 12 7 10 8 11 9 83 10 82 11 9 12
REMARK SMILES IDX 8 13 7 16 1 17 2 18 3 19 4 20 5 21 6 22 18 23 19 24 20 25
REMARK SMILES IDX 21 27 22 28 23 29 81 30 24 31 80 32 25 33 26 34 27 35 74 36
REMARK SMILES IDX 28 37 79 38 73 39 75 40 29 41 78 42 72 43 71 44 30 46 60 47
REMARK SMILES IDX 41 48 59 49 42 50 45 51 58 52 76 53 43 54 44 55 57 57 77 58
REMARK SMILES IDX 46 59 31 60 32 61 40 62 33 63 39 64 34 65 35 66 36 67 37 68
REMARK SMILES IDX 38 69 61 70 62 71 70 72 63 73 69 74 64 75 65 76 66 77 67 78
REMARK SMILES IDX 68 79 47 80 48 81 56 82 49 83 55 84 50 85 51 86 52 87 53 88
REMARK SMILES IDX 54 89
REMARK H PARENT 15 6 8 14 8 15 19 26 75 45 45 56
REMARK Flexibility Score: inf
ROOT
ATOM      1  C   UNL A   1      34.010  27.822  25.711  1.00  0.00     0.042 C 
ENDROOT
BRANCH   1   2
ATOM      2  C   UNL A   1      33.004  28.319  24.675  1.00  0.00     0.118 C 
BRANCH   2   3
ATOM      3  N   UNL A   1      33.484  28.123  23.319  1.00  0.00    -0.352 N 
ATOM      4  C   UNL A   1      33.402  27.037  22.488  1.00  0.00     0.252 C 
ATOM      5  O   UNL A   1      33.757  27.188  21.313  1.00  0.00    -0.269 OA
ATOM      6  H   UNL A   1      33.946  28.902  22.931  1.00  0.00     0.163 HD
BRANCH   4   7
ATOM      7  C   UNL A   1      32.854  25.767  22.961  1.00  0.00     0.051 A 
ATOM      8  C   UNL A   1      32.657  23.708  24.089  1.00  0.00     0.059 A 
ATOM      9  C   UNL A   1      33.519  24.672  23.603  1.00  0.00     0.035 A 
ATOM     10  S   UNL A   1      31.063  23.984  23.542  1.00  0.00    -0.142 S 
ATOM     11  C   UNL A   1      31.516  25.450  22.786  1.00  0.00     0.079 A 
BRANCH   8  12
ATOM     12  C   UNL A   1      32.995  22.558  25.001  1.00  0.00     0.308 C 
BRANCH  12  13
ATOM     13  N   UNL A   1      34.049  21.766  24.370  1.00  0.00    -0.339 N 
ATOM     14  H   UNL A   1      33.678  20.829  24.215  1.00  0.00     0.346 HD
ATOM     15  H   UNL A   1      34.293  22.274  23.520  1.00  0.00     0.346 HD
BRANCH  13  16
ATOM     16  C   UNL A   1      35.299  21.631  25.111  1.00  0.00     0.188 C 
ATOM     17  C   UNL A   1      36.474  23.880  25.531  1.00  0.00     0.017 C 
ATOM     18  C   UNL A   1      36.509  22.544  24.777  1.00  0.00     0.017 C 
ATOM     19  C   UNL A   1      36.683  22.797  23.268  1.00  0.00     0.017 C 
ATOM     20  C   UNL A   1      37.679  21.688  25.309  1.00  0.00     0.013 C 
ATOM     21  C   UNL A   1      37.347  20.271  24.872  1.00  0.00     0.007 C 
ATOM     22  C   UNL A   1      35.823  20.191  24.896  1.00  0.00     0.065 C 
ENDBRANCH  13  16
ENDBRANCH  12  13
ENDBRANCH   8  12
ENDBRANCH   4   7
ENDBRANCH   2   3
ENDBRANCH   1   2
BRANCH   1  23
ATOM     23  C   UNL A   1      33.613  28.139  27.148  1.00  0.00     0.118 C 
BRANCH  23  24
ATOM     24  N   UNL A   1      33.419  29.565  27.360  1.00  0.00    -0.352 N 
ATOM     25  C   UNL A   1      34.249  30.492  27.937  1.00  0.00     0.251 C 
ATOM     26  H   UNL A   1      32.559  29.919  27.039  1.00  0.00     0.163 HD
ATOM     27  O   UNL A   1      33.803  31.605  28.205  1.00  0.00    -0.269 OA
BRANCH  25  28
ATOM     28  C   UNL A   1      35.659  30.165  28.247  1.00  0.00     0.039 A 
ATOM     29  C   UNL A   1      35.984  29.767  29.547  1.00  0.00     0.014 A 
ATOM     30  C   UNL A   1      36.667  30.297  27.288  1.00  0.00     0.014 A 
ATOM     31  C   UNL A   1      37.307  29.462  29.873  1.00  0.00     0.010 A 
ATOM     32  C   UNL A   1      37.973  29.921  27.594  1.00  0.00     0.010 A 
ATOM     33  C   UNL A   1      38.310  29.513  28.892  1.00  0.00    -0.014 A 
BRANCH  33  34
ATOM     34  C   UNL A   1      39.715  29.154  29.211  1.00  0.00     0.031 A 
ATOM     35  C   UNL A   1      40.632  30.172  29.838  1.00  0.00     0.074 A 
ATOM     36  C   UNL A   1      40.183  27.935  28.880  1.00  0.00     0.049 A 
ATOM     37  N   UNL A   1      41.902  30.064  30.135  1.00  0.00    -0.248 NA
ATOM     38  C   UNL A   1      40.053  31.488  30.150  1.00  0.00     0.031 C 
ATOM     39  C   UNL A   1      39.404  26.877  28.229  1.00  0.00     0.029 A 
ATOM     40  N   UNL A   1      41.427  27.379  29.038  1.00  0.00    -0.354 N 
ATOM     41  C   UNL A   1      42.279  31.302  30.644  1.00  0.00     0.074 A 
ATOM     42  C   UNL A   1      41.115  32.159  30.576  1.00  0.00     0.031 C 
ATOM     43  C   UNL A   1      40.182  25.795  28.065  1.00  0.00     0.029 A 
ATOM     44  C   UNL A   1      41.523  26.093  28.559  1.00  0.00     0.049 A 
ATOM     45  H   UNL A   1      42.181  27.856  29.453  1.00  0.00     0.167 HD
ATOM     46  C   UNL A   1      43.479  31.686  31.139  1.00  0.00     0.031 A 
ATOM     47  C   UNL A   1      42.572  25.250  28.514  1.00  0.00     0.031 A 
ATOM     48  C   UNL A   1      44.629  30.824  31.221  1.00  0.00     0.049 A 
ATOM     49  C   UNL A   1      43.892  25.696  29.081  1.00  0.00     0.074 A 
ATOM     50  C   UNL A   1      45.873  31.097  31.763  1.00  0.00     0.029 A 
ATOM     51  N   UNL A   1      44.676  29.521  30.749  1.00  0.00    -0.354 N 
ATOM     52  N   UNL A   1      44.209  26.849  29.619  1.00  0.00    -0.248 NA
ATOM     53  C   UNL A   1      44.990  24.720  29.050  1.00  0.00     0.031 C 
ATOM     54  C   UNL A   1      46.688  29.977  31.573  1.00  0.00     0.029 A 
ATOM     55  C   UNL A   1      45.933  28.984  30.969  1.00  0.00     0.049 A 
ATOM     56  H   UNL A   1      43.926  29.048  30.322  1.00  0.00     0.167 HD
ATOM     57  C   UNL A   1      45.536  26.728  30.017  1.00  0.00     0.074 A 
ATOM     58  C   UNL A   1      45.955  25.385  29.671  1.00  0.00     0.031 C 
ATOM     59  C   UNL A   1      46.334  27.644  30.619  1.00  0.00     0.031 A 
BRANCH  46  60
ATOM     60  C   UNL A   1      43.614  33.106  31.625  1.00  0.00    -0.014 A 
ATOM     61  C   UNL A   1      43.979  34.146  30.750  1.00  0.00     0.010 A 
ATOM     62  C   UNL A   1      43.328  33.414  32.968  1.00  0.00     0.010 A 
ATOM     63  C   UNL A   1      44.097  35.458  31.218  1.00  0.00     0.020 A 
ATOM     64  C   UNL A   1      43.416  34.730  33.433  1.00  0.00     0.020 A 
ATOM     65  C   UNL A   1      43.816  35.741  32.558  1.00  0.00     0.054 A 
BRANCH  65  66
ATOM     66  S   UNL A   1      43.952  37.457  33.131  1.00  0.00     0.124 S 
ATOM     67  O   UNL A   1      42.808  37.563  34.034  1.00  0.00    -0.237 OA
ATOM     68  O   UNL A   1      45.262  37.478  33.773  1.00  0.00    -0.237 OA
ATOM     69  O   UNL A   1      43.849  38.243  31.903  1.00  0.00    -0.744 OA
ENDBRANCH  65  66
ENDBRANCH  46  60
BRANCH  47  70
ATOM     70  C   UNL A   1      42.409  23.893  27.924  1.00  0.00    -0.014 A 
ATOM     71  C   UNL A   1      42.508  23.699  26.536  1.00  0.00     0.010 A 
ATOM     72  C   UNL A   1      42.168  22.782  28.754  1.00  0.00     0.010 A 
ATOM     73  C   UNL A   1      42.352  22.424  25.985  1.00  0.00     0.020 A 
ATOM     74  C   UNL A   1      42.041  21.501  28.210  1.00  0.00     0.020 A 
ATOM     75  C   UNL A   1      42.122  21.332  26.827  1.00  0.00     0.054 A 
BRANCH  75  76
ATOM     76  S   UNL A   1      41.976  19.677  26.096  1.00  0.00     0.124 S 
ATOM     77  O   UNL A   1      42.922  19.750  24.988  1.00  0.00    -0.237 OA
ATOM     78  O   UNL A   1      42.363  18.807  27.204  1.00  0.00    -0.237 OA
ATOM     79  O   UNL A   1      40.567  19.596  25.714  1.00  0.00    -0.744 OA
ENDBRANCH  75  76
ENDBRANCH  47  70
BRANCH  59  80
ATOM     80  C   UNL A   1      47.730  27.215  30.983  1.00  0.00    -0.014 A 
ATOM     81  C   UNL A   1      47.994  26.520  32.176  1.00  0.00     0.010 A 
ATOM     82  C   UNL A   1      48.786  27.470  30.088  1.00  0.00     0.010 A 
ATOM     83  C   UNL A   1      49.297  26.116  32.483  1.00  0.00     0.020 A 
ATOM     84  C   UNL A   1      50.083  27.042  30.379  1.00  0.00     0.020 A 
ATOM     85  C   UNL A   1      50.333  26.382  31.583  1.00  0.00     0.054 A 
BRANCH  85  86
ATOM     86  S   UNL A   1      52.008  25.814  31.985  1.00  0.00     0.124 S 
ATOM     87  O   UNL A   1      51.766  24.439  32.416  1.00  0.00    -0.237 OA
ATOM     88  O   UNL A   1      52.711  25.960  30.713  1.00  0.00    -0.237 OA
ATOM     89  O   UNL A   1      52.441  26.730  33.038  1.00  0.00    -0.744 OA
ENDBRANCH  85  86
ENDBRANCH  59  80
ENDBRANCH  33  34
ENDBRANCH  25  28
ENDBRANCH  23  24
ENDBRANCH   1  23
TORSDOF 16
ENDMDL
MODEL 3
REMARK VINA RESULT:      -9.8      5.755     12.319
REMARK SMILES CC1(C)CCC[C@@H]1[NH2+]Cc1cc(C(=O)NCCCNC(=O)c2ccc(-c3c4nc(c(-c5ccc(S(=O)(=O)[O-])cc5)c5ccc([nH]5)c(-c5ccc(S(=O)(=O)[O-])cc5)c5nc(c(-c6ccc(S(=O)(=O)[O-])cc6)c6ccc3[nH]6)C=C5)C=C4)cc2)cs1
REMARK SMILES IDX 17 1 16 2 15 3 13 4 14 5 12 7 10 8 11 9 83 10 82 11 9 12
REMARK SMILES IDX 8 13 7 16 1 17 2 18 3 19 4 20 5 21 6 22 18 23 19 24 20 25
REMARK SMILES IDX 21 27 22 28 23 29 81 30 24 31 80 32 25 33 26 34 27 35 74 36
REMARK SMILES IDX 28 37 79 38 73 39 75 40 29 41 78 42 72 43 71 44 30 46 60 47
REMARK SMILES IDX 41 48 59 49 42 50 45 51 58 52 76 53 43 54 44 55 57 57 77 58
REMARK SMILES IDX 46 59 31 60 32 61 40 62 33 63 39 64 34 65 35 66 36 67 37 68
REMARK SMILES IDX 38 69 61 70 62 71 70 72 63 73 69 74 64 75 65 76 66 77 67 78
REMARK SMILES IDX 68 79 47 80 48 81 56 82 49 83 55 84 50 85 51 86 52 87 53 88
REMARK SMILES IDX 54 89
REMARK H PARENT 15 6 8 14 8 15 19 26 75 45 45 56
REMARK Flexibility Score: inf
ROOT
ATOM      1  C   UNL A   1      39.497  22.657  26.489  1.00  0.00     0.042 C 
ENDROOT
BRANCH   1   2
ATOM      2  C   UNL A   1      38.154  22.104  26.017  1.00  0.00     0.118 C 
BRANCH   2   3
ATOM      3  N   UNL A   1      37.825  22.556  24.677  1.00  0.00    -0.352 N 
ATOM      4  C   UNL A   1      36.613  22.796  24.084  1.00  0.00     0.252 C 
ATOM      5  O   UNL A   1      36.617  23.331  22.970  1.00  0.00    -0.269 OA
ATOM      6  H   UNL A   1      38.604  22.718  24.096  1.00  0.00     0.163 HD
BRANCH   4   7
ATOM      7  C   UNL A   1      35.363  22.486  24.776  1.00  0.00     0.051 A 
ATOM      8  C   UNL A   1      33.368  21.393  25.388  1.00  0.00     0.059 A 
ATOM      9  C   UNL A   1      34.317  21.580  24.403  1.00  0.00     0.035 A 
ATOM     10  S   UNL A   1      33.587  22.507  26.664  1.00  0.00    -0.142 S 
ATOM     11  C   UNL A   1      35.014  23.126  25.955  1.00  0.00     0.079 A 
BRANCH   8  12
ATOM     12  C   UNL A   1      32.277  20.356  25.420  1.00  0.00     0.308 C 
BRANCH  12  13
ATOM     13  N   UNL A   1      32.853  19.097  25.890  1.00  0.00    -0.339 N 
ATOM     14  H   UNL A   1      33.825  19.278  26.141  1.00  0.00     0.346 HD
ATOM     15  H   UNL A   1      32.260  18.804  26.665  1.00  0.00     0.346 HD
BRANCH  13  16
ATOM     16  C   UNL A   1      32.840  17.979  24.952  1.00  0.00     0.188 C 
ATOM     17  C   UNL A   1      34.482  16.105  25.587  1.00  0.00     0.017 C 
ATOM     18  C   UNL A   1      34.156  17.235  24.602  1.00  0.00     0.017 C 
ATOM     19  C   UNL A   1      35.367  18.175  24.461  1.00  0.00     0.017 C 
ATOM     20  C   UNL A   1      33.795  16.627  23.230  1.00  0.00     0.013 C 
ATOM     21  C   UNL A   1      33.051  17.735  22.503  1.00  0.00     0.007 C 
ATOM     22  C   UNL A   1      32.315  18.506  23.595  1.00  0.00     0.065 C 
ENDBRANCH  13  16
ENDBRANCH  12  13
ENDBRANCH   8  12
ENDBRANCH   4   7
ENDBRANCH   2   3
ENDBRANCH   1   2
BRANCH   1  23
ATOM     23  C   UNL A   1      39.519  24.176  26.617  1.00  0.00     0.118 C 
BRANCH  23  24
ATOM     24  N   UNL A   1      40.568  24.777  25.808  1.00  0.00    -0.352 N 
ATOM     25  C   UNL A   1      41.198  25.988  25.937  1.00  0.00     0.251 C 
ATOM     26  H   UNL A   1      40.873  24.229  25.049  1.00  0.00     0.163 HD
ATOM     27  O   UNL A   1      41.909  26.391  25.019  1.00  0.00    -0.269 OA
BRANCH  25  28
ATOM     28  C   UNL A   1      41.022  26.813  27.154  1.00  0.00     0.039 A 
ATOM     29  C   UNL A   1      40.209  26.326  28.182  1.00  0.00     0.014 A 
ATOM     30  C   UNL A   1      41.606  28.078  27.270  1.00  0.00     0.014 A 
ATOM     31  C   UNL A   1      40.016  27.085  29.337  1.00  0.00     0.010 A 
ATOM     32  C   UNL A   1      41.473  28.801  28.453  1.00  0.00     0.010 A 
ATOM     33  C   UNL A   1      40.666  28.320  29.493  1.00  0.00    -0.014 A 
BRANCH  33  34
ATOM     34  C   UNL A   1      40.504  29.123  30.731  1.00  0.00     0.031 A 
ATOM     35  C   UNL A   1      39.429  30.176  30.814  1.00  0.00     0.074 A 
ATOM     36  C   UNL A   1      41.360  28.947  31.756  1.00  0.00     0.049 A 
ATOM     37  N   UNL A   1      39.171  31.013  31.785  1.00  0.00    -0.248 NA
ATOM     38  C   UNL A   1      38.547  30.322  29.646  1.00  0.00     0.031 C 
ATOM     39  C   UNL A   1      42.469  27.988  31.779  1.00  0.00     0.029 A 
ATOM     40  N   UNL A   1      41.439  29.572  32.975  1.00  0.00    -0.354 N 
ATOM     41  C   UNL A   1      38.115  31.800  31.337  1.00  0.00     0.074 A 
ATOM     42  C   UNL A   1      37.810  31.369  29.990  1.00  0.00     0.031 C 
ATOM     43  C   UNL A   1      43.101  28.075  32.960  1.00  0.00     0.029 A 
ATOM     44  C   UNL A   1      42.472  29.119  33.762  1.00  0.00     0.049 A 
ATOM     45  H   UNL A   1      40.816  30.280  33.259  1.00  0.00     0.167 HD
ATOM     46  C   UNL A   1      37.450  32.781  31.992  1.00  0.00     0.031 A 
ATOM     47  C   UNL A   1      42.874  29.506  34.989  1.00  0.00     0.031 A 
ATOM     48  C   UNL A   1      37.746  33.194  33.339  1.00  0.00     0.049 A 
ATOM     49  C   UNL A   1      42.111  30.589  35.701  1.00  0.00     0.074 A 
ATOM     50  C   UNL A   1      37.091  34.134  34.114  1.00  0.00     0.029 A 
ATOM     51  N   UNL A   1      38.783  32.691  34.110  1.00  0.00    -0.354 N 
ATOM     52  N   UNL A   1      41.074  31.275  35.283  1.00  0.00    -0.248 NA
ATOM     53  C   UNL A   1      42.563  30.938  37.054  1.00  0.00     0.031 C 
ATOM     54  C   UNL A   1      37.763  34.238  35.336  1.00  0.00     0.029 A 
ATOM     55  C   UNL A   1      38.799  33.317  35.345  1.00  0.00     0.049 A 
ATOM     56  H   UNL A   1      39.414  31.993  33.822  1.00  0.00     0.167 HD
ATOM     57  C   UNL A   1      40.731  32.116  36.335  1.00  0.00     0.074 A 
ATOM     58  C   UNL A   1      41.663  31.843  37.411  1.00  0.00     0.031 C 
ATOM     59  C   UNL A   1      39.732  33.031  36.406  1.00  0.00     0.031 A 
BRANCH  46  60
ATOM     60  C   UNL A   1      36.337  33.483  31.257  1.00  0.00    -0.014 A 
ATOM     61  C   UNL A   1      35.099  33.738  31.878  1.00  0.00     0.010 A 
ATOM     62  C   UNL A   1      36.546  33.937  29.942  1.00  0.00     0.010 A 
ATOM     63  C   UNL A   1      34.079  34.392  31.183  1.00  0.00     0.020 A 
ATOM     64  C   UNL A   1      35.538  34.619  29.253  1.00  0.00     0.020 A 
ATOM     65  C   UNL A   1      34.305  34.827  29.873  1.00  0.00     0.054 A 
BRANCH  65  66
ATOM     66  S   UNL A   1      32.971  35.698  29.005  1.00  0.00     0.124 S 
ATOM     67  O   UNL A   1      32.376  34.624  28.214  1.00  0.00    -0.237 OA
ATOM     68  O   UNL A   1      32.148  36.199  30.101  1.00  0.00    -0.237 OA
ATOM     69  O   UNL A   1      33.670  36.724  28.234  1.00  0.00    -0.744 OA
ENDBRANCH  65  66
ENDBRANCH  46  60
BRANCH  47  70
ATOM     70  C   UNL A   1      44.049  28.848  35.625  1.00  0.00    -0.014 A 
ATOM     71  C   UNL A   1      43.883  27.700  36.419  1.00  0.00     0.010 A 
ATOM     72  C   UNL A   1      45.344  29.360  35.424  1.00  0.00     0.010 A 
ATOM     73  C   UNL A   1      44.987  27.086  37.017  1.00  0.00     0.020 A 
ATOM     74  C   UNL A   1      46.454  28.731  35.996  1.00  0.00     0.020 A 
ATOM     75  C   UNL A   1      46.267  27.605  36.799  1.00  0.00     0.054 A 
BRANCH  75  76
ATOM     76  S   UNL A   1      47.693  26.760  37.540  1.00  0.00     0.124 S 
ATOM     77  O   UNL A   1      47.057  25.656  38.249  1.00  0.00    -0.237 OA
ATOM     78  O   UNL A   1      48.484  26.390  36.369  1.00  0.00    -0.237 OA
ATOM     79  O   UNL A   1      48.294  27.788  38.388  1.00  0.00    -0.744 OA
ENDBRANCH  75  76
ENDBRANCH  47  70
BRANCH  59  80
ATOM     80  C   UNL A   1      39.563  33.774  37.704  1.00  0.00    -0.014 A 
ATOM     81  C   UNL A   1      38.805  33.241  38.760  1.00  0.00     0.010 A 
ATOM     82  C   UNL A   1      40.220  35.006  37.884  1.00  0.00     0.010 A 
ATOM     83  C   UNL A   1      38.678  33.943  39.963  1.00  0.00     0.020 A 
ATOM     84  C   UNL A   1      40.120  35.695  39.094  1.00  0.00     0.020 A 
ATOM     85  C   UNL A   1      39.335  35.166  40.121  1.00  0.00     0.054 A 
BRANCH  85  86
ATOM     86  S   UNL A   1      39.188  36.039  41.703  1.00  0.00     0.124 S 
ATOM     87  O   UNL A   1      39.260  37.438  41.286  1.00  0.00    -0.237 OA
ATOM     88  O   UNL A   1      37.885  35.597  42.194  1.00  0.00    -0.237 OA
ATOM     89  O   UNL A   1      40.333  35.559  42.473  1.00  0.00    -0.744 OA
ENDBRANCH  85  86
ENDBRANCH  59  80
ENDBRANCH  33  34
ENDBRANCH  25  28
ENDBRANCH  23  24
ENDBRANCH   1  23
TORSDOF 16
ENDMDL
