MODEL 1
REMARK VINA RESULT:     -11.3      0.000      0.000
REMARK SMILES CC[C@@H](NC(=O)N1CCO[C@H](CC(=O)NCCCNC(=O)c2ccc(-c3c4nc(c(-c5ccc(S(=O)(=O)[O-])cc5)c5ccc([nH]5)c(-c5ccc(S(=O)(=O)[O-])cc5)c5nc(c(-c6ccc(S(=O)(=O)[O-])cc6)c6ccc3[nH]6)C=C5)C=C4)cc2)C1)c1cccs1
REMARK SMILES IDX 16 1 15 2 13 3 14 4 12 6 11 7 7 8 8 9 82 10 9 11 10 12 5 13
REMARK SMILES IDX 4 14 6 16 3 17 2 18 1 19 83 20 84 21 87 22 85 23 86 24 17 25
REMARK SMILES IDX 18 26 19 27 20 28 21 30 22 31 23 32 81 33 24 34 80 35 25 36
REMARK SMILES IDX 26 37 27 38 74 39 28 40 79 41 73 42 75 43 29 44 78 45 72 46
REMARK SMILES IDX 71 47 30 49 60 50 41 51 59 52 42 53 45 54 58 55 76 56 43 57
REMARK SMILES IDX 44 58 57 60 77 61 46 62 31 63 32 64 40 65 33 66 39 67 34 68
REMARK SMILES IDX 35 69 36 70 37 71 38 72 61 73 62 74 70 75 63 76 69 77 64 78
REMARK SMILES IDX 65 79 66 80 67 81 68 82 47 83 48 84 56 85 49 86 55 87 50 88
REMARK SMILES IDX 51 89 52 90 53 91 54 92
REMARK H PARENT 15 5 4 15 19 29 75 48 45 59
REMARK Flexibility Score: inf
ROOT
ATOM      1  C   UNL A   1      33.399  29.853  26.128  1.00  0.00     0.117 C 
ENDROOT
BRANCH   1   2
ATOM      2  N   UNL A   1      33.440  29.231  24.819  1.00  0.00    -0.356 N 
ATOM      3  C   UNL A   1      32.524  28.471  24.159  1.00  0.00     0.222 C 
ATOM      4  O   UNL A   1      32.700  28.302  22.952  1.00  0.00    -0.275 OA
ATOM      5  H   UNL A   1      34.277  29.383  24.321  1.00  0.00     0.163 HD
BRANCH   3   6
ATOM      6  C   UNL A   1      31.322  27.873  24.868  1.00  0.00     0.133 C 
BRANCH   6   7
ATOM      7  C   UNL A   1      31.679  26.973  26.057  1.00  0.00     0.147 C 
ATOM      8  N   UNL A   1      32.366  24.992  24.796  1.00  0.00    -0.320 N 
ATOM      9  C   UNL A   1      31.257  24.209  25.329  1.00  0.00     0.150 C 
ATOM     10  C   UNL A   1      32.809  25.982  25.765  1.00  0.00     0.154 C 
ATOM     11  C   UNL A   1      30.135  25.096  25.925  1.00  0.00     0.182 C 
ATOM     12  O   UNL A   1      30.557  26.274  26.629  1.00  0.00    -0.374 OA
BRANCH   8  13
ATOM     13  C   UNL A   1      33.272  24.579  23.864  1.00  0.00     0.318 C 
ATOM     14  N   UNL A   1      34.600  24.557  24.090  1.00  0.00    -0.330 N 
ATOM     15  H   UNL A   1      35.103  25.174  23.510  1.00  0.00     0.166 HD
ATOM     16  O   UNL A   1      32.919  24.293  22.715  1.00  0.00    -0.249 OA
BRANCH  14  17
ATOM     17  C   UNL A   1      35.456  23.803  25.021  1.00  0.00     0.124 C 
BRANCH  17  18
ATOM     18  C   UNL A   1      36.797  23.277  24.481  1.00  0.00     0.027 C 
ATOM     19  C   UNL A   1      36.758  22.921  23.001  1.00  0.00     0.006 C 
ENDBRANCH  17  18
BRANCH  17  20
ATOM     20  C   UNL A   1      34.740  22.805  25.886  1.00  0.00     0.027 A 
ATOM     21  C   UNL A   1      34.340  22.983  27.201  1.00  0.00     0.017 A 
ATOM     22  S   UNL A   1      34.518  21.172  25.432  1.00  0.00    -0.147 S 
ATOM     23  C   UNL A   1      33.571  21.891  27.688  1.00  0.00     0.012 A 
ATOM     24  C   UNL A   1      33.466  20.889  26.750  1.00  0.00     0.065 A 
ENDBRANCH  17  20
ENDBRANCH  14  17
ENDBRANCH   8  13
ENDBRANCH   6   7
ENDBRANCH   3   6
ENDBRANCH   1   2
BRANCH   1  25
ATOM     25  C   UNL A   1      34.148  29.103  27.231  1.00  0.00     0.042 C 
BRANCH  25  26
ATOM     26  C   UNL A   1      35.449  29.751  27.687  1.00  0.00     0.118 C 
BRANCH  26  27
ATOM     27  N   UNL A   1      35.369  30.169  29.074  1.00  0.00    -0.352 N 
ATOM     28  C   UNL A   1      36.285  29.969  30.079  1.00  0.00     0.251 C 
ATOM     29  H   UNL A   1      34.555  30.661  29.327  1.00  0.00     0.163 HD
ATOM     30  O   UNL A   1      35.940  30.081  31.250  1.00  0.00    -0.269 OA
BRANCH  28  31
ATOM     31  C   UNL A   1      37.682  29.610  29.743  1.00  0.00     0.039 A 
ATOM     32  C   UNL A   1      38.131  29.760  28.429  1.00  0.00     0.014 A 
ATOM     33  C   UNL A   1      38.533  29.080  30.718  1.00  0.00     0.014 A 
ATOM     34  C   UNL A   1      39.447  29.413  28.100  1.00  0.00     0.010 A 
ATOM     35  C   UNL A   1      39.861  28.799  30.404  1.00  0.00     0.010 A 
ATOM     36  C   UNL A   1      40.327  28.945  29.089  1.00  0.00    -0.014 A 
BRANCH  36  37
ATOM     37  C   UNL A   1      41.728  28.559  28.772  1.00  0.00     0.031 A 
ATOM     38  C   UNL A   1      42.810  29.607  28.779  1.00  0.00     0.074 A 
ATOM     39  C   UNL A   1      42.017  27.293  28.412  1.00  0.00     0.049 A 
ATOM     40  N   UNL A   1      44.064  29.503  28.420  1.00  0.00    -0.248 NA
ATOM     41  C   UNL A   1      42.423  30.956  29.227  1.00  0.00     0.031 C 
ATOM     42  C   UNL A   1      41.058  26.188  28.352  1.00  0.00     0.029 A 
ATOM     43  N   UNL A   1      43.203  26.725  28.014  1.00  0.00    -0.354 N 
ATOM     44  C   UNL A   1      44.608  30.775  28.576  1.00  0.00     0.074 A 
ATOM     45  C   UNL A   1      43.538  31.641  29.019  1.00  0.00     0.031 C 
ATOM     46  C   UNL A   1      41.696  25.074  27.956  1.00  0.00     0.029 A 
ATOM     47  C   UNL A   1      43.096  25.393  27.689  1.00  0.00     0.049 A 
ATOM     48  H   UNL A   1      44.049  27.224  27.968  1.00  0.00     0.167 HD
ATOM     49  C   UNL A   1      45.886  31.181  28.384  1.00  0.00     0.031 A 
ATOM     50  C   UNL A   1      44.015  24.529  27.213  1.00  0.00     0.031 A 
ATOM     51  C   UNL A   1      46.950  30.313  27.956  1.00  0.00     0.049 A 
ATOM     52  C   UNL A   1      45.422  25.011  26.977  1.00  0.00     0.074 A 
ATOM     53  C   UNL A   1      48.287  30.617  27.772  1.00  0.00     0.029 A 
ATOM     54  N   UNL A   1      46.798  28.969  27.645  1.00  0.00    -0.354 N 
ATOM     55  N   UNL A   1      45.927  26.205  27.172  1.00  0.00    -0.248 NA
ATOM     56  C   UNL A   1      46.386  24.025  26.465  1.00  0.00     0.031 C 
ATOM     57  C   UNL A   1      48.935  29.470  27.304  1.00  0.00     0.029 A 
ATOM     58  C   UNL A   1      48.015  28.436  27.255  1.00  0.00     0.049 A 
ATOM     59  H   UNL A   1      45.952  28.469  27.696  1.00  0.00     0.167 HD
ATOM     60  C   UNL A   1      47.275  26.106  26.841  1.00  0.00     0.074 A 
ATOM     61  C   UNL A   1      47.508  24.734  26.438  1.00  0.00     0.031 C 
ATOM     62  C   UNL A   1      48.234  27.063  26.873  1.00  0.00     0.031 A 
BRANCH  49  63
ATOM     63  C   UNL A   1      46.202  32.633  28.631  1.00  0.00    -0.014 A 
ATOM     64  C   UNL A   1      46.512  33.101  29.920  1.00  0.00     0.010 A 
ATOM     65  C   UNL A   1      46.230  33.536  27.552  1.00  0.00     0.010 A 
ATOM     66  C   UNL A   1      46.800  34.451  30.135  1.00  0.00     0.020 A 
ATOM     67  C   UNL A   1      46.548  34.882  27.757  1.00  0.00     0.020 A 
ATOM     68  C   UNL A   1      46.813  35.335  29.051  1.00  0.00     0.054 A 
BRANCH  68  69
ATOM     69  S   UNL A   1      47.211  37.077  29.357  1.00  0.00     0.124 S 
ATOM     70  O   UNL A   1      48.226  36.975  30.403  1.00  0.00    -0.237 OA
ATOM     71  O   UNL A   1      47.695  37.529  28.054  1.00  0.00    -0.237 OA
ATOM     72  O   UNL A   1      45.938  37.656  29.780  1.00  0.00    -0.744 OA
ENDBRANCH  68  69
ENDBRANCH  49  63
BRANCH  50  73
ATOM     73  C   UNL A   1      43.637  23.117  26.933  1.00  0.00    -0.014 A 
ATOM     74  C   UNL A   1      42.911  22.373  27.879  1.00  0.00     0.010 A 
ATOM     75  C   UNL A   1      43.995  22.508  25.716  1.00  0.00     0.010 A 
ATOM     76  C   UNL A   1      42.569  21.042  27.625  1.00  0.00     0.020 A 
ATOM     77  C   UNL A   1      43.630  21.186  25.445  1.00  0.00     0.020 A 
ATOM     78  C   UNL A   1      42.930  20.456  26.408  1.00  0.00     0.054 A 
BRANCH  78  79
ATOM     79  S   UNL A   1      42.438  18.740  26.081  1.00  0.00     0.124 S 
ATOM     80  O   UNL A   1      42.650  18.111  27.381  1.00  0.00    -0.237 OA
ATOM     81  O   UNL A   1      41.044  18.885  25.669  1.00  0.00    -0.237 OA
ATOM     82  O   UNL A   1      43.353  18.318  25.023  1.00  0.00    -0.744 OA
ENDBRANCH  78  79
ENDBRANCH  50  73
BRANCH  62  83
ATOM     83  C   UNL A   1      49.640  26.662  26.516  1.00  0.00    -0.014 A 
ATOM     84  C   UNL A   1      50.511  26.116  27.474  1.00  0.00     0.010 A 
ATOM     85  C   UNL A   1      50.059  26.746  25.175  1.00  0.00     0.010 A 
ATOM     86  C   UNL A   1      51.782  25.672  27.099  1.00  0.00     0.020 A 
ATOM     87  C   UNL A   1      51.319  26.280  24.792  1.00  0.00     0.020 A 
ATOM     88  C   UNL A   1      52.176  25.752  25.759  1.00  0.00     0.054 A 
BRANCH  88  89
ATOM     89  S   UNL A   1      53.800  25.098  25.285  1.00  0.00     0.124 S 
ATOM     90  O   UNL A   1      54.667  25.653  26.320  1.00  0.00    -0.237 OA
ATOM     91  O   UNL A   1      53.593  23.652  25.348  1.00  0.00    -0.237 OA
ATOM     92  O   UNL A   1      54.011  25.632  23.941  1.00  0.00    -0.744 OA
ENDBRANCH  88  89
ENDBRANCH  62  83
ENDBRANCH  36  37
ENDBRANCH  28  31
ENDBRANCH  26  27
ENDBRANCH  25  26
ENDBRANCH   1  25
TORSDOF 18
ENDMDL
MODEL 2
REMARK VINA RESULT:     -11.2      6.115     10.588
REMARK SMILES CC[C@@H](NC(=O)N1CCO[C@H](CC(=O)NCCCNC(=O)c2ccc(-c3c4nc(c(-c5ccc(S(=O)(=O)[O-])cc5)c5ccc([nH]5)c(-c5ccc(S(=O)(=O)[O-])cc5)c5nc(c(-c6ccc(S(=O)(=O)[O-])cc6)c6ccc3[nH]6)C=C5)C=C4)cc2)C1)c1cccs1
REMARK SMILES IDX 16 1 15 2 13 3 14 4 12 6 11 7 7 8 8 9 82 10 9 11 10 12 5 13
REMARK SMILES IDX 4 14 6 16 3 17 2 18 1 19 83 20 84 21 87 22 85 23 86 24 17 25
REMARK SMILES IDX 18 26 19 27 20 28 21 30 22 31 23 32 81 33 24 34 80 35 25 36
REMARK SMILES IDX 26 37 27 38 74 39 28 40 79 41 73 42 75 43 29 44 78 45 72 46
REMARK SMILES IDX 71 47 30 49 60 50 41 51 59 52 42 53 45 54 58 55 76 56 43 57
REMARK SMILES IDX 44 58 57 60 77 61 46 62 31 63 32 64 40 65 33 66 39 67 34 68
REMARK SMILES IDX 35 69 36 70 37 71 38 72 61 73 62 74 70 75 63 76 69 77 64 78
REMARK SMILES IDX 65 79 66 80 67 81 68 82 47 83 48 84 56 85 49 86 55 87 50 88
REMARK SMILES IDX 51 89 52 90 53 91 54 92
REMARK H PARENT 15 5 4 15 19 29 75 48 45 59
REMARK Flexibility Score: inf
ROOT
ATOM      1  C   UNL A   1      32.056  29.688  26.449  1.00  0.00     0.117 C 
ENDROOT
BRANCH   1   2
ATOM      2  N   UNL A   1      33.066  29.244  25.507  1.00  0.00    -0.356 N 
ATOM      3  C   UNL A   1      33.239  28.049  24.878  1.00  0.00     0.222 C 
ATOM      4  O   UNL A   1      34.014  28.028  23.920  1.00  0.00    -0.275 OA
ATOM      5  H   UNL A   1      33.743  29.923  25.285  1.00  0.00     0.163 HD
BRANCH   3   6
ATOM      6  C   UNL A   1      32.500  26.799  25.317  1.00  0.00     0.133 C 
BRANCH   6   7
ATOM      7  C   UNL A   1      31.113  26.635  24.683  1.00  0.00     0.147 C 
ATOM      8  N   UNL A   1      30.808  24.250  25.134  1.00  0.00    -0.320 N 
ATOM      9  C   UNL A   1      30.817  23.931  23.710  1.00  0.00     0.150 C 
ATOM     10  C   UNL A   1      30.245  25.572  25.361  1.00  0.00     0.154 C 
ATOM     11  C   UNL A   1      31.429  25.064  22.851  1.00  0.00     0.182 C 
ATOM     12  O   UNL A   1      31.135  26.409  23.260  1.00  0.00    -0.374 OA
BRANCH   8  13
ATOM     13  C   UNL A   1      30.741  23.356  26.161  1.00  0.00     0.318 C 
ATOM     14  N   UNL A   1      31.187  22.089  26.062  1.00  0.00    -0.330 N 
ATOM     15  H   UNL A   1      30.472  21.417  26.153  1.00  0.00     0.166 HD
ATOM     16  O   UNL A   1      30.169  23.642  27.219  1.00  0.00    -0.249 OA
BRANCH  14  17
ATOM     17  C   UNL A   1      32.519  21.498  25.847  1.00  0.00     0.124 C 
BRANCH  17  18
ATOM     18  C   UNL A   1      33.699  22.465  25.659  1.00  0.00     0.027 C 
ATOM     19  C   UNL A   1      34.401  22.830  26.961  1.00  0.00     0.006 C 
ENDBRANCH  17  18
BRANCH  17  20
ATOM     20  C   UNL A   1      32.557  20.333  24.899  1.00  0.00     0.027 A 
ATOM     21  C   UNL A   1      32.268  20.357  23.545  1.00  0.00     0.017 A 
ATOM     22  S   UNL A   1      32.742  18.716  25.422  1.00  0.00    -0.147 S 
ATOM     23  C   UNL A   1      32.527  19.111  22.911  1.00  0.00     0.012 A 
ATOM     24  C   UNL A   1      32.943  18.161  23.816  1.00  0.00     0.065 A 
ENDBRANCH  17  20
ENDBRANCH  14  17
ENDBRANCH   8  13
ENDBRANCH   6   7
ENDBRANCH   3   6
ENDBRANCH   1   2
BRANCH   1  25
ATOM     25  C   UNL A   1      31.944  31.204  26.617  1.00  0.00     0.042 C 
BRANCH  25  26
ATOM     26  C   UNL A   1      33.117  31.866  27.328  1.00  0.00     0.118 C 
BRANCH  26  27
ATOM     27  N   UNL A   1      32.875  33.282  27.535  1.00  0.00    -0.352 N 
ATOM     28  C   UNL A   1      33.393  34.102  28.508  1.00  0.00     0.251 C 
ATOM     29  H   UNL A   1      32.262  33.710  26.894  1.00  0.00     0.163 HD
ATOM     30  O   UNL A   1      32.851  35.173  28.755  1.00  0.00    -0.269 OA
BRANCH  28  31
ATOM     31  C   UNL A   1      34.600  33.685  29.259  1.00  0.00     0.039 A 
ATOM     32  C   UNL A   1      35.852  34.162  28.864  1.00  0.00     0.014 A 
ATOM     33  C   UNL A   1      34.498  32.785  30.324  1.00  0.00     0.014 A 
ATOM     34  C   UNL A   1      36.999  33.764  29.561  1.00  0.00     0.010 A 
ATOM     35  C   UNL A   1      35.631  32.443  31.058  1.00  0.00     0.010 A 
ATOM     36  C   UNL A   1      36.896  32.915  30.674  1.00  0.00    -0.014 A 
BRANCH  36  37
ATOM     37  C   UNL A   1      38.095  32.466  31.431  1.00  0.00     0.031 A 
ATOM     38  C   UNL A   1      38.935  31.336  30.893  1.00  0.00     0.074 A 
ATOM     39  C   UNL A   1      38.389  33.017  32.624  1.00  0.00     0.049 A 
ATOM     40  N   UNL A   1      39.945  30.719  31.451  1.00  0.00    -0.248 NA
ATOM     41  C   UNL A   1      38.575  30.817  29.562  1.00  0.00     0.031 C 
ATOM     42  C   UNL A   1      37.649  34.108  33.261  1.00  0.00     0.029 A 
ATOM     43  N   UNL A   1      39.386  32.725  33.523  1.00  0.00    -0.354 N 
ATOM     44  C   UNL A   1      40.324  29.727  30.552  1.00  0.00     0.074 A 
ATOM     45  C   UNL A   1      39.410  29.796  29.434  1.00  0.00     0.031 C 
ATOM     46  C   UNL A   1      38.224  34.400  34.439  1.00  0.00     0.029 A 
ATOM     47  C   UNL A   1      39.344  33.491  34.664  1.00  0.00     0.049 A 
ATOM     48  H   UNL A   1      40.067  32.032  33.364  1.00  0.00     0.167 HD
ATOM     49  C   UNL A   1      41.352  28.848  30.641  1.00  0.00     0.031 A 
ATOM     50  C   UNL A   1      40.109  33.455  35.774  1.00  0.00     0.031 A 
ATOM     51  C   UNL A   1      42.268  28.791  31.749  1.00  0.00     0.049 A 
ATOM     52  C   UNL A   1      41.226  32.450  35.864  1.00  0.00     0.074 A 
ATOM     53  C   UNL A   1      43.366  27.967  31.915  1.00  0.00     0.029 A 
ATOM     54  N   UNL A   1      42.192  29.591  32.879  1.00  0.00    -0.354 N 
ATOM     55  N   UNL A   1      41.597  31.549  34.985  1.00  0.00    -0.248 NA
ATOM     56  C   UNL A   1      42.033  32.460  37.093  1.00  0.00     0.031 C 
ATOM     57  C   UNL A   1      43.927  28.234  33.167  1.00  0.00     0.029 A 
ATOM     58  C   UNL A   1      43.215  29.268  33.755  1.00  0.00     0.049 A 
ATOM     59  H   UNL A   1      41.514  30.287  33.035  1.00  0.00     0.167 HD
ATOM     60  C   UNL A   1      42.702  30.911  35.539  1.00  0.00     0.074 A 
ATOM     61  C   UNL A   1      42.942  31.531  36.826  1.00  0.00     0.031 C 
ATOM     62  C   UNL A   1      43.452  29.906  35.025  1.00  0.00     0.031 A 
BRANCH  49  63
ATOM     63  C   UNL A   1      41.536  27.871  29.509  1.00  0.00    -0.014 A 
ATOM     64  C   UNL A   1      40.731  26.723  29.401  1.00  0.00     0.010 A 
ATOM     65  C   UNL A   1      42.498  28.126  28.515  1.00  0.00     0.010 A 
ATOM     66  C   UNL A   1      40.914  25.824  28.348  1.00  0.00     0.020 A 
ATOM     67  C   UNL A   1      42.666  27.245  27.442  1.00  0.00     0.020 A 
ATOM     68  C   UNL A   1      41.884  26.089  27.375  1.00  0.00     0.054 A 
BRANCH  68  69
ATOM     69  S   UNL A   1      42.085  24.916  26.008  1.00  0.00     0.124 S 
ATOM     70  O   UNL A   1      42.130  25.808  24.851  1.00  0.00    -0.237 OA
ATOM     71  O   UNL A   1      43.344  24.252  26.337  1.00  0.00    -0.237 OA
ATOM     72  O   UNL A   1      40.897  24.071  26.096  1.00  0.00    -0.744 OA
ENDBRANCH  68  69
ENDBRANCH  49  63
BRANCH  50  73
ATOM     73  C   UNL A   1      39.850  34.407  36.889  1.00  0.00    -0.014 A 
ATOM     74  C   UNL A   1      40.310  35.734  36.814  1.00  0.00     0.010 A 
ATOM     75  C   UNL A   1      39.137  33.996  38.029  1.00  0.00     0.010 A 
ATOM     76  C   UNL A   1      40.081  36.624  37.867  1.00  0.00     0.020 A 
ATOM     77  C   UNL A   1      38.881  34.891  39.073  1.00  0.00     0.020 A 
ATOM     78  C   UNL A   1      39.367  36.198  38.990  1.00  0.00     0.054 A 
BRANCH  78  79
ATOM     79  S   UNL A   1      39.045  37.383  40.326  1.00  0.00     0.124 S 
ATOM     80  O   UNL A   1      38.230  38.388  39.649  1.00  0.00    -0.237 OA
ATOM     81  O   UNL A   1      38.347  36.563  41.313  1.00  0.00    -0.237 OA
ATOM     82  O   UNL A   1      40.380  37.822  40.722  1.00  0.00    -0.744 OA
ENDBRANCH  78  79
ENDBRANCH  50  73
BRANCH  62  83
ATOM     83  C   UNL A   1      44.642  29.440  35.820  1.00  0.00    -0.014 A 
ATOM     84  C   UNL A   1      44.542  28.375  36.731  1.00  0.00     0.010 A 
ATOM     85  C   UNL A   1      45.901  30.020  35.577  1.00  0.00     0.010 A 
ATOM     86  C   UNL A   1      45.679  27.906  37.395  1.00  0.00     0.020 A 
ATOM     87  C   UNL A   1      47.044  29.537  36.219  1.00  0.00     0.020 A 
ATOM     88  C   UNL A   1      46.924  28.486  37.129  1.00  0.00     0.054 A 
BRANCH  88  89
ATOM     89  S   UNL A   1      48.396  27.807  37.944  1.00  0.00     0.124 S 
ATOM     90  O   UNL A   1      48.183  28.199  39.334  1.00  0.00    -0.237 OA
ATOM     91  O   UNL A   1      48.281  26.376  37.670  1.00  0.00    -0.237 OA
ATOM     92  O   UNL A   1      49.506  28.477  37.270  1.00  0.00    -0.744 OA
ENDBRANCH  88  89
ENDBRANCH  62  83
ENDBRANCH  36  37
ENDBRANCH  28  31
ENDBRANCH  26  27
ENDBRANCH  25  26
ENDBRANCH   1  25
TORSDOF 18
ENDMDL
MODEL 3
REMARK VINA RESULT:     -11.1      2.329      8.268
REMARK SMILES CC[C@@H](NC(=O)N1CCO[C@H](CC(=O)NCCCNC(=O)c2ccc(-c3c4nc(c(-c5ccc(S(=O)(=O)[O-])cc5)c5ccc([nH]5)c(-c5ccc(S(=O)(=O)[O-])cc5)c5nc(c(-c6ccc(S(=O)(=O)[O-])cc6)c6ccc3[nH]6)C=C5)C=C4)cc2)C1)c1cccs1
REMARK SMILES IDX 16 1 15 2 13 3 14 4 12 6 11 7 7 8 8 9 82 10 9 11 10 12 5 13
REMARK SMILES IDX 4 14 6 16 3 17 2 18 1 19 83 20 84 21 87 22 85 23 86 24 17 25
REMARK SMILES IDX 18 26 19 27 20 28 21 30 22 31 23 32 81 33 24 34 80 35 25 36
REMARK SMILES IDX 26 37 27 38 74 39 28 40 79 41 73 42 75 43 29 44 78 45 72 46
REMARK SMILES IDX 71 47 30 49 60 50 41 51 59 52 42 53 45 54 58 55 76 56 43 57
REMARK SMILES IDX 44 58 57 60 77 61 46 62 31 63 32 64 40 65 33 66 39 67 34 68
REMARK SMILES IDX 35 69 36 70 37 71 38 72 61 73 62 74 70 75 63 76 69 77 64 78
REMARK SMILES IDX 65 79 66 80 67 81 68 82 47 83 48 84 56 85 49 86 55 87 50 88
REMARK SMILES IDX 51 89 52 90 53 91 54 92
REMARK H PARENT 15 5 4 15 19 29 75 48 45 59
REMARK Flexibility Score: inf
ROOT
ATOM      1  C   UNL A   1      37.961  22.782  26.024  1.00  0.00     0.117 C 
ENDROOT
BRANCH   1   2
ATOM      2  N   UNL A   1      37.601  22.751  24.619  1.00  0.00    -0.356 N 
ATOM      3  C   UNL A   1      36.464  23.135  23.978  1.00  0.00     0.222 C 
ATOM      4  O   UNL A   1      36.525  23.259  22.753  1.00  0.00    -0.275 OA
ATOM      5  H   UNL A   1      38.300  22.388  24.028  1.00  0.00     0.163 HD
BRANCH   3   6
ATOM      6  C   UNL A   1      35.178  23.421  24.731  1.00  0.00     0.133 C 
BRANCH   6   7
ATOM      7  C   UNL A   1      34.271  22.198  24.911  1.00  0.00     0.147 C 
ATOM      8  N   UNL A   1      32.673  23.182  26.481  1.00  0.00    -0.320 N 
ATOM      9  C   UNL A   1      33.078  22.265  27.541  1.00  0.00     0.150 C 
ATOM     10  C   UNL A   1      32.805  22.550  25.177  1.00  0.00     0.154 C 
ATOM     11  C   UNL A   1      34.452  21.605  27.264  1.00  0.00     0.182 C 
ATOM     12  O   UNL A   1      34.732  21.258  25.899  1.00  0.00    -0.374 OA
BRANCH   8  13
ATOM     13  C   UNL A   1      31.776  24.201  26.595  1.00  0.00     0.318 C 
ATOM     14  N   UNL A   1      31.995  25.432  26.093  1.00  0.00    -0.330 N 
ATOM     15  H   UNL A   1      32.051  26.130  26.786  1.00  0.00     0.166 HD
ATOM     16  O   UNL A   1      30.742  24.071  27.260  1.00  0.00    -0.249 OA
BRANCH  14  17
ATOM     17  C   UNL A   1      32.169  25.953  24.727  1.00  0.00     0.124 C 
BRANCH  17  18
ATOM     18  C   UNL A   1      33.483  26.689  24.412  1.00  0.00     0.027 C 
ATOM     19  C   UNL A   1      34.194  27.219  25.651  1.00  0.00     0.006 C 
ENDBRANCH  17  18
BRANCH  17  20
ATOM     20  C   UNL A   1      30.963  26.629  24.140  1.00  0.00     0.027 A 
ATOM     21  C   UNL A   1      29.691  26.095  24.017  1.00  0.00     0.017 A 
ATOM     22  S   UNL A   1      31.048  28.115  23.299  1.00  0.00    -0.147 S 
ATOM     23  C   UNL A   1      28.746  27.043  23.538  1.00  0.00     0.012 A 
ATOM     24  C   UNL A   1      29.343  28.249  23.249  1.00  0.00     0.065 A 
ENDBRANCH  17  20
ENDBRANCH  14  17
ENDBRANCH   8  13
ENDBRANCH   6   7
ENDBRANCH   3   6
ENDBRANCH   1   2
BRANCH   1  25
ATOM     25  C   UNL A   1      38.996  21.742  26.455  1.00  0.00     0.042 C 
BRANCH  25  26
ATOM     26  C   UNL A   1      39.368  20.718  25.390  1.00  0.00     0.118 C 
BRANCH  26  27
ATOM     27  N   UNL A   1      40.196  19.663  25.942  1.00  0.00    -0.352 N 
ATOM     28  C   UNL A   1      41.508  19.732  26.347  1.00  0.00     0.251 C 
ATOM     29  H   UNL A   1      39.763  18.785  26.042  1.00  0.00     0.163 HD
ATOM     30  O   UNL A   1      42.162  18.703  26.476  1.00  0.00    -0.269 OA
BRANCH  28  31
ATOM     31  C   UNL A   1      42.128  21.050  26.616  1.00  0.00     0.039 A 
ATOM     32  C   UNL A   1      42.290  21.474  27.938  1.00  0.00     0.014 A 
ATOM     33  C   UNL A   1      42.505  21.887  25.561  1.00  0.00     0.014 A 
ATOM     34  C   UNL A   1      42.865  22.722  28.202  1.00  0.00     0.010 A 
ATOM     35  C   UNL A   1      43.138  23.099  25.827  1.00  0.00     0.010 A 
ATOM     36  C   UNL A   1      43.309  23.538  27.149  1.00  0.00    -0.014 A 
BRANCH  36  37
ATOM     37  C   UNL A   1      43.915  24.874  27.394  1.00  0.00     0.031 A 
ATOM     38  C   UNL A   1      43.040  26.020  27.831  1.00  0.00     0.074 A 
ATOM     39  C   UNL A   1      45.226  25.076  27.159  1.00  0.00     0.049 A 
ATOM     40  N   UNL A   1      43.346  27.282  27.984  1.00  0.00    -0.248 NA
ATOM     41  C   UNL A   1      41.627  25.707  28.110  1.00  0.00     0.031 C 
ATOM     42  C   UNL A   1      46.178  24.054  26.721  1.00  0.00     0.029 A 
ATOM     43  N   UNL A   1      45.983  26.220  27.245  1.00  0.00    -0.354 N 
ATOM     44  C   UNL A   1      42.164  27.917  28.352  1.00  0.00     0.074 A 
ATOM     45  C   UNL A   1      41.127  26.909  28.357  1.00  0.00     0.031 C 
ATOM     46  C   UNL A   1      47.393  24.613  26.589  1.00  0.00     0.029 A 
ATOM     47  C   UNL A   1      47.299  26.039  26.888  1.00  0.00     0.049 A 
ATOM     48  H   UNL A   1      45.618  27.086  27.535  1.00  0.00     0.167 HD
ATOM     49  C   UNL A   1      41.962  29.217  28.674  1.00  0.00     0.031 A 
ATOM     50  C   UNL A   1      48.312  26.924  26.794  1.00  0.00     0.031 A 
ATOM     51  C   UNL A   1      42.999  30.214  28.680  1.00  0.00     0.049 A 
ATOM     52  C   UNL A   1      48.058  28.369  27.127  1.00  0.00     0.074 A 
ATOM     53  C   UNL A   1      42.907  31.549  29.031  1.00  0.00     0.029 A 
ATOM     54  N   UNL A   1      44.319  29.985  28.320  1.00  0.00    -0.354 N 
ATOM     55  N   UNL A   1      46.943  28.942  27.515  1.00  0.00    -0.248 NA
ATOM     56  C   UNL A   1      49.200  29.289  27.015  1.00  0.00     0.031 C 
ATOM     57  C   UNL A   1      44.159  32.140  28.837  1.00  0.00     0.029 A 
ATOM     58  C   UNL A   1      45.046  31.158  28.424  1.00  0.00     0.049 A 
ATOM     59  H   UNL A   1      44.685  29.117  28.034  1.00  0.00     0.167 HD
ATOM     60  C   UNL A   1      47.258  30.280  27.730  1.00  0.00     0.074 A 
ATOM     61  C   UNL A   1      48.668  30.431  27.432  1.00  0.00     0.031 C 
ATOM     62  C   UNL A   1      46.453  31.290  28.141  1.00  0.00     0.031 A 
BRANCH  49  63
ATOM     63  C   UNL A   1      40.563  29.637  29.040  1.00  0.00    -0.014 A 
ATOM     64  C   UNL A   1      39.538  29.669  28.077  1.00  0.00     0.010 A 
ATOM     65  C   UNL A   1      40.257  29.965  30.373  1.00  0.00     0.010 A 
ATOM     66  C   UNL A   1      38.245  30.064  28.430  1.00  0.00     0.020 A 
ATOM     67  C   UNL A   1      38.958  30.331  30.738  1.00  0.00     0.020 A 
ATOM     68  C   UNL A   1      37.963  30.396  29.759  1.00  0.00     0.054 A 
BRANCH  68  69
ATOM     69  S   UNL A   1      36.272  30.884  30.193  1.00  0.00     0.124 S 
ATOM     70  O   UNL A   1      35.542  30.558  28.969  1.00  0.00    -0.237 OA
ATOM     71  O   UNL A   1      35.978  30.034  31.344  1.00  0.00    -0.237 OA
ATOM     72  O   UNL A   1      36.385  32.310  30.487  1.00  0.00    -0.744 OA
ENDBRANCH  68  69
ENDBRANCH  49  63
BRANCH  50  73
ATOM     73  C   UNL A   1      49.665  26.466  26.374  1.00  0.00    -0.014 A 
ATOM     74  C   UNL A   1      50.063  26.560  25.029  1.00  0.00     0.010 A 
ATOM     75  C   UNL A   1      50.566  25.937  27.316  1.00  0.00     0.010 A 
ATOM     76  C   UNL A   1      51.327  26.116  24.630  1.00  0.00     0.020 A 
ATOM     77  C   UNL A   1      51.842  25.518  26.926  1.00  0.00     0.020 A 
ATOM     78  C   UNL A   1      52.210  25.598  25.582  1.00  0.00     0.054 A 
BRANCH  78  79
ATOM     79  S   UNL A   1      53.861  25.068  25.048  1.00  0.00     0.124 S 
ATOM     80  O   UNL A   1      54.020  25.792  23.790  1.00  0.00    -0.237 OA
ATOM     81  O   UNL A   1      54.708  25.519  26.149  1.00  0.00    -0.237 OA
ATOM     82  O   UNL A   1      53.730  23.618  24.925  1.00  0.00    -0.744 OA
ENDBRANCH  78  79
ENDBRANCH  50  73
BRANCH  62  83
ATOM     83  C   UNL A   1      47.077  32.644  28.351  1.00  0.00    -0.014 A 
ATOM     84  C   UNL A   1      47.686  32.988  29.569  1.00  0.00     0.010 A 
ATOM     85  C   UNL A   1      47.135  33.548  27.274  1.00  0.00     0.010 A 
ATOM     86  C   UNL A   1      48.332  34.219  29.711  1.00  0.00     0.020 A 
ATOM     87  C   UNL A   1      47.801  34.768  27.404  1.00  0.00     0.020 A 
ATOM     88  C   UNL A   1      48.391  35.099  28.624  1.00  0.00     0.054 A 
BRANCH  88  89
ATOM     89  S   UNL A   1      49.303  36.656  28.810  1.00  0.00     0.124 S 
ATOM     90  O   UNL A   1      50.513  36.221  29.500  1.00  0.00    -0.237 OA
ATOM     91  O   UNL A   1      49.488  37.085  27.425  1.00  0.00    -0.237 OA
ATOM     92  O   UNL A   1      48.402  37.495  29.599  1.00  0.00    -0.744 OA
ENDBRANCH  88  89
ENDBRANCH  62  83
ENDBRANCH  36  37
ENDBRANCH  28  31
ENDBRANCH  26  27
ENDBRANCH  25  26
ENDBRANCH   1  25
TORSDOF 18
ENDMDL
