MODEL 1
REMARK VINA RESULT:     -10.5      0.000      0.000
REMARK SMILES COCc1cccc(O[C@@H](C)c2ccc(C(=O)NCCCNC(=O)c3ccc(-c4c5nc(c(-c6ccc(S(=O)(=O)[O-])cc6)c6ccc([nH]6)c(-c6ccc(S(=O)(=O)[O-])cc6)c6nc(c(-c7ccc(S(=O)(=O)[O-])cc7)c7ccc4[nH]7)C=C6)C=C5)cc3)o2)c1
REMARK SMILES IDX 19 1 18 2 16 3 17 4 15 6 12 7 13 8 85 9 14 10 10 11 11 12
REMARK SMILES IDX 9 13 8 14 4 15 5 16 86 17 6 18 7 19 3 20 2 21 1 22 20 23
REMARK SMILES IDX 21 24 22 25 23 26 24 28 25 29 26 30 84 31 27 32 83 33 28 34
REMARK SMILES IDX 29 35 30 36 77 37 31 38 82 39 76 40 78 41 32 42 81 43 75 44
REMARK SMILES IDX 74 45 33 47 63 48 44 49 62 50 45 51 48 52 61 53 79 54 46 55
REMARK SMILES IDX 47 56 60 58 80 59 49 60 34 61 35 62 43 63 36 64 42 65 37 66
REMARK SMILES IDX 38 67 39 68 40 69 41 70 64 71 65 72 73 73 66 74 72 75 67 76
REMARK SMILES IDX 68 77 69 78 70 79 71 80 50 81 51 82 59 83 52 84 58 85 53 86
REMARK SMILES IDX 54 87 55 88 56 89 57 90
REMARK H PARENT 18 5 22 27 78 46 48 57
REMARK Flexibility Score: inf
ROOT
ATOM      1  C   UNL A   1      31.699  29.402  25.018  1.00  0.00     0.118 C 
ENDROOT
BRANCH   1   2
ATOM      2  N   UNL A   1      31.035  29.656  23.751  1.00  0.00    -0.349 N 
ATOM      3  C   UNL A   1      30.308  28.796  22.956  1.00  0.00     0.286 C 
ATOM      4  O   UNL A   1      29.564  29.322  22.120  1.00  0.00    -0.266 OA
ATOM      5  H   UNL A   1      31.115  30.576  23.412  1.00  0.00     0.163 HD
BRANCH   3   6
ATOM      6  C   UNL A   1      30.434  27.360  23.104  1.00  0.00     0.191 A 
ATOM      7  C   UNL A   1      31.488  25.417  22.858  1.00  0.00     0.145 A 
ATOM      8  C   UNL A   1      30.399  25.184  23.673  1.00  0.00     0.050 A 
ATOM      9  O   UNL A   1      31.522  26.746  22.530  1.00  0.00    -0.452 OA
ATOM     10  C   UNL A   1      29.709  26.410  23.798  1.00  0.00     0.057 A 
BRANCH   7  11
ATOM     11  C   UNL A   1      32.621  24.565  22.354  1.00  0.00     0.236 C 
ATOM     12  C   UNL A   1      33.040  24.817  20.908  1.00  0.00     0.062 C 
BRANCH  11  13
ATOM     13  O   UNL A   1      32.454  23.153  22.623  1.00  0.00    -0.483 OA
BRANCH  13  14
ATOM     14  C   UNL A   1      33.312  22.460  23.429  1.00  0.00     0.120 A 
ATOM     15  C   UNL A   1      35.485  21.937  24.395  1.00  0.00    -0.019 A 
ATOM     16  C   UNL A   1      34.956  20.729  24.877  1.00  0.00     0.006 A 
ATOM     17  C   UNL A   1      34.635  22.806  23.694  1.00  0.00     0.052 A 
ATOM     18  C   UNL A   1      33.613  20.411  24.678  1.00  0.00     0.004 A 
ATOM     19  C   UNL A   1      32.794  21.278  23.957  1.00  0.00     0.046 A 
BRANCH  15  20
ATOM     20  C   UNL A   1      36.966  22.206  24.543  1.00  0.00     0.195 C 
BRANCH  20  21
ATOM     21  O   UNL A   1      37.515  21.792  25.795  1.00  0.00    -0.380 OA
ATOM     22  C   UNL A   1      38.736  22.441  26.132  1.00  0.00     0.195 C 
ENDBRANCH  20  21
ENDBRANCH  15  20
ENDBRANCH  13  14
ENDBRANCH  11  13
ENDBRANCH   7  11
ENDBRANCH   3   6
ENDBRANCH   1   2
BRANCH   1  23
ATOM     23  C   UNL A   1      33.051  28.707  24.877  1.00  0.00     0.042 C 
BRANCH  23  24
ATOM     24  C   UNL A   1      33.955  28.783  26.105  1.00  0.00     0.118 C 
BRANCH  24  25
ATOM     25  N   UNL A   1      33.729  29.978  26.900  1.00  0.00    -0.352 N 
ATOM     26  C   UNL A   1      34.498  30.579  27.867  1.00  0.00     0.251 C 
ATOM     27  H   UNL A   1      32.878  30.437  26.713  1.00  0.00     0.163 HD
ATOM     28  O   UNL A   1      34.000  31.497  28.518  1.00  0.00    -0.269 OA
BRANCH  26  29
ATOM     29  C   UNL A   1      35.891  30.152  28.158  1.00  0.00     0.039 A 
ATOM     30  C   UNL A   1      36.179  29.669  29.442  1.00  0.00     0.014 A 
ATOM     31  C   UNL A   1      36.931  30.294  27.235  1.00  0.00     0.014 A 
ATOM     32  C   UNL A   1      37.484  29.292  29.781  1.00  0.00     0.010 A 
ATOM     33  C   UNL A   1      38.221  29.860  27.554  1.00  0.00     0.010 A 
ATOM     34  C   UNL A   1      38.515  29.364  28.833  1.00  0.00    -0.014 A 
BRANCH  34  35
ATOM     35  C   UNL A   1      39.903  28.952  29.173  1.00  0.00     0.031 A 
ATOM     36  C   UNL A   1      40.832  29.913  29.869  1.00  0.00     0.074 A 
ATOM     37  C   UNL A   1      40.349  27.730  28.826  1.00  0.00     0.049 A 
ATOM     38  N   UNL A   1      42.096  29.763  30.176  1.00  0.00    -0.248 NA
ATOM     39  C   UNL A   1      40.272  31.219  30.251  1.00  0.00     0.031 C 
ATOM     40  C   UNL A   1      39.565  26.704  28.134  1.00  0.00     0.029 A 
ATOM     41  N   UNL A   1      41.577  27.142  29.006  1.00  0.00    -0.354 N 
ATOM     42  C   UNL A   1      42.488  30.959  30.766  1.00  0.00     0.074 A 
ATOM     43  C   UNL A   1      41.335  31.834  30.750  1.00  0.00     0.031 C 
ATOM     44  C   UNL A   1      40.324  25.608  27.967  1.00  0.00     0.029 A 
ATOM     45  C   UNL A   1      41.656  25.863  28.510  1.00  0.00     0.049 A 
ATOM     46  H   UNL A   1      42.331  27.595  29.449  1.00  0.00     0.167 HD
ATOM     47  C   UNL A   1      43.693  31.298  31.286  1.00  0.00     0.031 A 
ATOM     48  C   UNL A   1      42.682  24.990  28.490  1.00  0.00     0.031 A 
ATOM     49  C   UNL A   1      44.838  30.429  31.329  1.00  0.00     0.049 A 
ATOM     50  C   UNL A   1      44.003  25.381  29.091  1.00  0.00     0.074 A 
ATOM     51  C   UNL A   1      46.096  30.683  31.851  1.00  0.00     0.029 A 
ATOM     52  N   UNL A   1      44.863  29.132  30.841  1.00  0.00    -0.354 N 
ATOM     53  N   UNL A   1      44.348  26.515  29.650  1.00  0.00    -0.248 NA
ATOM     54  C   UNL A   1      45.068  24.369  29.067  1.00  0.00     0.031 C 
ATOM     55  C   UNL A   1      46.886  29.543  31.665  1.00  0.00     0.029 A 
ATOM     56  C   UNL A   1      46.111  28.572  31.053  1.00  0.00     0.049 A 
ATOM     57  H   UNL A   1      44.106  28.677  30.409  1.00  0.00     0.167 HD
ATOM     58  C   UNL A   1      45.664  26.345  30.065  1.00  0.00     0.074 A 
ATOM     59  C   UNL A   1      46.050  24.998  29.700  1.00  0.00     0.031 C 
ATOM     60  C   UNL A   1      46.479  27.228  30.693  1.00  0.00     0.031 A 
BRANCH  47  61
ATOM     61  C   UNL A   1      43.830  32.686  31.849  1.00  0.00    -0.014 A 
ATOM     62  C   UNL A   1      43.410  32.975  33.160  1.00  0.00     0.010 A 
ATOM     63  C   UNL A   1      44.399  33.706  31.068  1.00  0.00     0.010 A 
ATOM     64  C   UNL A   1      43.516  34.275  33.664  1.00  0.00     0.020 A 
ATOM     65  C   UNL A   1      44.526  35.002  31.576  1.00  0.00     0.020 A 
ATOM     66  C   UNL A   1      44.064  35.283  32.864  1.00  0.00     0.054 A 
BRANCH  66  67
ATOM     67  S   UNL A   1      44.196  36.963  33.537  1.00  0.00     0.124 S 
ATOM     68  O   UNL A   1      44.797  37.685  32.418  1.00  0.00    -0.237 OA
ATOM     69  O   UNL A   1      42.808  37.306  33.832  1.00  0.00    -0.237 OA
ATOM     70  O   UNL A   1      45.056  36.797  34.706  1.00  0.00    -0.744 OA
ENDBRANCH  66  67
ENDBRANCH  47  61
BRANCH  48  71
ATOM     71  C   UNL A   1      42.495  23.642  27.894  1.00  0.00    -0.014 A 
ATOM     72  C   UNL A   1      42.706  23.442  26.519  1.00  0.00     0.010 A 
ATOM     73  C   UNL A   1      42.116  22.554  28.699  1.00  0.00     0.010 A 
ATOM     74  C   UNL A   1      42.528  22.176  25.954  1.00  0.00     0.020 A 
ATOM     75  C   UNL A   1      41.955  21.283  28.140  1.00  0.00     0.020 A 
ATOM     76  C   UNL A   1      42.152  21.104  26.769  1.00  0.00     0.054 A 
BRANCH  76  77
ATOM     77  S   UNL A   1      41.984  19.454  26.035  1.00  0.00     0.124 S 
ATOM     78  O   UNL A   1      42.443  18.592  27.118  1.00  0.00    -0.237 OA
ATOM     79  O   UNL A   1      40.558  19.381  25.728  1.00  0.00    -0.237 OA
ATOM     80  O   UNL A   1      42.860  19.517  24.867  1.00  0.00    -0.744 OA
ENDBRANCH  76  77
ENDBRANCH  48  71
BRANCH  60  81
ATOM     81  C   UNL A   1      47.856  26.751  31.058  1.00  0.00    -0.014 A 
ATOM     82  C   UNL A   1      48.933  26.894  30.165  1.00  0.00     0.010 A 
ATOM     83  C   UNL A   1      48.081  26.184  32.324  1.00  0.00     0.010 A 
ATOM     84  C   UNL A   1      50.209  26.451  30.525  1.00  0.00     0.020 A 
ATOM     85  C   UNL A   1      49.358  25.754  32.692  1.00  0.00     0.020 A 
ATOM     86  C   UNL A   1      50.412  25.878  31.784  1.00  0.00     0.054 A 
BRANCH  86  87
ATOM     87  S   UNL A   1      52.081  25.341  32.249  1.00  0.00     0.124 S 
ATOM     88  O   UNL A   1      52.886  25.866  31.149  1.00  0.00    -0.237 OA
ATOM     89  O   UNL A   1      52.286  25.988  33.543  1.00  0.00    -0.237 OA
ATOM     90  O   UNL A   1      51.970  23.884  32.301  1.00  0.00    -0.744 OA
ENDBRANCH  86  87
ENDBRANCH  60  81
ENDBRANCH  34  35
ENDBRANCH  26  29
ENDBRANCH  24  25
ENDBRANCH  23  24
ENDBRANCH   1  23
TORSDOF 18
ENDMDL
MODEL 2
REMARK VINA RESULT:     -10.4      3.096      3.909
REMARK SMILES COCc1cccc(O[C@@H](C)c2ccc(C(=O)NCCCNC(=O)c3ccc(-c4c5nc(c(-c6ccc(S(=O)(=O)[O-])cc6)c6ccc([nH]6)c(-c6ccc(S(=O)(=O)[O-])cc6)c6nc(c(-c7ccc(S(=O)(=O)[O-])cc7)c7ccc4[nH]7)C=C6)C=C5)cc3)o2)c1
REMARK SMILES IDX 19 1 18 2 16 3 17 4 15 6 12 7 13 8 85 9 14 10 10 11 11 12
REMARK SMILES IDX 9 13 8 14 4 15 5 16 86 17 6 18 7 19 3 20 2 21 1 22 20 23
REMARK SMILES IDX 21 24 22 25 23 26 24 28 25 29 26 30 84 31 27 32 83 33 28 34
REMARK SMILES IDX 29 35 30 36 77 37 31 38 82 39 76 40 78 41 32 42 81 43 75 44
REMARK SMILES IDX 74 45 33 47 63 48 44 49 62 50 45 51 48 52 61 53 79 54 46 55
REMARK SMILES IDX 47 56 60 58 80 59 49 60 34 61 35 62 43 63 36 64 42 65 37 66
REMARK SMILES IDX 38 67 39 68 40 69 41 70 64 71 65 72 73 73 66 74 72 75 67 76
REMARK SMILES IDX 68 77 69 78 70 79 71 80 50 81 51 82 59 83 52 84 58 85 53 86
REMARK SMILES IDX 54 87 55 88 56 89 57 90
REMARK H PARENT 18 5 22 27 78 46 48 57
REMARK Flexibility Score: inf
ROOT
ATOM      1  C   UNL A   1      33.342  28.576  26.304  1.00  0.00     0.118 C 
ENDROOT
BRANCH   1   2
ATOM      2  N   UNL A   1      32.253  27.757  26.806  1.00  0.00    -0.349 N 
ATOM      3  C   UNL A   1      31.482  26.825  26.145  1.00  0.00     0.286 C 
ATOM      4  O   UNL A   1      30.863  26.025  26.857  1.00  0.00    -0.266 OA
ATOM      5  H   UNL A   1      32.033  27.887  27.756  1.00  0.00     0.163 HD
BRANCH   3   6
ATOM      6  C   UNL A   1      31.410  26.810  24.698  1.00  0.00     0.191 A 
ATOM      7  C   UNL A   1      31.949  26.033  22.684  1.00  0.00     0.145 A 
ATOM      8  C   UNL A   1      30.913  26.929  22.507  1.00  0.00     0.050 A 
ATOM      9  O   UNL A   1      32.236  25.945  24.021  1.00  0.00    -0.452 OA
ATOM     10  C   UNL A   1      30.597  27.450  23.782  1.00  0.00     0.057 A 
BRANCH   7  11
ATOM     11  C   UNL A   1      32.724  25.132  21.763  1.00  0.00     0.236 C 
ATOM     12  C   UNL A   1      32.705  25.525  20.289  1.00  0.00     0.062 C 
BRANCH  11  13
ATOM     13  O   UNL A   1      32.435  23.726  21.943  1.00  0.00    -0.483 OA
BRANCH  13  14
ATOM     14  C   UNL A   1      33.168  22.934  22.780  1.00  0.00     0.120 A 
ATOM     15  C   UNL A   1      33.470  21.249  24.512  1.00  0.00    -0.019 A 
ATOM     16  C   UNL A   1      34.810  21.647  24.637  1.00  0.00     0.006 A 
ATOM     17  C   UNL A   1      32.670  21.888  23.554  1.00  0.00     0.052 A 
ATOM     18  C   UNL A   1      35.336  22.644  23.815  1.00  0.00     0.004 A 
ATOM     19  C   UNL A   1      34.515  23.283  22.888  1.00  0.00     0.046 A 
BRANCH  15  20
ATOM     20  C   UNL A   1      32.908  20.235  25.483  1.00  0.00     0.195 C 
BRANCH  20  21
ATOM     21  O   UNL A   1      32.198  19.160  24.866  1.00  0.00    -0.380 OA
ATOM     22  C   UNL A   1      33.038  18.200  24.236  1.00  0.00     0.195 C 
ENDBRANCH  20  21
ENDBRANCH  15  20
ENDBRANCH  13  14
ENDBRANCH  11  13
ENDBRANCH   7  11
ENDBRANCH   3   6
ENDBRANCH   1   2
BRANCH   1  23
ATOM     23  C   UNL A   1      33.782  29.675  27.266  1.00  0.00     0.042 C 
BRANCH  23  24
ATOM     24  C   UNL A   1      35.192  29.523  27.832  1.00  0.00     0.118 C 
BRANCH  24  25
ATOM     25  N   UNL A   1      35.352  30.156  29.130  1.00  0.00    -0.352 N 
ATOM     26  C   UNL A   1      36.441  30.253  29.961  1.00  0.00     0.251 C 
ATOM     27  H   UNL A   1      34.537  30.589  29.475  1.00  0.00     0.163 HD
ATOM     28  O   UNL A   1      36.270  30.697  31.095  1.00  0.00    -0.269 OA
BRANCH  26  29
ATOM     29  C   UNL A   1      37.803  29.831  29.542  1.00  0.00     0.039 A 
ATOM     30  C   UNL A   1      38.719  29.468  30.540  1.00  0.00     0.014 A 
ATOM     31  C   UNL A   1      38.226  29.866  28.210  1.00  0.00     0.014 A 
ATOM     32  C   UNL A   1      40.027  29.102  30.202  1.00  0.00     0.010 A 
ATOM     33  C   UNL A   1      39.514  29.443  27.868  1.00  0.00     0.010 A 
ATOM     34  C   UNL A   1      40.432  29.065  28.860  1.00  0.00    -0.014 A 
BRANCH  34  35
ATOM     35  C   UNL A   1      41.814  28.664  28.484  1.00  0.00     0.031 A 
ATOM     36  C   UNL A   1      42.922  29.684  28.461  1.00  0.00     0.074 A 
ATOM     37  C   UNL A   1      42.073  27.392  28.126  1.00  0.00     0.049 A 
ATOM     38  N   UNL A   1      44.169  29.540  28.087  1.00  0.00    -0.248 NA
ATOM     39  C   UNL A   1      42.579  31.047  28.897  1.00  0.00     0.031 C 
ATOM     40  C   UNL A   1      41.094  26.304  28.085  1.00  0.00     0.029 A 
ATOM     41  N   UNL A   1      43.244  26.799  27.721  1.00  0.00    -0.354 N 
ATOM     42  C   UNL A   1      44.752  30.795  28.220  1.00  0.00     0.074 A 
ATOM     43  C   UNL A   1      43.717  31.694  28.685  1.00  0.00     0.031 C 
ATOM     44  C   UNL A   1      41.708  25.172  27.699  1.00  0.00     0.029 A 
ATOM     45  C   UNL A   1      43.116  25.461  27.434  1.00  0.00     0.049 A 
ATOM     46  H   UNL A   1      44.096  27.286  27.643  1.00  0.00     0.167 HD
ATOM     47  C   UNL A   1      46.035  31.168  27.990  1.00  0.00     0.031 A 
ATOM     48  C   UNL A   1      44.024  24.564  27.004  1.00  0.00     0.031 A 
ATOM     49  C   UNL A   1      47.077  30.279  27.550  1.00  0.00     0.049 A 
ATOM     50  C   UNL A   1      45.445  24.995  26.775  1.00  0.00     0.074 A 
ATOM     51  C   UNL A   1      48.410  30.565  27.306  1.00  0.00     0.029 A 
ATOM     52  N   UNL A   1      46.908  28.926  27.301  1.00  0.00    -0.354 N 
ATOM     53  N   UNL A   1      45.976  26.185  26.915  1.00  0.00    -0.248 NA
ATOM     54  C   UNL A   1      46.391  23.957  26.341  1.00  0.00     0.031 C 
ATOM     55  C   UNL A   1      49.044  29.388  26.894  1.00  0.00     0.029 A 
ATOM     56  C   UNL A   1      48.111  28.364  26.910  1.00  0.00     0.049 A 
ATOM     57  H   UNL A   1      46.058  28.438  27.389  1.00  0.00     0.167 HD
ATOM     58  C   UNL A   1      47.323  26.035  26.607  1.00  0.00     0.074 A 
ATOM     59  C   UNL A   1      47.528  24.639  26.281  1.00  0.00     0.031 C 
ATOM     60  C   UNL A   1      48.302  26.972  26.596  1.00  0.00     0.031 A 
BRANCH  47  61
ATOM     61  C   UNL A   1      46.378  32.616  28.207  1.00  0.00    -0.014 A 
ATOM     62  C   UNL A   1      46.832  33.068  29.459  1.00  0.00     0.010 A 
ATOM     63  C   UNL A   1      46.262  33.530  27.146  1.00  0.00     0.010 A 
ATOM     64  C   UNL A   1      47.122  34.421  29.658  1.00  0.00     0.020 A 
ATOM     65  C   UNL A   1      46.570  34.880  27.336  1.00  0.00     0.020 A 
ATOM     66  C   UNL A   1      46.978  35.321  28.597  1.00  0.00     0.054 A 
BRANCH  66  67
ATOM     67  S   UNL A   1      47.360  37.072  28.874  1.00  0.00     0.124 S 
ATOM     68  O   UNL A   1      46.488  37.725  27.900  1.00  0.00    -0.237 OA
ATOM     69  O   UNL A   1      46.996  37.269  30.274  1.00  0.00    -0.237 OA
ATOM     70  O   UNL A   1      48.790  37.160  28.588  1.00  0.00    -0.744 OA
ENDBRANCH  66  67
ENDBRANCH  47  61
BRANCH  48  71
ATOM     71  C   UNL A   1      43.619  23.152  26.780  1.00  0.00    -0.014 A 
ATOM     72  C   UNL A   1      43.848  22.541  25.535  1.00  0.00     0.010 A 
ATOM     73  C   UNL A   1      43.014  22.412  27.811  1.00  0.00     0.010 A 
ATOM     74  C   UNL A   1      43.466  21.213  25.319  1.00  0.00     0.020 A 
ATOM     75  C   UNL A   1      42.649  21.079  27.604  1.00  0.00     0.020 A 
ATOM     76  C   UNL A   1      42.867  20.491  26.355  1.00  0.00     0.054 A 
BRANCH  76  77
ATOM     77  S   UNL A   1      42.432  18.751  26.082  1.00  0.00     0.124 S 
ATOM     78  O   UNL A   1      41.031  18.847  25.689  1.00  0.00    -0.237 OA
ATOM     79  O   UNL A   1      43.361  18.348  25.029  1.00  0.00    -0.237 OA
ATOM     80  O   UNL A   1      42.680  18.136  27.385  1.00  0.00    -0.744 OA
ENDBRANCH  76  77
ENDBRANCH  48  71
BRANCH  60  81
ATOM     81  C   UNL A   1      49.691  26.510  26.256  1.00  0.00    -0.014 A 
ATOM     82  C   UNL A   1      50.213  26.677  24.962  1.00  0.00     0.010 A 
ATOM     83  C   UNL A   1      50.493  25.933  27.255  1.00  0.00     0.010 A 
ATOM     84  C   UNL A   1      51.510  26.248  24.666  1.00  0.00     0.020 A 
ATOM     85  C   UNL A   1      51.795  25.516  26.966  1.00  0.00     0.020 A 
ATOM     86  C   UNL A   1      52.291  25.664  25.668  1.00  0.00     0.054 A 
BRANCH  86  87
ATOM     87  S   UNL A   1      53.984  25.144  25.276  1.00  0.00     0.124 S 
ATOM     88  O   UNL A   1      53.799  23.734  24.946  1.00  0.00    -0.237 OA
ATOM     89  O   UNL A   1      54.342  26.010  24.156  1.00  0.00    -0.237 OA
ATOM     90  O   UNL A   1      54.717  25.404  26.514  1.00  0.00    -0.744 OA
ENDBRANCH  86  87
ENDBRANCH  60  81
ENDBRANCH  34  35
ENDBRANCH  26  29
ENDBRANCH  24  25
ENDBRANCH  23  24
ENDBRANCH   1  23
TORSDOF 18
ENDMDL
MODEL 3
REMARK VINA RESULT:     -10.4      4.177      8.650
REMARK SMILES COCc1cccc(O[C@@H](C)c2ccc(C(=O)NCCCNC(=O)c3ccc(-c4c5nc(c(-c6ccc(S(=O)(=O)[O-])cc6)c6ccc([nH]6)c(-c6ccc(S(=O)(=O)[O-])cc6)c6nc(c(-c7ccc(S(=O)(=O)[O-])cc7)c7ccc4[nH]7)C=C6)C=C5)cc3)o2)c1
REMARK SMILES IDX 19 1 18 2 16 3 17 4 15 6 12 7 13 8 85 9 14 10 10 11 11 12
REMARK SMILES IDX 9 13 8 14 4 15 5 16 86 17 6 18 7 19 3 20 2 21 1 22 20 23
REMARK SMILES IDX 21 24 22 25 23 26 24 28 25 29 26 30 84 31 27 32 83 33 28 34
REMARK SMILES IDX 29 35 30 36 77 37 31 38 82 39 76 40 78 41 32 42 81 43 75 44
REMARK SMILES IDX 74 45 33 47 63 48 44 49 62 50 45 51 48 52 61 53 79 54 46 55
REMARK SMILES IDX 47 56 60 58 80 59 49 60 34 61 35 62 43 63 36 64 42 65 37 66
REMARK SMILES IDX 38 67 39 68 40 69 41 70 64 71 65 72 73 73 66 74 72 75 67 76
REMARK SMILES IDX 68 77 69 78 70 79 71 80 50 81 51 82 59 83 52 84 58 85 53 86
REMARK SMILES IDX 54 87 55 88 56 89 57 90
REMARK H PARENT 18 5 22 27 78 46 48 57
REMARK Flexibility Score: inf
ROOT
ATOM      1  C   UNL A   1      37.428  20.190  24.898  1.00  0.00     0.118 C 
ENDROOT
BRANCH   1   2
ATOM      2  N   UNL A   1      37.615  21.553  25.361  1.00  0.00    -0.349 N 
ATOM      3  C   UNL A   1      36.716  22.597  25.394  1.00  0.00     0.286 C 
ATOM      4  O   UNL A   1      37.002  23.541  26.139  1.00  0.00    -0.266 OA
ATOM      5  H   UNL A   1      38.515  21.761  25.702  1.00  0.00     0.163 HD
BRANCH   3   6
ATOM      6  C   UNL A   1      35.516  22.571  24.582  1.00  0.00     0.191 A 
ATOM      7  C   UNL A   1      33.349  22.197  24.241  1.00  0.00     0.145 A 
ATOM      8  C   UNL A   1      33.829  22.844  23.119  1.00  0.00     0.050 A 
ATOM      9  O   UNL A   1      34.372  22.051  25.141  1.00  0.00    -0.452 OA
ATOM     10  C   UNL A   1      35.212  23.047  23.321  1.00  0.00     0.057 A 
BRANCH   7  11
ATOM     11  C   UNL A   1      31.991  21.722  24.676  1.00  0.00     0.236 C 
ATOM     12  C   UNL A   1      31.201  22.695  25.547  1.00  0.00     0.062 C 
BRANCH  11  13
ATOM     13  O   UNL A   1      31.991  20.386  25.233  1.00  0.00    -0.483 OA
BRANCH  13  14
ATOM     14  C   UNL A   1      32.415  19.301  24.521  1.00  0.00     0.120 A 
ATOM     15  C   UNL A   1      33.734  17.286  24.158  1.00  0.00    -0.019 A 
ATOM     16  C   UNL A   1      33.398  17.337  22.796  1.00  0.00     0.006 A 
ATOM     17  C   UNL A   1      33.207  18.265  25.013  1.00  0.00     0.052 A 
ATOM     18  C   UNL A   1      32.547  18.329  22.310  1.00  0.00     0.004 A 
ATOM     19  C   UNL A   1      32.055  19.306  23.173  1.00  0.00     0.046 A 
BRANCH  15  20
ATOM     20  C   UNL A   1      34.735  16.257  24.633  1.00  0.00     0.195 C 
BRANCH  20  21
ATOM     21  O   UNL A   1      34.214  15.325  25.581  1.00  0.00    -0.380 OA
ATOM     22  C   UNL A   1      32.861  14.956  25.343  1.00  0.00     0.195 C 
ENDBRANCH  20  21
ENDBRANCH  15  20
ENDBRANCH  13  14
ENDBRANCH  11  13
ENDBRANCH   7  11
ENDBRANCH   3   6
ENDBRANCH   1   2
BRANCH   1  23
ATOM     23  C   UNL A   1      38.535  19.233  25.334  1.00  0.00     0.042 C 
BRANCH  23  24
ATOM     24  C   UNL A   1      39.733  19.888  26.017  1.00  0.00     0.118 C 
BRANCH  24  25
ATOM     25  N   UNL A   1      40.869  18.991  26.148  1.00  0.00    -0.352 N 
ATOM     26  C   UNL A   1      42.214  19.245  26.257  1.00  0.00     0.251 C 
ATOM     27  H   UNL A   1      40.633  18.034  26.160  1.00  0.00     0.163 HD
ATOM     28  O   UNL A   1      42.993  18.296  26.182  1.00  0.00    -0.269 OA
BRANCH  26  29
ATOM     29  C   UNL A   1      42.753  20.617  26.446  1.00  0.00     0.039 A 
ATOM     30  C   UNL A   1      42.816  21.129  27.749  1.00  0.00     0.014 A 
ATOM     31  C   UNL A   1      43.116  21.438  25.374  1.00  0.00     0.014 A 
ATOM     32  C   UNL A   1      43.277  22.430  27.978  1.00  0.00     0.010 A 
ATOM     33  C   UNL A   1      43.633  22.715  25.608  1.00  0.00     0.010 A 
ATOM     34  C   UNL A   1      43.710  23.230  26.911  1.00  0.00    -0.014 A 
BRANCH  34  35
ATOM     35  C   UNL A   1      44.218  24.610  27.139  1.00  0.00     0.031 A 
ATOM     36  C   UNL A   1      43.276  25.704  27.571  1.00  0.00     0.074 A 
ATOM     37  C   UNL A   1      45.516  24.896  26.925  1.00  0.00     0.049 A 
ATOM     38  N   UNL A   1      43.518  26.979  27.745  1.00  0.00    -0.248 NA
ATOM     39  C   UNL A   1      41.879  25.317  27.823  1.00  0.00     0.031 C 
ATOM     40  C   UNL A   1      46.536  23.940  26.489  1.00  0.00     0.029 A 
ATOM     41  N   UNL A   1      46.201  26.081  27.040  1.00  0.00    -0.354 N 
ATOM     42  C   UNL A   1      42.302  27.550  28.102  1.00  0.00     0.074 A 
ATOM     43  C   UNL A   1      41.319  26.488  28.096  1.00  0.00     0.031 C 
ATOM     44  C   UNL A   1      47.719  24.570  26.394  1.00  0.00     0.029 A 
ATOM     45  C   UNL A   1      47.536  25.979  26.732  1.00  0.00     0.049 A 
ATOM     46  H   UNL A   1      45.776  26.924  27.319  1.00  0.00     0.167 HD
ATOM     47  C   UNL A   1      42.025  28.839  28.420  1.00  0.00     0.031 A 
ATOM     48  C   UNL A   1      48.508  26.912  26.717  1.00  0.00     0.031 A 
ATOM     49  C   UNL A   1      42.998  29.899  28.452  1.00  0.00     0.049 A 
ATOM     50  C   UNL A   1      48.182  28.331  27.093  1.00  0.00     0.074 A 
ATOM     51  C   UNL A   1      42.811  31.232  28.777  1.00  0.00     0.029 A 
ATOM     52  N   UNL A   1      44.344  29.744  28.160  1.00  0.00    -0.354 N 
ATOM     53  N   UNL A   1      47.026  28.846  27.434  1.00  0.00    -0.248 NA
ATOM     54  C   UNL A   1      49.296  29.290  27.090  1.00  0.00     0.031 C 
ATOM     55  C   UNL A   1      44.043  31.887  28.667  1.00  0.00     0.029 A 
ATOM     56  C   UNL A   1      45.000  30.955  28.301  1.00  0.00     0.049 A 
ATOM     57  H   UNL A   1      44.770  28.899  27.892  1.00  0.00     0.167 HD
ATOM     58  C   UNL A   1      47.279  30.185  27.709  1.00  0.00     0.074 A 
ATOM     59  C   UNL A   1      48.695  30.399  27.503  1.00  0.00     0.031 C 
ATOM     60  C   UNL A   1      46.411  31.151  28.100  1.00  0.00     0.031 A 
BRANCH  47  61
ATOM     61  C   UNL A   1      40.597  29.172  28.753  1.00  0.00    -0.014 A 
ATOM     62  C   UNL A   1      39.625  29.263  27.741  1.00  0.00     0.010 A 
ATOM     63  C   UNL A   1      40.219  29.378  30.091  1.00  0.00     0.010 A 
ATOM     64  C   UNL A   1      38.306  29.599  28.058  1.00  0.00     0.020 A 
ATOM     65  C   UNL A   1      38.897  29.696  30.414  1.00  0.00     0.020 A 
ATOM     66  C   UNL A   1      37.953  29.825  29.393  1.00  0.00     0.054 A 
BRANCH  66  67
ATOM     67  S   UNL A   1      36.236  30.259  29.785  1.00  0.00     0.124 S 
ATOM     68  O   UNL A   1      36.310  31.716  29.874  1.00  0.00    -0.237 OA
ATOM     69  O   UNL A   1      35.497  29.737  28.638  1.00  0.00    -0.237 OA
ATOM     70  O   UNL A   1      35.987  29.569  31.048  1.00  0.00    -0.744 OA
ENDBRANCH  66  67
ENDBRANCH  47  61
BRANCH  48  71
ATOM     71  C   UNL A   1      49.896  26.529  26.351  1.00  0.00    -0.014 A 
ATOM     72  C   UNL A   1      50.782  26.061  27.336  1.00  0.00     0.010 A 
ATOM     73  C   UNL A   1      50.332  26.623  25.018  1.00  0.00     0.010 A 
ATOM     74  C   UNL A   1      52.090  25.702  26.996  1.00  0.00     0.020 A 
ATOM     75  C   UNL A   1      51.633  26.247  24.672  1.00  0.00     0.020 A 
ATOM     76  C   UNL A   1      52.507  25.800  25.665  1.00  0.00     0.054 A 
BRANCH  76  77
ATOM     77  S   UNL A   1      54.187  25.273  25.226  1.00  0.00     0.124 S 
ATOM     78  O   UNL A   1      53.966  23.907  24.768  1.00  0.00    -0.237 OA
ATOM     79  O   UNL A   1      54.567  26.234  24.193  1.00  0.00    -0.237 OA
ATOM     80  O   UNL A   1      54.918  25.405  26.485  1.00  0.00    -0.744 OA
ENDBRANCH  76  77
ENDBRANCH  48  71
BRANCH  60  81
ATOM     81  C   UNL A   1      46.978  32.517  28.364  1.00  0.00    -0.014 A 
ATOM     82  C   UNL A   1      47.467  32.866  29.636  1.00  0.00     0.010 A 
ATOM     83  C   UNL A   1      47.054  33.451  27.317  1.00  0.00     0.010 A 
ATOM     84  C   UNL A   1      47.998  34.138  29.861  1.00  0.00     0.020 A 
ATOM     85  C   UNL A   1      47.598  34.719  27.535  1.00  0.00     0.020 A 
ATOM     86  C   UNL A   1      48.054  35.060  28.811  1.00  0.00     0.054 A 
BRANCH  86  87
ATOM     87  S   UNL A   1      48.778  36.696  29.111  1.00  0.00     0.124 S 
ATOM     88  O   UNL A   1      50.200  36.442  28.896  1.00  0.00    -0.237 OA
ATOM     89  O   UNL A   1      48.129  37.532  28.104  1.00  0.00    -0.237 OA
ATOM     90  O   UNL A   1      48.398  36.990  30.492  1.00  0.00    -0.744 OA
ENDBRANCH  86  87
ENDBRANCH  60  81
ENDBRANCH  34  35
ENDBRANCH  26  29
ENDBRANCH  24  25
ENDBRANCH  23  24
ENDBRANCH   1  23
TORSDOF 18
ENDMDL
