MODEL 1
REMARK VINA RESULT:     -10.3      0.000      0.000
REMARK SMILES CC[C@@](C)(NC(=O)N1CCCC[C@@H]1C)C(=O)NCCCNC(=O)c1ccc(-c2c3nc(c(-c4ccc(S(=O)(=O)[O-])cc4)c4ccc([nH]4)c(-c4ccc(S(=O)(=O)[O-])cc4)c4nc(c(-c5ccc(S(=O)(=O)[O-])cc5)c5ccc2[nH]5)C=C4)C=C3)cc1
REMARK SMILES IDX 19 1 18 2 17 3 15 4 16 5 3 7 4 8 2 9 1 10 5 11 6 12 7 14
REMARK SMILES IDX 8 15 9 16 13 17 10 18 12 19 14 20 11 21 20 22 21 23 22 24
REMARK SMILES IDX 23 26 24 27 25 28 83 29 26 30 82 31 27 32 28 33 29 34 76 35
REMARK SMILES IDX 30 36 81 37 75 38 77 39 31 40 80 41 74 42 73 43 32 45 62 46
REMARK SMILES IDX 43 47 61 48 44 49 47 50 60 51 78 52 45 53 46 54 59 56 79 57
REMARK SMILES IDX 48 58 33 59 34 60 42 61 35 62 41 63 36 64 37 65 38 66 39 67
REMARK SMILES IDX 40 68 63 69 64 70 72 71 65 72 71 73 66 74 67 75 68 76 69 77
REMARK SMILES IDX 70 78 49 79 50 80 58 81 51 82 57 83 52 84 53 85 54 86 55 87
REMARK SMILES IDX 56 88
REMARK H PARENT 17 6 5 13 21 25 77 44 47 55
REMARK Flexibility Score: inf
ROOT
ATOM      1  C   UNL A   1      33.710  28.593  25.288  1.00  0.00     0.042 C 
ENDROOT
BRANCH   1   2
ATOM      2  C   UNL A   1      32.648  29.024  24.225  1.00  0.00     0.117 C 
BRANCH   2   3
ATOM      3  N   UNL A   1      31.546  28.113  23.763  1.00  0.00    -0.354 N 
ATOM      4  C   UNL A   1      30.998  26.852  23.889  1.00  0.00     0.245 C 
ATOM      5  O   UNL A   1      29.770  26.927  23.675  1.00  0.00    -0.272 OA
ATOM      6  H   UNL A   1      30.999  28.612  23.115  1.00  0.00     0.163 HD
BRANCH   4   7
ATOM      7  C   UNL A   1      31.584  25.345  24.307  1.00  0.00     0.117 C 
ATOM      8  C   UNL A   1      30.587  24.300  23.775  1.00  0.00     0.045 C 
BRANCH   7   9
ATOM      9  C   UNL A   1      32.993  25.145  23.615  1.00  0.00     0.035 C 
ATOM     10  C   UNL A   1      33.144  24.132  22.489  1.00  0.00     0.007 C 
ENDBRANCH   7   9
BRANCH   7  11
ATOM     11  N   UNL A   1      31.886  24.867  25.728  1.00  0.00    -0.324 N 
ATOM     12  C   UNL A   1      31.598  23.636  26.288  1.00  0.00     0.318 C 
ATOM     13  H   UNL A   1      32.339  25.514  26.317  1.00  0.00     0.166 HD
ATOM     14  O   UNL A   1      30.779  23.549  27.196  1.00  0.00    -0.249 OA
BRANCH  12  15
ATOM     15  N   UNL A   1      32.430  22.609  25.914  1.00  0.00    -0.322 N 
ATOM     16  C   UNL A   1      31.937  21.307  25.436  1.00  0.00     0.121 C 
ATOM     17  C   UNL A   1      33.791  22.636  26.363  1.00  0.00     0.083 C 
ATOM     18  C   UNL A   1      33.043  20.233  25.345  1.00  0.00     0.022 C 
ATOM     19  C   UNL A   1      34.644  22.134  25.199  1.00  0.00     0.025 C 
ATOM     20  C   UNL A   1      33.820  22.204  27.843  1.00  0.00     0.031 C 
ATOM     21  C   UNL A   1      34.286  20.765  24.661  1.00  0.00     0.004 C 
ENDBRANCH  12  15
ENDBRANCH   7  11
ENDBRANCH   4   7
ENDBRANCH   2   3
ENDBRANCH   1   2
BRANCH   1  22
ATOM     22  C   UNL A   1      33.620  28.577  26.837  1.00  0.00     0.118 C 
BRANCH  22  23
ATOM     23  N   UNL A   1      33.455  29.813  27.557  1.00  0.00    -0.352 N 
ATOM     24  C   UNL A   1      34.442  30.599  28.151  1.00  0.00     0.251 C 
ATOM     25  H   UNL A   1      32.532  30.145  27.639  1.00  0.00     0.163 HD
ATOM     26  O   UNL A   1      34.134  31.687  28.599  1.00  0.00    -0.269 OA
BRANCH  24  27
ATOM     27  C   UNL A   1      35.859  30.124  28.306  1.00  0.00     0.039 A 
ATOM     28  C   UNL A   1      36.255  29.680  29.576  1.00  0.00     0.014 A 
ATOM     29  C   UNL A   1      36.820  30.180  27.290  1.00  0.00     0.014 A 
ATOM     30  C   UNL A   1      37.577  29.269  29.818  1.00  0.00     0.010 A 
ATOM     31  C   UNL A   1      38.136  29.727  27.523  1.00  0.00     0.010 A 
ATOM     32  C   UNL A   1      38.538  29.283  28.794  1.00  0.00    -0.014 A 
BRANCH  32  33
ATOM     33  C   UNL A   1      39.952  28.892  29.098  1.00  0.00     0.031 A 
ATOM     34  C   UNL A   1      40.855  29.823  29.876  1.00  0.00     0.074 A 
ATOM     35  C   UNL A   1      40.424  27.682  28.726  1.00  0.00     0.049 A 
ATOM     36  N   UNL A   1      42.059  29.606  30.348  1.00  0.00    -0.248 NA
ATOM     37  C   UNL A   1      40.345  31.174  30.147  1.00  0.00     0.031 C 
ATOM     38  C   UNL A   1      39.683  26.695  27.939  1.00  0.00     0.029 A 
ATOM     39  N   UNL A   1      41.629  27.065  28.976  1.00  0.00    -0.354 N 
ATOM     40  C   UNL A   1      42.445  30.790  30.972  1.00  0.00     0.074 A 
ATOM     41  C   UNL A   1      41.372  31.738  30.767  1.00  0.00     0.031 C 
ATOM     42  C   UNL A   1      40.429  25.585  27.808  1.00  0.00     0.029 A 
ATOM     43  C   UNL A   1      41.709  25.781  28.485  1.00  0.00     0.049 A 
ATOM     44  H   UNL A   1      42.366  27.503  29.460  1.00  0.00     0.167 HD
ATOM     45  C   UNL A   1      43.573  31.062  31.675  1.00  0.00     0.031 A 
ATOM     46  C   UNL A   1      42.688  24.856  28.583  1.00  0.00     0.031 A 
ATOM     47  C   UNL A   1      44.643  30.121  31.886  1.00  0.00     0.049 A 
ATOM     48  C   UNL A   1      43.930  25.175  29.374  1.00  0.00     0.074 A 
ATOM     49  C   UNL A   1      45.805  30.288  32.621  1.00  0.00     0.029 A 
ATOM     50  N   UNL A   1      44.683  28.838  31.363  1.00  0.00    -0.354 N 
ATOM     51  N   UNL A   1      44.234  26.274  30.022  1.00  0.00    -0.248 NA
ATOM     52  C   UNL A   1      44.951  24.119  29.465  1.00  0.00     0.031 C 
ATOM     53  C   UNL A   1      46.569  29.122  32.502  1.00  0.00     0.029 A 
ATOM     54  C   UNL A   1      45.858  28.209  31.739  1.00  0.00     0.049 A 
ATOM     55  H   UNL A   1      43.980  28.434  30.805  1.00  0.00     0.167 HD
ATOM     56  C   UNL A   1      45.470  26.035  30.616  1.00  0.00     0.074 A 
ATOM     57  C   UNL A   1      45.846  24.680  30.268  1.00  0.00     0.031 C 
ATOM     58  C   UNL A   1      46.223  26.862  31.383  1.00  0.00     0.031 A 
BRANCH  45  59
ATOM     59  C   UNL A   1      43.709  32.444  32.268  1.00  0.00    -0.014 A 
ATOM     60  C   UNL A   1      43.214  32.733  33.553  1.00  0.00     0.010 A 
ATOM     61  C   UNL A   1      44.366  33.457  31.547  1.00  0.00     0.010 A 
ATOM     62  C   UNL A   1      43.325  34.020  34.084  1.00  0.00     0.020 A 
ATOM     63  C   UNL A   1      44.504  34.741  32.087  1.00  0.00     0.020 A 
ATOM     64  C   UNL A   1      43.964  35.020  33.344  1.00  0.00     0.054 A 
BRANCH  64  65
ATOM     65  S   UNL A   1      44.099  36.681  34.059  1.00  0.00     0.124 S 
ATOM     66  O   UNL A   1      42.938  37.352  33.479  1.00  0.00    -0.237 OA
ATOM     67  O   UNL A   1      44.021  36.422  35.494  1.00  0.00    -0.237 OA
ATOM     68  O   UNL A   1      45.395  37.161  33.584  1.00  0.00    -0.744 OA
ENDBRANCH  64  65
ENDBRANCH  45  59
BRANCH  46  69
ATOM     69  C   UNL A   1      42.519  23.518  27.942  1.00  0.00    -0.014 A 
ATOM     70  C   UNL A   1      43.101  23.240  26.691  1.00  0.00     0.010 A 
ATOM     71  C   UNL A   1      41.776  22.512  28.585  1.00  0.00     0.010 A 
ATOM     72  C   UNL A   1      42.932  21.986  26.091  1.00  0.00     0.020 A 
ATOM     73  C   UNL A   1      41.627  21.249  28.001  1.00  0.00     0.020 A 
ATOM     74  C   UNL A   1      42.200  20.997  26.753  1.00  0.00     0.054 A 
BRANCH  74  75
ATOM     75  S   UNL A   1      42.043  19.359  25.985  1.00  0.00     0.124 S 
ATOM     76  O   UNL A   1      42.877  19.499  24.796  1.00  0.00    -0.237 OA
ATOM     77  O   UNL A   1      42.564  18.473  27.023  1.00  0.00    -0.237 OA
ATOM     78  O   UNL A   1      40.609  19.236  25.734  1.00  0.00    -0.744 OA
ENDBRANCH  74  75
ENDBRANCH  46  69
BRANCH  58  79
ATOM     79  C   UNL A   1      47.523  26.321  31.919  1.00  0.00    -0.014 A 
ATOM     80  C   UNL A   1      48.723  26.462  31.201  1.00  0.00     0.010 A 
ATOM     81  C   UNL A   1      47.550  25.710  33.186  1.00  0.00     0.010 A 
ATOM     82  C   UNL A   1      49.922  25.969  31.724  1.00  0.00     0.020 A 
ATOM     83  C   UNL A   1      48.751  25.240  33.725  1.00  0.00     0.020 A 
ATOM     84  C   UNL A   1      49.927  25.359  32.982  1.00  0.00     0.054 A 
BRANCH  84  85
ATOM     85  S   UNL A   1      51.502  24.763  33.657  1.00  0.00     0.124 S 
ATOM     86  O   UNL A   1      51.062  23.987  34.813  1.00  0.00    -0.237 OA
ATOM     87  O   UNL A   1      52.054  23.985  32.550  1.00  0.00    -0.237 OA
ATOM     88  O   UNL A   1      52.231  25.990  33.971  1.00  0.00    -0.744 OA
ENDBRANCH  84  85
ENDBRANCH  58  79
ENDBRANCH  32  33
ENDBRANCH  24  27
ENDBRANCH  22  23
ENDBRANCH   1  22
TORSDOF 16
ENDMDL
MODEL 2
REMARK VINA RESULT:     -10.1      2.562      3.488
REMARK SMILES CC[C@@](C)(NC(=O)N1CCCC[C@@H]1C)C(=O)NCCCNC(=O)c1ccc(-c2c3nc(c(-c4ccc(S(=O)(=O)[O-])cc4)c4ccc([nH]4)c(-c4ccc(S(=O)(=O)[O-])cc4)c4nc(c(-c5ccc(S(=O)(=O)[O-])cc5)c5ccc2[nH]5)C=C4)C=C3)cc1
REMARK SMILES IDX 19 1 18 2 17 3 15 4 16 5 3 7 4 8 2 9 1 10 5 11 6 12 7 14
REMARK SMILES IDX 8 15 9 16 13 17 10 18 12 19 14 20 11 21 20 22 21 23 22 24
REMARK SMILES IDX 23 26 24 27 25 28 83 29 26 30 82 31 27 32 28 33 29 34 76 35
REMARK SMILES IDX 30 36 81 37 75 38 77 39 31 40 80 41 74 42 73 43 32 45 62 46
REMARK SMILES IDX 43 47 61 48 44 49 47 50 60 51 78 52 45 53 46 54 59 56 79 57
REMARK SMILES IDX 48 58 33 59 34 60 42 61 35 62 41 63 36 64 37 65 38 66 39 67
REMARK SMILES IDX 40 68 63 69 64 70 72 71 65 72 71 73 66 74 67 75 68 76 69 77
REMARK SMILES IDX 70 78 49 79 50 80 58 81 51 82 57 83 52 84 53 85 54 86 55 87
REMARK SMILES IDX 56 88
REMARK H PARENT 17 6 5 13 21 25 77 44 47 55
REMARK Flexibility Score: inf
ROOT
ATOM      1  C   UNL A   1      33.402  28.050  26.279  1.00  0.00     0.042 C 
ENDROOT
BRANCH   1   2
ATOM      2  C   UNL A   1      32.330  27.631  27.336  1.00  0.00     0.117 C 
BRANCH   2   3
ATOM      3  N   UNL A   1      31.054  26.929  26.964  1.00  0.00    -0.354 N 
ATOM      4  C   UNL A   1      30.322  26.399  25.922  1.00  0.00     0.245 C 
ATOM      5  O   UNL A   1      29.627  25.458  26.359  1.00  0.00    -0.272 OA
ATOM      6  H   UNL A   1      30.537  26.794  27.790  1.00  0.00     0.163 HD
BRANCH   4   7
ATOM      7  C   UNL A   1      30.222  26.688  24.280  1.00  0.00     0.117 C 
ATOM      8  C   UNL A   1      28.766  26.426  23.854  1.00  0.00     0.045 C 
BRANCH   7   9
ATOM      9  C   UNL A   1      30.594  28.204  24.014  1.00  0.00     0.035 C 
ATOM     10  C   UNL A   1      29.644  29.087  23.219  1.00  0.00     0.007 C 
ENDBRANCH   7   9
BRANCH   7  11
ATOM     11  N   UNL A   1      31.047  25.991  23.198  1.00  0.00    -0.324 N 
ATOM     12  C   UNL A   1      32.389  25.660  23.237  1.00  0.00     0.318 C 
ATOM     13  H   UNL A   1      30.566  25.748  22.374  1.00  0.00     0.166 HD
ATOM     14  O   UNL A   1      33.181  26.213  22.481  1.00  0.00    -0.249 OA
BRANCH  12  15
ATOM     15  N   UNL A   1      32.704  24.558  23.992  1.00  0.00    -0.322 N 
ATOM     16  C   UNL A   1      33.836  24.523  24.932  1.00  0.00     0.121 C 
ATOM     17  C   UNL A   1      32.187  23.283  23.588  1.00  0.00     0.083 C 
ATOM     18  C   UNL A   1      34.155  23.104  25.451  1.00  0.00     0.022 C 
ATOM     19  C   UNL A   1      31.799  22.544  24.869  1.00  0.00     0.025 C 
ATOM     20  C   UNL A   1      33.023  22.781  22.394  1.00  0.00     0.031 C 
ATOM     21  C   UNL A   1      32.901  22.374  25.892  1.00  0.00     0.004 C 
ENDBRANCH  12  15
ENDBRANCH   7  11
ENDBRANCH   4   7
ENDBRANCH   2   3
ENDBRANCH   1   2
BRANCH   1  22
ATOM     22  C   UNL A   1      34.073  29.427  26.031  1.00  0.00     0.118 C 
BRANCH  22  23
ATOM     23  N   UNL A   1      33.587  30.594  26.722  1.00  0.00    -0.352 N 
ATOM     24  C   UNL A   1      34.276  31.409  27.619  1.00  0.00     0.251 C 
ATOM     25  H   UNL A   1      32.655  30.848  26.535  1.00  0.00     0.163 HD
ATOM     26  O   UNL A   1      33.750  32.437  28.000  1.00  0.00    -0.269 OA
BRANCH  24  27
ATOM     27  C   UNL A   1      35.621  31.032  28.174  1.00  0.00     0.039 A 
ATOM     28  C   UNL A   1      35.697  29.857  28.937  1.00  0.00     0.014 A 
ATOM     29  C   UNL A   1      36.770  31.821  28.048  1.00  0.00     0.014 A 
ATOM     30  C   UNL A   1      36.906  29.463  29.535  1.00  0.00     0.010 A 
ATOM     31  C   UNL A   1      37.992  31.402  28.614  1.00  0.00     0.010 A 
ATOM     32  C   UNL A   1      38.074  30.227  29.380  1.00  0.00    -0.014 A 
BRANCH  32  33
ATOM     33  C   UNL A   1      39.333  29.808  30.077  1.00  0.00     0.031 A 
ATOM     34  C   UNL A   1      39.734  30.449  31.386  1.00  0.00     0.074 A 
ATOM     35  C   UNL A   1      40.099  28.817  29.571  1.00  0.00     0.049 A 
ATOM     36  N   UNL A   1      40.712  30.129  32.199  1.00  0.00    -0.248 NA
ATOM     37  C   UNL A   1      38.946  31.607  31.831  1.00  0.00     0.031 C 
ATOM     38  C   UNL A   1      39.859  28.131  28.300  1.00  0.00     0.029 A 
ATOM     39  N   UNL A   1      41.222  28.197  30.071  1.00  0.00    -0.354 N 
ATOM     40  C   UNL A   1      40.651  31.042  33.250  1.00  0.00     0.074 A 
ATOM     41  C   UNL A   1      39.578  31.962  32.940  1.00  0.00     0.031 C 
ATOM     42  C   UNL A   1      40.776  27.161  28.142  1.00  0.00     0.029 A 
ATOM     43  C   UNL A   1      41.681  27.162  29.288  1.00  0.00     0.049 A 
ATOM     44  H   UNL A   1      41.656  28.469  30.912  1.00  0.00     0.167 HD
ATOM     45  C   UNL A   1      41.395  31.099  34.382  1.00  0.00     0.031 A 
ATOM     46  C   UNL A   1      42.701  26.296  29.475  1.00  0.00     0.031 A 
ATOM     47  C   UNL A   1      42.461  30.183  34.699  1.00  0.00     0.049 A 
ATOM     48  C   UNL A   1      43.512  26.371  30.743  1.00  0.00     0.074 A 
ATOM     49  C   UNL A   1      43.243  30.132  35.840  1.00  0.00     0.029 A 
ATOM     50  N   UNL A   1      42.895  29.159  33.871  1.00  0.00    -0.354 N 
ATOM     51  N   UNL A   1      43.380  27.193  31.756  1.00  0.00    -0.248 NA
ATOM     52  C   UNL A   1      44.594  25.387  30.900  1.00  0.00     0.031 C 
ATOM     53  C   UNL A   1      44.181  29.106  35.682  1.00  0.00     0.029 A 
ATOM     54  C   UNL A   1      43.947  28.483  34.466  1.00  0.00     0.049 A 
ATOM     55  H   UNL A   1      42.512  28.944  32.990  1.00  0.00     0.167 HD
ATOM     56  C   UNL A   1      44.347  26.811  32.682  1.00  0.00     0.074 A 
ATOM     57  C   UNL A   1      45.041  25.672  32.116  1.00  0.00     0.031 C 
ATOM     58  C   UNL A   1      44.632  27.354  33.892  1.00  0.00     0.031 A 
BRANCH  45  59
ATOM     59  C   UNL A   1      41.082  32.199  35.368  1.00  0.00    -0.014 A 
ATOM     60  C   UNL A   1      40.133  32.008  36.389  1.00  0.00     0.010 A 
ATOM     61  C   UNL A   1      41.765  33.426  35.294  1.00  0.00     0.010 A 
ATOM     62  C   UNL A   1      39.834  33.040  37.283  1.00  0.00     0.020 A 
ATOM     63  C   UNL A   1      41.489  34.452  36.205  1.00  0.00     0.020 A 
ATOM     64  C   UNL A   1      40.510  34.259  37.181  1.00  0.00     0.054 A 
BRANCH  64  65
ATOM     65  S   UNL A   1      40.106  35.580  38.357  1.00  0.00     0.124 S 
ATOM     66  O   UNL A   1      39.836  36.704  37.464  1.00  0.00    -0.237 OA
ATOM     67  O   UNL A   1      38.943  35.042  39.059  1.00  0.00    -0.237 OA
ATOM     68  O   UNL A   1      41.315  35.707  39.167  1.00  0.00    -0.744 OA
ENDBRANCH  64  65
ENDBRANCH  45  59
BRANCH  46  69
ATOM     69  C   UNL A   1      42.993  25.253  28.448  1.00  0.00    -0.014 A 
ATOM     70  C   UNL A   1      42.352  24.001  28.489  1.00  0.00     0.010 A 
ATOM     71  C   UNL A   1      43.916  25.510  27.418  1.00  0.00     0.010 A 
ATOM     72  C   UNL A   1      42.637  23.023  27.528  1.00  0.00     0.020 A 
ATOM     73  C   UNL A   1      44.183  24.546  26.440  1.00  0.00     0.020 A 
ATOM     74  C   UNL A   1      43.548  23.304  26.506  1.00  0.00     0.054 A 
BRANCH  74  75
ATOM     75  S   UNL A   1      43.858  22.045  25.235  1.00  0.00     0.124 S 
ATOM     76  O   UNL A   1      42.856  21.035  25.557  1.00  0.00    -0.237 OA
ATOM     77  O   UNL A   1      43.636  22.786  23.996  1.00  0.00    -0.237 OA
ATOM     78  O   UNL A   1      45.245  21.652  25.477  1.00  0.00    -0.744 OA
ENDBRANCH  74  75
ENDBRANCH  46  69
BRANCH  58  79
ATOM     79  C   UNL A   1      45.728  26.711  34.701  1.00  0.00    -0.014 A 
ATOM     80  C   UNL A   1      45.440  25.744  35.680  1.00  0.00     0.010 A 
ATOM     81  C   UNL A   1      47.070  27.041  34.438  1.00  0.00     0.010 A 
ATOM     82  C   UNL A   1      46.473  25.145  36.408  1.00  0.00     0.020 A 
ATOM     83  C   UNL A   1      48.107  26.425  35.145  1.00  0.00     0.020 A 
ATOM     84  C   UNL A   1      47.800  25.492  36.136  1.00  0.00     0.054 A 
BRANCH  84  85
ATOM     85  S   UNL A   1      49.125  24.673  37.067  1.00  0.00     0.124 S 
ATOM     86  O   UNL A   1      49.102  23.326  36.504  1.00  0.00    -0.237 OA
ATOM     87  O   UNL A   1      50.299  25.475  36.732  1.00  0.00    -0.237 OA
ATOM     88  O   UNL A   1      48.685  24.775  38.457  1.00  0.00    -0.744 OA
ENDBRANCH  84  85
ENDBRANCH  58  79
ENDBRANCH  32  33
ENDBRANCH  24  27
ENDBRANCH  22  23
ENDBRANCH   1  22
TORSDOF 16
ENDMDL
MODEL 3
REMARK VINA RESULT:     -10.1      2.537      4.039
REMARK SMILES CC[C@@](C)(NC(=O)N1CCCC[C@@H]1C)C(=O)NCCCNC(=O)c1ccc(-c2c3nc(c(-c4ccc(S(=O)(=O)[O-])cc4)c4ccc([nH]4)c(-c4ccc(S(=O)(=O)[O-])cc4)c4nc(c(-c5ccc(S(=O)(=O)[O-])cc5)c5ccc2[nH]5)C=C4)C=C3)cc1
REMARK SMILES IDX 19 1 18 2 17 3 15 4 16 5 3 7 4 8 2 9 1 10 5 11 6 12 7 14
REMARK SMILES IDX 8 15 9 16 13 17 10 18 12 19 14 20 11 21 20 22 21 23 22 24
REMARK SMILES IDX 23 26 24 27 25 28 83 29 26 30 82 31 27 32 28 33 29 34 76 35
REMARK SMILES IDX 30 36 81 37 75 38 77 39 31 40 80 41 74 42 73 43 32 45 62 46
REMARK SMILES IDX 43 47 61 48 44 49 47 50 60 51 78 52 45 53 46 54 59 56 79 57
REMARK SMILES IDX 48 58 33 59 34 60 42 61 35 62 41 63 36 64 37 65 38 66 39 67
REMARK SMILES IDX 40 68 63 69 64 70 72 71 65 72 71 73 66 74 67 75 68 76 69 77
REMARK SMILES IDX 70 78 49 79 50 80 58 81 51 82 57 83 52 84 53 85 54 86 55 87
REMARK SMILES IDX 56 88
REMARK H PARENT 17 6 5 13 21 25 77 44 47 55
REMARK Flexibility Score: inf
ROOT
ATOM      1  C   UNL A   1      33.334  28.252  26.848  1.00  0.00     0.042 C 
ENDROOT
BRANCH   1   2
ATOM      2  C   UNL A   1      31.940  27.879  27.449  1.00  0.00     0.117 C 
BRANCH   2   3
ATOM      3  N   UNL A   1      31.057  26.818  26.854  1.00  0.00    -0.354 N 
ATOM      4  C   UNL A   1      31.022  25.716  26.025  1.00  0.00     0.245 C 
ATOM      5  O   UNL A   1      30.108  24.956  26.409  1.00  0.00    -0.272 OA
ATOM      6  H   UNL A   1      30.144  26.969  27.188  1.00  0.00     0.163 HD
BRANCH   4   7
ATOM      7  C   UNL A   1      31.932  25.180  24.731  1.00  0.00     0.117 C 
ATOM      8  C   UNL A   1      33.239  24.597  25.297  1.00  0.00     0.045 C 
BRANCH   7   9
ATOM      9  C   UNL A   1      31.119  24.047  23.981  1.00  0.00     0.035 C 
ATOM     10  C   UNL A   1      31.522  22.590  24.151  1.00  0.00     0.007 C 
ENDBRANCH   7   9
BRANCH   7  11
ATOM     11  N   UNL A   1      32.398  26.035  23.552  1.00  0.00    -0.324 N 
ATOM     12  C   UNL A   1      31.622  26.611  22.563  1.00  0.00     0.318 C 
ATOM     13  H   UNL A   1      33.368  26.194  23.487  1.00  0.00     0.166 HD
ATOM     14  O   UNL A   1      31.719  26.227  21.403  1.00  0.00    -0.249 OA
BRANCH  12  15
ATOM     15  N   UNL A   1      30.938  27.743  22.934  1.00  0.00    -0.322 N 
ATOM     16  C   UNL A   1      31.473  28.731  23.884  1.00  0.00     0.121 C 
ATOM     17  C   UNL A   1      29.522  27.786  22.717  1.00  0.00     0.083 C 
ATOM     18  C   UNL A   1      30.419  29.758  24.352  1.00  0.00     0.022 C 
ATOM     19  C   UNL A   1      29.194  29.206  22.256  1.00  0.00     0.025 C 
ATOM     20  C   UNL A   1      28.840  26.940  23.811  1.00  0.00     0.031 C 
ATOM     21  C   UNL A   1      29.626  30.318  23.188  1.00  0.00     0.004 C 
ENDBRANCH  12  15
ENDBRANCH   7  11
ENDBRANCH   4   7
ENDBRANCH   2   3
ENDBRANCH   1   2
BRANCH   1  22
ATOM     22  C   UNL A   1      33.903  29.634  26.433  1.00  0.00     0.118 C 
BRANCH  22  23
ATOM     23  N   UNL A   1      33.477  30.822  27.127  1.00  0.00    -0.352 N 
ATOM     24  C   UNL A   1      34.227  31.635  27.976  1.00  0.00     0.251 C 
ATOM     25  H   UNL A   1      32.542  31.093  26.983  1.00  0.00     0.163 HD
ATOM     26  O   UNL A   1      33.742  32.680  28.365  1.00  0.00    -0.269 OA
BRANCH  24  27
ATOM     27  C   UNL A   1      35.589  31.238  28.470  1.00  0.00     0.039 A 
ATOM     28  C   UNL A   1      35.674  30.094  29.278  1.00  0.00     0.014 A 
ATOM     29  C   UNL A   1      36.753  31.982  28.244  1.00  0.00     0.014 A 
ATOM     30  C   UNL A   1      36.903  29.686  29.823  1.00  0.00     0.010 A 
ATOM     31  C   UNL A   1      37.993  31.547  28.757  1.00  0.00     0.010 A 
ATOM     32  C   UNL A   1      38.083  30.403  29.569  1.00  0.00    -0.014 A 
BRANCH  32  33
ATOM     33  C   UNL A   1      39.367  29.973  30.211  1.00  0.00     0.031 A 
ATOM     34  C   UNL A   1      39.831  30.612  31.500  1.00  0.00     0.074 A 
ATOM     35  C   UNL A   1      40.100  28.973  29.674  1.00  0.00     0.049 A 
ATOM     36  N   UNL A   1      40.840  30.283  32.271  1.00  0.00    -0.248 NA
ATOM     37  C   UNL A   1      39.074  31.778  31.977  1.00  0.00     0.031 C 
ATOM     38  C   UNL A   1      39.798  28.288  28.416  1.00  0.00     0.029 A 
ATOM     39  N   UNL A   1      41.237  28.343  30.126  1.00  0.00    -0.354 N 
ATOM     40  C   UNL A   1      40.834  31.198  33.321  1.00  0.00     0.074 A 
ATOM     41  C   UNL A   1      39.758  32.128  33.056  1.00  0.00     0.031 C 
ATOM     42  C   UNL A   1      40.697  27.309  28.219  1.00  0.00     0.029 A 
ATOM     43  C   UNL A   1      41.652  27.302  29.325  1.00  0.00     0.049 A 
ATOM     44  H   UNL A   1      41.711  28.612  30.946  1.00  0.00     0.167 HD
ATOM     45  C   UNL A   1      41.628  31.249  34.420  1.00  0.00     0.031 A 
ATOM     46  C   UNL A   1      42.670  26.426  29.469  1.00  0.00     0.031 A 
ATOM     47  C   UNL A   1      42.697  30.323  34.691  1.00  0.00     0.049 A 
ATOM     48  C   UNL A   1      43.536  26.495  30.700  1.00  0.00     0.074 A 
ATOM     49  C   UNL A   1      43.528  30.265  35.797  1.00  0.00     0.029 A 
ATOM     50  N   UNL A   1      43.085  29.293  33.848  1.00  0.00    -0.354 N 
ATOM     51  N   UNL A   1      43.457  27.320  31.717  1.00  0.00    -0.248 NA
ATOM     52  C   UNL A   1      44.614  25.501  30.812  1.00  0.00     0.031 C 
ATOM     53  C   UNL A   1      44.447  29.230  35.601  1.00  0.00     0.029 A 
ATOM     54  C   UNL A   1      44.155  28.608  34.397  1.00  0.00     0.049 A 
ATOM     55  H   UNL A   1      42.661  29.081  32.985  1.00  0.00     0.167 HD
ATOM     56  C   UNL A   1      44.459  26.929  32.601  1.00  0.00     0.074 A 
ATOM     57  C   UNL A   1      45.117  25.782  32.007  1.00  0.00     0.031 C 
ATOM     58  C   UNL A   1      44.802  27.471  33.795  1.00  0.00     0.031 A 
BRANCH  45  59
ATOM     59  C   UNL A   1      41.368  32.353  35.416  1.00  0.00    -0.014 A 
ATOM     60  C   UNL A   1      40.517  32.150  36.519  1.00  0.00     0.010 A 
ATOM     61  C   UNL A   1      42.006  33.598  35.269  1.00  0.00     0.010 A 
ATOM     62  C   UNL A   1      40.267  33.185  37.423  1.00  0.00     0.020 A 
ATOM     63  C   UNL A   1      41.780  34.629  36.188  1.00  0.00     0.020 A 
ATOM     64  C   UNL A   1      40.895  34.422  37.248  1.00  0.00     0.054 A 
BRANCH  64  65
ATOM     65  S   UNL A   1      40.556  35.747  38.440  1.00  0.00     0.124 S 
ATOM     66  O   UNL A   1      41.899  36.075  38.913  1.00  0.00    -0.237 OA
ATOM     67  O   UNL A   1      39.915  36.767  37.613  1.00  0.00    -0.237 OA
ATOM     68  O   UNL A   1      39.687  35.113  39.428  1.00  0.00    -0.744 OA
ENDBRANCH  64  65
ENDBRANCH  45  59
BRANCH  46  69
ATOM     69  C   UNL A   1      42.907  25.379  28.432  1.00  0.00    -0.014 A 
ATOM     70  C   UNL A   1      43.592  25.686  27.241  1.00  0.00     0.010 A 
ATOM     71  C   UNL A   1      42.450  24.064  28.634  1.00  0.00     0.010 A 
ATOM     72  C   UNL A   1      43.804  24.701  26.269  1.00  0.00     0.020 A 
ATOM     73  C   UNL A   1      42.684  23.071  27.676  1.00  0.00     0.020 A 
ATOM     74  C   UNL A   1      43.352  23.398  26.495  1.00  0.00     0.054 A 
BRANCH  74  75
ATOM     75  S   UNL A   1      43.690  22.123  25.248  1.00  0.00     0.124 S 
ATOM     76  O   UNL A   1      45.056  21.729  25.578  1.00  0.00    -0.237 OA
ATOM     77  O   UNL A   1      42.658  21.127  25.527  1.00  0.00    -0.237 OA
ATOM     78  O   UNL A   1      43.532  22.834  23.981  1.00  0.00    -0.744 OA
ENDBRANCH  74  75
ENDBRANCH  46  69
BRANCH  58  79
ATOM     79  C   UNL A   1      45.927  26.818  34.557  1.00  0.00    -0.014 A 
ATOM     80  C   UNL A   1      45.681  25.775  35.467  1.00  0.00     0.010 A 
ATOM     81  C   UNL A   1      47.253  27.220  34.318  1.00  0.00     0.010 A 
ATOM     82  C   UNL A   1      46.739  25.169  36.151  1.00  0.00     0.020 A 
ATOM     83  C   UNL A   1      48.316  26.599  34.979  1.00  0.00     0.020 A 
ATOM     84  C   UNL A   1      48.050  25.587  35.903  1.00  0.00     0.054 A 
BRANCH  84  85
ATOM     85  S   UNL A   1      49.410  24.760  36.774  1.00  0.00     0.124 S 
ATOM     86  O   UNL A   1      49.555  23.526  36.006  1.00  0.00    -0.237 OA
ATOM     87  O   UNL A   1      50.507  25.715  36.642  1.00  0.00    -0.237 OA
ATOM     88  O   UNL A   1      48.900  24.592  38.133  1.00  0.00    -0.744 OA
ENDBRANCH  84  85
ENDBRANCH  58  79
ENDBRANCH  32  33
ENDBRANCH  24  27
ENDBRANCH  22  23
ENDBRANCH   1  22
TORSDOF 16
ENDMDL
