MODEL 1
REMARK VINA RESULT:     -13.4      0.000      0.000
REMARK SMILES Cc1c(CC(=O)NCCCNC(=O)c2ccc(-c3c4nc(c(-c5ccc(S(=O)(=O)[O-])cc5)c5ccc([nH]5)c(-c5ccc(S(=O)(=O)[O-])cc5)c5nc(c(-c6ccc(S(=O)(=O)[O-])cc6)c6ccc3[nH]6)C=C5)C=C4)cc2)c2ccccc2n1C(=O)c1ccc(Cl)cc1
REMARK SMILES IDX 9 1 8 2 7 3 5 4 6 5 4 7 3 8 1 9 2 10 80 11 74 12 79 13 75 14
REMARK SMILES IDX 78 15 76 16 77 17 81 18 82 19 83 20 84 21 89 22 85 23 88 24
REMARK SMILES IDX 86 25 87 26 10 27 11 28 12 29 13 31 14 32 15 33 73 34 16 35
REMARK SMILES IDX 72 36 17 37 18 38 19 39 66 40 20 41 71 42 65 43 67 44 21 45
REMARK SMILES IDX 70 46 64 47 63 48 22 50 52 51 33 52 51 53 34 54 37 55 50 56
REMARK SMILES IDX 68 57 35 58 36 59 49 61 69 62 38 63 23 64 24 65 32 66 25 67
REMARK SMILES IDX 31 68 26 69 27 70 28 71 29 72 30 73 53 74 54 75 62 76 55 77
REMARK SMILES IDX 61 78 56 79 57 80 58 81 59 82 60 83 39 84 40 85 48 86 41 87
REMARK SMILES IDX 47 88 42 89 43 90 44 91 45 92 46 93
REMARK H PARENT 7 6 11 30 67 49 37 60
REMARK Flexibility Score: inf
ROOT
ATOM      1  C   UNL A   1      38.512  23.544  26.391  1.00  0.00     0.042 C 
ENDROOT
BRANCH   1   2
ATOM      2  C   UNL A   1      37.311  23.451  25.446  1.00  0.00     0.117 C 
BRANCH   2   3
ATOM      3  N   UNL A   1      36.059  23.247  26.157  1.00  0.00    -0.356 N 
ATOM      4  C   UNL A   1      34.863  23.887  26.008  1.00  0.00     0.224 C 
ATOM      5  O   UNL A   1      33.930  23.554  26.745  1.00  0.00    -0.275 OA
ATOM      6  H   UNL A   1      36.077  22.545  26.846  1.00  0.00     0.163 HD
BRANCH   4   7
ATOM      7  C   UNL A   1      34.681  24.937  24.926  1.00  0.00     0.138 C 
BRANCH   7   8
ATOM      8  C   UNL A   1      33.455  25.778  25.118  1.00  0.00    -0.010 A 
ATOM      9  C   UNL A   1      31.675  24.266  23.972  1.00  0.00     0.065 C 
ATOM     10  C   UNL A   1      32.171  25.491  24.680  1.00  0.00     0.028 A 
ATOM     11  N   UNL A   1      31.345  26.592  24.950  1.00  0.00    -0.280 N 
ATOM     12  C   UNL A   1      33.390  27.010  25.828  1.00  0.00     0.004 A 
ATOM     13  C   UNL A   1      32.063  27.454  25.797  1.00  0.00     0.056 A 
ATOM     14  C   UNL A   1      34.360  27.775  26.515  1.00  0.00     0.010 A 
ATOM     15  C   UNL A   1      31.692  28.608  26.519  1.00  0.00     0.027 A 
ATOM     16  C   UNL A   1      33.997  28.956  27.161  1.00  0.00     0.001 A 
ATOM     17  C   UNL A   1      32.673  29.360  27.173  1.00  0.00     0.002 A 
BRANCH  11  18
ATOM     18  C   UNL A   1      30.038  26.789  24.417  1.00  0.00     0.262 C 
ATOM     19  O   UNL A   1      29.152  26.004  24.753  1.00  0.00    -0.268 OA
BRANCH  18  20
ATOM     20  C   UNL A   1      29.657  27.841  23.465  1.00  0.00     0.040 A 
ATOM     21  C   UNL A   1      30.637  28.555  22.767  1.00  0.00     0.015 A 
ATOM     22  C   UNL A   1      28.301  28.146  23.311  1.00  0.00     0.015 A 
ATOM     23  C   UNL A   1      30.260  29.656  21.996  1.00  0.00     0.021 A 
ATOM     24  C   UNL A   1      27.930  29.245  22.533  1.00  0.00     0.021 A 
ATOM     25  C   UNL A   1      28.912  30.010  21.903  1.00  0.00     0.041 A 
ATOM     26  Cl  UNL A   1      28.463  31.425  21.032  1.00  0.00    -0.084 Cl
ENDBRANCH  18  20
ENDBRANCH  11  18
ENDBRANCH   7   8
ENDBRANCH   4   7
ENDBRANCH   2   3
ENDBRANCH   1   2
BRANCH   1  27
ATOM     27  C   UNL A   1      39.301  22.240  26.505  1.00  0.00     0.118 C 
BRANCH  27  28
ATOM     28  N   UNL A   1      40.577  22.258  25.815  1.00  0.00    -0.352 N 
ATOM     29  C   UNL A   1      41.678  23.066  25.824  1.00  0.00     0.251 C 
ATOM     30  H   UNL A   1      40.672  21.506  25.188  1.00  0.00     0.163 HD
ATOM     31  O   UNL A   1      42.638  22.659  25.162  1.00  0.00    -0.269 OA
BRANCH  29  32
ATOM     32  C   UNL A   1      41.776  24.393  26.487  1.00  0.00     0.039 A 
ATOM     33  C   UNL A   1      42.165  24.624  27.807  1.00  0.00     0.014 A 
ATOM     34  C   UNL A   1      41.351  25.489  25.710  1.00  0.00     0.014 A 
ATOM     35  C   UNL A   1      42.003  25.887  28.373  1.00  0.00     0.010 A 
ATOM     36  C   UNL A   1      41.204  26.753  26.264  1.00  0.00     0.010 A 
ATOM     37  C   UNL A   1      41.465  26.933  27.617  1.00  0.00    -0.014 A 
BRANCH  37  38
ATOM     38  C   UNL A   1      41.236  28.218  28.269  1.00  0.00     0.031 A 
ATOM     39  C   UNL A   1      42.309  29.232  28.061  1.00  0.00     0.074 A 
ATOM     40  C   UNL A   1      40.101  28.509  28.941  1.00  0.00     0.049 A 
ATOM     41  N   UNL A   1      43.066  29.791  28.947  1.00  0.00    -0.248 NA
ATOM     42  C   UNL A   1      42.658  29.581  26.675  1.00  0.00     0.031 C 
ATOM     43  C   UNL A   1      38.858  27.731  29.008  1.00  0.00     0.029 A 
ATOM     44  N   UNL A   1      39.789  29.632  29.643  1.00  0.00    -0.354 N 
ATOM     45  C   UNL A   1      43.886  30.683  28.258  1.00  0.00     0.074 A 
ATOM     46  C   UNL A   1      43.674  30.426  26.856  1.00  0.00     0.031 C 
ATOM     47  C   UNL A   1      37.866  28.509  29.505  1.00  0.00     0.029 A 
ATOM     48  C   UNL A   1      38.438  29.767  29.948  1.00  0.00     0.049 A 
ATOM     49  H   UNL A   1      40.464  30.296  29.914  1.00  0.00     0.167 HD
ATOM     50  C   UNL A   1      44.574  31.679  28.884  1.00  0.00     0.031 A 
ATOM     51  C   UNL A   1      37.833  30.849  30.500  1.00  0.00     0.031 A 
ATOM     52  C   UNL A   1      44.654  31.460  30.301  1.00  0.00     0.049 A 
ATOM     53  C   UNL A   1      38.889  31.636  31.177  1.00  0.00     0.074 A 
ATOM     54  C   UNL A   1      45.302  30.550  31.108  1.00  0.00     0.029 A 
ATOM     55  N   UNL A   1      43.686  32.046  31.078  1.00  0.00    -0.354 N 
ATOM     56  N   UNL A   1      39.559  31.209  32.209  1.00  0.00    -0.248 NA
ATOM     57  C   UNL A   1      39.498  32.730  30.441  1.00  0.00     0.031 C 
ATOM     58  C   UNL A   1      44.401  30.307  32.184  1.00  0.00     0.029 A 
ATOM     59  C   UNL A   1      43.283  31.131  32.016  1.00  0.00     0.049 A 
ATOM     60  H   UNL A   1      43.341  32.964  30.979  1.00  0.00     0.167 HD
ATOM     61  C   UNL A   1      40.849  31.679  32.015  1.00  0.00     0.074 A 
ATOM     62  C   UNL A   1      40.726  32.690  30.965  1.00  0.00     0.031 C 
ATOM     63  C   UNL A   1      41.929  31.025  32.533  1.00  0.00     0.031 A 
BRANCH  50  64
ATOM     64  C   UNL A   1      44.923  33.007  28.256  1.00  0.00    -0.014 A 
ATOM     65  C   UNL A   1      43.967  34.009  28.002  1.00  0.00     0.010 A 
ATOM     66  C   UNL A   1      46.280  33.376  28.129  1.00  0.00     0.010 A 
ATOM     67  C   UNL A   1      44.331  35.305  27.626  1.00  0.00     0.020 A 
ATOM     68  C   UNL A   1      46.658  34.685  27.792  1.00  0.00     0.020 A 
ATOM     69  C   UNL A   1      45.677  35.640  27.536  1.00  0.00     0.054 A 
BRANCH  69  70
ATOM     70  S   UNL A   1      46.106  37.355  27.148  1.00  0.00     0.124 S 
ATOM     71  O   UNL A   1      44.793  37.939  26.885  1.00  0.00    -0.237 OA
ATOM     72  O   UNL A   1      46.758  37.800  28.377  1.00  0.00    -0.237 OA
ATOM     73  O   UNL A   1      46.981  37.238  25.985  1.00  0.00    -0.744 OA
ENDBRANCH  69  70
ENDBRANCH  50  64
BRANCH  51  74
ATOM     74  C   UNL A   1      36.537  31.463  30.103  1.00  0.00    -0.014 A 
ATOM     75  C   UNL A   1      36.274  31.701  28.739  1.00  0.00     0.010 A 
ATOM     76  C   UNL A   1      35.719  32.109  31.051  1.00  0.00     0.010 A 
ATOM     77  C   UNL A   1      35.282  32.603  28.334  1.00  0.00     0.020 A 
ATOM     78  C   UNL A   1      34.717  33.013  30.651  1.00  0.00     0.020 A 
ATOM     79  C   UNL A   1      34.530  33.279  29.293  1.00  0.00     0.054 A 
BRANCH  79  80
ATOM     80  S   UNL A   1      33.370  34.563  28.731  1.00  0.00     0.124 S 
ATOM     81  O   UNL A   1      34.273  35.570  28.183  1.00  0.00    -0.237 OA
ATOM     82  O   UNL A   1      32.560  33.847  27.749  1.00  0.00    -0.237 OA
ATOM     83  O   UNL A   1      32.666  34.954  29.950  1.00  0.00    -0.744 OA
ENDBRANCH  79  80
ENDBRANCH  51  74
BRANCH  63  84
ATOM     84  C   UNL A   1      41.706  29.938  33.566  1.00  0.00    -0.014 A 
ATOM     85  C   UNL A   1      42.015  30.253  34.902  1.00  0.00     0.010 A 
ATOM     86  C   UNL A   1      41.412  28.595  33.248  1.00  0.00     0.010 A 
ATOM     87  C   UNL A   1      42.086  29.262  35.882  1.00  0.00     0.020 A 
ATOM     88  C   UNL A   1      41.454  27.595  34.238  1.00  0.00     0.020 A 
ATOM     89  C   UNL A   1      41.819  27.934  35.544  1.00  0.00     0.054 A 
BRANCH  89  90
ATOM     90  S   UNL A   1      41.978  26.680  36.848  1.00  0.00     0.124 S 
ATOM     91  O   UNL A   1      43.118  27.172  37.620  1.00  0.00    -0.237 OA
ATOM     92  O   UNL A   1      40.690  26.764  37.533  1.00  0.00    -0.237 OA
ATOM     93  O   UNL A   1      42.206  25.435  36.119  1.00  0.00    -0.744 OA
ENDBRANCH  89  90
ENDBRANCH  63  84
ENDBRANCH  37  38
ENDBRANCH  29  32
ENDBRANCH  27  28
ENDBRANCH   1  27
TORSDOF 16
ENDMDL
MODEL 2
REMARK VINA RESULT:     -13.1      3.031      4.463
REMARK SMILES Cc1c(CC(=O)NCCCNC(=O)c2ccc(-c3c4nc(c(-c5ccc(S(=O)(=O)[O-])cc5)c5ccc([nH]5)c(-c5ccc(S(=O)(=O)[O-])cc5)c5nc(c(-c6ccc(S(=O)(=O)[O-])cc6)c6ccc3[nH]6)C=C5)C=C4)cc2)c2ccccc2n1C(=O)c1ccc(Cl)cc1
REMARK SMILES IDX 9 1 8 2 7 3 5 4 6 5 4 7 3 8 1 9 2 10 80 11 74 12 79 13 75 14
REMARK SMILES IDX 78 15 76 16 77 17 81 18 82 19 83 20 84 21 89 22 85 23 88 24
REMARK SMILES IDX 86 25 87 26 10 27 11 28 12 29 13 31 14 32 15 33 73 34 16 35
REMARK SMILES IDX 72 36 17 37 18 38 19 39 66 40 20 41 71 42 65 43 67 44 21 45
REMARK SMILES IDX 70 46 64 47 63 48 22 50 52 51 33 52 51 53 34 54 37 55 50 56
REMARK SMILES IDX 68 57 35 58 36 59 49 61 69 62 38 63 23 64 24 65 32 66 25 67
REMARK SMILES IDX 31 68 26 69 27 70 28 71 29 72 30 73 53 74 54 75 62 76 55 77
REMARK SMILES IDX 61 78 56 79 57 80 58 81 59 82 60 83 39 84 40 85 48 86 41 87
REMARK SMILES IDX 47 88 42 89 43 90 44 91 45 92 46 93
REMARK H PARENT 7 6 11 30 67 49 37 60
REMARK Flexibility Score: inf
ROOT
ATOM      1  C   UNL A   1      39.419  22.110  26.549  1.00  0.00     0.042 C 
ENDROOT
BRANCH   1   2
ATOM      2  C   UNL A   1      38.881  23.540  26.450  1.00  0.00     0.117 C 
BRANCH   2   3
ATOM      3  N   UNL A   1      38.132  23.768  25.225  1.00  0.00    -0.356 N 
ATOM      4  C   UNL A   1      36.784  23.741  25.015  1.00  0.00     0.224 C 
ATOM      5  O   UNL A   1      36.369  23.951  23.871  1.00  0.00    -0.275 OA
ATOM      6  H   UNL A   1      38.676  23.973  24.431  1.00  0.00     0.163 HD
BRANCH   4   7
ATOM      7  C   UNL A   1      35.829  23.514  26.174  1.00  0.00     0.138 C 
BRANCH   7   8
ATOM      8  C   UNL A   1      34.605  22.737  25.789  1.00  0.00    -0.010 A 
ATOM      9  C   UNL A   1      35.700  20.501  25.033  1.00  0.00     0.065 C 
ATOM     10  C   UNL A   1      34.564  21.450  25.275  1.00  0.00     0.028 A 
ATOM     11  N   UNL A   1      33.240  21.143  24.930  1.00  0.00    -0.280 N 
ATOM     12  C   UNL A   1      33.259  23.176  25.927  1.00  0.00     0.004 A 
ATOM     13  C   UNL A   1      32.423  22.146  25.482  1.00  0.00     0.056 A 
ATOM     14  C   UNL A   1      32.683  24.370  26.419  1.00  0.00     0.010 A 
ATOM     15  C   UNL A   1      31.023  22.274  25.605  1.00  0.00     0.027 A 
ATOM     16  C   UNL A   1      31.297  24.518  26.466  1.00  0.00     0.001 A 
ATOM     17  C   UNL A   1      30.478  23.473  26.074  1.00  0.00     0.002 A 
BRANCH  11  18
ATOM     18  C   UNL A   1      32.833  20.033  24.133  1.00  0.00     0.262 C 
ATOM     19  O   UNL A   1      32.252  20.266  23.073  1.00  0.00    -0.268 OA
BRANCH  18  20
ATOM     20  C   UNL A   1      33.021  18.619  24.484  1.00  0.00     0.040 A 
ATOM     21  C   UNL A   1      33.547  17.721  23.550  1.00  0.00     0.015 A 
ATOM     22  C   UNL A   1      32.616  18.184  25.750  1.00  0.00     0.015 A 
ATOM     23  C   UNL A   1      33.562  16.357  23.848  1.00  0.00     0.021 A 
ATOM     24  C   UNL A   1      32.639  16.820  26.044  1.00  0.00     0.021 A 
ATOM     25  C   UNL A   1      33.085  15.911  25.084  1.00  0.00     0.041 A 
ATOM     26  Cl  UNL A   1      33.015  14.223  25.408  1.00  0.00    -0.084 Cl
ENDBRANCH  18  20
ENDBRANCH  11  18
ENDBRANCH   7   8
ENDBRANCH   4   7
ENDBRANCH   2   3
ENDBRANCH   1   2
BRANCH   1  27
ATOM     27  C   UNL A   1      40.897  22.041  26.933  1.00  0.00     0.118 C 
BRANCH  27  28
ATOM     28  N   UNL A   1      41.804  22.402  25.860  1.00  0.00    -0.352 N 
ATOM     29  C   UNL A   1      42.597  23.476  25.574  1.00  0.00     0.251 C 
ATOM     30  H   UNL A   1      41.863  21.702  25.171  1.00  0.00     0.163 HD
ATOM     31  O   UNL A   1      43.336  23.343  24.594  1.00  0.00    -0.269 OA
BRANCH  29  32
ATOM     32  C   UNL A   1      42.580  24.782  26.286  1.00  0.00     0.039 A 
ATOM     33  C   UNL A   1      43.137  25.041  27.538  1.00  0.00     0.014 A 
ATOM     34  C   UNL A   1      41.855  25.808  25.647  1.00  0.00     0.014 A 
ATOM     35  C   UNL A   1      42.862  26.240  28.192  1.00  0.00     0.010 A 
ATOM     36  C   UNL A   1      41.592  27.012  26.287  1.00  0.00     0.010 A 
ATOM     37  C   UNL A   1      42.039  27.197  27.589  1.00  0.00    -0.014 A 
BRANCH  37  38
ATOM     38  C   UNL A   1      41.710  28.405  28.340  1.00  0.00     0.031 A 
ATOM     39  C   UNL A   1      42.761  29.462  28.329  1.00  0.00     0.074 A 
ATOM     40  C   UNL A   1      40.511  28.598  28.930  1.00  0.00     0.049 A 
ATOM     41  N   UNL A   1      43.418  29.949  29.330  1.00  0.00    -0.248 NA
ATOM     42  C   UNL A   1      43.218  29.956  27.020  1.00  0.00     0.031 C 
ATOM     43  C   UNL A   1      39.295  27.786  28.809  1.00  0.00     0.029 A 
ATOM     44  N   UNL A   1      40.100  29.637  29.707  1.00  0.00    -0.354 N 
ATOM     45  C   UNL A   1      44.264  30.926  28.808  1.00  0.00     0.074 A 
ATOM     46  C   UNL A   1      44.185  30.804  27.374  1.00  0.00     0.031 C 
ATOM     47  C   UNL A   1      38.237  28.484  29.286  1.00  0.00     0.029 A 
ATOM     48  C   UNL A   1      38.724  29.706  29.899  1.00  0.00     0.049 A 
ATOM     49  H   UNL A   1      40.725  30.288  30.101  1.00  0.00     0.167 HD
ATOM     50  C   UNL A   1      44.859  31.872  29.588  1.00  0.00     0.031 A 
ATOM     51  C   UNL A   1      38.035  30.711  30.497  1.00  0.00     0.031 A 
ATOM     52  C   UNL A   1      44.822  31.515  30.978  1.00  0.00     0.049 A 
ATOM     53  C   UNL A   1      39.000  31.454  31.340  1.00  0.00     0.074 A 
ATOM     54  C   UNL A   1      45.428  30.545  31.749  1.00  0.00     0.029 A 
ATOM     55  N   UNL A   1      43.770  31.996  31.717  1.00  0.00    -0.354 N 
ATOM     56  N   UNL A   1      39.591  30.944  32.382  1.00  0.00    -0.248 NA
ATOM     57  C   UNL A   1      39.633  32.632  30.772  1.00  0.00     0.031 C 
ATOM     58  C   UNL A   1      44.445  30.174  32.709  1.00  0.00     0.029 A 
ATOM     59  C   UNL A   1      43.318  30.981  32.521  1.00  0.00     0.049 A 
ATOM     60  H   UNL A   1      43.404  32.909  31.676  1.00  0.00     0.167 HD
ATOM     61  C   UNL A   1      40.876  31.464  32.353  1.00  0.00     0.074 A 
ATOM     62  C   UNL A   1      40.810  32.571  31.399  1.00  0.00     0.031 C 
ATOM     63  C   UNL A   1      41.928  30.790  32.900  1.00  0.00     0.031 A 
BRANCH  50  64
ATOM     64  C   UNL A   1      45.216  33.264  29.125  1.00  0.00    -0.014 A 
ATOM     65  C   UNL A   1      46.545  33.702  28.970  1.00  0.00     0.010 A 
ATOM     66  C   UNL A   1      44.206  34.096  28.594  1.00  0.00     0.010 A 
ATOM     67  C   UNL A   1      46.861  34.908  28.339  1.00  0.00     0.020 A 
ATOM     68  C   UNL A   1      44.514  35.289  27.922  1.00  0.00     0.020 A 
ATOM     69  C   UNL A   1      45.843  35.690  27.805  1.00  0.00     0.054 A 
BRANCH  69  70
ATOM     70  S   UNL A   1      46.302  37.191  26.904  1.00  0.00     0.124 S 
ATOM     71  O   UNL A   1      46.867  36.640  25.674  1.00  0.00    -0.237 OA
ATOM     72  O   UNL A   1      45.019  37.872  26.757  1.00  0.00    -0.237 OA
ATOM     73  O   UNL A   1      47.259  37.847  27.791  1.00  0.00    -0.744 OA
ENDBRANCH  69  70
ENDBRANCH  50  64
BRANCH  51  74
ATOM     74  C   UNL A   1      36.759  31.329  30.045  1.00  0.00    -0.014 A 
ATOM     75  C   UNL A   1      36.668  31.853  28.739  1.00  0.00     0.010 A 
ATOM     76  C   UNL A   1      35.764  31.700  30.972  1.00  0.00     0.010 A 
ATOM     77  C   UNL A   1      35.668  32.769  28.389  1.00  0.00     0.020 A 
ATOM     78  C   UNL A   1      34.753  32.615  30.624  1.00  0.00     0.020 A 
ATOM     79  C   UNL A   1      34.734  33.170  29.343  1.00  0.00     0.054 A 
BRANCH  79  80
ATOM     80  S   UNL A   1      33.557  34.483  28.897  1.00  0.00     0.124 S 
ATOM     81  O   UNL A   1      34.431  35.484  28.294  1.00  0.00    -0.237 OA
ATOM     82  O   UNL A   1      32.657  33.799  27.972  1.00  0.00    -0.237 OA
ATOM     83  O   UNL A   1      32.959  34.864  30.174  1.00  0.00    -0.744 OA
ENDBRANCH  79  80
ENDBRANCH  51  74
BRANCH  63  84
ATOM     84  C   UNL A   1      41.653  29.599  33.799  1.00  0.00    -0.014 A 
ATOM     85  C   UNL A   1      41.668  29.830  35.187  1.00  0.00     0.010 A 
ATOM     86  C   UNL A   1      41.591  28.265  33.345  1.00  0.00     0.010 A 
ATOM     87  C   UNL A   1      41.677  28.772  36.096  1.00  0.00     0.020 A 
ATOM     88  C   UNL A   1      41.571  27.194  34.258  1.00  0.00     0.020 A 
ATOM     89  C   UNL A   1      41.643  27.457  35.629  1.00  0.00     0.054 A 
BRANCH  89  90
ATOM     90  S   UNL A   1      41.711  26.120  36.856  1.00  0.00     0.124 S 
ATOM     91  O   UNL A   1      40.373  26.164  37.444  1.00  0.00    -0.237 OA
ATOM     92  O   UNL A   1      41.982  24.943  36.034  1.00  0.00    -0.237 OA
ATOM     93  O   UNL A   1      42.800  26.510  37.747  1.00  0.00    -0.744 OA
ENDBRANCH  89  90
ENDBRANCH  63  84
ENDBRANCH  37  38
ENDBRANCH  29  32
ENDBRANCH  27  28
ENDBRANCH   1  27
TORSDOF 16
ENDMDL
MODEL 3
REMARK VINA RESULT:     -13.0      3.560      9.722
REMARK SMILES Cc1c(CC(=O)NCCCNC(=O)c2ccc(-c3c4nc(c(-c5ccc(S(=O)(=O)[O-])cc5)c5ccc([nH]5)c(-c5ccc(S(=O)(=O)[O-])cc5)c5nc(c(-c6ccc(S(=O)(=O)[O-])cc6)c6ccc3[nH]6)C=C5)C=C4)cc2)c2ccccc2n1C(=O)c1ccc(Cl)cc1
REMARK SMILES IDX 9 1 8 2 7 3 5 4 6 5 4 7 3 8 1 9 2 10 80 11 74 12 79 13 75 14
REMARK SMILES IDX 78 15 76 16 77 17 81 18 82 19 83 20 84 21 89 22 85 23 88 24
REMARK SMILES IDX 86 25 87 26 10 27 11 28 12 29 13 31 14 32 15 33 73 34 16 35
REMARK SMILES IDX 72 36 17 37 18 38 19 39 66 40 20 41 71 42 65 43 67 44 21 45
REMARK SMILES IDX 70 46 64 47 63 48 22 50 52 51 33 52 51 53 34 54 37 55 50 56
REMARK SMILES IDX 68 57 35 58 36 59 49 61 69 62 38 63 23 64 24 65 32 66 25 67
REMARK SMILES IDX 31 68 26 69 27 70 28 71 29 72 30 73 53 74 54 75 62 76 55 77
REMARK SMILES IDX 61 78 56 79 57 80 58 81 59 82 60 83 39 84 40 85 48 86 41 87
REMARK SMILES IDX 47 88 42 89 43 90 44 91 45 92 46 93
REMARK H PARENT 7 6 11 30 67 49 37 60
REMARK Flexibility Score: inf
ROOT
ATOM      1  C   UNL A   1      33.408  30.278  27.277  1.00  0.00     0.042 C 
ENDROOT
BRANCH   1   2
ATOM      2  C   UNL A   1      33.949  28.866  27.038  1.00  0.00     0.117 C 
BRANCH   2   3
ATOM      3  N   UNL A   1      33.938  28.498  25.631  1.00  0.00    -0.356 N 
ATOM      4  C   UNL A   1      33.812  27.265  25.058  1.00  0.00     0.224 C 
ATOM      5  O   UNL A   1      33.849  27.191  23.826  1.00  0.00    -0.275 OA
ATOM      6  H   UNL A   1      34.036  29.246  25.000  1.00  0.00     0.163 HD
BRANCH   4   7
ATOM      7  C   UNL A   1      33.576  26.037  25.919  1.00  0.00     0.138 C 
BRANCH   7   8
ATOM      8  C   UNL A   1      33.824  24.749  25.193  1.00  0.00    -0.010 A 
ATOM      9  C   UNL A   1      31.527  24.437  24.012  1.00  0.00     0.065 C 
ATOM     10  C   UNL A   1      32.926  24.056  24.395  1.00  0.00     0.028 A 
ATOM     11  N   UNL A   1      33.509  22.840  24.009  1.00  0.00    -0.280 N 
ATOM     12  C   UNL A   1      35.052  24.030  25.162  1.00  0.00     0.004 A 
ATOM     13  C   UNL A   1      34.871  22.904  24.351  1.00  0.00     0.056 A 
ATOM     14  C   UNL A   1      36.317  24.264  25.749  1.00  0.00     0.010 A 
ATOM     15  C   UNL A   1      35.967  22.064  24.060  1.00  0.00     0.027 A 
ATOM     16  C   UNL A   1      37.375  23.385  25.518  1.00  0.00     0.001 A 
ATOM     17  C   UNL A   1      37.202  22.304  24.671  1.00  0.00     0.002 A 
BRANCH  11  18
ATOM     18  C   UNL A   1      32.813  21.746  23.418  1.00  0.00     0.262 C 
ATOM     19  O   UNL A   1      32.264  21.930  22.331  1.00  0.00    -0.268 OA
BRANCH  18  20
ATOM     20  C   UNL A   1      32.664  20.411  24.012  1.00  0.00     0.040 A 
ATOM     21  C   UNL A   1      32.736  20.239  25.398  1.00  0.00     0.015 A 
ATOM     22  C   UNL A   1      32.500  19.313  23.161  1.00  0.00     0.015 A 
ATOM     23  C   UNL A   1      32.757  18.947  25.926  1.00  0.00     0.021 A 
ATOM     24  C   UNL A   1      32.516  18.024  23.695  1.00  0.00     0.021 A 
ATOM     25  C   UNL A   1      32.672  17.846  25.070  1.00  0.00     0.041 A 
ATOM     26  Cl  UNL A   1      32.796  16.255  25.716  1.00  0.00    -0.084 Cl
ENDBRANCH  18  20
ENDBRANCH  11  18
ENDBRANCH   7   8
ENDBRANCH   4   7
ENDBRANCH   2   3
ENDBRANCH   1   2
BRANCH   1  27
ATOM     27  C   UNL A   1      34.487  31.283  27.683  1.00  0.00     0.118 C 
BRANCH  27  28
ATOM     28  N   UNL A   1      34.323  31.816  29.022  1.00  0.00    -0.352 N 
ATOM     29  C   UNL A   1      35.088  31.866  30.152  1.00  0.00     0.251 C 
ATOM     30  H   UNL A   1      33.447  32.247  29.147  1.00  0.00     0.163 HD
ATOM     31  O   UNL A   1      34.623  32.539  31.078  1.00  0.00    -0.269 OA
BRANCH  29  32
ATOM     32  C   UNL A   1      36.362  31.131  30.371  1.00  0.00     0.039 A 
ATOM     33  C   UNL A   1      37.640  31.688  30.380  1.00  0.00     0.014 A 
ATOM     34  C   UNL A   1      36.237  29.732  30.496  1.00  0.00     0.014 A 
ATOM     35  C   UNL A   1      38.764  30.863  30.374  1.00  0.00     0.010 A 
ATOM     36  C   UNL A   1      37.353  28.907  30.507  1.00  0.00     0.010 A 
ATOM     37  C   UNL A   1      38.615  29.473  30.375  1.00  0.00    -0.014 A 
BRANCH  37  38
ATOM     38  C   UNL A   1      39.813  28.644  30.288  1.00  0.00     0.031 A 
ATOM     39  C   UNL A   1      40.534  28.437  31.576  1.00  0.00     0.074 A 
ATOM     40  C   UNL A   1      40.201  28.034  29.147  1.00  0.00     0.049 A 
ATOM     41  N   UNL A   1      41.738  28.789  31.886  1.00  0.00    -0.248 NA
ATOM     42  C   UNL A   1      39.773  27.864  32.698  1.00  0.00     0.031 C 
ATOM     43  C   UNL A   1      39.469  27.919  27.881  1.00  0.00     0.029 A 
ATOM     44  N   UNL A   1      41.320  27.295  28.913  1.00  0.00    -0.354 N 
ATOM     45  C   UNL A   1      41.953  28.347  33.191  1.00  0.00     0.074 A 
ATOM     46  C   UNL A   1      40.676  27.893  33.680  1.00  0.00     0.031 C 
ATOM     47  C   UNL A   1      40.048  26.969  27.109  1.00  0.00     0.029 A 
ATOM     48  C   UNL A   1      41.280  26.539  27.746  1.00  0.00     0.049 A 
ATOM     49  H   UNL A   1      42.095  27.295  29.520  1.00  0.00     0.167 HD
ATOM     50  C   UNL A   1      43.200  28.243  33.732  1.00  0.00     0.031 A 
ATOM     51  C   UNL A   1      42.182  25.607  27.348  1.00  0.00     0.031 A 
ATOM     52  C   UNL A   1      44.172  28.977  32.972  1.00  0.00     0.049 A 
ATOM     53  C   UNL A   1      43.440  25.885  28.080  1.00  0.00     0.074 A 
ATOM     54  C   UNL A   1      44.419  30.313  32.742  1.00  0.00     0.029 A 
ATOM     55  N   UNL A   1      44.859  28.284  32.006  1.00  0.00    -0.354 N 
ATOM     56  N   UNL A   1      44.150  26.964  27.911  1.00  0.00    -0.248 NA
ATOM     57  C   UNL A   1      43.685  25.157  29.313  1.00  0.00     0.031 C 
ATOM     58  C   UNL A   1      44.861  30.377  31.390  1.00  0.00     0.029 A 
ATOM     59  C   UNL A   1      44.928  29.074  30.887  1.00  0.00     0.049 A 
ATOM     60  H   UNL A   1      45.236  27.379  32.100  1.00  0.00     0.167 HD
ATOM     61  C   UNL A   1      44.617  27.283  29.178  1.00  0.00     0.074 A 
ATOM     62  C   UNL A   1      44.381  26.082  29.978  1.00  0.00     0.031 C 
ATOM     63  C   UNL A   1      44.907  28.571  29.524  1.00  0.00     0.031 A 
BRANCH  50  64
ATOM     64  C   UNL A   1      43.596  27.237  34.785  1.00  0.00    -0.014 A 
ATOM     65  C   UNL A   1      43.532  25.845  34.577  1.00  0.00     0.010 A 
ATOM     66  C   UNL A   1      44.283  27.676  35.938  1.00  0.00     0.010 A 
ATOM     67  C   UNL A   1      44.102  24.934  35.471  1.00  0.00     0.020 A 
ATOM     68  C   UNL A   1      44.894  26.772  36.820  1.00  0.00     0.020 A 
ATOM     69  C   UNL A   1      44.793  25.403  36.582  1.00  0.00     0.054 A 
BRANCH  69  70
ATOM     70  S   UNL A   1      45.605  24.193  37.655  1.00  0.00     0.124 S 
ATOM     71  O   UNL A   1      46.991  24.655  37.631  1.00  0.00    -0.237 OA
ATOM     72  O   UNL A   1      44.902  24.378  38.922  1.00  0.00    -0.237 OA
ATOM     73  O   UNL A   1      45.359  22.919  36.987  1.00  0.00    -0.744 OA
ENDBRANCH  69  70
ENDBRANCH  50  64
BRANCH  51  74
ATOM     74  C   UNL A   1      41.905  24.270  26.757  1.00  0.00    -0.014 A 
ATOM     75  C   UNL A   1      40.841  23.497  27.265  1.00  0.00     0.010 A 
ATOM     76  C   UNL A   1      42.859  23.622  25.947  1.00  0.00     0.010 A 
ATOM     77  C   UNL A   1      40.769  22.117  27.036  1.00  0.00     0.020 A 
ATOM     78  C   UNL A   1      42.788  22.237  25.708  1.00  0.00     0.020 A 
ATOM     79  C   UNL A   1      41.760  21.488  26.285  1.00  0.00     0.054 A 
BRANCH  79  80
ATOM     80  S   UNL A   1      41.721  19.675  26.152  1.00  0.00     0.124 S 
ATOM     81  O   UNL A   1      42.121  19.261  27.493  1.00  0.00    -0.237 OA
ATOM     82  O   UNL A   1      40.325  19.415  25.807  1.00  0.00    -0.237 OA
ATOM     83  O   UNL A   1      42.684  19.382  25.094  1.00  0.00    -0.744 OA
ENDBRANCH  79  80
ENDBRANCH  51  74
BRANCH  63  84
ATOM     84  C   UNL A   1      44.994  29.624  28.436  1.00  0.00    -0.014 A 
ATOM     85  C   UNL A   1      46.245  30.241  28.244  1.00  0.00     0.010 A 
ATOM     86  C   UNL A   1      43.876  30.159  27.764  1.00  0.00     0.010 A 
ATOM     87  C   UNL A   1      46.373  31.384  27.454  1.00  0.00     0.020 A 
ATOM     88  C   UNL A   1      44.005  31.295  26.943  1.00  0.00     0.020 A 
ATOM     89  C   UNL A   1      45.251  31.916  26.817  1.00  0.00     0.054 A 
BRANCH  89  90
ATOM     90  S   UNL A   1      45.468  33.435  25.846  1.00  0.00     0.124 S 
ATOM     91  O   UNL A   1      46.922  33.524  25.722  1.00  0.00    -0.237 OA
ATOM     92  O   UNL A   1      44.763  33.126  24.604  1.00  0.00    -0.237 OA
ATOM     93  O   UNL A   1      44.844  34.473  26.663  1.00  0.00    -0.744 OA
ENDBRANCH  89  90
ENDBRANCH  63  84
ENDBRANCH  37  38
ENDBRANCH  29  32
ENDBRANCH  27  28
ENDBRANCH   1  27
TORSDOF 16
ENDMDL
