MODEL 1
REMARK VINA RESULT:     -10.8      0.000      0.000
REMARK SMILES CC(C)Cc1ccc([C@@H](C)C(=O)NCCCNC(=O)c2ccc(-c3c4nc(c(-c5ccc(S(=O)(=O)[O-])cc5)c5ccc([nH]5)c(-c5ccc(S(=O)(=O)[O-])cc5)c5nc(c(-c6ccc(S(=O)(=O)[O-])cc6)c6ccc3[nH]6)C=C5)C=C4)cc2)cc1
REMARK SMILES IDX 15 1 14 2 13 3 11 4 12 5 9 7 10 8 8 9 5 10 6 11 81 12 7 13
REMARK SMILES IDX 80 14 4 15 2 16 1 17 3 18 16 19 17 20 18 21 19 23 20 24
REMARK SMILES IDX 21 25 79 26 22 27 78 28 23 29 24 30 25 31 72 32 26 33 77 34
REMARK SMILES IDX 71 35 73 36 27 37 76 38 70 39 69 40 28 42 58 43 39 44 57 45
REMARK SMILES IDX 40 46 43 47 56 48 74 49 41 50 42 51 55 53 75 54 44 55 29 56
REMARK SMILES IDX 30 57 38 58 31 59 37 60 32 61 33 62 34 63 35 64 36 65 59 66
REMARK SMILES IDX 60 67 68 68 61 69 67 70 62 71 63 72 64 73 65 74 66 75 45 76
REMARK SMILES IDX 46 77 54 78 47 79 53 80 48 81 49 82 50 83 51 84 52 85
REMARK H PARENT 13 6 17 22 73 41 43 52
REMARK Flexibility Score: inf
ROOT
ATOM      1  C   UNL A   1      32.199  27.788  27.265  1.00  0.00     0.042 C 
ENDROOT
BRANCH   1   2
ATOM      2  C   UNL A   1      32.010  26.648  26.267  1.00  0.00     0.117 C 
BRANCH   2   3
ATOM      3  N   UNL A   1      31.748  25.379  26.921  1.00  0.00    -0.356 N 
ATOM      4  C   UNL A   1      31.733  24.095  26.469  1.00  0.00     0.227 C 
ATOM      5  O   UNL A   1      31.431  23.233  27.305  1.00  0.00    -0.274 OA
ATOM      6  H   UNL A   1      31.539  25.464  27.880  1.00  0.00     0.163 HD
BRANCH   4   7
ATOM      7  C   UNL A   1      32.082  23.672  25.034  1.00  0.00     0.105 C 
ATOM      8  C   UNL A   1      30.952  23.871  24.025  1.00  0.00     0.023 C 
BRANCH   7   9
ATOM      9  C   UNL A   1      32.786  22.329  24.947  1.00  0.00    -0.036 A 
ATOM     10  C   UNL A   1      34.101  19.836  24.687  1.00  0.00    -0.048 A 
ATOM     11  C   UNL A   1      34.822  21.009  24.912  1.00  0.00     0.004 A 
ATOM     12  C   UNL A   1      32.710  19.920  24.559  1.00  0.00     0.004 A 
ATOM     13  C   UNL A   1      34.166  22.216  25.115  1.00  0.00     0.005 A 
ATOM     14  C   UNL A   1      32.063  21.158  24.666  1.00  0.00     0.005 A 
BRANCH  10  15
ATOM     15  C   UNL A   1      34.827  18.510  24.659  1.00  0.00     0.038 C 
BRANCH  15  16
ATOM     16  C   UNL A   1      33.870  17.327  24.368  1.00  0.00    -0.013 C 
ATOM     17  C   UNL A   1      33.953  16.876  22.906  1.00  0.00     0.008 C 
ATOM     18  C   UNL A   1      34.146  16.156  25.306  1.00  0.00     0.008 C 
ENDBRANCH  15  16
ENDBRANCH  10  15
ENDBRANCH   7   9
ENDBRANCH   4   7
ENDBRANCH   2   3
ENDBRANCH   1   2
BRANCH   1  19
ATOM     19  C   UNL A   1      33.581  28.419  27.219  1.00  0.00     0.118 C 
BRANCH  19  20
ATOM     20  N   UNL A   1      33.540  29.851  27.485  1.00  0.00    -0.352 N 
ATOM     21  C   UNL A   1      34.472  30.665  28.086  1.00  0.00     0.251 C 
ATOM     22  H   UNL A   1      32.718  30.307  27.188  1.00  0.00     0.163 HD
ATOM     23  O   UNL A   1      34.161  31.803  28.414  1.00  0.00    -0.269 OA
BRANCH  21  24
ATOM     24  C   UNL A   1      35.839  30.159  28.349  1.00  0.00     0.039 A 
ATOM     25  C   UNL A   1      36.782  30.159  27.316  1.00  0.00     0.014 A 
ATOM     26  C   UNL A   1      36.188  29.674  29.610  1.00  0.00     0.014 A 
ATOM     27  C   UNL A   1      38.092  29.744  27.571  1.00  0.00     0.010 A 
ATOM     28  C   UNL A   1      37.510  29.350  29.885  1.00  0.00     0.010 A 
ATOM     29  C   UNL A   1      38.476  29.372  28.868  1.00  0.00    -0.014 A 
BRANCH  29  30
ATOM     30  C   UNL A   1      39.865  28.968  29.206  1.00  0.00     0.031 A 
ATOM     31  C   UNL A   1      40.804  29.987  29.798  1.00  0.00     0.074 A 
ATOM     32  C   UNL A   1      40.311  27.737  28.889  1.00  0.00     0.049 A 
ATOM     33  N   UNL A   1      42.095  29.909  29.985  1.00  0.00    -0.248 NA
ATOM     34  C   UNL A   1      40.214  31.276  30.200  1.00  0.00     0.031 C 
ATOM     35  C   UNL A   1      39.503  26.663  28.305  1.00  0.00     0.029 A 
ATOM     36  N   UNL A   1      41.564  27.186  28.994  1.00  0.00    -0.354 N 
ATOM     37  C   UNL A   1      42.474  31.145  30.500  1.00  0.00     0.074 A 
ATOM     38  C   UNL A   1      41.288  31.968  30.548  1.00  0.00     0.031 C 
ATOM     39  C   UNL A   1      40.277  25.581  28.118  1.00  0.00     0.029 A 
ATOM     40  C   UNL A   1      41.646  25.900  28.511  1.00  0.00     0.049 A 
ATOM     41  H   UNL A   1      42.333  27.667  29.378  1.00  0.00     0.167 HD
ATOM     42  C   UNL A   1      43.698  31.549  30.915  1.00  0.00     0.031 A 
ATOM     43  C   UNL A   1      42.708  25.080  28.376  1.00  0.00     0.031 A 
ATOM     44  C   UNL A   1      44.871  30.718  30.878  1.00  0.00     0.049 A 
ATOM     45  C   UNL A   1      44.068  25.568  28.802  1.00  0.00     0.074 A 
ATOM     46  C   UNL A   1      46.152  31.022  31.301  1.00  0.00     0.029 A 
ATOM     47  N   UNL A   1      44.903  29.419  30.394  1.00  0.00    -0.354 N 
ATOM     48  N   UNL A   1      44.403  26.730  29.311  1.00  0.00    -0.248 NA
ATOM     49  C   UNL A   1      45.192  24.635  28.643  1.00  0.00     0.031 C 
ATOM     50  C   UNL A   1      46.971  29.923  31.029  1.00  0.00     0.029 A 
ATOM     51  C   UNL A   1      46.185  28.911  30.500  1.00  0.00     0.049 A 
ATOM     52  H   UNL A   1      44.130  28.930  30.032  1.00  0.00     0.167 HD
ATOM     53  C   UNL A   1      45.766  26.647  29.578  1.00  0.00     0.074 A 
ATOM     54  C   UNL A   1      46.194  25.326  29.170  1.00  0.00     0.031 C 
ATOM     55  C   UNL A   1      46.585  27.580  30.122  1.00  0.00     0.031 A 
BRANCH  42  56
ATOM     56  C   UNL A   1      43.829  32.953  31.445  1.00  0.00    -0.014 A 
ATOM     57  C   UNL A   1      43.764  33.216  32.825  1.00  0.00     0.010 A 
ATOM     58  C   UNL A   1      44.066  34.018  30.555  1.00  0.00     0.010 A 
ATOM     59  C   UNL A   1      43.894  34.521  33.304  1.00  0.00     0.020 A 
ATOM     60  C   UNL A   1      44.229  35.322  31.034  1.00  0.00     0.020 A 
ATOM     61  C   UNL A   1      44.126  35.567  32.405  1.00  0.00     0.054 A 
BRANCH  61  62
ATOM     62  S   UNL A   1      44.319  37.247  33.061  1.00  0.00     0.124 S 
ATOM     63  O   UNL A   1      44.766  37.981  31.880  1.00  0.00    -0.237 OA
ATOM     64  O   UNL A   1      42.971  37.566  33.524  1.00  0.00    -0.237 OA
ATOM     65  O   UNL A   1      45.318  37.096  34.116  1.00  0.00    -0.744 OA
ENDBRANCH  61  62
ENDBRANCH  42  56
BRANCH  43  66
ATOM     66  C   UNL A   1      42.531  23.710  27.819  1.00  0.00    -0.014 A 
ATOM     67  C   UNL A   1      42.620  23.489  26.432  1.00  0.00     0.010 A 
ATOM     68  C   UNL A   1      42.265  22.619  28.666  1.00  0.00     0.010 A 
ATOM     69  C   UNL A   1      42.418  22.211  25.902  1.00  0.00     0.020 A 
ATOM     70  C   UNL A   1      42.094  21.334  28.143  1.00  0.00     0.020 A 
ATOM     71  C   UNL A   1      42.155  21.141  26.761  1.00  0.00     0.054 A 
BRANCH  71  72
ATOM     72  S   UNL A   1      41.922  19.487  26.052  1.00  0.00     0.124 S 
ATOM     73  O   UNL A   1      42.411  18.626  27.125  1.00  0.00    -0.237 OA
ATOM     74  O   UNL A   1      40.482  19.448  25.813  1.00  0.00    -0.237 OA
ATOM     75  O   UNL A   1      42.747  19.514  24.846  1.00  0.00    -0.744 OA
ENDBRANCH  71  72
ENDBRANCH  43  66
BRANCH  55  76
ATOM     76  C   UNL A   1      48.016  27.194  30.392  1.00  0.00    -0.014 A 
ATOM     77  C   UNL A   1      49.054  27.551  29.516  1.00  0.00     0.010 A 
ATOM     78  C   UNL A   1      48.329  26.564  31.612  1.00  0.00     0.010 A 
ATOM     79  C   UNL A   1      50.383  27.281  29.855  1.00  0.00     0.020 A 
ATOM     80  C   UNL A   1      49.657  26.319  31.966  1.00  0.00     0.020 A 
ATOM     81  C   UNL A   1      50.676  26.677  31.082  1.00  0.00     0.054 A 
BRANCH  81  82
ATOM     82  S   UNL A   1      52.414  26.432  31.541  1.00  0.00     0.124 S 
ATOM     83  O   UNL A   1      52.757  27.720  32.137  1.00  0.00    -0.237 OA
ATOM     84  O   UNL A   1      52.343  25.307  32.472  1.00  0.00    -0.237 OA
ATOM     85  O   UNL A   1      53.072  26.140  30.270  1.00  0.00    -0.744 OA
ENDBRANCH  81  82
ENDBRANCH  55  76
ENDBRANCH  29  30
ENDBRANCH  21  24
ENDBRANCH  19  20
ENDBRANCH   1  19
TORSDOF 16
ENDMDL
MODEL 2
REMARK VINA RESULT:     -10.8      3.796      6.887
REMARK SMILES CC(C)Cc1ccc([C@@H](C)C(=O)NCCCNC(=O)c2ccc(-c3c4nc(c(-c5ccc(S(=O)(=O)[O-])cc5)c5ccc([nH]5)c(-c5ccc(S(=O)(=O)[O-])cc5)c5nc(c(-c6ccc(S(=O)(=O)[O-])cc6)c6ccc3[nH]6)C=C5)C=C4)cc2)cc1
REMARK SMILES IDX 15 1 14 2 13 3 11 4 12 5 9 7 10 8 8 9 5 10 6 11 81 12 7 13
REMARK SMILES IDX 80 14 4 15 2 16 1 17 3 18 16 19 17 20 18 21 19 23 20 24
REMARK SMILES IDX 21 25 79 26 22 27 78 28 23 29 24 30 25 31 72 32 26 33 77 34
REMARK SMILES IDX 71 35 73 36 27 37 76 38 70 39 69 40 28 42 58 43 39 44 57 45
REMARK SMILES IDX 40 46 43 47 56 48 74 49 41 50 42 51 55 53 75 54 44 55 29 56
REMARK SMILES IDX 30 57 38 58 31 59 37 60 32 61 33 62 34 63 35 64 36 65 59 66
REMARK SMILES IDX 60 67 68 68 61 69 67 70 62 71 63 72 64 73 65 74 66 75 45 76
REMARK SMILES IDX 46 77 54 78 47 79 53 80 48 81 49 82 50 83 51 84 52 85
REMARK H PARENT 13 6 17 22 73 41 43 52
REMARK Flexibility Score: inf
ROOT
ATOM      1  C   UNL A   1      34.731  34.070  28.588  1.00  0.00     0.042 C 
ENDROOT
BRANCH   1   2
ATOM      2  C   UNL A   1      33.308  34.573  28.820  1.00  0.00     0.117 C 
BRANCH   2   3
ATOM      3  N   UNL A   1      33.280  35.919  29.361  1.00  0.00    -0.356 N 
ATOM      4  C   UNL A   1      32.984  36.409  30.596  1.00  0.00     0.227 C 
ATOM      5  O   UNL A   1      33.027  37.641  30.712  1.00  0.00    -0.274 OA
ATOM      6  H   UNL A   1      33.521  36.614  28.707  1.00  0.00     0.163 HD
BRANCH   4   7
ATOM      7  C   UNL A   1      32.636  35.543  31.818  1.00  0.00     0.105 C 
ATOM      8  C   UNL A   1      31.691  36.211  32.816  1.00  0.00     0.023 C 
BRANCH   7   9
ATOM      9  C   UNL A   1      33.838  34.854  32.439  1.00  0.00    -0.036 A 
ATOM     10  C   UNL A   1      36.114  33.553  33.507  1.00  0.00    -0.048 A 
ATOM     11  C   UNL A   1      36.085  34.939  33.352  1.00  0.00     0.004 A 
ATOM     12  C   UNL A   1      35.004  32.810  33.091  1.00  0.00     0.004 A 
ATOM     13  C   UNL A   1      34.938  35.577  32.901  1.00  0.00     0.005 A 
ATOM     14  C   UNL A   1      33.887  33.454  32.542  1.00  0.00     0.005 A 
BRANCH  10  15
ATOM     15  C   UNL A   1      37.304  32.903  34.178  1.00  0.00     0.038 C 
BRANCH  15  16
ATOM     16  C   UNL A   1      38.118  32.024  33.197  1.00  0.00    -0.013 C 
ATOM     17  C   UNL A   1      37.896  30.530  33.455  1.00  0.00     0.008 C 
ATOM     18  C   UNL A   1      37.789  32.370  31.748  1.00  0.00     0.008 C 
ENDBRANCH  15  16
ENDBRANCH  10  15
ENDBRANCH   7   9
ENDBRANCH   4   7
ENDBRANCH   2   3
ENDBRANCH   1   2
BRANCH   1  19
ATOM     19  C   UNL A   1      35.017  32.723  29.231  1.00  0.00     0.118 C 
BRANCH  19  20
ATOM     20  N   UNL A   1      34.225  31.652  28.639  1.00  0.00    -0.352 N 
ATOM     21  C   UNL A   1      34.622  30.434  28.137  1.00  0.00     0.251 C 
ATOM     22  H   UNL A   1      33.256  31.828  28.592  1.00  0.00     0.163 HD
ATOM     23  O   UNL A   1      33.833  29.763  27.484  1.00  0.00    -0.269 OA
BRANCH  21  24
ATOM     24  C   UNL A   1      36.000  29.947  28.373  1.00  0.00     0.039 A 
ATOM     25  C   UNL A   1      36.940  30.022  27.340  1.00  0.00     0.014 A 
ATOM     26  C   UNL A   1      36.363  29.406  29.607  1.00  0.00     0.014 A 
ATOM     27  C   UNL A   1      38.260  29.624  27.571  1.00  0.00     0.010 A 
ATOM     28  C   UNL A   1      37.693  29.098  29.864  1.00  0.00     0.010 A 
ATOM     29  C   UNL A   1      38.656  29.196  28.848  1.00  0.00    -0.014 A 
BRANCH  29  30
ATOM     30  C   UNL A   1      40.054  28.806  29.163  1.00  0.00     0.031 A 
ATOM     31  C   UNL A   1      40.992  29.837  29.735  1.00  0.00     0.074 A 
ATOM     32  C   UNL A   1      40.507  27.578  28.842  1.00  0.00     0.049 A 
ATOM     33  N   UNL A   1      42.287  29.773  29.901  1.00  0.00    -0.248 NA
ATOM     34  C   UNL A   1      40.397  31.121  30.144  1.00  0.00     0.031 C 
ATOM     35  C   UNL A   1      39.700  26.494  28.275  1.00  0.00     0.029 A 
ATOM     36  N   UNL A   1      41.768  27.041  28.927  1.00  0.00    -0.354 N 
ATOM     37  C   UNL A   1      42.663  31.014  30.405  1.00  0.00     0.074 A 
ATOM     38  C   UNL A   1      41.469  31.825  30.471  1.00  0.00     0.031 C 
ATOM     39  C   UNL A   1      40.482  25.421  28.078  1.00  0.00     0.029 A 
ATOM     40  C   UNL A   1      41.854  25.754  28.447  1.00  0.00     0.049 A 
ATOM     41  H   UNL A   1      42.538  27.531  29.297  1.00  0.00     0.167 HD
ATOM     42  C   UNL A   1      43.889  31.432  30.797  1.00  0.00     0.031 A 
ATOM     43  C   UNL A   1      42.922  24.945  28.296  1.00  0.00     0.031 A 
ATOM     44  C   UNL A   1      45.070  30.613  30.742  1.00  0.00     0.049 A 
ATOM     45  C   UNL A   1      44.284  25.447  28.697  1.00  0.00     0.074 A 
ATOM     46  C   UNL A   1      46.355  30.931  31.142  1.00  0.00     0.029 A 
ATOM     47  N   UNL A   1      45.107  29.313  30.263  1.00  0.00    -0.354 N 
ATOM     48  N   UNL A   1      44.616  26.615  29.197  1.00  0.00    -0.248 NA
ATOM     49  C   UNL A   1      45.415  24.526  28.521  1.00  0.00     0.031 C 
ATOM     50  C   UNL A   1      47.180  29.840  30.860  1.00  0.00     0.029 A 
ATOM     51  C   UNL A   1      46.396  28.818  30.348  1.00  0.00     0.049 A 
ATOM     52  H   UNL A   1      44.333  28.815  29.915  1.00  0.00     0.167 HD
ATOM     53  C   UNL A   1      45.984  26.547  29.441  1.00  0.00     0.074 A 
ATOM     54  C   UNL A   1      46.419  25.228  29.030  1.00  0.00     0.031 C 
ATOM     55  C   UNL A   1      46.803  27.489  29.967  1.00  0.00     0.031 A 
BRANCH  42  56
ATOM     56  C   UNL A   1      44.015  32.839  31.320  1.00  0.00    -0.014 A 
ATOM     57  C   UNL A   1      44.223  33.921  30.446  1.00  0.00     0.010 A 
ATOM     58  C   UNL A   1      43.880  33.089  32.699  1.00  0.00     0.010 A 
ATOM     59  C   UNL A   1      44.332  35.222  30.942  1.00  0.00     0.020 A 
ATOM     60  C   UNL A   1      43.955  34.394  33.196  1.00  0.00     0.020 A 
ATOM     61  C   UNL A   1      44.198  35.450  32.315  1.00  0.00     0.054 A 
BRANCH  61  62
ATOM     62  S   UNL A   1      44.315  37.154  32.926  1.00  0.00     0.124 S 
ATOM     63  O   UNL A   1      44.384  37.915  31.681  1.00  0.00    -0.237 OA
ATOM     64  O   UNL A   1      43.077  37.306  33.686  1.00  0.00    -0.237 OA
ATOM     65  O   UNL A   1      45.538  37.154  33.726  1.00  0.00    -0.744 OA
ENDBRANCH  61  62
ENDBRANCH  42  56
BRANCH  43  66
ATOM     66  C   UNL A   1      42.750  23.571  27.746  1.00  0.00    -0.014 A 
ATOM     67  C   UNL A   1      43.025  23.307  26.392  1.00  0.00     0.010 A 
ATOM     68  C   UNL A   1      42.303  22.519  28.567  1.00  0.00     0.010 A 
ATOM     69  C   UNL A   1      42.828  22.028  25.863  1.00  0.00     0.020 A 
ATOM     70  C   UNL A   1      42.136  21.231  28.051  1.00  0.00     0.020 A 
ATOM     71  C   UNL A   1      42.385  20.998  26.696  1.00  0.00     0.054 A 
BRANCH  71  72
ATOM     72  S   UNL A   1      42.163  19.339  25.993  1.00  0.00     0.124 S 
ATOM     73  O   UNL A   1      40.717  19.284  25.798  1.00  0.00    -0.237 OA
ATOM     74  O   UNL A   1      42.966  19.405  24.775  1.00  0.00    -0.237 OA
ATOM     75  O   UNL A   1      42.688  18.456  27.032  1.00  0.00    -0.744 OA
ENDBRANCH  71  72
ENDBRANCH  43  66
BRANCH  55  76
ATOM     76  C   UNL A   1      48.242  27.119  30.214  1.00  0.00    -0.014 A 
ATOM     77  C   UNL A   1      49.235  27.336  29.246  1.00  0.00     0.010 A 
ATOM     78  C   UNL A   1      48.613  26.655  31.491  1.00  0.00     0.010 A 
ATOM     79  C   UNL A   1      50.578  27.092  29.549  1.00  0.00     0.020 A 
ATOM     80  C   UNL A   1      49.955  26.438  31.806  1.00  0.00     0.020 A 
ATOM     81  C   UNL A   1      50.930  26.655  30.831  1.00  0.00     0.054 A 
BRANCH  81  82
ATOM     82  S   UNL A   1      52.687  26.444  31.229  1.00  0.00     0.124 S 
ATOM     83  O   UNL A   1      53.314  26.572  29.917  1.00  0.00    -0.237 OA
ATOM     84  O   UNL A   1      52.938  27.545  32.157  1.00  0.00    -0.237 OA
ATOM     85  O   UNL A   1      52.752  25.110  31.823  1.00  0.00    -0.744 OA
ENDBRANCH  81  82
ENDBRANCH  55  76
ENDBRANCH  29  30
ENDBRANCH  21  24
ENDBRANCH  19  20
ENDBRANCH   1  19
TORSDOF 16
ENDMDL
MODEL 3
REMARK VINA RESULT:     -10.8      1.513      2.076
REMARK SMILES CC(C)Cc1ccc([C@@H](C)C(=O)NCCCNC(=O)c2ccc(-c3c4nc(c(-c5ccc(S(=O)(=O)[O-])cc5)c5ccc([nH]5)c(-c5ccc(S(=O)(=O)[O-])cc5)c5nc(c(-c6ccc(S(=O)(=O)[O-])cc6)c6ccc3[nH]6)C=C5)C=C4)cc2)cc1
REMARK SMILES IDX 15 1 14 2 13 3 11 4 12 5 9 7 10 8 8 9 5 10 6 11 81 12 7 13
REMARK SMILES IDX 80 14 4 15 2 16 1 17 3 18 16 19 17 20 18 21 19 23 20 24
REMARK SMILES IDX 21 25 79 26 22 27 78 28 23 29 24 30 25 31 72 32 26 33 77 34
REMARK SMILES IDX 71 35 73 36 27 37 76 38 70 39 69 40 28 42 58 43 39 44 57 45
REMARK SMILES IDX 40 46 43 47 56 48 74 49 41 50 42 51 55 53 75 54 44 55 29 56
REMARK SMILES IDX 30 57 38 58 31 59 37 60 32 61 33 62 34 63 35 64 36 65 59 66
REMARK SMILES IDX 60 67 68 68 61 69 67 70 62 71 63 72 64 73 65 74 66 75 45 76
REMARK SMILES IDX 46 77 54 78 47 79 53 80 48 81 49 82 50 83 51 84 52 85
REMARK H PARENT 13 6 17 22 73 41 43 52
REMARK Flexibility Score: inf
ROOT
ATOM      1  C   UNL A   1      32.251  27.740  26.820  1.00  0.00     0.042 C 
ENDROOT
BRANCH   1   2
ATOM      2  C   UNL A   1      31.581  28.488  25.670  1.00  0.00     0.117 C 
BRANCH   2   3
ATOM      3  N   UNL A   1      31.073  27.589  24.650  1.00  0.00    -0.356 N 
ATOM      4  C   UNL A   1      31.686  26.854  23.682  1.00  0.00     0.227 C 
ATOM      5  O   UNL A   1      30.936  26.205  22.940  1.00  0.00    -0.274 OA
ATOM      6  H   UNL A   1      30.093  27.494  24.658  1.00  0.00     0.163 HD
BRANCH   4   7
ATOM      7  C   UNL A   1      33.208  26.768  23.484  1.00  0.00     0.105 C 
ATOM      8  C   UNL A   1      33.697  27.271  22.127  1.00  0.00     0.023 C 
BRANCH   7   9
ATOM      9  C   UNL A   1      33.809  25.447  23.930  1.00  0.00    -0.036 A 
ATOM     10  C   UNL A   1      35.010  23.006  24.710  1.00  0.00    -0.048 A 
ATOM     11  C   UNL A   1      35.114  24.145  25.508  1.00  0.00     0.004 A 
ATOM     12  C   UNL A   1      34.325  23.101  23.494  1.00  0.00     0.004 A 
ATOM     13  C   UNL A   1      34.459  25.318  25.158  1.00  0.00     0.005 A 
ATOM     14  C   UNL A   1      33.750  24.316  23.099  1.00  0.00     0.005 A 
BRANCH  10  15
ATOM     15  C   UNL A   1      35.574  21.694  25.208  1.00  0.00     0.038 C 
BRANCH  15  16
ATOM     16  C   UNL A   1      37.052  21.498  24.790  1.00  0.00    -0.013 C 
ATOM     17  C   UNL A   1      38.006  22.295  25.686  1.00  0.00     0.008 C 
ATOM     18  C   UNL A   1      37.430  20.019  24.790  1.00  0.00     0.008 C 
ENDBRANCH  15  16
ENDBRANCH  10  15
ENDBRANCH   7   9
ENDBRANCH   4   7
ENDBRANCH   2   3
ENDBRANCH   1   2
BRANCH   1  19
ATOM     19  C   UNL A   1      33.611  28.300  27.204  1.00  0.00     0.118 C 
BRANCH  19  20
ATOM     20  N   UNL A   1      33.571  29.740  27.424  1.00  0.00    -0.352 N 
ATOM     21  C   UNL A   1      34.505  30.573  27.995  1.00  0.00     0.251 C 
ATOM     22  H   UNL A   1      32.748  30.186  27.115  1.00  0.00     0.163 HD
ATOM     23  O   UNL A   1      34.195  31.721  28.286  1.00  0.00    -0.269 OA
BRANCH  21  24
ATOM     24  C   UNL A   1      35.873  30.076  28.269  1.00  0.00     0.039 A 
ATOM     25  C   UNL A   1      36.830  30.102  27.249  1.00  0.00     0.014 A 
ATOM     26  C   UNL A   1      36.209  29.573  29.527  1.00  0.00     0.014 A 
ATOM     27  C   UNL A   1      38.141  29.695  27.516  1.00  0.00     0.010 A 
ATOM     28  C   UNL A   1      37.530  29.256  29.815  1.00  0.00     0.010 A 
ATOM     29  C   UNL A   1      38.510  29.305  28.812  1.00  0.00    -0.014 A 
BRANCH  29  30
ATOM     30  C   UNL A   1      39.898  28.909  29.163  1.00  0.00     0.031 A 
ATOM     31  C   UNL A   1      40.826  29.933  29.763  1.00  0.00     0.074 A 
ATOM     32  C   UNL A   1      40.353  27.679  28.851  1.00  0.00     0.049 A 
ATOM     33  N   UNL A   1      42.116  29.862  29.962  1.00  0.00    -0.248 NA
ATOM     34  C   UNL A   1      40.225  31.219  30.159  1.00  0.00     0.031 C 
ATOM     35  C   UNL A   1      39.557  26.601  28.260  1.00  0.00     0.029 A 
ATOM     36  N   UNL A   1      41.609  27.136  28.967  1.00  0.00    -0.354 N 
ATOM     37  C   UNL A   1      42.484  31.100  30.480  1.00  0.00     0.074 A 
ATOM     38  C   UNL A   1      41.292  31.917  30.516  1.00  0.00     0.031 C 
ATOM     39  C   UNL A   1      40.338  25.524  28.080  1.00  0.00     0.029 A 
ATOM     40  C   UNL A   1      41.702  25.850  28.486  1.00  0.00     0.049 A 
ATOM     41  H   UNL A   1      42.371  27.621  29.359  1.00  0.00     0.167 HD
ATOM     42  C   UNL A   1      43.701  31.511  30.906  1.00  0.00     0.031 A 
ATOM     43  C   UNL A   1      42.769  25.036  28.361  1.00  0.00     0.031 A 
ATOM     44  C   UNL A   1      44.879  30.687  30.880  1.00  0.00     0.049 A 
ATOM     45  C   UNL A   1      44.123  25.531  28.800  1.00  0.00     0.074 A 
ATOM     46  C   UNL A   1      46.155  30.997  31.314  1.00  0.00     0.029 A 
ATOM     47  N   UNL A   1      44.923  29.387  30.398  1.00  0.00    -0.354 N 
ATOM     48  N   UNL A   1      44.447  26.695  29.311  1.00  0.00    -0.248 NA
ATOM     49  C   UNL A   1      45.253  24.604  28.651  1.00  0.00     0.031 C 
ATOM     50  C   UNL A   1      46.982  29.903  31.051  1.00  0.00     0.029 A 
ATOM     51  C   UNL A   1      46.207  28.886  30.515  1.00  0.00     0.049 A 
ATOM     52  H   UNL A   1      44.155  28.894  30.028  1.00  0.00     0.167 HD
ATOM     53  C   UNL A   1      45.808  26.620  29.591  1.00  0.00     0.074 A 
ATOM     54  C   UNL A   1      46.247  25.300  29.188  1.00  0.00     0.031 C 
ATOM     55  C   UNL A   1      46.617  27.557  30.141  1.00  0.00     0.031 A 
BRANCH  42  56
ATOM     56  C   UNL A   1      43.820  32.916  31.436  1.00  0.00    -0.014 A 
ATOM     57  C   UNL A   1      44.073  33.998  30.572  1.00  0.00     0.010 A 
ATOM     58  C   UNL A   1      43.632  33.166  32.808  1.00  0.00     0.010 A 
ATOM     59  C   UNL A   1      44.174  35.296  31.075  1.00  0.00     0.020 A 
ATOM     60  C   UNL A   1      43.701  34.469  33.310  1.00  0.00     0.020 A 
ATOM     61  C   UNL A   1      43.988  35.524  32.442  1.00  0.00     0.054 A 
BRANCH  61  62
ATOM     62  S   UNL A   1      44.098  37.226  33.060  1.00  0.00     0.124 S 
ATOM     63  O   UNL A   1      44.015  38.000  31.824  1.00  0.00    -0.237 OA
ATOM     64  O   UNL A   1      42.935  37.321  33.939  1.00  0.00    -0.237 OA
ATOM     65  O   UNL A   1      45.392  37.269  33.736  1.00  0.00    -0.744 OA
ENDBRANCH  61  62
ENDBRANCH  42  56
BRANCH  43  66
ATOM     66  C   UNL A   1      42.605  23.664  27.803  1.00  0.00    -0.014 A 
ATOM     67  C   UNL A   1      42.748  23.436  26.422  1.00  0.00     0.010 A 
ATOM     68  C   UNL A   1      42.298  22.579  28.644  1.00  0.00     0.010 A 
ATOM     69  C   UNL A   1      42.558  22.158  25.890  1.00  0.00     0.020 A 
ATOM     70  C   UNL A   1      42.138  21.293  28.120  1.00  0.00     0.020 A 
ATOM     71  C   UNL A   1      42.253  21.094  26.742  1.00  0.00     0.054 A 
BRANCH  71  72
ATOM     72  S   UNL A   1      42.037  19.438  26.031  1.00  0.00     0.124 S 
ATOM     73  O   UNL A   1      40.599  19.399  25.787  1.00  0.00    -0.237 OA
ATOM     74  O   UNL A   1      42.882  19.495  24.841  1.00  0.00    -0.237 OA
ATOM     75  O   UNL A   1      42.518  18.548  27.086  1.00  0.00    -0.744 OA
ENDBRANCH  71  72
ENDBRANCH  43  66
BRANCH  55  76
ATOM     76  C   UNL A   1      48.047  27.179  30.425  1.00  0.00    -0.014 A 
ATOM     77  C   UNL A   1      49.085  27.504  29.537  1.00  0.00     0.010 A 
ATOM     78  C   UNL A   1      48.360  26.592  31.666  1.00  0.00     0.010 A 
ATOM     79  C   UNL A   1      50.414  27.245  29.885  1.00  0.00     0.020 A 
ATOM     80  C   UNL A   1      49.687  26.358  32.028  1.00  0.00     0.020 A 
ATOM     81  C   UNL A   1      50.707  26.683  31.133  1.00  0.00     0.054 A 
BRANCH  81  82
ATOM     82  S   UNL A   1      52.445  26.452  31.600  1.00  0.00     0.124 S 
ATOM     83  O   UNL A   1      52.449  25.075  32.085  1.00  0.00    -0.237 OA
ATOM     84  O   UNL A   1      53.146  26.677  30.338  1.00  0.00    -0.237 OA
ATOM     85  O   UNL A   1      52.670  27.472  32.621  1.00  0.00    -0.744 OA
ENDBRANCH  81  82
ENDBRANCH  55  76
ENDBRANCH  29  30
ENDBRANCH  21  24
ENDBRANCH  19  20
ENDBRANCH   1  19
TORSDOF 16
ENDMDL
