MODEL 1
REMARK VINA RESULT:     -13.4      0.000      0.000
REMARK SMILES O=C(NCCCNC(=O)[C@H]1CC2(CCN(C(=O)c3cccc(O)c3)CC2)CN1C(=O)C1CC1)c1ccc(-c2c3nc(c(-c4ccc(S(=O)(=O)[O-])cc4)c4ccc([nH]4)c(-c4ccc(S(=O)(=O)[O-])cc4)c4nc(c(-c5ccc(S(=O)(=O)[O-])cc5)c5ccc2[nH]5)C=C4)C=C3)cc1
REMARK SMILES IDX 4 1 3 2 1 3 2 4 34 6 35 7 93 8 36 9 92 10 37 11 38 12 39 13
REMARK SMILES IDX 86 14 40 15 91 16 85 17 87 18 41 19 90 20 84 21 83 22 42 24
REMARK SMILES IDX 72 25 53 26 71 27 54 28 57 29 70 30 88 31 55 32 56 33 69 35
REMARK SMILES IDX 89 36 58 37 43 38 44 39 52 40 45 41 51 42 46 43 47 44 48 45
REMARK SMILES IDX 49 46 50 47 73 48 74 49 82 50 75 51 81 52 76 53 77 54 78 55
REMARK SMILES IDX 79 56 80 57 59 58 60 59 68 60 61 61 67 62 62 63 63 64 64 65
REMARK SMILES IDX 65 66 66 67 5 68 6 69 7 70 8 71 9 73 10 74 11 75 28 76 12 77
REMARK SMILES IDX 27 78 13 79 26 80 14 81 25 82 15 83 16 84 17 85 29 86 30 87
REMARK SMILES IDX 31 88 32 89 33 90 18 91 19 92 24 93 20 94 22 95 21 96 23 97
REMARK H PARENT 3 5 87 23 57 34 7 72 23 98
REMARK Flexibility Score: inf
ROOT
ATOM      1  C   UNL A   1      39.285  23.776  26.861  1.00  0.00     0.118 C 
ENDROOT
BRANCH   1   2
ATOM      2  N   UNL A   1      40.154  24.420  25.894  1.00  0.00    -0.352 N 
ATOM      3  O   UNL A   1      41.595  25.962  25.105  1.00  0.00    -0.269 OA
ATOM      4  C   UNL A   1      40.909  25.562  26.042  1.00  0.00     0.251 C 
ATOM      5  H   UNL A   1      40.212  23.983  25.014  1.00  0.00     0.163 HD
BRANCH   4   6
ATOM      6  C   UNL A   1      40.852  26.338  27.303  1.00  0.00     0.039 A 
ATOM      7  C   UNL A   1      39.950  26.019  28.323  1.00  0.00     0.014 A 
ATOM      8  C   UNL A   1      41.718  27.425  27.454  1.00  0.00     0.014 A 
ATOM      9  C   UNL A   1      39.826  26.864  29.428  1.00  0.00     0.010 A 
ATOM     10  C   UNL A   1      41.627  28.240  28.586  1.00  0.00     0.010 A 
ATOM     11  C   UNL A   1      40.651  27.992  29.563  1.00  0.00    -0.014 A 
BRANCH  11  12
ATOM     12  C   UNL A   1      40.484  28.909  30.723  1.00  0.00     0.031 A 
ATOM     13  C   UNL A   1      41.380  28.797  31.930  1.00  0.00     0.074 A 
ATOM     14  C   UNL A   1      39.528  29.857  30.691  1.00  0.00     0.049 A 
ATOM     15  N   UNL A   1      41.391  29.524  33.020  1.00  0.00    -0.248 NA
ATOM     16  C   UNL A   1      42.388  27.724  31.917  1.00  0.00     0.031 C 
ATOM     17  C   UNL A   1      38.588  30.072  29.588  1.00  0.00     0.029 A 
ATOM     18  N   UNL A   1      39.195  30.823  31.606  1.00  0.00    -0.354 N 
ATOM     19  C   UNL A   1      42.387  28.987  33.829  1.00  0.00     0.074 A 
ATOM     20  C   UNL A   1      42.944  27.858  33.114  1.00  0.00     0.031 C 
ATOM     21  C   UNL A   1      37.808  31.125  29.877  1.00  0.00     0.029 A 
ATOM     22  C   UNL A   1      38.163  31.635  31.198  1.00  0.00     0.049 A 
ATOM     23  H   UNL A   1      39.651  30.926  32.472  1.00  0.00     0.167 HD
ATOM     24  C   UNL A   1      42.805  29.397  35.052  1.00  0.00     0.031 A 
ATOM     25  C   UNL A   1      37.563  32.671  31.816  1.00  0.00     0.031 A 
ATOM     26  C   UNL A   1      42.260  30.525  35.764  1.00  0.00     0.049 A 
ATOM     27  C   UNL A   1      38.038  33.100  33.176  1.00  0.00     0.074 A 
ATOM     28  C   UNL A   1      42.654  31.041  36.988  1.00  0.00     0.029 A 
ATOM     29  N   UNL A   1      41.205  31.307  35.324  1.00  0.00    -0.354 N 
ATOM     30  N   UNL A   1      39.011  32.606  33.903  1.00  0.00    -0.248 NA
ATOM     31  C   UNL A   1      37.336  34.234  33.794  1.00  0.00     0.031 C 
ATOM     32  C   UNL A   1      41.807  32.109  37.307  1.00  0.00     0.029 A 
ATOM     33  C   UNL A   1      40.919  32.288  36.260  1.00  0.00     0.049 A 
ATOM     34  H   UNL A   1      40.728  31.184  34.471  1.00  0.00     0.167 HD
ATOM     35  C   UNL A   1      39.055  33.385  35.054  1.00  0.00     0.074 A 
ATOM     36  C   UNL A   1      38.019  34.390  34.920  1.00  0.00     0.031 C 
ATOM     37  C   UNL A   1      39.883  33.280  36.122  1.00  0.00     0.031 A 
BRANCH  24  38
ATOM     38  C   UNL A   1      43.897  28.601  35.717  1.00  0.00    -0.014 A 
ATOM     39  C   UNL A   1      45.251  28.951  35.569  1.00  0.00     0.010 A 
ATOM     40  C   UNL A   1      43.560  27.512  36.542  1.00  0.00     0.010 A 
ATOM     41  C   UNL A   1      46.250  28.201  36.198  1.00  0.00     0.020 A 
ATOM     42  C   UNL A   1      44.553  26.773  37.191  1.00  0.00     0.020 A 
ATOM     43  C   UNL A   1      45.894  27.111  37.000  1.00  0.00     0.054 A 
BRANCH  43  44
ATOM     44  S   UNL A   1      47.207  26.160  37.813  1.00  0.00     0.124 S 
ATOM     45  O   UNL A   1      48.168  25.984  36.726  1.00  0.00    -0.237 OA
ATOM     46  O   UNL A   1      47.634  27.050  38.888  1.00  0.00    -0.237 OA
ATOM     47  O   UNL A   1      46.532  24.940  38.249  1.00  0.00    -0.744 OA
ENDBRANCH  43  44
ENDBRANCH  24  38
BRANCH  25  48
ATOM     48  C   UNL A   1      36.452  33.389  31.138  1.00  0.00    -0.014 A 
ATOM     49  C   UNL A   1      35.242  33.627  31.812  1.00  0.00     0.010 A 
ATOM     50  C   UNL A   1      36.608  33.858  29.820  1.00  0.00     0.010 A 
ATOM     51  C   UNL A   1      34.203  34.312  31.178  1.00  0.00     0.020 A 
ATOM     52  C   UNL A   1      35.580  34.566  29.192  1.00  0.00     0.020 A 
ATOM     53  C   UNL A   1      34.379  34.780  29.873  1.00  0.00     0.054 A 
BRANCH  53  54
ATOM     54  S   UNL A   1      33.041  35.723  29.091  1.00  0.00     0.124 S 
ATOM     55  O   UNL A   1      33.778  36.767  28.388  1.00  0.00    -0.237 OA
ATOM     56  O   UNL A   1      32.399  34.720  28.245  1.00  0.00    -0.237 OA
ATOM     57  O   UNL A   1      32.238  36.176  30.225  1.00  0.00    -0.744 OA
ENDBRANCH  53  54
ENDBRANCH  25  48
BRANCH  37  58
ATOM     58  C   UNL A   1      39.726  34.300  37.218  1.00  0.00    -0.014 A 
ATOM     59  C   UNL A   1      39.012  34.006  38.392  1.00  0.00     0.010 A 
ATOM     60  C   UNL A   1      40.327  35.565  37.079  1.00  0.00     0.010 A 
ATOM     61  C   UNL A   1      38.867  34.972  39.392  1.00  0.00     0.020 A 
ATOM     62  C   UNL A   1      40.206  36.526  38.086  1.00  0.00     0.020 A 
ATOM     63  C   UNL A   1      39.460  36.229  39.230  1.00  0.00     0.054 A 
BRANCH  63  64
ATOM     64  S   UNL A   1      39.279  37.463  40.548  1.00  0.00     0.124 S 
ATOM     65  O   UNL A   1      40.632  38.001  40.647  1.00  0.00    -0.237 OA
ATOM     66  O   UNL A   1      38.278  38.375  40.000  1.00  0.00    -0.237 OA
ATOM     67  O   UNL A   1      38.833  36.678  41.697  1.00  0.00    -0.744 OA
ENDBRANCH  63  64
ENDBRANCH  37  58
ENDBRANCH  11  12
ENDBRANCH   4   6
ENDBRANCH   1   2
BRANCH   1  68
ATOM     68  C   UNL A   1      37.818  23.691  26.457  1.00  0.00     0.042 C 
BRANCH  68  69
ATOM     69  C   UNL A   1      37.328  22.362  25.890  1.00  0.00     0.117 C 
BRANCH  69  70
ATOM     70  N   UNL A   1      37.255  22.275  24.440  1.00  0.00    -0.354 N 
ATOM     71  C   UNL A   1      36.310  22.759  23.571  1.00  0.00     0.242 C 
ATOM     72  H   UNL A   1      38.000  21.793  24.015  1.00  0.00     0.163 HD
ATOM     73  O   UNL A   1      36.591  22.807  22.371  1.00  0.00    -0.273 OA
BRANCH  71  74
ATOM     74  C   UNL A   1      34.993  23.318  24.108  1.00  0.00     0.175 C 
ATOM     75  C   UNL A   1      34.323  24.474  23.374  1.00  0.00     0.044 C 
ATOM     76  N   UNL A   1      33.854  22.514  24.521  1.00  0.00    -0.330 N 
ATOM     77  C   UNL A   1      33.093  24.783  24.289  1.00  0.00    -0.006 C 
ATOM     78  C   UNL A   1      32.872  23.447  25.072  1.00  0.00     0.127 C 
ATOM     79  C   UNL A   1      31.842  25.151  23.459  1.00  0.00     0.030 C 
ATOM     80  C   UNL A   1      33.392  25.934  25.281  1.00  0.00     0.030 C 
ATOM     81  C   UNL A   1      31.947  26.533  22.815  1.00  0.00     0.120 C 
ATOM     82  C   UNL A   1      33.449  27.306  24.610  1.00  0.00     0.120 C 
ATOM     83  N   UNL A   1      32.249  27.553  23.820  1.00  0.00    -0.339 N 
ATOM     84  C   UNL A   1      31.627  28.796  23.934  1.00  0.00     0.253 C 
ATOM     85  O   UNL A   1      32.093  29.727  24.589  1.00  0.00    -0.269 OA
BRANCH  76  86
ATOM     86  C   UNL A   1      33.326  21.297  24.105  1.00  0.00     0.226 C 
ATOM     87  O   UNL A   1      32.761  21.251  23.011  1.00  0.00    -0.275 OA
BRANCH  86  88
ATOM     88  C   UNL A   1      33.447  19.984  24.799  1.00  0.00     0.079 C 
ATOM     89  C   UNL A   1      32.914  18.670  24.305  1.00  0.00     0.014 C 
ATOM     90  C   UNL A   1      34.386  18.850  24.537  1.00  0.00     0.014 C 
ENDBRANCH  86  88
ENDBRANCH  76  86
BRANCH  84  91
ATOM     91  C   UNL A   1      30.332  29.035  23.260  1.00  0.00     0.043 A 
ATOM     92  C   UNL A   1      29.195  28.297  23.610  1.00  0.00     0.014 A 
ATOM     93  C   UNL A   1      30.235  30.086  22.343  1.00  0.00     0.060 A 
ATOM     94  C   UNL A   1      27.969  28.582  23.004  1.00  0.00     0.005 A 
ATOM     95  C   UNL A   1      29.008  30.361  21.751  1.00  0.00     0.116 A 
ATOM     96  C   UNL A   1      27.875  29.615  22.068  1.00  0.00     0.046 A 
BRANCH  95  97
ATOM     97  O   UNL A   1      28.950  31.391  20.858  1.00  0.00    -0.508 OA
ATOM     98  H   UNL A   1      29.459  32.166  21.003  1.00  0.00     0.293 HD
ENDBRANCH  95  97
ENDBRANCH  84  91
ENDBRANCH  71  74
ENDBRANCH  69  70
ENDBRANCH  68  69
ENDBRANCH   1  68
TORSDOF 17
ENDMDL
MODEL 2
REMARK VINA RESULT:     -12.9      6.355     11.861
REMARK SMILES O=C(NCCCNC(=O)[C@H]1CC2(CCN(C(=O)c3cccc(O)c3)CC2)CN1C(=O)C1CC1)c1ccc(-c2c3nc(c(-c4ccc(S(=O)(=O)[O-])cc4)c4ccc([nH]4)c(-c4ccc(S(=O)(=O)[O-])cc4)c4nc(c(-c5ccc(S(=O)(=O)[O-])cc5)c5ccc2[nH]5)C=C4)C=C3)cc1
REMARK SMILES IDX 4 1 3 2 1 3 2 4 34 6 35 7 93 8 36 9 92 10 37 11 38 12 39 13
REMARK SMILES IDX 86 14 40 15 91 16 85 17 87 18 41 19 90 20 84 21 83 22 42 24
REMARK SMILES IDX 72 25 53 26 71 27 54 28 57 29 70 30 88 31 55 32 56 33 69 35
REMARK SMILES IDX 89 36 58 37 43 38 44 39 52 40 45 41 51 42 46 43 47 44 48 45
REMARK SMILES IDX 49 46 50 47 73 48 74 49 82 50 75 51 81 52 76 53 77 54 78 55
REMARK SMILES IDX 79 56 80 57 59 58 60 59 68 60 61 61 67 62 62 63 63 64 64 65
REMARK SMILES IDX 65 66 66 67 5 68 6 69 7 70 8 71 9 73 10 74 11 75 28 76 12 77
REMARK SMILES IDX 27 78 13 79 26 80 14 81 25 82 15 83 16 84 17 85 29 86 30 87
REMARK SMILES IDX 31 88 32 89 33 90 18 91 19 92 24 93 20 94 22 95 21 96 23 97
REMARK H PARENT 3 5 87 23 57 34 7 72 23 98
REMARK Flexibility Score: inf
ROOT
ATOM      1  C   UNL A   1      35.670  30.221  27.964  1.00  0.00     0.118 C 
ENDROOT
BRANCH   1   2
ATOM      2  N   UNL A   1      35.556  29.886  29.371  1.00  0.00    -0.352 N 
ATOM      3  O   UNL A   1      36.268  29.304  31.428  1.00  0.00    -0.269 OA
ATOM      4  C   UNL A   1      36.554  29.556  30.260  1.00  0.00     0.251 C 
ATOM      5  H   UNL A   1      34.644  29.898  29.741  1.00  0.00     0.163 HD
BRANCH   4   6
ATOM      6  C   UNL A   1      37.959  29.447  29.801  1.00  0.00     0.039 A 
ATOM      7  C   UNL A   1      38.302  29.564  28.451  1.00  0.00     0.014 A 
ATOM      8  C   UNL A   1      38.952  29.202  30.754  1.00  0.00     0.014 A 
ATOM      9  C   UNL A   1      39.613  29.307  28.043  1.00  0.00     0.010 A 
ATOM     10  C   UNL A   1      40.274  28.996  30.349  1.00  0.00     0.010 A 
ATOM     11  C   UNL A   1      40.609  29.004  28.986  1.00  0.00    -0.014 A 
BRANCH  11  12
ATOM     12  C   UNL A   1      41.994  28.691  28.540  1.00  0.00     0.031 A 
ATOM     13  C   UNL A   1      42.362  27.303  28.083  1.00  0.00     0.074 A 
ATOM     14  C   UNL A   1      42.928  29.661  28.537  1.00  0.00     0.049 A 
ATOM     15  N   UNL A   1      43.513  26.857  27.643  1.00  0.00    -0.248 NA
ATOM     16  C   UNL A   1      41.306  26.280  28.135  1.00  0.00     0.031 C 
ATOM     17  C   UNL A   1      42.708  31.046  28.960  1.00  0.00     0.029 A 
ATOM     18  N   UNL A   1      44.245  29.634  28.155  1.00  0.00    -0.354 N 
ATOM     19  C   UNL A   1      43.327  25.503  27.385  1.00  0.00     0.074 A 
ATOM     20  C   UNL A   1      41.958  25.194  27.741  1.00  0.00     0.031 C 
ATOM     21  C   UNL A   1      43.842  31.742  28.783  1.00  0.00     0.029 A 
ATOM     22  C   UNL A   1      44.878  30.849  28.273  1.00  0.00     0.049 A 
ATOM     23  H   UNL A   1      44.696  28.822  27.827  1.00  0.00     0.167 HD
ATOM     24  C   UNL A   1      44.210  24.599  26.894  1.00  0.00     0.031 A 
ATOM     25  C   UNL A   1      46.148  31.208  28.006  1.00  0.00     0.031 A 
ATOM     26  C   UNL A   1      45.571  24.903  26.531  1.00  0.00     0.049 A 
ATOM     27  C   UNL A   1      47.112  30.185  27.472  1.00  0.00     0.074 A 
ATOM     28  C   UNL A   1      46.523  24.060  25.981  1.00  0.00     0.029 A 
ATOM     29  N   UNL A   1      46.176  26.141  26.683  1.00  0.00    -0.354 N 
ATOM     30  N   UNL A   1      46.902  28.921  27.194  1.00  0.00    -0.248 NA
ATOM     31  C   UNL A   1      48.483  30.643  27.207  1.00  0.00     0.031 C 
ATOM     32  C   UNL A   1      47.717  24.778  25.843  1.00  0.00     0.029 A 
ATOM     33  C   UNL A   1      47.493  26.080  26.260  1.00  0.00     0.049 A 
ATOM     34  H   UNL A   1      45.733  26.944  27.041  1.00  0.00     0.167 HD
ATOM     35  C   UNL A   1      48.108  28.438  26.698  1.00  0.00     0.074 A 
ATOM     36  C   UNL A   1      49.038  29.550  26.703  1.00  0.00     0.031 C 
ATOM     37  C   UNL A   1      48.414  27.188  26.273  1.00  0.00     0.031 A 
BRANCH  24  38
ATOM     38  C   UNL A   1      43.739  23.176  26.743  1.00  0.00    -0.014 A 
ATOM     39  C   UNL A   1      43.009  22.536  27.760  1.00  0.00     0.010 A 
ATOM     40  C   UNL A   1      43.991  22.484  25.545  1.00  0.00     0.010 A 
ATOM     41  C   UNL A   1      42.578  21.216  27.600  1.00  0.00     0.020 A 
ATOM     42  C   UNL A   1      43.542  21.171  25.370  1.00  0.00     0.020 A 
ATOM     43  C   UNL A   1      42.854  20.539  26.407  1.00  0.00     0.054 A 
BRANCH  43  44
ATOM     44  S   UNL A   1      42.276  18.829  26.219  1.00  0.00     0.124 S 
ATOM     45  O   UNL A   1      43.207  18.306  25.223  1.00  0.00    -0.237 OA
ATOM     46  O   UNL A   1      42.428  18.286  27.566  1.00  0.00    -0.237 OA
ATOM     47  O   UNL A   1      40.896  18.979  25.764  1.00  0.00    -0.744 OA
ENDBRANCH  43  44
ENDBRANCH  24  38
BRANCH  25  48
ATOM     48  C   UNL A   1      46.577  32.614  28.225  1.00  0.00    -0.014 A 
ATOM     49  C   UNL A   1      46.384  33.581  27.223  1.00  0.00     0.010 A 
ATOM     50  C   UNL A   1      47.161  32.998  29.446  1.00  0.00     0.010 A 
ATOM     51  C   UNL A   1      46.776  34.905  27.434  1.00  0.00     0.020 A 
ATOM     52  C   UNL A   1      47.532  34.327  29.670  1.00  0.00     0.020 A 
ATOM     53  C   UNL A   1      47.346  35.270  28.657  1.00  0.00     0.054 A 
BRANCH  53  54
ATOM     54  S   UNL A   1      47.789  37.007  28.934  1.00  0.00     0.124 S 
ATOM     55  O   UNL A   1      47.181  37.663  27.782  1.00  0.00    -0.237 OA
ATOM     56  O   UNL A   1      47.168  37.291  30.226  1.00  0.00    -0.237 OA
ATOM     57  O   UNL A   1      49.250  36.987  28.946  1.00  0.00    -0.744 OA
ENDBRANCH  53  54
ENDBRANCH  25  48
BRANCH  37  58
ATOM     58  C   UNL A   1      49.805  26.962  25.743  1.00  0.00    -0.014 A 
ATOM     59  C   UNL A   1      50.137  27.267  24.411  1.00  0.00     0.010 A 
ATOM     60  C   UNL A   1      50.801  26.463  26.601  1.00  0.00     0.010 A 
ATOM     61  C   UNL A   1      51.431  27.038  23.936  1.00  0.00     0.020 A 
ATOM     62  C   UNL A   1      52.103  26.255  26.137  1.00  0.00     0.020 A 
ATOM     63  C   UNL A   1      52.405  26.528  24.800  1.00  0.00     0.054 A 
BRANCH  63  64
ATOM     64  S   UNL A   1      54.085  26.257  24.171  1.00  0.00     0.124 S 
ATOM     65  O   UNL A   1      53.866  26.216  22.728  1.00  0.00    -0.237 OA
ATOM     66  O   UNL A   1      54.806  27.429  24.663  1.00  0.00    -0.237 OA
ATOM     67  O   UNL A   1      54.482  24.989  24.779  1.00  0.00    -0.744 OA
ENDBRANCH  63  64
ENDBRANCH  37  58
ENDBRANCH  11  12
ENDBRANCH   4   6
ENDBRANCH   1   2
BRANCH   1  68
ATOM     68  C   UNL A   1      34.911  29.298  27.017  1.00  0.00     0.042 C 
BRANCH  68  69
ATOM     69  C   UNL A   1      33.568  29.794  26.489  1.00  0.00     0.117 C 
BRANCH  69  70
ATOM     70  N   UNL A   1      32.392  29.338  27.213  1.00  0.00    -0.354 N 
ATOM     71  C   UNL A   1      31.726  28.140  27.157  1.00  0.00     0.242 C 
ATOM     72  H   UNL A   1      32.013  29.993  27.842  1.00  0.00     0.163 HD
ATOM     73  O   UNL A   1      30.923  27.876  28.054  1.00  0.00    -0.273 OA
BRANCH  71  74
ATOM     74  C   UNL A   1      32.065  27.129  26.062  1.00  0.00     0.175 C 
ATOM     75  C   UNL A   1      32.061  25.642  26.398  1.00  0.00     0.044 C 
ATOM     76  N   UNL A   1      31.512  27.142  24.717  1.00  0.00    -0.330 N 
ATOM     77  C   UNL A   1      32.540  24.996  25.057  1.00  0.00    -0.006 C 
ATOM     78  C   UNL A   1      32.196  26.079  23.982  1.00  0.00     0.127 C 
ATOM     79  C   UNL A   1      31.798  23.672  24.764  1.00  0.00     0.030 C 
ATOM     80  C   UNL A   1      34.065  24.724  25.064  1.00  0.00     0.030 C 
ATOM     81  C   UNL A   1      32.235  22.534  25.687  1.00  0.00     0.120 C 
ATOM     82  C   UNL A   1      34.461  23.554  25.964  1.00  0.00     0.120 C 
ATOM     83  N   UNL A   1      33.687  22.361  25.645  1.00  0.00    -0.339 N 
ATOM     84  C   UNL A   1      34.361  21.144  25.537  1.00  0.00     0.253 C 
ATOM     85  O   UNL A   1      35.557  21.010  25.795  1.00  0.00    -0.269 OA
BRANCH  76  86
ATOM     86  C   UNL A   1      30.291  27.526  24.175  1.00  0.00     0.226 C 
ATOM     87  O   UNL A   1      29.373  26.703  24.169  1.00  0.00    -0.275 OA
BRANCH  86  88
ATOM     88  C   UNL A   1      29.917  28.878  23.674  1.00  0.00     0.079 C 
ATOM     89  C   UNL A   1      30.144  29.400  22.284  1.00  0.00     0.014 C 
ATOM     90  C   UNL A   1      28.751  29.296  22.836  1.00  0.00     0.014 C 
ENDBRANCH  86  88
ENDBRANCH  76  86
BRANCH  84  91
ATOM     91  C   UNL A   1      33.638  19.940  25.076  1.00  0.00     0.043 A 
ATOM     92  C   UNL A   1      33.341  18.898  25.964  1.00  0.00     0.014 A 
ATOM     93  C   UNL A   1      33.158  19.905  23.763  1.00  0.00     0.060 A 
ATOM     94  C   UNL A   1      32.604  17.798  25.520  1.00  0.00     0.005 A 
ATOM     95  C   UNL A   1      32.421  18.806  23.338  1.00  0.00     0.116 A 
ATOM     96  C   UNL A   1      32.145  17.748  24.202  1.00  0.00     0.046 A 
BRANCH  95  97
ATOM     97  O   UNL A   1      31.972  18.803  22.049  1.00  0.00    -0.508 OA
ATOM     98  H   UNL A   1      32.029  19.583  21.532  1.00  0.00     0.293 HD
ENDBRANCH  95  97
ENDBRANCH  84  91
ENDBRANCH  71  74
ENDBRANCH  69  70
ENDBRANCH  68  69
ENDBRANCH   1  68
TORSDOF 17
ENDMDL
MODEL 3
REMARK VINA RESULT:     -12.8      6.111     11.901
REMARK SMILES O=C(NCCCNC(=O)[C@H]1CC2(CCN(C(=O)c3cccc(O)c3)CC2)CN1C(=O)C1CC1)c1ccc(-c2c3nc(c(-c4ccc(S(=O)(=O)[O-])cc4)c4ccc([nH]4)c(-c4ccc(S(=O)(=O)[O-])cc4)c4nc(c(-c5ccc(S(=O)(=O)[O-])cc5)c5ccc2[nH]5)C=C4)C=C3)cc1
REMARK SMILES IDX 4 1 3 2 1 3 2 4 34 6 35 7 93 8 36 9 92 10 37 11 38 12 39 13
REMARK SMILES IDX 86 14 40 15 91 16 85 17 87 18 41 19 90 20 84 21 83 22 42 24
REMARK SMILES IDX 72 25 53 26 71 27 54 28 57 29 70 30 88 31 55 32 56 33 69 35
REMARK SMILES IDX 89 36 58 37 43 38 44 39 52 40 45 41 51 42 46 43 47 44 48 45
REMARK SMILES IDX 49 46 50 47 73 48 74 49 82 50 75 51 81 52 76 53 77 54 78 55
REMARK SMILES IDX 79 56 80 57 59 58 60 59 68 60 61 61 67 62 62 63 63 64 64 65
REMARK SMILES IDX 65 66 66 67 5 68 6 69 7 70 8 71 9 73 10 74 11 75 28 76 12 77
REMARK SMILES IDX 27 78 13 79 26 80 14 81 25 82 15 83 16 84 17 85 29 86 30 87
REMARK SMILES IDX 31 88 32 89 33 90 18 91 19 92 24 93 20 94 22 95 21 96 23 97
REMARK H PARENT 3 5 87 23 57 34 7 72 23 98
REMARK Flexibility Score: inf
ROOT
ATOM      1  C   UNL A   1      35.613  30.703  28.689  1.00  0.00     0.118 C 
ENDROOT
BRANCH   1   2
ATOM      2  N   UNL A   1      35.555  30.865  30.129  1.00  0.00    -0.352 N 
ATOM      3  O   UNL A   1      36.348  31.012  32.233  1.00  0.00    -0.269 OA
ATOM      4  C   UNL A   1      36.588  30.853  31.039  1.00  0.00     0.251 C 
ATOM      5  H   UNL A   1      34.656  31.004  30.508  1.00  0.00     0.163 HD
BRANCH   4   6
ATOM      6  C   UNL A   1      37.976  30.591  30.590  1.00  0.00     0.039 A 
ATOM      7  C   UNL A   1      38.433  31.001  29.334  1.00  0.00     0.014 A 
ATOM      8  C   UNL A   1      38.833  29.899  31.452  1.00  0.00     0.014 A 
ATOM      9  C   UNL A   1      39.697  30.604  28.892  1.00  0.00     0.010 A 
ATOM     10  C   UNL A   1      40.117  29.548  31.027  1.00  0.00     0.010 A 
ATOM     11  C   UNL A   1      40.546  29.859  29.727  1.00  0.00    -0.014 A 
BRANCH  11  12
ATOM     12  C   UNL A   1      41.875  29.406  29.234  1.00  0.00     0.031 A 
ATOM     13  C   UNL A   1      43.056  30.342  29.227  1.00  0.00     0.074 A 
ATOM     14  C   UNL A   1      42.027  28.141  28.796  1.00  0.00     0.049 A 
ATOM     15  N   UNL A   1      44.290  30.111  28.853  1.00  0.00    -0.248 NA
ATOM     16  C   UNL A   1      42.820  31.718  29.693  1.00  0.00     0.031 C 
ATOM     17  C   UNL A   1      40.966  27.133  28.741  1.00  0.00     0.029 A 
ATOM     18  N   UNL A   1      43.135  27.485  28.323  1.00  0.00    -0.354 N 
ATOM     19  C   UNL A   1      44.972  31.312  29.016  1.00  0.00     0.074 A 
ATOM     20  C   UNL A   1      44.008  32.277  29.503  1.00  0.00     0.031 C 
ATOM     21  C   UNL A   1      41.483  25.978  28.294  1.00  0.00     0.029 A 
ATOM     22  C   UNL A   1      42.898  26.171  27.993  1.00  0.00     0.049 A 
ATOM     23  H   UNL A   1      44.017  27.913  28.230  1.00  0.00     0.167 HD
ATOM     24  C   UNL A   1      46.279  31.588  28.789  1.00  0.00     0.031 A 
ATOM     25  C   UNL A   1      43.722  25.227  27.500  1.00  0.00     0.031 A 
ATOM     26  C   UNL A   1      47.244  30.630  28.314  1.00  0.00     0.049 A 
ATOM     27  C   UNL A   1      45.165  25.560  27.246  1.00  0.00     0.074 A 
ATOM     28  C   UNL A   1      48.601  30.809  28.099  1.00  0.00     0.029 A 
ATOM     29  N   UNL A   1      46.958  29.317  27.975  1.00  0.00    -0.354 N 
ATOM     30  N   UNL A   1      45.799  26.690  27.450  1.00  0.00    -0.248 NA
ATOM     31  C   UNL A   1      46.007  24.485  26.703  1.00  0.00     0.031 C 
ATOM     32  C   UNL A   1      49.126  29.616  27.588  1.00  0.00     0.029 A 
ATOM     33  C   UNL A   1      48.107  28.681  27.532  1.00  0.00     0.049 A 
ATOM     34  H   UNL A   1      46.070  28.898  28.039  1.00  0.00     0.167 HD
ATOM     35  C   UNL A   1      47.119  26.454  27.084  1.00  0.00     0.074 A 
ATOM     36  C   UNL A   1      47.195  25.071  26.657  1.00  0.00     0.031 C 
ATOM     37  C   UNL A   1      48.173  27.307  27.104  1.00  0.00     0.031 A 
BRANCH  24  38
ATOM     38  C   UNL A   1      46.745  33.001  29.028  1.00  0.00    -0.014 A 
ATOM     39  C   UNL A   1      46.678  33.973  28.014  1.00  0.00     0.010 A 
ATOM     40  C   UNL A   1      47.213  33.373  30.301  1.00  0.00     0.010 A 
ATOM     41  C   UNL A   1      47.113  35.280  28.256  1.00  0.00     0.020 A 
ATOM     42  C   UNL A   1      47.626  34.685  30.555  1.00  0.00     0.020 A 
ATOM     43  C   UNL A   1      47.591  35.625  29.524  1.00  0.00     0.054 A 
BRANCH  43  44
ATOM     44  S   UNL A   1      48.140  37.330  29.816  1.00  0.00     0.124 S 
ATOM     45  O   UNL A   1      47.787  37.522  31.220  1.00  0.00    -0.237 OA
ATOM     46  O   UNL A   1      49.571  37.263  29.533  1.00  0.00    -0.237 OA
ATOM     47  O   UNL A   1      47.356  38.113  28.864  1.00  0.00    -0.744 OA
ENDBRANCH  43  44
ENDBRANCH  24  38
BRANCH  25  48
ATOM     48  C   UNL A   1      43.198  23.862  27.230  1.00  0.00    -0.014 A 
ATOM     49  C   UNL A   1      42.777  23.505  25.937  1.00  0.00     0.010 A 
ATOM     50  C   UNL A   1      43.140  22.906  28.260  1.00  0.00     0.010 A 
ATOM     51  C   UNL A   1      42.297  22.218  25.681  1.00  0.00     0.020 A 
ATOM     52  C   UNL A   1      42.683  21.611  28.002  1.00  0.00     0.020 A 
ATOM     53  C   UNL A   1      42.255  21.278  26.715  1.00  0.00     0.054 A 
BRANCH  53  54
ATOM     54  S   UNL A   1      41.688  19.595  26.347  1.00  0.00     0.124 S 
ATOM     55  O   UNL A   1      42.453  19.273  25.148  1.00  0.00    -0.237 OA
ATOM     56  O   UNL A   1      42.064  18.863  27.554  1.00  0.00    -0.237 OA
ATOM     57  O   UNL A   1      40.249  19.757  26.150  1.00  0.00    -0.744 OA
ENDBRANCH  53  54
ENDBRANCH  25  48
BRANCH  37  58
ATOM     58  C   UNL A   1      49.511  26.757  26.685  1.00  0.00    -0.014 A 
ATOM     59  C   UNL A   1      50.415  26.238  27.628  1.00  0.00     0.010 A 
ATOM     60  C   UNL A   1      49.855  26.735  25.321  1.00  0.00     0.010 A 
ATOM     61  C   UNL A   1      51.657  25.743  27.219  1.00  0.00     0.020 A 
ATOM     62  C   UNL A   1      51.085  26.220  24.905  1.00  0.00     0.020 A 
ATOM     63  C   UNL A   1      51.987  25.744  25.860  1.00  0.00     0.054 A 
BRANCH  63  64
ATOM     64  S   UNL A   1      53.595  25.079  25.346  1.00  0.00     0.124 S 
ATOM     65  O   UNL A   1      53.834  25.795  24.096  1.00  0.00    -0.237 OA
ATOM     66  O   UNL A   1      54.467  25.448  26.459  1.00  0.00    -0.237 OA
ATOM     67  O   UNL A   1      53.347  23.645  25.207  1.00  0.00    -0.744 OA
ENDBRANCH  63  64
ENDBRANCH  37  58
ENDBRANCH  11  12
ENDBRANCH   4   6
ENDBRANCH   1   2
BRANCH   1  68
ATOM     68  C   UNL A   1      34.441  31.307  27.923  1.00  0.00     0.042 C 
BRANCH  68  69
ATOM     69  C   UNL A   1      33.701  30.394  26.950  1.00  0.00     0.117 C 
BRANCH  69  70
ATOM     70  N   UNL A   1      32.496  29.760  27.461  1.00  0.00    -0.354 N 
ATOM     71  C   UNL A   1      32.009  28.494  27.262  1.00  0.00     0.242 C 
ATOM     72  H   UNL A   1      31.942  30.330  28.041  1.00  0.00     0.163 HD
ATOM     73  O   UNL A   1      31.118  28.087  28.011  1.00  0.00    -0.273 OA
BRANCH  71  74
ATOM     74  C   UNL A   1      32.642  27.589  26.205  1.00  0.00     0.175 C 
ATOM     75  C   UNL A   1      32.291  26.106  26.191  1.00  0.00     0.044 C 
ATOM     76  N   UNL A   1      32.726  27.899  24.787  1.00  0.00    -0.330 N 
ATOM     77  C   UNL A   1      33.205  25.557  25.047  1.00  0.00    -0.006 C 
ATOM     78  C   UNL A   1      33.507  26.823  24.178  1.00  0.00     0.127 C 
ATOM     79  C   UNL A   1      32.486  24.473  24.212  1.00  0.00     0.030 C 
ATOM     80  C   UNL A   1      34.527  24.969  25.601  1.00  0.00     0.030 C 
ATOM     81  C   UNL A   1      32.326  23.155  24.971  1.00  0.00     0.120 C 
ATOM     82  C   UNL A   1      34.335  23.632  26.316  1.00  0.00     0.120 C 
ATOM     83  N   UNL A   1      33.617  22.684  25.473  1.00  0.00    -0.339 N 
ATOM     84  C   UNL A   1      34.099  21.378  25.388  1.00  0.00     0.253 C 
ATOM     85  O   UNL A   1      35.038  20.960  26.064  1.00  0.00    -0.269 OA
BRANCH  76  86
ATOM     86  C   UNL A   1      31.920  28.602  23.899  1.00  0.00     0.226 C 
ATOM     87  O   UNL A   1      32.449  29.103  22.904  1.00  0.00    -0.275 OA
BRANCH  86  88
ATOM     88  C   UNL A   1      30.438  28.748  23.956  1.00  0.00     0.079 C 
ATOM     89  C   UNL A   1      29.627  29.805  23.265  1.00  0.00     0.014 C 
ATOM     90  C   UNL A   1      29.402  28.353  22.953  1.00  0.00     0.014 C 
ENDBRANCH  86  88
ENDBRANCH  76  86
BRANCH  84  91
ATOM     91  C   UNL A   1      33.485  20.428  24.436  1.00  0.00     0.043 A 
ATOM     92  C   UNL A   1      33.481  19.052  24.698  1.00  0.00     0.014 A 
ATOM     93  C   UNL A   1      32.812  20.934  23.320  1.00  0.00     0.060 A 
ATOM     94  C   UNL A   1      32.843  18.179  23.814  1.00  0.00     0.005 A 
ATOM     95  C   UNL A   1      32.177  20.054  22.452  1.00  0.00     0.116 A 
ATOM     96  C   UNL A   1      32.191  18.680  22.685  1.00  0.00     0.046 A 
BRANCH  95  97
ATOM     97  O   UNL A   1      31.533  20.582  21.371  1.00  0.00    -0.508 OA
ATOM     98  H   UNL A   1      30.815  20.120  20.982  1.00  0.00     0.293 HD
ENDBRANCH  95  97
ENDBRANCH  84  91
ENDBRANCH  71  74
ENDBRANCH  69  70
ENDBRANCH  68  69
ENDBRANCH   1  68
TORSDOF 17
ENDMDL
