MODEL 1
REMARK VINA RESULT:      -9.0      0.000      0.000
REMARK SMILES Cc1ccc(F)cc1NS(=O)(=O)c1ccc(C(=O)NCCCNC(=O)c2ccc(-c3c4nc(c(-c5ccc(S(=O)(=O)[O-])cc5)c5ccc([nH]5)c(-c5ccc(S(=O)(=O)[O-])cc5)c5nc(c(-c6ccc(S(=O)(=O)[O-])cc6)c6ccc3[nH]6)C=C5)C=C4)cc2)cc1
REMARK SMILES IDX 21 1 20 2 19 3 17 4 18 5 16 7 13 8 14 9 87 10 15 11 86 12
REMARK SMILES IDX 10 13 11 14 12 15 9 16 8 18 1 19 2 20 3 21 4 22 7 23 5 24
REMARK SMILES IDX 6 25 22 26 23 27 24 28 25 30 26 31 27 32 85 33 28 34 84 35
REMARK SMILES IDX 29 36 30 37 31 38 78 39 32 40 83 41 77 42 79 43 33 44 82 45
REMARK SMILES IDX 76 46 75 47 34 49 64 50 45 51 63 52 46 53 49 54 62 55 80 56
REMARK SMILES IDX 47 57 48 58 61 60 81 61 50 62 35 63 36 64 44 65 37 66 43 67
REMARK SMILES IDX 38 68 39 69 40 70 41 71 42 72 65 73 66 74 74 75 67 76 73 77
REMARK SMILES IDX 68 78 69 79 70 80 71 81 72 82 51 83 52 84 60 85 53 86 59 87
REMARK SMILES IDX 54 88 55 89 56 90 57 91 58 92
REMARK H PARENT 19 6 9 17 23 29 79 48 49 59
REMARK Flexibility Score: inf
ROOT
ATOM      1  C   UNL A   1      41.930  22.053  26.000  1.00  0.00     0.042 C 
ENDROOT
BRANCH   1   2
ATOM      2  C   UNL A   1      42.998  22.391  27.033  1.00  0.00     0.118 C 
BRANCH   2   3
ATOM      3  N   UNL A   1      44.333  22.245  26.485  1.00  0.00    -0.352 N 
ATOM      4  C   UNL A   1      45.276  23.198  26.211  1.00  0.00     0.251 C 
ATOM      5  O   UNL A   1      46.406  22.858  25.874  1.00  0.00    -0.269 OA
ATOM      6  H   UNL A   1      44.601  21.320  26.278  1.00  0.00     0.163 HD
BRANCH   4   7
ATOM      7  C   UNL A   1      44.971  24.637  26.361  1.00  0.00     0.039 A 
ATOM      8  C   UNL A   1      44.663  27.400  26.559  1.00  0.00     0.087 A 
ATOM      9  C   UNL A   1      45.544  26.737  27.421  1.00  0.00     0.023 A 
ATOM     10  C   UNL A   1      43.866  26.676  25.663  1.00  0.00     0.023 A 
ATOM     11  C   UNL A   1      45.727  25.362  27.289  1.00  0.00     0.015 A 
ATOM     12  C   UNL A   1      44.030  25.292  25.557  1.00  0.00     0.015 A 
BRANCH   8  13
ATOM     13  S   UNL A   1      44.543  29.169  26.634  1.00  0.00     0.261 S 
ATOM     14  O   UNL A   1      43.210  29.529  26.195  1.00  0.00    -0.201 OA
ATOM     15  O   UNL A   1      45.699  29.723  25.959  1.00  0.00    -0.201 OA
BRANCH  13  16
ATOM     16  N   UNL A   1      44.674  29.685  28.264  1.00  0.00    -0.279 N 
ATOM     17  H   UNL A   1      44.701  29.008  28.977  1.00  0.00     0.180 HD
BRANCH  16  18
ATOM     18  C   UNL A   1      44.745  31.081  28.622  1.00  0.00     0.055 A 
ATOM     19  C   UNL A   1      47.214  30.955  29.388  1.00  0.00     0.046 C 
ATOM     20  C   UNL A   1      45.932  31.687  29.085  1.00  0.00    -0.027 A 
ATOM     21  C   UNL A   1      45.919  33.061  29.419  1.00  0.00     0.008 A 
ATOM     22  C   UNL A   1      44.748  33.808  29.344  1.00  0.00     0.039 A 
ATOM     23  C   UNL A   1      43.558  31.818  28.675  1.00  0.00     0.066 A 
ATOM     24  C   UNL A   1      43.572  33.171  28.996  1.00  0.00     0.125 A 
ATOM     25  F   UNL A   1      42.426  33.862  28.982  1.00  0.00    -0.207 F 
ENDBRANCH  16  18
ENDBRANCH  13  16
ENDBRANCH   8  13
ENDBRANCH   4   7
ENDBRANCH   2   3
ENDBRANCH   1   2
BRANCH   1  26
ATOM     26  C   UNL A   1      40.601  21.627  26.617  1.00  0.00     0.118 C 
BRANCH  26  27
ATOM     27  N   UNL A   1      39.466  22.089  25.833  1.00  0.00    -0.352 N 
ATOM     28  C   UNL A   1      38.732  23.243  25.942  1.00  0.00     0.251 C 
ATOM     29  H   UNL A   1      39.182  21.481  25.112  1.00  0.00     0.163 HD
ATOM     30  O   UNL A   1      37.654  23.323  25.360  1.00  0.00    -0.269 OA
BRANCH  28  31
ATOM     31  C   UNL A   1      39.230  24.381  26.746  1.00  0.00     0.039 A 
ATOM     32  C   UNL A   1      38.798  24.508  28.068  1.00  0.00     0.014 A 
ATOM     33  C   UNL A   1      40.058  25.358  26.184  1.00  0.00     0.014 A 
ATOM     34  C   UNL A   1      39.214  25.600  28.832  1.00  0.00     0.010 A 
ATOM     35  C   UNL A   1      40.538  26.400  26.971  1.00  0.00     0.010 A 
ATOM     36  C   UNL A   1      40.099  26.550  28.293  1.00  0.00    -0.014 A 
BRANCH  36  37
ATOM     37  C   UNL A   1      40.535  27.723  29.090  1.00  0.00     0.031 A 
ATOM     38  C   UNL A   1      41.884  27.719  29.763  1.00  0.00     0.074 A 
ATOM     39  C   UNL A   1      39.709  28.777  29.231  1.00  0.00     0.049 A 
ATOM     40  N   UNL A   1      42.439  28.645  30.501  1.00  0.00    -0.248 NA
ATOM     41  C   UNL A   1      42.705  26.506  29.609  1.00  0.00     0.031 C 
ATOM     42  C   UNL A   1      38.362  28.878  28.663  1.00  0.00     0.029 A 
ATOM     43  N   UNL A   1      39.880  29.967  29.893  1.00  0.00    -0.354 N 
ATOM     44  C   UNL A   1      43.662  28.123  30.910  1.00  0.00     0.074 A 
ATOM     45  C   UNL A   1      43.743  26.778  30.384  1.00  0.00     0.031 C 
ATOM     46  C   UNL A   1      37.846  30.080  28.970  1.00  0.00     0.029 A 
ATOM     47  C   UNL A   1      38.806  30.817  29.784  1.00  0.00     0.049 A 
ATOM     48  H   UNL A   1      40.695  30.189  30.398  1.00  0.00     0.167 HD
ATOM     49  C   UNL A   1      44.640  28.716  31.634  1.00  0.00     0.031 A 
ATOM     50  C   UNL A   1      38.619  32.055  30.278  1.00  0.00     0.031 A 
ATOM     51  C   UNL A   1      44.559  30.060  32.143  1.00  0.00     0.049 A 
ATOM     52  C   UNL A   1      39.724  32.698  31.071  1.00  0.00     0.074 A 
ATOM     53  C   UNL A   1      45.512  30.774  32.848  1.00  0.00     0.029 A 
ATOM     54  N   UNL A   1      43.460  30.894  31.999  1.00  0.00    -0.354 N 
ATOM     55  N   UNL A   1      40.898  32.211  31.395  1.00  0.00    -0.248 NA
ATOM     56  C   UNL A   1      39.487  34.068  31.544  1.00  0.00     0.031 C 
ATOM     57  C   UNL A   1      44.970  32.023  33.172  1.00  0.00     0.029 A 
ATOM     58  C   UNL A   1      43.705  32.110  32.614  1.00  0.00     0.049 A 
ATOM     59  H   UNL A   1      42.628  30.656  31.528  1.00  0.00     0.167 HD
ATOM     60  C   UNL A   1      41.553  33.226  32.082  1.00  0.00     0.074 A 
ATOM     61  C   UNL A   1      40.649  34.359  32.112  1.00  0.00     0.031 C 
ATOM     62  C   UNL A   1      42.792  33.225  32.636  1.00  0.00     0.031 A 
BRANCH  49  63
ATOM     63  C   UNL A   1      45.882  27.910  31.922  1.00  0.00    -0.014 A 
ATOM     64  C   UNL A   1      46.932  27.831  30.987  1.00  0.00     0.010 A 
ATOM     65  C   UNL A   1      46.017  27.246  33.154  1.00  0.00     0.010 A 
ATOM     66  C   UNL A   1      48.070  27.068  31.260  1.00  0.00     0.020 A 
ATOM     67  C   UNL A   1      47.168  26.506  33.445  1.00  0.00     0.020 A 
ATOM     68  C   UNL A   1      48.180  26.408  32.488  1.00  0.00     0.054 A 
BRANCH  68  69
ATOM     69  S   UNL A   1      49.678  25.441  32.824  1.00  0.00     0.124 S 
ATOM     70  O   UNL A   1      50.527  26.424  33.492  1.00  0.00    -0.237 OA
ATOM     71  O   UNL A   1      49.179  24.362  33.672  1.00  0.00    -0.237 OA
ATOM     72  O   UNL A   1      50.128  25.029  31.497  1.00  0.00    -0.744 OA
ENDBRANCH  68  69
ENDBRANCH  49  63
BRANCH  50  73
ATOM     73  C   UNL A   1      37.346  32.779  30.009  1.00  0.00    -0.014 A 
ATOM     74  C   UNL A   1      37.147  33.448  28.788  1.00  0.00     0.010 A 
ATOM     75  C   UNL A   1      36.317  32.788  30.969  1.00  0.00     0.010 A 
ATOM     76  C   UNL A   1      35.953  34.133  28.542  1.00  0.00     0.020 A 
ATOM     77  C   UNL A   1      35.110  33.447  30.713  1.00  0.00     0.020 A 
ATOM     78  C   UNL A   1      34.942  34.126  29.505  1.00  0.00     0.054 A 
BRANCH  78  79
ATOM     79  S   UNL A   1      33.383  34.981  29.144  1.00  0.00     0.124 S 
ATOM     80  O   UNL A   1      32.750  35.026  30.457  1.00  0.00    -0.237 OA
ATOM     81  O   UNL A   1      33.841  36.265  28.618  1.00  0.00    -0.237 OA
ATOM     82  O   UNL A   1      32.736  34.111  28.164  1.00  0.00    -0.744 OA
ENDBRANCH  78  79
ENDBRANCH  50  73
BRANCH  62  83
ATOM     83  C   UNL A   1      43.258  34.504  33.279  1.00  0.00    -0.014 A 
ATOM     84  C   UNL A   1      43.955  35.482  32.548  1.00  0.00     0.010 A 
ATOM     85  C   UNL A   1      42.970  34.738  34.637  1.00  0.00     0.010 A 
ATOM     86  C   UNL A   1      44.400  36.649  33.177  1.00  0.00     0.020 A 
ATOM     87  C   UNL A   1      43.385  35.916  35.260  1.00  0.00     0.020 A 
ATOM     88  C   UNL A   1      44.117  36.855  34.531  1.00  0.00     0.054 A 
BRANCH  88  89
ATOM     89  S   UNL A   1      44.695  38.381  35.323  1.00  0.00     0.124 S 
ATOM     90  O   UNL A   1      46.089  38.436  34.891  1.00  0.00    -0.237 OA
ATOM     91  O   UNL A   1      43.818  39.395  34.744  1.00  0.00    -0.237 OA
ATOM     92  O   UNL A   1      44.492  38.130  36.748  1.00  0.00    -0.744 OA
ENDBRANCH  88  89
ENDBRANCH  62  83
ENDBRANCH  36  37
ENDBRANCH  28  31
ENDBRANCH  26  27
ENDBRANCH   1  26
TORSDOF 16
ENDMDL
MODEL 2
REMARK VINA RESULT:      -8.9      4.532     11.261
REMARK SMILES Cc1ccc(F)cc1NS(=O)(=O)c1ccc(C(=O)NCCCNC(=O)c2ccc(-c3c4nc(c(-c5ccc(S(=O)(=O)[O-])cc5)c5ccc([nH]5)c(-c5ccc(S(=O)(=O)[O-])cc5)c5nc(c(-c6ccc(S(=O)(=O)[O-])cc6)c6ccc3[nH]6)C=C5)C=C4)cc2)cc1
REMARK SMILES IDX 21 1 20 2 19 3 17 4 18 5 16 7 13 8 14 9 87 10 15 11 86 12
REMARK SMILES IDX 10 13 11 14 12 15 9 16 8 18 1 19 2 20 3 21 4 22 7 23 5 24
REMARK SMILES IDX 6 25 22 26 23 27 24 28 25 30 26 31 27 32 85 33 28 34 84 35
REMARK SMILES IDX 29 36 30 37 31 38 78 39 32 40 83 41 77 42 79 43 33 44 82 45
REMARK SMILES IDX 76 46 75 47 34 49 64 50 45 51 63 52 46 53 49 54 62 55 80 56
REMARK SMILES IDX 47 57 48 58 61 60 81 61 50 62 35 63 36 64 44 65 37 66 43 67
REMARK SMILES IDX 38 68 39 69 40 70 41 71 42 72 65 73 66 74 74 75 67 76 73 77
REMARK SMILES IDX 68 78 69 79 70 80 71 81 72 82 51 83 52 84 60 85 53 86 59 87
REMARK SMILES IDX 54 88 55 89 56 90 57 91 58 92
REMARK H PARENT 19 6 9 17 23 29 79 48 49 59
REMARK Flexibility Score: inf
ROOT
ATOM      1  C   UNL A   1      33.225  28.647  25.110  1.00  0.00     0.042 C 
ENDROOT
BRANCH   1   2
ATOM      2  C   UNL A   1      31.727  28.885  25.265  1.00  0.00     0.118 C 
BRANCH   2   3
ATOM      3  N   UNL A   1      31.122  29.295  24.012  1.00  0.00    -0.352 N 
ATOM      4  C   UNL A   1      30.858  28.563  22.887  1.00  0.00     0.251 C 
ATOM      5  O   UNL A   1      30.211  29.063  21.972  1.00  0.00    -0.269 OA
ATOM      6  H   UNL A   1      30.862  30.243  23.964  1.00  0.00     0.163 HD
BRANCH   4   7
ATOM      7  C   UNL A   1      31.298  27.156  22.772  1.00  0.00     0.039 A 
ATOM      8  C   UNL A   1      32.353  24.576  22.714  1.00  0.00     0.087 A 
ATOM      9  C   UNL A   1      33.040  25.620  22.085  1.00  0.00     0.023 A 
ATOM     10  C   UNL A   1      31.095  24.798  23.290  1.00  0.00     0.023 A 
ATOM     11  C   UNL A   1      32.532  26.916  22.154  1.00  0.00     0.015 A 
ATOM     12  C   UNL A   1      30.573  26.095  23.327  1.00  0.00     0.015 A 
BRANCH   8  13
ATOM     13  S   UNL A   1      33.078  22.957  22.748  1.00  0.00     0.261 S 
ATOM     14  O   UNL A   1      34.315  23.023  21.997  1.00  0.00    -0.201 OA
ATOM     15  O   UNL A   1      32.056  22.003  22.373  1.00  0.00    -0.201 OA
BRANCH  13  16
ATOM     16  N   UNL A   1      33.510  22.556  24.359  1.00  0.00    -0.279 N 
ATOM     17  H   UNL A   1      32.809  22.243  24.976  1.00  0.00     0.180 HD
BRANCH  16  18
ATOM     18  C   UNL A   1      34.867  22.662  24.837  1.00  0.00     0.055 A 
ATOM     19  C   UNL A   1      34.648  25.161  25.477  1.00  0.00     0.046 C 
ATOM     20  C   UNL A   1      35.380  23.845  25.410  1.00  0.00    -0.027 A 
ATOM     21  C   UNL A   1      36.723  23.869  25.852  1.00  0.00     0.008 A 
ATOM     22  C   UNL A   1      37.555  22.766  25.688  1.00  0.00     0.039 A 
ATOM     23  C   UNL A   1      35.754  21.614  24.569  1.00  0.00     0.066 A 
ATOM     24  C   UNL A   1      37.066  21.657  25.024  1.00  0.00     0.125 A 
ATOM     25  F   UNL A   1      37.874  20.613  24.800  1.00  0.00    -0.207 F 
ENDBRANCH  16  18
ENDBRANCH  13  16
ENDBRANCH   8  13
ENDBRANCH   4   7
ENDBRANCH   2   3
ENDBRANCH   1   2
BRANCH   1  26
ATOM     26  C   UNL A   1      33.989  28.705  26.429  1.00  0.00     0.118 C 
BRANCH  26  27
ATOM     27  N   UNL A   1      33.796  29.976  27.111  1.00  0.00    -0.352 N 
ATOM     28  C   UNL A   1      34.576  30.596  28.053  1.00  0.00     0.251 C 
ATOM     29  H   UNL A   1      32.981  30.467  26.856  1.00  0.00     0.163 HD
ATOM     30  O   UNL A   1      34.108  31.532  28.695  1.00  0.00    -0.269 OA
BRANCH  28  31
ATOM     31  C   UNL A   1      35.966  30.151  28.295  1.00  0.00     0.039 A 
ATOM     32  C   UNL A   1      36.294  29.620  29.544  1.00  0.00     0.014 A 
ATOM     33  C   UNL A   1      36.960  30.319  27.325  1.00  0.00     0.014 A 
ATOM     34  C   UNL A   1      37.609  29.239  29.813  1.00  0.00     0.010 A 
ATOM     35  C   UNL A   1      38.252  29.863  27.565  1.00  0.00     0.010 A 
ATOM     36  C   UNL A   1      38.598  29.345  28.821  1.00  0.00    -0.014 A 
BRANCH  36  37
ATOM     37  C   UNL A   1      40.003  28.957  29.100  1.00  0.00     0.031 A 
ATOM     38  C   UNL A   1      40.941  29.937  29.756  1.00  0.00     0.074 A 
ATOM     39  C   UNL A   1      40.440  27.735  28.740  1.00  0.00     0.049 A 
ATOM     40  N   UNL A   1      42.200  29.785  30.077  1.00  0.00    -0.248 NA
ATOM     41  C   UNL A   1      40.403  31.272  30.068  1.00  0.00     0.031 C 
ATOM     42  C   UNL A   1      39.638  26.715  28.059  1.00  0.00     0.029 A 
ATOM     43  N   UNL A   1      41.667  27.141  28.897  1.00  0.00    -0.354 N 
ATOM     44  C   UNL A   1      42.606  31.003  30.612  1.00  0.00     0.074 A 
ATOM     45  C   UNL A   1      41.476  31.901  30.520  1.00  0.00     0.031 C 
ATOM     46  C   UNL A   1      40.383  25.610  27.892  1.00  0.00     0.029 A 
ATOM     47  C   UNL A   1      41.721  25.854  28.418  1.00  0.00     0.049 A 
ATOM     48  H   UNL A   1      42.435  27.595  29.313  1.00  0.00     0.167 HD
ATOM     49  C   UNL A   1      43.801  31.338  31.153  1.00  0.00     0.031 A 
ATOM     50  C   UNL A   1      42.734  24.967  28.411  1.00  0.00     0.031 A 
ATOM     51  C   UNL A   1      44.917  30.434  31.253  1.00  0.00     0.049 A 
ATOM     52  C   UNL A   1      44.049  25.357  29.028  1.00  0.00     0.074 A 
ATOM     53  C   UNL A   1      46.157  30.656  31.826  1.00  0.00     0.029 A 
ATOM     54  N   UNL A   1      44.927  29.134  30.770  1.00  0.00    -0.354 N 
ATOM     55  N   UNL A   1      44.394  26.494  29.583  1.00  0.00    -0.248 NA
ATOM     56  C   UNL A   1      45.103  24.335  29.038  1.00  0.00     0.031 C 
ATOM     57  C   UNL A   1      46.933  29.506  31.647  1.00  0.00     0.029 A 
ATOM     58  C   UNL A   1      46.156  28.547  31.018  1.00  0.00     0.049 A 
ATOM     59  H   UNL A   1      44.171  28.694  30.317  1.00  0.00     0.167 HD
ATOM     60  C   UNL A   1      45.695  26.313  30.038  1.00  0.00     0.074 A 
ATOM     61  C   UNL A   1      46.067  24.952  29.707  1.00  0.00     0.031 C 
ATOM     62  C   UNL A   1      46.509  27.191  30.677  1.00  0.00     0.031 A 
BRANCH  49  63
ATOM     63  C   UNL A   1      43.962  32.743  31.676  1.00  0.00    -0.014 A 
ATOM     64  C   UNL A   1      44.344  33.797  30.824  1.00  0.00     0.010 A 
ATOM     65  C   UNL A   1      43.699  33.022  33.029  1.00  0.00     0.010 A 
ATOM     66  C   UNL A   1      44.505  35.092  31.325  1.00  0.00     0.020 A 
ATOM     67  C   UNL A   1      43.828  34.322  33.528  1.00  0.00     0.020 A 
ATOM     68  C   UNL A   1      44.247  35.346  32.676  1.00  0.00     0.054 A 
BRANCH  68  69
ATOM     69  S   UNL A   1      44.444  37.040  33.294  1.00  0.00     0.124 S 
ATOM     70  O   UNL A   1      43.068  37.400  33.628  1.00  0.00    -0.237 OA
ATOM     71  O   UNL A   1      45.341  36.863  34.433  1.00  0.00    -0.237 OA
ATOM     72  O   UNL A   1      45.019  37.758  32.159  1.00  0.00    -0.744 OA
ENDBRANCH  68  69
ENDBRANCH  49  63
BRANCH  50  73
ATOM     73  C   UNL A   1      42.531  23.612  27.827  1.00  0.00    -0.014 A 
ATOM     74  C   UNL A   1      42.911  23.341  26.500  1.00  0.00     0.010 A 
ATOM     75  C   UNL A   1      41.971  22.580  28.602  1.00  0.00     0.010 A 
ATOM     76  C   UNL A   1      42.713  22.069  25.952  1.00  0.00     0.020 A 
ATOM     77  C   UNL A   1      41.799  21.300  28.067  1.00  0.00     0.020 A 
ATOM     78  C   UNL A   1      42.160  21.057  26.740  1.00  0.00     0.054 A 
BRANCH  78  79
ATOM     79  S   UNL A   1      41.956  19.402  26.023  1.00  0.00     0.124 S 
ATOM     80  O   UNL A   1      42.460  18.545  27.091  1.00  0.00    -0.237 OA
ATOM     81  O   UNL A   1      40.516  19.337  25.785  1.00  0.00    -0.237 OA
ATOM     82  O   UNL A   1      42.777  19.450  24.816  1.00  0.00    -0.744 OA
ENDBRANCH  78  79
ENDBRANCH  50  73
BRANCH  62  83
ATOM     83  C   UNL A   1      47.865  26.690  31.100  1.00  0.00    -0.014 A 
ATOM     84  C   UNL A   1      48.992  26.829  30.271  1.00  0.00     0.010 A 
ATOM     85  C   UNL A   1      48.013  26.088  32.364  1.00  0.00     0.010 A 
ATOM     86  C   UNL A   1      50.232  26.330  30.678  1.00  0.00     0.020 A 
ATOM     87  C   UNL A   1      49.257  25.618  32.787  1.00  0.00     0.020 A 
ATOM     88  C   UNL A   1      50.355  25.722  31.931  1.00  0.00     0.054 A 
BRANCH  88  89
ATOM     89  S   UNL A   1      51.977  25.091  32.442  1.00  0.00     0.124 S 
ATOM     90  O   UNL A   1      51.769  23.648  32.396  1.00  0.00    -0.237 OA
ATOM     91  O   UNL A   1      52.868  25.631  31.418  1.00  0.00    -0.237 OA
ATOM     92  O   UNL A   1      52.162  25.653  33.778  1.00  0.00    -0.744 OA
ENDBRANCH  88  89
ENDBRANCH  62  83
ENDBRANCH  36  37
ENDBRANCH  28  31
ENDBRANCH  26  27
ENDBRANCH   1  26
TORSDOF 16
ENDMDL
MODEL 3
REMARK VINA RESULT:      -8.8      5.022      7.732
REMARK SMILES Cc1ccc(F)cc1NS(=O)(=O)c1ccc(C(=O)NCCCNC(=O)c2ccc(-c3c4nc(c(-c5ccc(S(=O)(=O)[O-])cc5)c5ccc([nH]5)c(-c5ccc(S(=O)(=O)[O-])cc5)c5nc(c(-c6ccc(S(=O)(=O)[O-])cc6)c6ccc3[nH]6)C=C5)C=C4)cc2)cc1
REMARK SMILES IDX 21 1 20 2 19 3 17 4 18 5 16 7 13 8 14 9 87 10 15 11 86 12
REMARK SMILES IDX 10 13 11 14 12 15 9 16 8 18 1 19 2 20 3 21 4 22 7 23 5 24
REMARK SMILES IDX 6 25 22 26 23 27 24 28 25 30 26 31 27 32 85 33 28 34 84 35
REMARK SMILES IDX 29 36 30 37 31 38 78 39 32 40 83 41 77 42 79 43 33 44 82 45
REMARK SMILES IDX 76 46 75 47 34 49 64 50 45 51 63 52 46 53 49 54 62 55 80 56
REMARK SMILES IDX 47 57 48 58 61 60 81 61 50 62 35 63 36 64 44 65 37 66 43 67
REMARK SMILES IDX 38 68 39 69 40 70 41 71 42 72 65 73 66 74 74 75 67 76 73 77
REMARK SMILES IDX 68 78 69 79 70 80 71 81 72 82 51 83 52 84 60 85 53 86 59 87
REMARK SMILES IDX 54 88 55 89 56 90 57 91 58 92
REMARK H PARENT 19 6 9 17 23 29 79 48 49 59
REMARK Flexibility Score: inf
ROOT
ATOM      1  C   UNL A   1      39.089  22.446  26.447  1.00  0.00     0.042 C 
ENDROOT
BRANCH   1   2
ATOM      2  C   UNL A   1      37.779  22.984  25.882  1.00  0.00     0.118 C 
BRANCH   2   3
ATOM      3  N   UNL A   1      36.663  22.120  26.214  1.00  0.00    -0.352 N 
ATOM      4  C   UNL A   1      35.354  22.190  25.820  1.00  0.00     0.251 C 
ATOM      5  O   UNL A   1      34.583  21.278  26.101  1.00  0.00    -0.269 OA
ATOM      6  H   UNL A   1      36.878  21.370  26.814  1.00  0.00     0.163 HD
BRANCH   4   7
ATOM      7  C   UNL A   1      34.860  23.328  25.015  1.00  0.00     0.039 A 
ATOM      8  C   UNL A   1      33.697  25.319  23.449  1.00  0.00     0.087 A 
ATOM      9  C   UNL A   1      34.072  24.106  22.861  1.00  0.00     0.023 A 
ATOM     10  C   UNL A   1      33.986  25.577  24.795  1.00  0.00     0.023 A 
ATOM     11  C   UNL A   1      34.613  23.097  23.657  1.00  0.00     0.015 A 
ATOM     12  C   UNL A   1      34.560  24.573  25.581  1.00  0.00     0.015 A 
BRANCH   8  13
ATOM     13  S   UNL A   1      32.875  26.543  22.462  1.00  0.00     0.261 S 
ATOM     14  O   UNL A   1      31.832  25.866  21.717  1.00  0.00    -0.201 OA
ATOM     15  O   UNL A   1      33.887  27.302  21.758  1.00  0.00    -0.201 OA
BRANCH  13  16
ATOM     16  N   UNL A   1      32.086  27.670  23.484  1.00  0.00    -0.279 N 
ATOM     17  H   UNL A   1      32.556  27.998  24.285  1.00  0.00     0.180 HD
BRANCH  16  18
ATOM     18  C   UNL A   1      30.755  28.154  23.208  1.00  0.00     0.055 A 
ATOM     19  C   UNL A   1      29.583  26.201  24.438  1.00  0.00     0.046 C 
ATOM     20  C   UNL A   1      29.596  27.514  23.697  1.00  0.00    -0.027 A 
ATOM     21  C   UNL A   1      28.327  28.049  23.379  1.00  0.00     0.008 A 
ATOM     22  C   UNL A   1      28.202  29.164  22.557  1.00  0.00     0.039 A 
ATOM     23  C   UNL A   1      30.600  29.194  22.285  1.00  0.00     0.066 A 
ATOM     24  C   UNL A   1      29.343  29.711  21.997  1.00  0.00     0.125 A 
ATOM     25  F   UNL A   1      29.233  30.743  21.153  1.00  0.00    -0.207 F 
ENDBRANCH  16  18
ENDBRANCH  13  16
ENDBRANCH   8  13
ENDBRANCH   4   7
ENDBRANCH   2   3
ENDBRANCH   1   2
BRANCH   1  26
ATOM     26  C   UNL A   1      39.966  23.523  27.077  1.00  0.00     0.118 C 
BRANCH  26  27
ATOM     27  N   UNL A   1      40.748  24.237  26.080  1.00  0.00    -0.352 N 
ATOM     28  C   UNL A   1      41.106  25.560  26.024  1.00  0.00     0.251 C 
ATOM     29  H   UNL A   1      41.071  23.686  25.330  1.00  0.00     0.163 HD
ATOM     30  O   UNL A   1      41.540  26.017  24.970  1.00  0.00    -0.269 OA
BRANCH  28  31
ATOM     31  C   UNL A   1      40.979  26.428  27.214  1.00  0.00     0.039 A 
ATOM     32  C   UNL A   1      39.938  26.186  28.113  1.00  0.00     0.014 A 
ATOM     33  C   UNL A   1      41.833  27.518  27.412  1.00  0.00     0.014 A 
ATOM     34  C   UNL A   1      39.766  27.021  29.219  1.00  0.00     0.010 A 
ATOM     35  C   UNL A   1      41.711  28.299  28.557  1.00  0.00     0.010 A 
ATOM     36  C   UNL A   1      40.660  28.078  29.457  1.00  0.00    -0.014 A 
BRANCH  36  37
ATOM     37  C   UNL A   1      40.479  28.982  30.620  1.00  0.00     0.031 A 
ATOM     38  C   UNL A   1      41.353  28.829  31.839  1.00  0.00     0.074 A 
ATOM     39  C   UNL A   1      39.513  29.919  30.591  1.00  0.00     0.049 A 
ATOM     40  N   UNL A   1      41.344  29.518  32.951  1.00  0.00    -0.248 NA
ATOM     41  C   UNL A   1      42.348  27.744  31.816  1.00  0.00     0.031 C 
ATOM     42  C   UNL A   1      38.576  30.135  29.485  1.00  0.00     0.029 A 
ATOM     43  N   UNL A   1      39.158  30.869  31.515  1.00  0.00    -0.354 N 
ATOM     44  C   UNL A   1      42.317  28.942  33.761  1.00  0.00     0.074 A 
ATOM     45  C   UNL A   1      42.857  27.813  33.037  1.00  0.00     0.031 C 
ATOM     46  C   UNL A   1      37.780  31.176  29.780  1.00  0.00     0.029 A 
ATOM     47  C   UNL A   1      38.124  31.677  31.107  1.00  0.00     0.049 A 
ATOM     48  H   UNL A   1      39.603  30.962  32.389  1.00  0.00     0.167 HD
ATOM     49  C   UNL A   1      42.741  29.331  34.987  1.00  0.00     0.031 A 
ATOM     50  C   UNL A   1      37.524  32.709  31.729  1.00  0.00     0.031 A 
ATOM     51  C   UNL A   1      42.209  30.465  35.697  1.00  0.00     0.049 A 
ATOM     52  C   UNL A   1      38.020  33.130  33.084  1.00  0.00     0.074 A 
ATOM     53  C   UNL A   1      42.600  30.975  36.923  1.00  0.00     0.029 A 
ATOM     54  N   UNL A   1      41.172  31.265  35.243  1.00  0.00    -0.354 N 
ATOM     55  N   UNL A   1      38.981  32.611  33.809  1.00  0.00    -0.248 NA
ATOM     56  C   UNL A   1      37.363  34.293  33.696  1.00  0.00     0.031 C 
ATOM     57  C   UNL A   1      41.766  32.055  37.232  1.00  0.00     0.029 A 
ATOM     58  C   UNL A   1      40.899  32.256  36.171  1.00  0.00     0.049 A 
ATOM     59  H   UNL A   1      40.699  31.146  34.388  1.00  0.00     0.167 HD
ATOM     60  C   UNL A   1      39.068  33.403  34.948  1.00  0.00     0.074 A 
ATOM     61  C   UNL A   1      38.071  34.446  34.806  1.00  0.00     0.031 C 
ATOM     62  C   UNL A   1      39.899  33.284  36.014  1.00  0.00     0.031 A 
BRANCH  49  63
ATOM     63  C   UNL A   1      43.834  28.521  35.638  1.00  0.00    -0.014 A 
ATOM     64  C   UNL A   1      45.192  28.828  35.428  1.00  0.00     0.010 A 
ATOM     65  C   UNL A   1      43.501  27.456  36.494  1.00  0.00     0.010 A 
ATOM     66  C   UNL A   1      46.194  28.058  36.025  1.00  0.00     0.020 A 
ATOM     67  C   UNL A   1      44.500  26.703  37.118  1.00  0.00     0.020 A 
ATOM     68  C   UNL A   1      45.841  26.998  36.866  1.00  0.00     0.054 A 
BRANCH  68  69
ATOM     69  S   UNL A   1      47.163  26.029  37.643  1.00  0.00     0.124 S 
ATOM     70  O   UNL A   1      48.185  26.022  36.598  1.00  0.00    -0.237 OA
ATOM     71  O   UNL A   1      47.484  26.818  38.829  1.00  0.00    -0.237 OA
ATOM     72  O   UNL A   1      46.536  24.737  37.909  1.00  0.00    -0.744 OA
ENDBRANCH  68  69
ENDBRANCH  49  63
BRANCH  50  73
ATOM     73  C   UNL A   1      36.409  33.434  31.058  1.00  0.00    -0.014 A 
ATOM     74  C   UNL A   1      35.246  33.774  31.771  1.00  0.00     0.010 A 
ATOM     75  C   UNL A   1      36.514  33.804  29.705  1.00  0.00     0.010 A 
ATOM     76  C   UNL A   1      34.198  34.449  31.137  1.00  0.00     0.020 A 
ATOM     77  C   UNL A   1      35.481  34.505  29.076  1.00  0.00     0.020 A 
ATOM     78  C   UNL A   1      34.323  34.812  29.794  1.00  0.00     0.054 A 
BRANCH  78  79
ATOM     79  S   UNL A   1      32.971  35.729  29.005  1.00  0.00     0.124 S 
ATOM     80  O   UNL A   1      33.691  36.789  28.307  1.00  0.00    -0.237 OA
ATOM     81  O   UNL A   1      32.356  34.714  28.153  1.00  0.00    -0.237 OA
ATOM     82  O   UNL A   1      32.151  36.165  30.133  1.00  0.00    -0.744 OA
ENDBRANCH  78  79
ENDBRANCH  50  73
BRANCH  62  83
ATOM     83  C   UNL A   1      39.796  34.335  37.087  1.00  0.00    -0.014 A 
ATOM     84  C   UNL A   1      39.024  34.131  38.244  1.00  0.00     0.010 A 
ATOM     85  C   UNL A   1      40.509  35.540  36.941  1.00  0.00     0.010 A 
ATOM     86  C   UNL A   1      38.924  35.135  39.212  1.00  0.00     0.020 A 
ATOM     87  C   UNL A   1      40.437  36.532  37.921  1.00  0.00     0.020 A 
ATOM     88  C   UNL A   1      39.628  36.331  39.041  1.00  0.00     0.054 A 
BRANCH  88  89
ATOM     89  S   UNL A   1      39.492  37.615  40.315  1.00  0.00     0.124 S 
ATOM     90  O   UNL A   1      38.902  36.877  41.427  1.00  0.00    -0.237 OA
ATOM     91  O   UNL A   1      40.880  38.030  40.502  1.00  0.00    -0.237 OA
ATOM     92  O   UNL A   1      38.625  38.620  39.703  1.00  0.00    -0.744 OA
ENDBRANCH  88  89
ENDBRANCH  62  83
ENDBRANCH  36  37
ENDBRANCH  28  31
ENDBRANCH  26  27
ENDBRANCH   1  26
TORSDOF 16
ENDMDL
