MODEL 1
REMARK VINA RESULT:     -10.2      0.000      0.000
REMARK SMILES C[C@H]1CC[C@H]([N@@H+](CC(=O)NCCCNC(=O)c2ccc(-c3c4nc(c(-c5ccc(S(=O)(=O)[O-])cc5)c5ccc([nH]5)c(-c5ccc(S(=O)(=O)[O-])cc5)c5nc(c(-c6ccc(S(=O)(=O)[O-])cc6)c6ccc3[nH]6)C=C5)C=C4)cc2)C(C)(C)C)C[C@@H]1C
REMARK SMILES IDX 12 1 11 2 10 3 8 4 9 5 7 7 6 8 5 10 1 11 2 12 3 13 82 14
REMARK SMILES IDX 4 15 81 16 83 17 77 18 78 19 79 20 80 21 13 22 14 23 15 24
REMARK SMILES IDX 16 26 17 27 18 28 76 29 19 30 75 31 20 32 21 33 22 34 69 35
REMARK SMILES IDX 23 36 74 37 68 38 70 39 24 40 73 41 67 42 66 43 25 45 55 46
REMARK SMILES IDX 36 47 54 48 37 49 40 50 53 51 71 52 38 53 39 54 52 56 72 57
REMARK SMILES IDX 41 58 26 59 27 60 35 61 28 62 34 63 29 64 30 65 31 66 32 67
REMARK SMILES IDX 33 68 56 69 57 70 65 71 58 72 64 73 59 74 60 75 61 76 62 77
REMARK SMILES IDX 63 78 42 79 43 80 51 81 44 82 50 83 45 84 46 85 47 86 48 87
REMARK SMILES IDX 49 88
REMARK H PARENT 10 6 6 9 14 25 70 44 40 55
REMARK Flexibility Score: inf
ROOT
ATOM      1  C   UNL A   1      34.754  31.941  28.357  1.00  0.00     0.042 C 
ENDROOT
BRANCH   1   2
ATOM      2  C   UNL A   1      34.462  30.646  27.549  1.00  0.00     0.118 C 
BRANCH   2   3
ATOM      3  N   UNL A   1      33.100  30.119  27.565  1.00  0.00    -0.351 N 
ATOM      4  C   UNL A   1      32.519  29.024  26.970  1.00  0.00     0.275 C 
ATOM      5  O   UNL A   1      31.505  28.590  27.530  1.00  0.00    -0.269 OA
ATOM      6  H   UNL A   1      32.476  30.651  28.108  1.00  0.00     0.163 HD
BRANCH   4   7
ATOM      7  C   UNL A   1      33.046  28.368  25.667  1.00  0.00     0.364 C 
BRANCH   7   8
ATOM      8  N   UNL A   1      32.070  27.493  24.931  1.00  0.00    -0.321 N 
ATOM      9  H   UNL A   1      31.155  27.616  25.365  1.00  0.00     0.349 HD
BRANCH   8  10
ATOM     10  C   UNL A   1      32.427  26.080  25.136  1.00  0.00     0.185 C 
ATOM     11  C   UNL A   1      33.260  21.921  25.879  1.00  0.00     0.008 C 
ATOM     12  C   UNL A   1      33.072  23.401  26.206  1.00  0.00    -0.011 C 
ATOM     13  C   UNL A   1      34.099  24.217  25.380  1.00  0.00     0.010 C 
ATOM     14  C   UNL A   1      31.632  23.873  25.933  1.00  0.00    -0.006 C 
ATOM     15  C   UNL A   1      33.893  25.739  25.449  1.00  0.00     0.065 C 
ATOM     16  C   UNL A   1      31.514  25.367  26.124  1.00  0.00     0.068 C 
ATOM     17  C   UNL A   1      30.516  23.210  26.728  1.00  0.00     0.008 C 
ENDBRANCH   8  10
BRANCH   8  18
ATOM     18  C   UNL A   1      31.544  27.948  23.602  1.00  0.00     0.090 C 
ATOM     19  C   UNL A   1      30.362  28.945  23.613  1.00  0.00     0.078 C 
ATOM     20  C   UNL A   1      32.666  28.586  22.740  1.00  0.00     0.078 C 
ATOM     21  C   UNL A   1      31.062  26.727  22.777  1.00  0.00     0.078 C 
ENDBRANCH   8  18
ENDBRANCH   7   8
ENDBRANCH   4   7
ENDBRANCH   2   3
ENDBRANCH   1   2
BRANCH   1  22
ATOM     22  C   UNL A   1      35.946  31.981  29.344  1.00  0.00     0.118 C 
BRANCH  22  23
ATOM     23  N   UNL A   1      35.811  31.157  30.531  1.00  0.00    -0.352 N 
ATOM     24  C   UNL A   1      36.661  30.193  31.040  1.00  0.00     0.251 C 
ATOM     25  H   UNL A   1      34.991  31.309  31.054  1.00  0.00     0.163 HD
ATOM     26  O   UNL A   1      36.351  29.638  32.094  1.00  0.00    -0.269 OA
BRANCH  24  27
ATOM     27  C   UNL A   1      37.918  29.757  30.358  1.00  0.00     0.039 A 
ATOM     28  C   UNL A   1      39.023  29.428  31.149  1.00  0.00     0.014 A 
ATOM     29  C   UNL A   1      38.093  29.810  28.974  1.00  0.00     0.014 A 
ATOM     30  C   UNL A   1      40.269  29.117  30.566  1.00  0.00     0.010 A 
ATOM     31  C   UNL A   1      39.334  29.449  28.389  1.00  0.00     0.010 A 
ATOM     32  C   UNL A   1      40.449  29.097  29.172  1.00  0.00    -0.014 A 
BRANCH  32  33
ATOM     33  C   UNL A   1      41.793  28.733  28.581  1.00  0.00     0.031 A 
ATOM     34  C   UNL A   1      42.909  29.755  28.451  1.00  0.00     0.074 A 
ATOM     35  C   UNL A   1      42.059  27.469  28.174  1.00  0.00     0.049 A 
ATOM     36  N   UNL A   1      44.156  29.577  28.071  1.00  0.00    -0.248 NA
ATOM     37  C   UNL A   1      42.587  31.151  28.777  1.00  0.00     0.031 C 
ATOM     38  C   UNL A   1      41.107  26.358  28.184  1.00  0.00     0.029 A 
ATOM     39  N   UNL A   1      43.218  26.897  27.684  1.00  0.00    -0.354 N 
ATOM     40  C   UNL A   1      44.761  30.830  28.119  1.00  0.00     0.074 A 
ATOM     41  C   UNL A   1      43.728  31.769  28.505  1.00  0.00     0.031 C 
ATOM     42  C   UNL A   1      41.722  25.241  27.760  1.00  0.00     0.029 A 
ATOM     43  C   UNL A   1      43.111  25.547  27.423  1.00  0.00     0.049 A 
ATOM     44  H   UNL A   1      44.045  27.407  27.533  1.00  0.00     0.167 HD
ATOM     45  C   UNL A   1      46.053  31.180  27.893  1.00  0.00     0.031 A 
ATOM     46  C   UNL A   1      44.012  24.643  26.979  1.00  0.00     0.031 A 
ATOM     47  C   UNL A   1      47.105  30.272  27.509  1.00  0.00     0.049 A 
ATOM     48  C   UNL A   1      45.438  25.054  26.712  1.00  0.00     0.074 A 
ATOM     49  C   UNL A   1      48.452  30.546  27.323  1.00  0.00     0.029 A 
ATOM     50  N   UNL A   1      46.939  28.924  27.242  1.00  0.00    -0.354 N 
ATOM     51  N   UNL A   1      45.999  26.230  26.861  1.00  0.00    -0.248 NA
ATOM     52  C   UNL A   1      46.359  24.008  26.236  1.00  0.00     0.031 C 
ATOM     53  C   UNL A   1      49.086  29.380  26.885  1.00  0.00     0.029 A 
ATOM     54  C   UNL A   1      48.149  28.361  26.863  1.00  0.00     0.049 A 
ATOM     55  H   UNL A   1      46.086  28.435  27.312  1.00  0.00     0.167 HD
ATOM     56  C   UNL A   1      47.340  26.055  26.529  1.00  0.00     0.074 A 
ATOM     57  C   UNL A   1      47.513  24.661  26.184  1.00  0.00     0.031 C 
ATOM     58  C   UNL A   1      48.337  26.974  26.519  1.00  0.00     0.031 A 
BRANCH  45  59
ATOM     59  C   UNL A   1      46.421  32.636  28.060  1.00  0.00    -0.014 A 
ATOM     60  C   UNL A   1      46.875  33.131  29.296  1.00  0.00     0.010 A 
ATOM     61  C   UNL A   1      46.371  33.506  26.954  1.00  0.00     0.010 A 
ATOM     62  C   UNL A   1      47.223  34.477  29.436  1.00  0.00     0.020 A 
ATOM     63  C   UNL A   1      46.748  34.847  27.083  1.00  0.00     0.020 A 
ATOM     64  C   UNL A   1      47.152  35.329  28.330  1.00  0.00     0.054 A 
BRANCH  64  65
ATOM     65  S   UNL A   1      47.619  37.069  28.537  1.00  0.00     0.124 S 
ATOM     66  O   UNL A   1      46.334  37.746  28.362  1.00  0.00    -0.237 OA
ATOM     67  O   UNL A   1      48.158  37.097  29.897  1.00  0.00    -0.237 OA
ATOM     68  O   UNL A   1      48.592  37.299  27.479  1.00  0.00    -0.744 OA
ENDBRANCH  64  65
ENDBRANCH  45  59
BRANCH  46  69
ATOM     69  C   UNL A   1      43.603  23.221  26.771  1.00  0.00    -0.014 A 
ATOM     70  C   UNL A   1      42.935  22.507  27.783  1.00  0.00     0.010 A 
ATOM     71  C   UNL A   1      43.898  22.567  25.561  1.00  0.00     0.010 A 
ATOM     72  C   UNL A   1      42.586  21.165  27.596  1.00  0.00     0.020 A 
ATOM     73  C   UNL A   1      43.524  21.234  25.358  1.00  0.00     0.020 A 
ATOM     74  C   UNL A   1      42.879  20.539  26.382  1.00  0.00     0.054 A 
BRANCH  74  75
ATOM     75  S   UNL A   1      42.365  18.814  26.138  1.00  0.00     0.124 S 
ATOM     76  O   UNL A   1      43.263  18.376  25.074  1.00  0.00    -0.237 OA
ATOM     77  O   UNL A   1      42.606  18.225  27.453  1.00  0.00    -0.237 OA
ATOM     78  O   UNL A   1      40.958  18.926  25.764  1.00  0.00    -0.744 OA
ENDBRANCH  74  75
ENDBRANCH  46  69
BRANCH  58  79
ATOM     79  C   UNL A   1      49.728  26.512  26.158  1.00  0.00    -0.014 A 
ATOM     80  C   UNL A   1      50.262  26.718  24.873  1.00  0.00     0.010 A 
ATOM     81  C   UNL A   1      50.537  25.912  27.141  1.00  0.00     0.010 A 
ATOM     82  C   UNL A   1      51.566  26.306  24.572  1.00  0.00     0.020 A 
ATOM     83  C   UNL A   1      51.851  25.525  26.852  1.00  0.00     0.020 A 
ATOM     84  C   UNL A   1      52.353  25.714  25.564  1.00  0.00     0.054 A 
BRANCH  84  85
ATOM     85  S   UNL A   1      54.056  25.231  25.160  1.00  0.00     0.124 S 
ATOM     86  O   UNL A   1      54.284  25.941  23.905  1.00  0.00    -0.237 OA
ATOM     87  O   UNL A   1      54.811  25.725  26.310  1.00  0.00    -0.237 OA
ATOM     88  O   UNL A   1      53.987  23.776  25.048  1.00  0.00    -0.744 OA
ENDBRANCH  84  85
ENDBRANCH  58  79
ENDBRANCH  32  33
ENDBRANCH  24  27
ENDBRANCH  22  23
ENDBRANCH   1  22
TORSDOF 16
ENDMDL
MODEL 2
REMARK VINA RESULT:     -10.2      3.649      4.791
REMARK SMILES C[C@H]1CC[C@H]([N@@H+](CC(=O)NCCCNC(=O)c2ccc(-c3c4nc(c(-c5ccc(S(=O)(=O)[O-])cc5)c5ccc([nH]5)c(-c5ccc(S(=O)(=O)[O-])cc5)c5nc(c(-c6ccc(S(=O)(=O)[O-])cc6)c6ccc3[nH]6)C=C5)C=C4)cc2)C(C)(C)C)C[C@@H]1C
REMARK SMILES IDX 12 1 11 2 10 3 8 4 9 5 7 7 6 8 5 10 1 11 2 12 3 13 82 14
REMARK SMILES IDX 4 15 81 16 83 17 77 18 78 19 79 20 80 21 13 22 14 23 15 24
REMARK SMILES IDX 16 26 17 27 18 28 76 29 19 30 75 31 20 32 21 33 22 34 69 35
REMARK SMILES IDX 23 36 74 37 68 38 70 39 24 40 73 41 67 42 66 43 25 45 55 46
REMARK SMILES IDX 36 47 54 48 37 49 40 50 53 51 71 52 38 53 39 54 52 56 72 57
REMARK SMILES IDX 41 58 26 59 27 60 35 61 28 62 34 63 29 64 30 65 31 66 32 67
REMARK SMILES IDX 33 68 56 69 57 70 65 71 58 72 64 73 59 74 60 75 61 76 62 77
REMARK SMILES IDX 63 78 42 79 43 80 51 81 44 82 50 83 45 84 46 85 47 86 48 87
REMARK SMILES IDX 49 88
REMARK H PARENT 10 6 6 9 14 25 70 44 40 55
REMARK Flexibility Score: inf
ROOT
ATOM      1  C   UNL A   1      34.107  28.509  24.737  1.00  0.00     0.042 C 
ENDROOT
BRANCH   1   2
ATOM      2  C   UNL A   1      33.041  27.937  23.761  1.00  0.00     0.118 C 
BRANCH   2   3
ATOM      3  N   UNL A   1      33.501  27.117  22.645  1.00  0.00    -0.351 N 
ATOM      4  C   UNL A   1      33.000  25.978  22.058  1.00  0.00     0.275 C 
ATOM      5  O   UNL A   1      33.335  25.796  20.881  1.00  0.00    -0.269 OA
ATOM      6  H   UNL A   1      34.332  27.442  22.231  1.00  0.00     0.163 HD
BRANCH   4   7
ATOM      7  C   UNL A   1      32.102  24.951  22.795  1.00  0.00     0.364 C 
BRANCH   7   8
ATOM      8  N   UNL A   1      32.340  24.811  24.273  1.00  0.00    -0.321 N 
ATOM      9  H   UNL A   1      32.779  25.672  24.598  1.00  0.00     0.349 HD
BRANCH   8  10
ATOM     10  C   UNL A   1      33.320  23.742  24.513  1.00  0.00     0.185 C 
ATOM     11  C   UNL A   1      36.366  20.792  25.265  1.00  0.00     0.008 C 
ATOM     12  C   UNL A   1      35.660  21.935  24.538  1.00  0.00    -0.011 C 
ATOM     13  C   UNL A   1      34.256  21.442  24.104  1.00  0.00     0.010 C 
ATOM     14  C   UNL A   1      35.565  23.200  25.411  1.00  0.00    -0.006 C 
ATOM     15  C   UNL A   1      33.348  22.550  23.542  1.00  0.00     0.065 C 
ATOM     16  C   UNL A   1      34.737  24.261  24.726  1.00  0.00     0.068 C 
ATOM     17  C   UNL A   1      36.872  23.842  25.856  1.00  0.00     0.008 C 
ENDBRANCH   8  10
BRANCH   8  18
ATOM     18  C   UNL A   1      31.188  24.998  25.214  1.00  0.00     0.090 C 
ATOM     19  C   UNL A   1      29.933  25.716  24.664  1.00  0.00     0.078 C 
ATOM     20  C   UNL A   1      30.712  23.642  25.800  1.00  0.00     0.078 C 
ATOM     21  C   UNL A   1      31.641  25.820  26.448  1.00  0.00     0.078 C 
ENDBRANCH   8  18
ENDBRANCH   7   8
ENDBRANCH   4   7
ENDBRANCH   2   3
ENDBRANCH   1   2
BRANCH   1  22
ATOM     22  C   UNL A   1      33.881  28.415  26.266  1.00  0.00     0.118 C 
BRANCH  22  23
ATOM     23  N   UNL A   1      33.515  29.653  26.929  1.00  0.00    -0.352 N 
ATOM     24  C   UNL A   1      34.266  30.471  27.754  1.00  0.00     0.251 C 
ATOM     25  H   UNL A   1      32.594  29.957  26.765  1.00  0.00     0.163 HD
ATOM     26  O   UNL A   1      33.748  31.502  28.181  1.00  0.00    -0.269 OA
BRANCH  24  27
ATOM     27  C   UNL A   1      35.659  30.148  28.189  1.00  0.00     0.039 A 
ATOM     28  C   UNL A   1      36.696  30.304  27.264  1.00  0.00     0.014 A 
ATOM     29  C   UNL A   1      35.956  29.556  29.418  1.00  0.00     0.014 A 
ATOM     30  C   UNL A   1      38.015  29.913  27.577  1.00  0.00     0.010 A 
ATOM     31  C   UNL A   1      37.292  29.210  29.747  1.00  0.00     0.010 A 
ATOM     32  C   UNL A   1      38.350  29.378  28.833  1.00  0.00    -0.014 A 
BRANCH  32  33
ATOM     33  C   UNL A   1      39.779  28.994  29.143  1.00  0.00     0.031 A 
ATOM     34  C   UNL A   1      40.713  29.932  29.887  1.00  0.00     0.074 A 
ATOM     35  C   UNL A   1      40.269  27.780  28.793  1.00  0.00     0.049 A 
ATOM     36  N   UNL A   1      41.932  29.710  30.329  1.00  0.00    -0.248 NA
ATOM     37  C   UNL A   1      40.227  31.291  30.161  1.00  0.00     0.031 C 
ATOM     38  C   UNL A   1      39.540  26.757  28.043  1.00  0.00     0.029 A 
ATOM     39  N   UNL A   1      41.496  27.191  29.035  1.00  0.00    -0.354 N 
ATOM     40  C   UNL A   1      42.349  30.893  30.934  1.00  0.00     0.074 A 
ATOM     41  C   UNL A   1      41.278  31.849  30.747  1.00  0.00     0.031 C 
ATOM     42  C   UNL A   1      40.311  25.664  27.917  1.00  0.00     0.029 A 
ATOM     43  C   UNL A   1      41.603  25.902  28.556  1.00  0.00     0.049 A 
ATOM     44  H   UNL A   1      42.227  27.650  29.505  1.00  0.00     0.167 HD
ATOM     45  C   UNL A   1      43.496  31.167  31.607  1.00  0.00     0.031 A 
ATOM     46  C   UNL A   1      42.607  24.999  28.623  1.00  0.00     0.031 A 
ATOM     47  C   UNL A   1      44.581  30.239  31.813  1.00  0.00     0.049 A 
ATOM     48  C   UNL A   1      43.883  25.329  29.356  1.00  0.00     0.074 A 
ATOM     49  C   UNL A   1      45.748  30.430  32.538  1.00  0.00     0.029 A 
ATOM     50  N   UNL A   1      44.646  28.958  31.293  1.00  0.00    -0.354 N 
ATOM     51  N   UNL A   1      44.204  26.425  29.999  1.00  0.00    -0.248 NA
ATOM     52  C   UNL A   1      44.925  24.288  29.388  1.00  0.00     0.031 C 
ATOM     53  C   UNL A   1      46.544  29.287  32.405  1.00  0.00     0.029 A 
ATOM     54  C   UNL A   1      45.844  28.359  31.654  1.00  0.00     0.049 A 
ATOM     55  H   UNL A   1      43.944  28.534  30.747  1.00  0.00     0.167 HD
ATOM     56  C   UNL A   1      45.468  26.191  30.538  1.00  0.00     0.074 A 
ATOM     57  C   UNL A   1      45.848  24.849  30.158  1.00  0.00     0.031 C 
ATOM     58  C   UNL A   1      46.237  27.022  31.285  1.00  0.00     0.031 A 
BRANCH  45  59
ATOM     59  C   UNL A   1      43.649  32.553  32.190  1.00  0.00    -0.014 A 
ATOM     60  C   UNL A   1      43.229  32.836  33.503  1.00  0.00     0.010 A 
ATOM     61  C   UNL A   1      44.274  33.567  31.440  1.00  0.00     0.010 A 
ATOM     62  C   UNL A   1      43.385  34.119  34.035  1.00  0.00     0.020 A 
ATOM     63  C   UNL A   1      44.460  34.844  31.982  1.00  0.00     0.020 A 
ATOM     64  C   UNL A   1      43.995  35.116  33.269  1.00  0.00     0.054 A 
BRANCH  64  65
ATOM     65  S   UNL A   1      44.194  36.769  33.989  1.00  0.00     0.124 S 
ATOM     66  O   UNL A   1      44.507  36.453  35.383  1.00  0.00    -0.237 OA
ATOM     67  O   UNL A   1      45.303  37.325  33.212  1.00  0.00    -0.237 OA
ATOM     68  O   UNL A   1      42.904  37.406  33.770  1.00  0.00    -0.744 OA
ENDBRANCH  64  65
ENDBRANCH  45  59
BRANCH  46  69
ATOM     69  C   UNL A   1      42.446  23.656  27.988  1.00  0.00    -0.014 A 
ATOM     70  C   UNL A   1      42.045  22.541  28.748  1.00  0.00     0.010 A 
ATOM     71  C   UNL A   1      42.713  23.483  26.618  1.00  0.00     0.010 A 
ATOM     72  C   UNL A   1      41.931  21.279  28.155  1.00  0.00     0.020 A 
ATOM     73  C   UNL A   1      42.571  22.228  26.015  1.00  0.00     0.020 A 
ATOM     74  C   UNL A   1      42.190  21.132  26.790  1.00  0.00     0.054 A 
BRANCH  74  75
ATOM     75  S   UNL A   1      41.980  19.497  26.029  1.00  0.00     0.124 S 
ATOM     76  O   UNL A   1      40.544  19.461  25.775  1.00  0.00    -0.237 OA
ATOM     77  O   UNL A   1      42.831  19.589  24.845  1.00  0.00    -0.237 OA
ATOM     78  O   UNL A   1      42.458  18.578  27.058  1.00  0.00    -0.744 OA
ENDBRANCH  74  75
ENDBRANCH  46  69
BRANCH  58  79
ATOM     79  C   UNL A   1      47.563  26.505  31.787  1.00  0.00    -0.014 A 
ATOM     80  C   UNL A   1      47.676  25.847  33.026  1.00  0.00     0.010 A 
ATOM     81  C   UNL A   1      48.707  26.627  30.977  1.00  0.00     0.010 A 
ATOM     82  C   UNL A   1      48.911  25.350  33.456  1.00  0.00     0.020 A 
ATOM     83  C   UNL A   1      49.939  26.106  31.391  1.00  0.00     0.020 A 
ATOM     84  C   UNL A   1      50.035  25.481  32.634  1.00  0.00     0.054 A 
BRANCH  84  85
ATOM     85  S   UNL A   1      51.616  24.787  33.196  1.00  0.00     0.124 S 
ATOM     86  O   UNL A   1      51.228  24.096  34.422  1.00  0.00    -0.237 OA
ATOM     87  O   UNL A   1      52.001  23.923  32.081  1.00  0.00    -0.237 OA
ATOM     88  O   UNL A   1      52.464  25.962  33.386  1.00  0.00    -0.744 OA
ENDBRANCH  84  85
ENDBRANCH  58  79
ENDBRANCH  32  33
ENDBRANCH  24  27
ENDBRANCH  22  23
ENDBRANCH   1  22
TORSDOF 16
ENDMDL
MODEL 3
REMARK VINA RESULT:     -10.2      5.289      7.189
REMARK SMILES C[C@H]1CC[C@H]([N@@H+](CC(=O)NCCCNC(=O)c2ccc(-c3c4nc(c(-c5ccc(S(=O)(=O)[O-])cc5)c5ccc([nH]5)c(-c5ccc(S(=O)(=O)[O-])cc5)c5nc(c(-c6ccc(S(=O)(=O)[O-])cc6)c6ccc3[nH]6)C=C5)C=C4)cc2)C(C)(C)C)C[C@@H]1C
REMARK SMILES IDX 12 1 11 2 10 3 8 4 9 5 7 7 6 8 5 10 1 11 2 12 3 13 82 14
REMARK SMILES IDX 4 15 81 16 83 17 77 18 78 19 79 20 80 21 13 22 14 23 15 24
REMARK SMILES IDX 16 26 17 27 18 28 76 29 19 30 75 31 20 32 21 33 22 34 69 35
REMARK SMILES IDX 23 36 74 37 68 38 70 39 24 40 73 41 67 42 66 43 25 45 55 46
REMARK SMILES IDX 36 47 54 48 37 49 40 50 53 51 71 52 38 53 39 54 52 56 72 57
REMARK SMILES IDX 41 58 26 59 27 60 35 61 28 62 34 63 29 64 30 65 31 66 32 67
REMARK SMILES IDX 33 68 56 69 57 70 65 71 58 72 64 73 59 74 60 75 61 76 62 77
REMARK SMILES IDX 63 78 42 79 43 80 51 81 44 82 50 83 45 84 46 85 47 86 48 87
REMARK SMILES IDX 49 88
REMARK H PARENT 10 6 6 9 14 25 70 44 40 55
REMARK Flexibility Score: inf
ROOT
ATOM      1  C   UNL A   1      33.142  27.689  26.252  1.00  0.00     0.042 C 
ENDROOT
BRANCH   1   2
ATOM      2  C   UNL A   1      33.649  26.301  25.767  1.00  0.00     0.118 C 
BRANCH   2   3
ATOM      3  N   UNL A   1      34.015  26.158  24.360  1.00  0.00    -0.351 N 
ATOM      4  C   UNL A   1      33.879  25.123  23.465  1.00  0.00     0.275 C 
ATOM      5  O   UNL A   1      33.850  25.453  22.273  1.00  0.00    -0.269 OA
ATOM      6  H   UNL A   1      34.442  26.957  23.979  1.00  0.00     0.163 HD
BRANCH   4   7
ATOM      7  C   UNL A   1      33.798  23.630  23.876  1.00  0.00     0.364 C 
BRANCH   7   8
ATOM      8  N   UNL A   1      34.036  23.335  25.331  1.00  0.00    -0.321 N 
ATOM      9  H   UNL A   1      34.021  24.223  25.833  1.00  0.00     0.349 HD
BRANCH   8  10
ATOM     10  C   UNL A   1      35.393  22.795  25.507  1.00  0.00     0.185 C 
ATOM     11  C   UNL A   1      39.448  21.455  26.062  1.00  0.00     0.008 C 
ATOM     12  C   UNL A   1      38.280  22.173  25.388  1.00  0.00    -0.011 C 
ATOM     13  C   UNL A   1      37.205  21.119  25.022  1.00  0.00     0.010 C 
ATOM     14  C   UNL A   1      37.696  23.285  26.278  1.00  0.00    -0.006 C 
ATOM     15  C   UNL A   1      35.880  21.720  24.523  1.00  0.00     0.065 C 
ATOM     16  C   UNL A   1      36.456  23.877  25.650  1.00  0.00     0.068 C 
ATOM     17  C   UNL A   1      38.620  24.433  26.661  1.00  0.00     0.008 C 
ENDBRANCH   8  10
BRANCH   8  18
ATOM     18  C   UNL A   1      32.904  22.804  26.159  1.00  0.00     0.090 C 
ATOM     19  C   UNL A   1      31.881  23.829  26.702  1.00  0.00     0.078 C 
ATOM     20  C   UNL A   1      32.097  21.726  25.386  1.00  0.00     0.078 C 
ATOM     21  C   UNL A   1      33.460  22.060  27.401  1.00  0.00     0.078 C 
ENDBRANCH   8  18
ENDBRANCH   7   8
ENDBRANCH   4   7
ENDBRANCH   2   3
ENDBRANCH   1   2
BRANCH   1  22
ATOM     22  C   UNL A   1      33.909  28.972  25.852  1.00  0.00     0.118 C 
BRANCH  22  23
ATOM     23  N   UNL A   1      33.494  30.191  26.521  1.00  0.00    -0.352 N 
ATOM     24  C   UNL A   1      34.168  30.967  27.446  1.00  0.00     0.251 C 
ATOM     25  H   UNL A   1      32.597  30.516  26.277  1.00  0.00     0.163 HD
ATOM     26  O   UNL A   1      33.623  31.991  27.858  1.00  0.00    -0.269 OA
BRANCH  24  27
ATOM     27  C   UNL A   1      35.507  30.608  28.006  1.00  0.00     0.039 A 
ATOM     28  C   UNL A   1      35.570  29.617  28.991  1.00  0.00     0.014 A 
ATOM     29  C   UNL A   1      36.673  31.315  27.708  1.00  0.00     0.014 A 
ATOM     30  C   UNL A   1      36.786  29.310  29.636  1.00  0.00     0.010 A 
ATOM     31  C   UNL A   1      37.903  30.970  28.324  1.00  0.00     0.010 A 
ATOM     32  C   UNL A   1      37.986  29.962  29.304  1.00  0.00    -0.014 A 
BRANCH  32  33
ATOM     33  C   UNL A   1      39.276  29.589  29.999  1.00  0.00     0.031 A 
ATOM     34  C   UNL A   1      39.716  30.271  31.283  1.00  0.00     0.074 A 
ATOM     35  C   UNL A   1      40.073  28.606  29.515  1.00  0.00     0.049 A 
ATOM     36  N   UNL A   1      40.736  29.990  32.063  1.00  0.00    -0.248 NA
ATOM     37  C   UNL A   1      38.920  31.417  31.744  1.00  0.00     0.031 C 
ATOM     38  C   UNL A   1      39.841  27.859  28.278  1.00  0.00     0.029 A 
ATOM     39  N   UNL A   1      41.236  28.051  30.014  1.00  0.00    -0.354 N 
ATOM     40  C   UNL A   1      40.699  30.916  33.103  1.00  0.00     0.074 A 
ATOM     41  C   UNL A   1      39.592  31.806  32.820  1.00  0.00     0.031 C 
ATOM     42  C   UNL A   1      40.799  26.930  28.133  1.00  0.00     0.029 A 
ATOM     43  C   UNL A   1      41.737  27.017  29.251  1.00  0.00     0.049 A 
ATOM     44  H   UNL A   1      41.670  28.366  30.839  1.00  0.00     0.167 HD
ATOM     45  C   UNL A   1      41.483  31.015  34.206  1.00  0.00     0.031 A 
ATOM     46  C   UNL A   1      42.811  26.214  29.419  1.00  0.00     0.031 A 
ATOM     47  C   UNL A   1      42.591  30.146  34.519  1.00  0.00     0.049 A 
ATOM     48  C   UNL A   1      43.684  26.353  30.640  1.00  0.00     0.074 A 
ATOM     49  C   UNL A   1      43.393  30.150  35.651  1.00  0.00     0.029 A 
ATOM     50  N   UNL A   1      43.064  29.131  33.707  1.00  0.00    -0.354 N 
ATOM     51  N   UNL A   1      43.562  27.178  31.651  1.00  0.00    -0.248 NA
ATOM     52  C   UNL A   1      44.831  25.436  30.751  1.00  0.00     0.031 C 
ATOM     53  C   UNL A   1      44.386  29.179  35.494  1.00  0.00     0.029 A 
ATOM     54  C   UNL A   1      44.164  28.524  34.295  1.00  0.00     0.049 A 
ATOM     55  H   UNL A   1      42.677  28.877  32.837  1.00  0.00     0.167 HD
ATOM     56  C   UNL A   1      44.594  26.856  32.530  1.00  0.00     0.074 A 
ATOM     57  C   UNL A   1      45.324  25.755  31.941  1.00  0.00     0.031 C 
ATOM     58  C   UNL A   1      44.900  27.425  33.722  1.00  0.00     0.031 A 
BRANCH  45  59
ATOM     59  C   UNL A   1      41.171  32.121  35.188  1.00  0.00    -0.014 A 
ATOM     60  C   UNL A   1      41.859  33.347  35.141  1.00  0.00     0.010 A 
ATOM     61  C   UNL A   1      40.136  31.955  36.129  1.00  0.00     0.010 A 
ATOM     62  C   UNL A   1      41.554  34.366  36.047  1.00  0.00     0.020 A 
ATOM     63  C   UNL A   1      39.807  32.985  37.017  1.00  0.00     0.020 A 
ATOM     64  C   UNL A   1      40.534  34.177  36.983  1.00  0.00     0.054 A 
BRANCH  64  65
ATOM     65  S   UNL A   1      40.151  35.520  38.141  1.00  0.00     0.124 S 
ATOM     66  O   UNL A   1      39.959  36.651  37.232  1.00  0.00    -0.237 OA
ATOM     67  O   UNL A   1      38.938  35.038  38.801  1.00  0.00    -0.237 OA
ATOM     68  O   UNL A   1      41.331  35.598  38.990  1.00  0.00    -0.744 OA
ENDBRANCH  64  65
ENDBRANCH  45  59
BRANCH  46  69
ATOM     69  C   UNL A   1      43.125  25.166  28.402  1.00  0.00    -0.014 A 
ATOM     70  C   UNL A   1      43.928  25.461  27.284  1.00  0.00     0.010 A 
ATOM     71  C   UNL A   1      42.603  23.866  28.537  1.00  0.00     0.010 A 
ATOM     72  C   UNL A   1      44.189  24.485  26.316  1.00  0.00     0.020 A 
ATOM     73  C   UNL A   1      42.887  22.879  27.587  1.00  0.00     0.020 A 
ATOM     74  C   UNL A   1      43.670  23.198  26.477  1.00  0.00     0.054 A 
BRANCH  74  75
ATOM     75  S   UNL A   1      44.069  21.931  25.239  1.00  0.00     0.124 S 
ATOM     76  O   UNL A   1      45.418  21.537  25.629  1.00  0.00    -0.237 OA
ATOM     77  O   UNL A   1      43.027  20.932  25.464  1.00  0.00    -0.237 OA
ATOM     78  O   UNL A   1      43.968  22.649  23.971  1.00  0.00    -0.744 OA
ENDBRANCH  74  75
ENDBRANCH  46  69
BRANCH  58  79
ATOM     79  C   UNL A   1      46.056  26.854  34.508  1.00  0.00    -0.014 A 
ATOM     80  C   UNL A   1      45.872  25.814  35.436  1.00  0.00     0.010 A 
ATOM     81  C   UNL A   1      47.359  27.329  34.269  1.00  0.00     0.010 A 
ATOM     82  C   UNL A   1      46.964  25.280  36.131  1.00  0.00     0.020 A 
ATOM     83  C   UNL A   1      48.457  26.779  34.941  1.00  0.00     0.020 A 
ATOM     84  C   UNL A   1      48.250  25.766  35.877  1.00  0.00     0.054 A 
BRANCH  84  85
ATOM     85  S   UNL A   1      49.655  25.026  36.758  1.00  0.00     0.124 S 
ATOM     86  O   UNL A   1      50.795  25.572  36.028  1.00  0.00    -0.237 OA
ATOM     87  O   UNL A   1      49.480  25.527  38.120  1.00  0.00    -0.237 OA
ATOM     88  O   UNL A   1      49.446  23.588  36.599  1.00  0.00    -0.744 OA
ENDBRANCH  84  85
ENDBRANCH  58  79
ENDBRANCH  32  33
ENDBRANCH  24  27
ENDBRANCH  22  23
ENDBRANCH   1  22
TORSDOF 16
ENDMDL
