MODEL 1
REMARK VINA RESULT:     -12.3      0.000      0.000
REMARK SMILES O=C(NCCCNC(=O)[C@H]1CCCCN1S(=O)(=O)c1cc[nH]c1)c1ccc(-c2c3nc(c(-c4ccc(S(=O)(=O)[O-])cc4)c4ccc([nH]4)c(-c4ccc(S(=O)(=O)[O-])cc4)c4nc(c(-c5ccc(S(=O)(=O)[O-])cc5)c5ccc2[nH]5)C=C4)C=C3)cc1
REMARK SMILES IDX 4 1 3 2 1 3 2 4 24 6 25 7 83 8 26 9 82 10 27 11 28 12 29 13
REMARK SMILES IDX 76 14 30 15 81 16 75 17 77 18 31 19 80 20 74 21 73 22 32 24
REMARK SMILES IDX 62 25 43 26 61 27 44 28 47 29 60 30 78 31 45 32 46 33 59 35
REMARK SMILES IDX 79 36 48 37 33 38 34 39 42 40 35 41 41 42 36 43 37 44 38 45
REMARK SMILES IDX 39 46 40 47 63 48 64 49 72 50 65 51 71 52 66 53 67 54 68 55
REMARK SMILES IDX 69 56 70 57 49 58 50 59 58 60 51 61 57 62 52 63 53 64 54 65
REMARK SMILES IDX 55 66 56 67 5 68 6 69 7 70 8 71 9 73 10 74 11 75 15 76 12 77
REMARK SMILES IDX 14 78 13 79 16 80 17 81 18 82 19 83 20 84 23 85 21 86 22 87
REMARK H PARENT 3 5 77 23 47 34 7 72 22 88
REMARK Flexibility Score: inf
ROOT
ATOM      1  C   UNL A   1      34.494  28.765  26.854  1.00  0.00     0.118 C 
ENDROOT
BRANCH   1   2
ATOM      2  N   UNL A   1      34.892  30.095  27.282  1.00  0.00    -0.352 N 
ATOM      3  O   UNL A   1      36.105  31.880  27.814  1.00  0.00    -0.269 OA
ATOM      4  C   UNL A   1      36.077  30.654  27.692  1.00  0.00     0.251 C 
ATOM      5  H   UNL A   1      34.147  30.738  27.276  1.00  0.00     0.163 HD
BRANCH   4   6
ATOM      6  C   UNL A   1      37.276  29.862  28.070  1.00  0.00     0.039 A 
ATOM      7  C   UNL A   1      38.468  29.859  27.345  1.00  0.00     0.014 A 
ATOM      8  C   UNL A   1      37.192  29.085  29.240  1.00  0.00     0.014 A 
ATOM      9  C   UNL A   1      39.510  29.006  27.700  1.00  0.00     0.010 A 
ATOM     10  C   UNL A   1      38.255  28.272  29.638  1.00  0.00     0.010 A 
ATOM     11  C   UNL A   1      39.416  28.228  28.859  1.00  0.00    -0.014 A 
BRANCH  11  12
ATOM     12  C   UNL A   1      40.665  27.616  29.371  1.00  0.00     0.031 A 
ATOM     13  C   UNL A   1      41.027  26.331  28.600  1.00  0.00     0.074 A 
ATOM     14  C   UNL A   1      41.279  28.194  30.447  1.00  0.00     0.049 A 
ATOM     15  N   UNL A   1      41.779  25.334  28.952  1.00  0.00    -0.248 NA
ATOM     16  C   UNL A   1      40.398  26.084  27.269  1.00  0.00     0.031 C 
ATOM     17  C   UNL A   1      40.815  29.426  31.122  1.00  0.00     0.029 A 
ATOM     18  N   UNL A   1      42.396  27.874  31.195  1.00  0.00    -0.354 N 
ATOM     19  C   UNL A   1      41.857  24.452  27.851  1.00  0.00     0.074 A 
ATOM     20  C   UNL A   1      40.909  24.912  26.886  1.00  0.00     0.031 C 
ATOM     21  C   UNL A   1      41.589  29.708  32.195  1.00  0.00     0.029 A 
ATOM     22  C   UNL A   1      42.643  28.717  32.307  1.00  0.00     0.049 A 
ATOM     23  H   UNL A   1      42.980  27.114  30.969  1.00  0.00     0.167 HD
ATOM     24  C   UNL A   1      42.785  23.459  27.736  1.00  0.00     0.031 A 
ATOM     25  C   UNL A   1      43.616  28.623  33.265  1.00  0.00     0.031 A 
ATOM     26  C   UNL A   1      43.588  23.384  28.906  1.00  0.00     0.049 A 
ATOM     27  C   UNL A   1      44.537  27.563  32.828  1.00  0.00     0.074 A 
ATOM     28  C   UNL A   1      43.357  22.925  30.175  1.00  0.00     0.029 A 
ATOM     29  N   UNL A   1      44.750  24.118  28.899  1.00  0.00    -0.354 N 
ATOM     30  N   UNL A   1      45.370  27.667  31.839  1.00  0.00    -0.248 NA
ATOM     31  C   UNL A   1      44.547  26.281  33.546  1.00  0.00     0.031 C 
ATOM     32  C   UNL A   1      44.142  23.770  30.986  1.00  0.00     0.029 A 
ATOM     33  C   UNL A   1      44.906  24.612  30.169  1.00  0.00     0.049 A 
ATOM     34  H   UNL A   1      45.353  24.260  28.133  1.00  0.00     0.167 HD
ATOM     35  C   UNL A   1      45.692  26.358  31.583  1.00  0.00     0.074 A 
ATOM     36  C   UNL A   1      45.445  25.630  32.809  1.00  0.00     0.031 C 
ATOM     37  C   UNL A   1      45.572  25.888  30.316  1.00  0.00     0.031 A 
BRANCH  24  38
ATOM     38  C   UNL A   1      43.231  22.652  26.546  1.00  0.00    -0.014 A 
ATOM     39  C   UNL A   1      42.619  21.387  26.363  1.00  0.00     0.010 A 
ATOM     40  C   UNL A   1      44.414  22.911  25.838  1.00  0.00     0.010 A 
ATOM     41  C   UNL A   1      43.231  20.374  25.624  1.00  0.00     0.020 A 
ATOM     42  C   UNL A   1      45.016  21.907  25.060  1.00  0.00     0.020 A 
ATOM     43  C   UNL A   1      44.451  20.631  25.007  1.00  0.00     0.054 A 
BRANCH  43  44
ATOM     44  S   UNL A   1      45.321  19.248  24.219  1.00  0.00     0.124 S 
ATOM     45  O   UNL A   1      44.973  18.131  25.092  1.00  0.00    -0.237 OA
ATOM     46  O   UNL A   1      44.718  19.212  22.888  1.00  0.00    -0.237 OA
ATOM     47  O   UNL A   1      46.720  19.662  24.249  1.00  0.00    -0.744 OA
ENDBRANCH  43  44
ENDBRANCH  24  38
BRANCH  25  48
ATOM     48  C   UNL A   1      43.951  29.234  34.609  1.00  0.00    -0.014 A 
ATOM     49  C   UNL A   1      43.040  29.512  35.634  1.00  0.00     0.010 A 
ATOM     50  C   UNL A   1      45.329  29.371  34.952  1.00  0.00     0.010 A 
ATOM     51  C   UNL A   1      43.487  29.760  36.956  1.00  0.00     0.020 A 
ATOM     52  C   UNL A   1      45.781  29.552  36.260  1.00  0.00     0.020 A 
ATOM     53  C   UNL A   1      44.850  29.718  37.269  1.00  0.00     0.054 A 
BRANCH  53  54
ATOM     54  S   UNL A   1      45.415  29.715  38.996  1.00  0.00     0.124 S 
ATOM     55  O   UNL A   1      46.833  30.029  38.863  1.00  0.00    -0.237 OA
ATOM     56  O   UNL A   1      44.591  30.755  39.610  1.00  0.00    -0.237 OA
ATOM     57  O   UNL A   1      45.112  28.357  39.447  1.00  0.00    -0.744 OA
ENDBRANCH  53  54
ENDBRANCH  25  48
BRANCH  37  58
ATOM     58  C   UNL A   1      45.706  26.940  29.221  1.00  0.00    -0.014 A 
ATOM     59  C   UNL A   1      46.980  27.328  28.766  1.00  0.00     0.010 A 
ATOM     60  C   UNL A   1      44.598  27.626  28.685  1.00  0.00     0.010 A 
ATOM     61  C   UNL A   1      47.140  28.353  27.822  1.00  0.00     0.020 A 
ATOM     62  C   UNL A   1      44.744  28.650  27.735  1.00  0.00     0.020 A 
ATOM     63  C   UNL A   1      46.020  29.010  27.307  1.00  0.00     0.054 A 
BRANCH  63  64
ATOM     64  S   UNL A   1      46.260  30.340  26.093  1.00  0.00     0.124 S 
ATOM     65  O   UNL A   1      46.460  29.608  24.845  1.00  0.00    -0.237 OA
ATOM     66  O   UNL A   1      45.007  31.083  26.186  1.00  0.00    -0.237 OA
ATOM     67  O   UNL A   1      47.441  31.053  26.580  1.00  0.00    -0.744 OA
ENDBRANCH  63  64
ENDBRANCH  37  58
ENDBRANCH  11  12
ENDBRANCH   4   6
ENDBRANCH   1   2
BRANCH   1  68
ATOM     68  C   UNL A   1      33.707  28.672  25.551  1.00  0.00     0.042 C 
BRANCH  68  69
ATOM     69  C   UNL A   1      33.277  27.268  25.158  1.00  0.00     0.117 C 
BRANCH  69  70
ATOM     70  N   UNL A   1      32.195  26.783  25.977  1.00  0.00    -0.355 N 
ATOM     71  C   UNL A   1      31.117  26.011  25.695  1.00  0.00     0.238 C 
ATOM     72  H   UNL A   1      32.249  27.066  26.919  1.00  0.00     0.163 HD
ATOM     73  O   UNL A   1      30.256  25.989  26.587  1.00  0.00    -0.273 OA
BRANCH  71  74
ATOM     74  C   UNL A   1      30.946  25.115  24.443  1.00  0.00     0.162 C 
ATOM     75  C   UNL A   1      30.835  25.725  23.034  1.00  0.00     0.030 C 
ATOM     76  N   UNL A   1      31.855  23.924  24.421  1.00  0.00    -0.185 NA
ATOM     77  C   UNL A   1      32.092  25.714  22.147  1.00  0.00     0.004 C 
ATOM     78  C   UNL A   1      33.187  24.247  23.879  1.00  0.00     0.103 C 
ATOM     79  C   UNL A   1      33.023  24.537  22.395  1.00  0.00     0.017 C 
BRANCH  76  80
ATOM     80  S   UNL A   1      31.816  22.971  25.832  1.00  0.00     0.245 S 
ATOM     81  O   UNL A   1      32.702  23.570  26.816  1.00  0.00    -0.207 OA
ATOM     82  O   UNL A   1      30.450  22.616  26.121  1.00  0.00    -0.207 OA
BRANCH  80  83
ATOM     83  C   UNL A   1      32.566  21.443  25.483  1.00  0.00     0.100 A 
ATOM     84  C   UNL A   1      32.294  20.618  24.360  1.00  0.00     0.041 A 
ATOM     85  C   UNL A   1      33.547  20.811  26.226  1.00  0.00     0.104 A 
ATOM     86  C   UNL A   1      33.097  19.504  24.464  1.00  0.00     0.083 A 
ATOM     87  N   UNL A   1      33.865  19.637  25.593  1.00  0.00    -0.366 N 
ATOM     88  H   UNL A   1      34.539  18.990  25.902  1.00  0.00     0.165 HD
ENDBRANCH  80  83
ENDBRANCH  76  80
ENDBRANCH  71  74
ENDBRANCH  69  70
ENDBRANCH  68  69
ENDBRANCH   1  68
TORSDOF 15
ENDMDL
MODEL 2
REMARK VINA RESULT:     -11.7      1.215      2.436
REMARK SMILES O=C(NCCCNC(=O)[C@H]1CCCCN1S(=O)(=O)c1cc[nH]c1)c1ccc(-c2c3nc(c(-c4ccc(S(=O)(=O)[O-])cc4)c4ccc([nH]4)c(-c4ccc(S(=O)(=O)[O-])cc4)c4nc(c(-c5ccc(S(=O)(=O)[O-])cc5)c5ccc2[nH]5)C=C4)C=C3)cc1
REMARK SMILES IDX 4 1 3 2 1 3 2 4 24 6 25 7 83 8 26 9 82 10 27 11 28 12 29 13
REMARK SMILES IDX 76 14 30 15 81 16 75 17 77 18 31 19 80 20 74 21 73 22 32 24
REMARK SMILES IDX 62 25 43 26 61 27 44 28 47 29 60 30 78 31 45 32 46 33 59 35
REMARK SMILES IDX 79 36 48 37 33 38 34 39 42 40 35 41 41 42 36 43 37 44 38 45
REMARK SMILES IDX 39 46 40 47 63 48 64 49 72 50 65 51 71 52 66 53 67 54 68 55
REMARK SMILES IDX 69 56 70 57 49 58 50 59 58 60 51 61 57 62 52 63 53 64 54 65
REMARK SMILES IDX 55 66 56 67 5 68 6 69 7 70 8 71 9 73 10 74 11 75 15 76 12 77
REMARK SMILES IDX 14 78 13 79 16 80 17 81 18 82 19 83 20 84 23 85 21 86 22 87
REMARK H PARENT 3 5 77 23 47 34 7 72 22 88
REMARK Flexibility Score: inf
ROOT
ATOM      1  C   UNL A   1      34.540  28.631  26.646  1.00  0.00     0.118 C 
ENDROOT
BRANCH   1   2
ATOM      2  N   UNL A   1      34.871  29.952  27.150  1.00  0.00    -0.352 N 
ATOM      3  O   UNL A   1      35.995  31.751  27.814  1.00  0.00    -0.269 OA
ATOM      4  C   UNL A   1      36.017  30.533  27.635  1.00  0.00     0.251 C 
ATOM      5  H   UNL A   1      34.104  30.569  27.142  1.00  0.00     0.163 HD
BRANCH   4   6
ATOM      6  C   UNL A   1      37.228  29.766  28.027  1.00  0.00     0.039 A 
ATOM      7  C   UNL A   1      38.422  29.771  27.304  1.00  0.00     0.014 A 
ATOM      8  C   UNL A   1      37.154  29.006  29.209  1.00  0.00     0.014 A 
ATOM      9  C   UNL A   1      39.476  28.940  27.674  1.00  0.00     0.010 A 
ATOM     10  C   UNL A   1      38.230  28.216  29.622  1.00  0.00     0.010 A 
ATOM     11  C   UNL A   1      39.392  28.179  28.845  1.00  0.00    -0.014 A 
BRANCH  11  12
ATOM     12  C   UNL A   1      40.650  27.595  29.368  1.00  0.00     0.031 A 
ATOM     13  C   UNL A   1      41.040  26.310  28.610  1.00  0.00     0.074 A 
ATOM     14  C   UNL A   1      41.248  28.193  30.442  1.00  0.00     0.049 A 
ATOM     15  N   UNL A   1      41.809  25.330  28.975  1.00  0.00    -0.248 NA
ATOM     16  C   UNL A   1      40.422  26.039  27.279  1.00  0.00     0.031 C 
ATOM     17  C   UNL A   1      40.758  29.423  31.104  1.00  0.00     0.029 A 
ATOM     18  N   UNL A   1      42.367  27.901  31.198  1.00  0.00    -0.354 N 
ATOM     19  C   UNL A   1      41.909  24.440  27.882  1.00  0.00     0.074 A 
ATOM     20  C   UNL A   1      40.956  24.874  26.909  1.00  0.00     0.031 C 
ATOM     21  C   UNL A   1      41.521  29.729  32.178  1.00  0.00     0.029 A 
ATOM     22  C   UNL A   1      42.593  28.758  32.304  1.00  0.00     0.049 A 
ATOM     23  H   UNL A   1      42.966  27.151  30.982  1.00  0.00     0.167 HD
ATOM     24  C   UNL A   1      42.856  23.464  27.781  1.00  0.00     0.031 A 
ATOM     25  C   UNL A   1      43.563  28.692  33.267  1.00  0.00     0.031 A 
ATOM     26  C   UNL A   1      43.654  23.414  28.955  1.00  0.00     0.049 A 
ATOM     27  C   UNL A   1      44.505  27.645  32.844  1.00  0.00     0.074 A 
ATOM     28  C   UNL A   1      43.425  22.962  30.227  1.00  0.00     0.029 A 
ATOM     29  N   UNL A   1      44.802  24.170  28.947  1.00  0.00    -0.354 N 
ATOM     30  N   UNL A   1      45.341  27.755  31.858  1.00  0.00    -0.248 NA
ATOM     31  C   UNL A   1      44.536  26.370  33.573  1.00  0.00     0.031 C 
ATOM     32  C   UNL A   1      44.191  23.829  31.035  1.00  0.00     0.029 A 
ATOM     33  C   UNL A   1      44.942  24.678  30.214  1.00  0.00     0.049 A 
ATOM     34  H   UNL A   1      45.406  24.316  28.183  1.00  0.00     0.167 HD
ATOM     35  C   UNL A   1      45.689  26.451  31.616  1.00  0.00     0.074 A 
ATOM     36  C   UNL A   1      45.449  25.729  32.846  1.00  0.00     0.031 C 
ATOM     37  C   UNL A   1      45.584  25.967  30.352  1.00  0.00     0.031 A 
BRANCH  24  38
ATOM     38  C   UNL A   1      43.322  22.655  26.600  1.00  0.00    -0.014 A 
ATOM     39  C   UNL A   1      42.669  21.417  26.372  1.00  0.00     0.010 A 
ATOM     40  C   UNL A   1      44.545  22.875  25.950  1.00  0.00     0.010 A 
ATOM     41  C   UNL A   1      43.274  20.390  25.646  1.00  0.00     0.020 A 
ATOM     42  C   UNL A   1      45.142  21.858  25.184  1.00  0.00     0.020 A 
ATOM     43  C   UNL A   1      44.529  20.606  25.088  1.00  0.00     0.054 A 
BRANCH  43  44
ATOM     44  S   UNL A   1      45.378  19.200  24.319  1.00  0.00     0.124 S 
ATOM     45  O   UNL A   1      46.771  19.637  24.337  1.00  0.00    -0.237 OA
ATOM     46  O   UNL A   1      45.057  18.101  25.227  1.00  0.00    -0.237 OA
ATOM     47  O   UNL A   1      44.762  19.106  22.999  1.00  0.00    -0.744 OA
ENDBRANCH  43  44
ENDBRANCH  24  38
BRANCH  25  48
ATOM     48  C   UNL A   1      43.880  29.320  34.607  1.00  0.00    -0.014 A 
ATOM     49  C   UNL A   1      44.885  30.262  34.855  1.00  0.00     0.010 A 
ATOM     50  C   UNL A   1      42.970  29.090  35.681  1.00  0.00     0.010 A 
ATOM     51  C   UNL A   1      44.882  31.032  36.044  1.00  0.00     0.020 A 
ATOM     52  C   UNL A   1      42.919  29.883  36.829  1.00  0.00     0.020 A 
ATOM     53  C   UNL A   1      43.866  30.878  36.993  1.00  0.00     0.054 A 
BRANCH  53  54
ATOM     54  S   UNL A   1      43.668  32.064  38.355  1.00  0.00     0.124 S 
ATOM     55  O   UNL A   1      44.894  31.871  39.121  1.00  0.00    -0.237 OA
ATOM     56  O   UNL A   1      43.552  33.343  37.658  1.00  0.00    -0.237 OA
ATOM     57  O   UNL A   1      42.440  31.619  39.013  1.00  0.00    -0.744 OA
ENDBRANCH  53  54
ENDBRANCH  25  48
BRANCH  37  58
ATOM     58  C   UNL A   1      45.703  27.011  29.248  1.00  0.00    -0.014 A 
ATOM     59  C   UNL A   1      46.972  27.416  28.793  1.00  0.00     0.010 A 
ATOM     60  C   UNL A   1      44.586  27.674  28.704  1.00  0.00     0.010 A 
ATOM     61  C   UNL A   1      47.118  28.436  27.841  1.00  0.00     0.020 A 
ATOM     62  C   UNL A   1      44.717  28.693  27.745  1.00  0.00     0.020 A 
ATOM     63  C   UNL A   1      45.989  29.069  27.318  1.00  0.00     0.054 A 
BRANCH  63  64
ATOM     64  S   UNL A   1      46.211  30.393  26.092  1.00  0.00     0.124 S 
ATOM     65  O   UNL A   1      44.940  31.110  26.157  1.00  0.00    -0.237 OA
ATOM     66  O   UNL A   1      47.364  31.119  26.617  1.00  0.00    -0.237 OA
ATOM     67  O   UNL A   1      46.446  29.677  24.839  1.00  0.00    -0.744 OA
ENDBRANCH  63  64
ENDBRANCH  37  58
ENDBRANCH  11  12
ENDBRANCH   4   6
ENDBRANCH   1   2
BRANCH   1  68
ATOM     68  C   UNL A   1      33.723  28.574  25.360  1.00  0.00     0.042 C 
BRANCH  68  69
ATOM     69  C   UNL A   1      33.477  27.177  24.815  1.00  0.00     0.117 C 
BRANCH  69  70
ATOM     70  N   UNL A   1      33.540  26.173  25.847  1.00  0.00    -0.355 N 
ATOM     71  C   UNL A   1      33.850  24.853  25.814  1.00  0.00     0.238 C 
ATOM     72  H   UNL A   1      33.317  26.508  26.746  1.00  0.00     0.163 HD
ATOM     73  O   UNL A   1      33.567  24.235  26.851  1.00  0.00    -0.273 OA
BRANCH  71  74
ATOM     74  C   UNL A   1      34.592  24.124  24.666  1.00  0.00     0.162 C 
ATOM     75  C   UNL A   1      36.105  23.851  24.740  1.00  0.00     0.030 C 
ATOM     76  N   UNL A   1      33.872  22.916  24.150  1.00  0.00    -0.185 NA
ATOM     77  C   UNL A   1      36.559  22.437  25.141  1.00  0.00     0.004 C 
ATOM     78  C   UNL A   1      34.153  21.713  24.954  1.00  0.00     0.103 C 
ATOM     79  C   UNL A   1      35.606  21.330  24.718  1.00  0.00     0.017 C 
BRANCH  76  80
ATOM     80  S   UNL A   1      32.247  23.185  23.719  1.00  0.00     0.245 S 
ATOM     81  O   UNL A   1      31.812  22.097  22.859  1.00  0.00    -0.207 OA
ATOM     82  O   UNL A   1      31.514  23.601  24.888  1.00  0.00    -0.207 OA
BRANCH  80  83
ATOM     83  C   UNL A   1      32.178  24.577  22.681  1.00  0.00     0.100 A 
ATOM     84  C   UNL A   1      31.282  25.671  22.811  1.00  0.00     0.041 A 
ATOM     85  C   UNL A   1      32.989  24.842  21.593  1.00  0.00     0.104 A 
ATOM     86  C   UNL A   1      31.559  26.553  21.791  1.00  0.00     0.083 A 
ATOM     87  N   UNL A   1      32.607  26.048  21.064  1.00  0.00    -0.366 N 
ATOM     88  H   UNL A   1      33.020  26.483  20.284  1.00  0.00     0.165 HD
ENDBRANCH  80  83
ENDBRANCH  76  80
ENDBRANCH  71  74
ENDBRANCH  69  70
ENDBRANCH  68  69
ENDBRANCH   1  68
TORSDOF 15
ENDMDL
MODEL 3
REMARK VINA RESULT:     -11.5      3.689      9.243
REMARK SMILES O=C(NCCCNC(=O)[C@H]1CCCCN1S(=O)(=O)c1cc[nH]c1)c1ccc(-c2c3nc(c(-c4ccc(S(=O)(=O)[O-])cc4)c4ccc([nH]4)c(-c4ccc(S(=O)(=O)[O-])cc4)c4nc(c(-c5ccc(S(=O)(=O)[O-])cc5)c5ccc2[nH]5)C=C4)C=C3)cc1
REMARK SMILES IDX 4 1 3 2 1 3 2 4 24 6 25 7 83 8 26 9 82 10 27 11 28 12 29 13
REMARK SMILES IDX 76 14 30 15 81 16 75 17 77 18 31 19 80 20 74 21 73 22 32 24
REMARK SMILES IDX 62 25 43 26 61 27 44 28 47 29 60 30 78 31 45 32 46 33 59 35
REMARK SMILES IDX 79 36 48 37 33 38 34 39 42 40 35 41 41 42 36 43 37 44 38 45
REMARK SMILES IDX 39 46 40 47 63 48 64 49 72 50 65 51 71 52 66 53 67 54 68 55
REMARK SMILES IDX 69 56 70 57 49 58 50 59 58 60 51 61 57 62 52 63 53 64 54 65
REMARK SMILES IDX 55 66 56 67 5 68 6 69 7 70 8 71 9 73 10 74 11 75 15 76 12 77
REMARK SMILES IDX 14 78 13 79 16 80 17 81 18 82 19 83 20 84 23 85 21 86 22 87
REMARK H PARENT 3 5 77 23 47 34 7 72 22 88
REMARK Flexibility Score: inf
ROOT
ATOM      1  C   UNL A   1      33.746  31.423  27.375  1.00  0.00     0.118 C 
ENDROOT
BRANCH   1   2
ATOM      2  N   UNL A   1      33.825  31.871  28.754  1.00  0.00    -0.352 N 
ATOM      3  O   UNL A   1      34.596  32.538  30.729  1.00  0.00    -0.269 OA
ATOM      4  C   UNL A   1      34.830  31.922  29.688  1.00  0.00     0.251 C 
ATOM      5  H   UNL A   1      32.968  32.212  29.096  1.00  0.00     0.163 HD
BRANCH   4   6
ATOM      6  C   UNL A   1      36.128  31.214  29.543  1.00  0.00     0.039 A 
ATOM      7  C   UNL A   1      36.878  31.194  28.366  1.00  0.00     0.014 A 
ATOM      8  C   UNL A   1      36.624  30.540  30.674  1.00  0.00     0.014 A 
ATOM      9  C   UNL A   1      38.030  30.417  28.274  1.00  0.00     0.010 A 
ATOM     10  C   UNL A   1      37.812  29.807  30.608  1.00  0.00     0.010 A 
ATOM     11  C   UNL A   1      38.512  29.741  29.399  1.00  0.00    -0.014 A 
BRANCH  11  12
ATOM     12  C   UNL A   1      39.900  29.225  29.341  1.00  0.00     0.031 A 
ATOM     13  C   UNL A   1      40.932  30.335  29.628  1.00  0.00     0.074 A 
ATOM     14  C   UNL A   1      40.095  27.917  28.995  1.00  0.00     0.049 A 
ATOM     15  N   UNL A   1      42.190  30.402  29.316  1.00  0.00    -0.248 NA
ATOM     16  C   UNL A   1      40.478  31.589  30.296  1.00  0.00     0.031 C 
ATOM     17  C   UNL A   1      39.012  26.948  28.717  1.00  0.00     0.029 A 
ATOM     18  N   UNL A   1      41.219  27.137  28.801  1.00  0.00    -0.354 N 
ATOM     19  C   UNL A   1      42.706  31.586  29.888  1.00  0.00     0.074 A 
ATOM     20  C   UNL A   1      41.588  32.323  30.388  1.00  0.00     0.031 C 
ATOM     21  C   UNL A   1      39.521  25.754  28.335  1.00  0.00     0.029 A 
ATOM     22  C   UNL A   1      40.971  25.814  28.357  1.00  0.00     0.049 A 
ATOM     23  H   UNL A   1      42.129  27.477  28.961  1.00  0.00     0.167 HD
ATOM     24  C   UNL A   1      44.037  31.844  30.031  1.00  0.00     0.031 A 
ATOM     25  C   UNL A   1      41.862  24.834  28.015  1.00  0.00     0.031 A 
ATOM     26  C   UNL A   1      44.815  30.807  29.448  1.00  0.00     0.049 A 
ATOM     27  C   UNL A   1      43.197  25.331  28.385  1.00  0.00     0.074 A 
ATOM     28  C   UNL A   1      45.094  30.458  28.153  1.00  0.00     0.029 A 
ATOM     29  N   UNL A   1      45.188  29.779  30.280  1.00  0.00    -0.354 N 
ATOM     30  N   UNL A   1      43.631  25.451  29.601  1.00  0.00    -0.248 NA
ATOM     31  C   UNL A   1      44.135  25.721  27.325  1.00  0.00     0.031 C 
ATOM     32  C   UNL A   1      45.207  29.053  28.202  1.00  0.00     0.029 A 
ATOM     33  C   UNL A   1      45.121  28.630  29.533  1.00  0.00     0.049 A 
ATOM     34  H   UNL A   1      45.452  29.854  31.226  1.00  0.00     0.167 HD
ATOM     35  C   UNL A   1      44.707  26.287  29.451  1.00  0.00     0.074 A 
ATOM     36  C   UNL A   1      45.147  26.145  28.079  1.00  0.00     0.031 C 
ATOM     37  C   UNL A   1      44.785  27.402  30.220  1.00  0.00     0.031 A 
BRANCH  24  38
ATOM     38  C   UNL A   1      44.766  32.855  30.874  1.00  0.00    -0.014 A 
ATOM     39  C   UNL A   1      44.588  32.769  32.279  1.00  0.00     0.010 A 
ATOM     40  C   UNL A   1      45.306  34.043  30.360  1.00  0.00     0.010 A 
ATOM     41  C   UNL A   1      44.801  33.865  33.115  1.00  0.00     0.020 A 
ATOM     42  C   UNL A   1      45.561  35.138  31.203  1.00  0.00     0.020 A 
ATOM     43  C   UNL A   1      45.251  35.058  32.563  1.00  0.00     0.054 A 
BRANCH  43  44
ATOM     44  S   UNL A   1      45.333  36.520  33.634  1.00  0.00     0.124 S 
ATOM     45  O   UNL A   1      46.126  36.032  34.757  1.00  0.00    -0.237 OA
ATOM     46  O   UNL A   1      45.997  37.502  32.779  1.00  0.00    -0.237 OA
ATOM     47  O   UNL A   1      43.932  36.809  33.928  1.00  0.00    -0.744 OA
ENDBRANCH  43  44
ENDBRANCH  24  38
BRANCH  25  48
ATOM     48  C   UNL A   1      41.859  23.480  27.339  1.00  0.00    -0.014 A 
ATOM     49  C   UNL A   1      42.712  23.076  26.306  1.00  0.00     0.010 A 
ATOM     50  C   UNL A   1      41.054  22.452  27.914  1.00  0.00     0.010 A 
ATOM     51  C   UNL A   1      42.860  21.706  25.979  1.00  0.00     0.020 A 
ATOM     52  C   UNL A   1      41.234  21.093  27.644  1.00  0.00     0.020 A 
ATOM     53  C   UNL A   1      42.165  20.722  26.691  1.00  0.00     0.054 A 
BRANCH  53  54
ATOM     54  S   UNL A   1      42.577  18.962  26.504  1.00  0.00     0.124 S 
ATOM     55  O   UNL A   1      43.843  19.011  25.782  1.00  0.00    -0.237 OA
ATOM     56  O   UNL A   1      42.656  18.498  27.888  1.00  0.00    -0.237 OA
ATOM     57  O   UNL A   1      41.444  18.429  25.749  1.00  0.00    -0.744 OA
ENDBRANCH  53  54
ENDBRANCH  25  48
BRANCH  37  58
ATOM     58  C   UNL A   1      44.062  27.315  31.560  1.00  0.00    -0.014 A 
ATOM     59  C   UNL A   1      44.585  26.516  32.594  1.00  0.00     0.010 A 
ATOM     60  C   UNL A   1      42.820  27.937  31.796  1.00  0.00     0.010 A 
ATOM     61  C   UNL A   1      43.899  26.347  33.807  1.00  0.00     0.020 A 
ATOM     62  C   UNL A   1      42.126  27.780  33.007  1.00  0.00     0.020 A 
ATOM     63  C   UNL A   1      42.673  26.982  34.010  1.00  0.00     0.054 A 
BRANCH  63  64
ATOM     64  S   UNL A   1      41.804  26.736  35.587  1.00  0.00     0.124 S 
ATOM     65  O   UNL A   1      40.781  25.753  35.243  1.00  0.00    -0.237 OA
ATOM     66  O   UNL A   1      42.869  26.248  36.460  1.00  0.00    -0.237 OA
ATOM     67  O   UNL A   1      41.291  28.064  35.918  1.00  0.00    -0.744 OA
ENDBRANCH  63  64
ENDBRANCH  37  58
ENDBRANCH  11  12
ENDBRANCH   4   6
ENDBRANCH   1   2
BRANCH   1  68
ATOM     68  C   UNL A   1      33.110  30.058  27.133  1.00  0.00     0.042 C 
BRANCH  68  69
ATOM     69  C   UNL A   1      33.992  29.058  26.404  1.00  0.00     0.117 C 
BRANCH  69  70
ATOM     70  N   UNL A   1      34.017  29.292  24.982  1.00  0.00    -0.355 N 
ATOM     71  C   UNL A   1      33.824  28.470  23.921  1.00  0.00     0.238 C 
ATOM     72  H   UNL A   1      34.211  30.225  24.734  1.00  0.00     0.163 HD
ATOM     73  O   UNL A   1      34.160  28.953  22.831  1.00  0.00    -0.273 OA
BRANCH  71  74
ATOM     74  C   UNL A   1      33.147  27.076  23.966  1.00  0.00     0.162 C 
ATOM     75  C   UNL A   1      33.785  25.903  24.732  1.00  0.00     0.030 C 
ATOM     76  N   UNL A   1      31.673  27.127  24.229  1.00  0.00    -0.185 NA
ATOM     77  C   UNL A   1      33.224  25.570  26.126  1.00  0.00     0.004 C 
ATOM     78  C   UNL A   1      31.364  27.207  25.668  1.00  0.00     0.103 C 
ATOM     79  C   UNL A   1      31.744  25.874  26.295  1.00  0.00     0.017 C 
BRANCH  76  80
ATOM     80  S   UNL A   1      30.801  28.169  23.202  1.00  0.00     0.245 S 
ATOM     81  O   UNL A   1      30.979  29.533  23.672  1.00  0.00    -0.207 OA
ATOM     82  O   UNL A   1      31.026  27.776  21.834  1.00  0.00    -0.207 OA
BRANCH  80  83
ATOM     83  C   UNL A   1      29.104  27.875  23.435  1.00  0.00     0.100 A 
ATOM     84  C   UNL A   1      28.056  28.800  23.186  1.00  0.00     0.041 A 
ATOM     85  C   UNL A   1      28.518  26.702  23.874  1.00  0.00     0.104 A 
ATOM     86  C   UNL A   1      26.871  28.172  23.501  1.00  0.00     0.083 A 
ATOM     87  N   UNL A   1      27.161  26.894  23.905  1.00  0.00    -0.366 N 
ATOM     88  H   UNL A   1      26.497  26.219  24.175  1.00  0.00     0.165 HD
ENDBRANCH  80  83
ENDBRANCH  76  80
ENDBRANCH  71  74
ENDBRANCH  69  70
ENDBRANCH  68  69
ENDBRANCH   1  68
TORSDOF 15
ENDMDL
