MODEL 1
REMARK VINA RESULT:     -11.9      0.000      0.000
REMARK SMILES O=C(C[C@H]1C[C@H]2CC[C@@H](C1)[N@H+]2C[C@@H]1CNC(=O)O1)NCCCNC(=O)c1ccc(-c2c3nc(c(-c4ccc(S(=O)(=O)[O-])cc4)c4ccc([nH]4)c(-c4ccc(S(=O)(=O)[O-])cc4)c4nc(c(-c5ccc(S(=O)(=O)[O-])cc5)c5ccc2[nH]5)C=C4)C=C3)cc1
REMARK SMILES IDX 21 1 20 2 19 3 1 4 2 5 3 7 4 8 5 9 10 10 6 11 9 12 7 13
REMARK SMILES IDX 11 14 8 15 12 17 13 18 14 19 18 20 15 21 16 22 17 24 22 25
REMARK SMILES IDX 23 26 24 27 25 29 26 30 27 31 85 32 28 33 84 34 29 35 30 36
REMARK SMILES IDX 31 37 78 38 32 39 83 40 77 41 79 42 33 43 82 44 76 45 75 46
REMARK SMILES IDX 34 48 64 49 45 50 63 51 46 52 49 53 62 54 80 55 47 56 48 57
REMARK SMILES IDX 61 59 81 60 50 61 35 62 36 63 44 64 37 65 43 66 38 67 39 68
REMARK SMILES IDX 40 69 41 70 42 71 65 72 66 73 74 74 67 75 73 76 68 77 69 78
REMARK SMILES IDX 70 79 71 80 72 81 51 82 52 83 60 84 53 85 59 86 54 87 55 88
REMARK SMILES IDX 56 89 57 90 58 91
REMARK H PARENT 19 6 11 16 15 23 23 28 79 47 49 58
REMARK Flexibility Score: inf
ROOT
ATOM      1  C   UNL A   1      39.972  21.829  26.738  1.00  0.00     0.042 C 
ENDROOT
BRANCH   1   2
ATOM      2  C   UNL A   1      38.794  21.735  25.780  1.00  0.00     0.117 C 
BRANCH   2   3
ATOM      3  N   UNL A   1      37.575  22.240  26.377  1.00  0.00    -0.356 N 
ATOM      4  O   UNL A   1      37.273  23.970  24.895  1.00  0.00    -0.275 OA
ATOM      5  C   UNL A   1      36.836  23.233  25.772  1.00  0.00     0.220 C 
ATOM      6  H   UNL A   1      37.267  21.865  27.234  1.00  0.00     0.163 HD
BRANCH   5   7
ATOM      7  C   UNL A   1      35.369  23.198  26.169  1.00  0.00     0.104 C 
BRANCH   7   8
ATOM      8  C   UNL A   1      34.779  21.823  25.793  1.00  0.00     0.010 C 
ATOM      9  C   UNL A   1      33.471  21.481  26.556  1.00  0.00     0.069 C 
ATOM     10  C   UNL A   1      34.697  21.616  24.260  1.00  0.00     0.069 C 
ATOM     11  C   UNL A   1      32.195  21.479  25.731  1.00  0.00     0.184 C 
ATOM     12  C   UNL A   1      33.277  21.518  23.693  1.00  0.00     0.184 C 
ATOM     13  C   UNL A   1      31.918  22.883  25.174  1.00  0.00     0.071 C 
ATOM     14  N   UNL A   1      32.391  20.718  24.522  1.00  0.00    -0.327 N 
ATOM     15  C   UNL A   1      32.596  22.894  23.803  1.00  0.00     0.071 C 
ATOM     16  H   UNL A   1      31.514  20.568  24.025  1.00  0.00     0.348 HD
BRANCH  14  17
ATOM     17  C   UNL A   1      32.368  19.262  24.509  1.00  0.00     0.310 C 
BRANCH  17  18
ATOM     18  C   UNL A   1      33.376  18.230  25.093  1.00  0.00     0.252 C 
ATOM     19  C   UNL A   1      34.565  17.766  24.273  1.00  0.00     0.170 C 
ATOM     20  O   UNL A   1      32.752  17.030  25.575  1.00  0.00    -0.438 OA
ATOM     21  N   UNL A   1      34.330  16.371  24.133  1.00  0.00    -0.318 N 
ATOM     22  C   UNL A   1      33.330  15.957  24.960  1.00  0.00     0.407 C 
ATOM     23  H   UNL A   1      34.824  15.781  23.518  1.00  0.00     0.167 HD
ATOM     24  O   UNL A   1      32.984  14.798  25.121  1.00  0.00    -0.225 OA
ENDBRANCH  17  18
ENDBRANCH  14  17
ENDBRANCH   7   8
ENDBRANCH   5   7
ENDBRANCH   2   3
ENDBRANCH   1   2
BRANCH   1  25
ATOM     25  C   UNL A   1      40.323  23.255  27.165  1.00  0.00     0.118 C 
BRANCH  25  26
ATOM     26  N   UNL A   1      40.982  24.028  26.125  1.00  0.00    -0.352 N 
ATOM     27  C   UNL A   1      41.319  25.363  26.109  1.00  0.00     0.251 C 
ATOM     28  H   UNL A   1      41.222  23.523  25.314  1.00  0.00     0.163 HD
ATOM     29  O   UNL A   1      41.750  25.863  25.073  1.00  0.00    -0.269 OA
BRANCH  27  30
ATOM     30  C   UNL A   1      41.141  26.204  27.318  1.00  0.00     0.039 A 
ATOM     31  C   UNL A   1      42.047  27.242  27.556  1.00  0.00     0.014 A 
ATOM     32  C   UNL A   1      40.105  25.971  28.227  1.00  0.00     0.014 A 
ATOM     33  C   UNL A   1      41.881  28.073  28.668  1.00  0.00     0.010 A 
ATOM     34  C   UNL A   1      39.889  26.855  29.285  1.00  0.00     0.010 A 
ATOM     35  C   UNL A   1      40.783  27.909  29.530  1.00  0.00    -0.014 A 
BRANCH  35  36
ATOM     36  C   UNL A   1      40.578  28.822  30.689  1.00  0.00     0.031 A 
ATOM     37  C   UNL A   1      41.427  28.690  31.930  1.00  0.00     0.074 A 
ATOM     38  C   UNL A   1      39.612  29.763  30.641  1.00  0.00     0.049 A 
ATOM     39  N   UNL A   1      41.406  29.410  33.024  1.00  0.00    -0.248 NA
ATOM     40  C   UNL A   1      42.412  27.597  31.953  1.00  0.00     0.031 C 
ATOM     41  C   UNL A   1      38.689  29.973  29.523  1.00  0.00     0.029 A 
ATOM     42  N   UNL A   1      39.249  30.727  31.552  1.00  0.00    -0.354 N 
ATOM     43  C   UNL A   1      42.364  28.852  33.865  1.00  0.00     0.074 A 
ATOM     44  C   UNL A   1      42.903  27.699  33.179  1.00  0.00     0.031 C 
ATOM     45  C   UNL A   1      37.899  31.025  29.793  1.00  0.00     0.029 A 
ATOM     46  C   UNL A   1      38.226  31.539  31.120  1.00  0.00     0.049 A 
ATOM     47  H   UNL A   1      39.682  30.826  32.430  1.00  0.00     0.167 HD
ATOM     48  C   UNL A   1      42.780  29.274  35.085  1.00  0.00     0.031 A 
ATOM     49  C   UNL A   1      37.618  32.582  31.719  1.00  0.00     0.031 A 
ATOM     50  C   UNL A   1      42.244  30.423  35.767  1.00  0.00     0.049 A 
ATOM     51  C   UNL A   1      38.088  33.024  33.079  1.00  0.00     0.074 A 
ATOM     52  C   UNL A   1      42.631  30.957  36.985  1.00  0.00     0.029 A 
ATOM     53  N   UNL A   1      41.206  31.214  35.299  1.00  0.00    -0.354 N 
ATOM     54  N   UNL A   1      39.042  32.522  33.827  1.00  0.00    -0.248 NA
ATOM     55  C   UNL A   1      37.410  34.188  33.666  1.00  0.00     0.031 C 
ATOM     56  C   UNL A   1      41.784  32.030  37.282  1.00  0.00     0.029 A 
ATOM     57  C   UNL A   1      40.922  32.214  36.213  1.00  0.00     0.049 A 
ATOM     58  H   UNL A   1      40.739  31.082  34.442  1.00  0.00     0.167 HD
ATOM     59  C   UNL A   1      39.105  33.334  34.956  1.00  0.00     0.074 A 
ATOM     60  C   UNL A   1      38.104  34.368  34.781  1.00  0.00     0.031 C 
ATOM     61  C   UNL A   1      39.919  33.236  36.036  1.00  0.00     0.031 A 
BRANCH  48  62
ATOM     62  C   UNL A   1      43.866  28.477  35.766  1.00  0.00    -0.014 A 
ATOM     63  C   UNL A   1      43.555  27.403  36.621  1.00  0.00     0.010 A 
ATOM     64  C   UNL A   1      45.217  28.777  35.515  1.00  0.00     0.010 A 
ATOM     65  C   UNL A   1      44.573  26.677  37.247  1.00  0.00     0.020 A 
ATOM     66  C   UNL A   1      46.238  28.031  36.111  1.00  0.00     0.020 A 
ATOM     67  C   UNL A   1      45.908  26.997  36.987  1.00  0.00     0.054 A 
BRANCH  67  68
ATOM     68  S   UNL A   1      47.206  26.021  37.796  1.00  0.00     0.124 S 
ATOM     69  O   UNL A   1      46.536  24.739  38.000  1.00  0.00    -0.237 OA
ATOM     70  O   UNL A   1      48.273  26.020  36.799  1.00  0.00    -0.237 OA
ATOM     71  O   UNL A   1      47.497  26.772  39.016  1.00  0.00    -0.744 OA
ENDBRANCH  67  68
ENDBRANCH  48  62
BRANCH  49  72
ATOM     72  C   UNL A   1      36.511  33.300  31.026  1.00  0.00    -0.014 A 
ATOM     73  C   UNL A   1      36.733  33.955  29.800  1.00  0.00     0.010 A 
ATOM     74  C   UNL A   1      35.224  33.335  31.592  1.00  0.00     0.010 A 
ATOM     75  C   UNL A   1      35.696  34.649  29.168  1.00  0.00     0.020 A 
ATOM     76  C   UNL A   1      34.176  33.998  30.946  1.00  0.00     0.020 A 
ATOM     77  C   UNL A   1      34.423  34.663  29.744  1.00  0.00     0.054 A 
BRANCH  77  78
ATOM     78  S   UNL A   1      33.082  35.530  28.882  1.00  0.00     0.124 S 
ATOM     79  O   UNL A   1      33.816  36.506  28.083  1.00  0.00    -0.237 OA
ATOM     80  O   UNL A   1      32.441  34.451  28.135  1.00  0.00    -0.237 OA
ATOM     81  O   UNL A   1      32.280  36.087  29.970  1.00  0.00    -0.744 OA
ENDBRANCH  77  78
ENDBRANCH  49  72
BRANCH  61  82
ATOM     82  C   UNL A   1      39.802  34.307  37.092  1.00  0.00    -0.014 A 
ATOM     83  C   UNL A   1      38.998  34.136  38.234  1.00  0.00     0.010 A 
ATOM     84  C   UNL A   1      40.523  35.505  36.940  1.00  0.00     0.010 A 
ATOM     85  C   UNL A   1      38.870  35.167  39.169  1.00  0.00     0.020 A 
ATOM     86  C   UNL A   1      40.428  36.523  37.891  1.00  0.00     0.020 A 
ATOM     87  C   UNL A   1      39.581  36.358  38.988  1.00  0.00     0.054 A 
BRANCH  87  88
ATOM     88  S   UNL A   1      39.396  37.682  40.213  1.00  0.00     0.124 S 
ATOM     89  O   UNL A   1      40.712  38.314  40.178  1.00  0.00    -0.237 OA
ATOM     90  O   UNL A   1      38.302  38.477  39.664  1.00  0.00    -0.237 OA
ATOM     91  O   UNL A   1      39.080  36.968  41.449  1.00  0.00    -0.744 OA
ENDBRANCH  87  88
ENDBRANCH  61  82
ENDBRANCH  35  36
ENDBRANCH  27  30
ENDBRANCH  25  26
ENDBRANCH   1  25
TORSDOF 16
ENDMDL
MODEL 2
REMARK VINA RESULT:     -11.9      2.100      3.179
REMARK SMILES O=C(C[C@H]1C[C@H]2CC[C@@H](C1)[N@H+]2C[C@@H]1CNC(=O)O1)NCCCNC(=O)c1ccc(-c2c3nc(c(-c4ccc(S(=O)(=O)[O-])cc4)c4ccc([nH]4)c(-c4ccc(S(=O)(=O)[O-])cc4)c4nc(c(-c5ccc(S(=O)(=O)[O-])cc5)c5ccc2[nH]5)C=C4)C=C3)cc1
REMARK SMILES IDX 21 1 20 2 19 3 1 4 2 5 3 7 4 8 5 9 10 10 6 11 9 12 7 13
REMARK SMILES IDX 11 14 8 15 12 17 13 18 14 19 18 20 15 21 16 22 17 24 22 25
REMARK SMILES IDX 23 26 24 27 25 29 26 30 27 31 85 32 28 33 84 34 29 35 30 36
REMARK SMILES IDX 31 37 78 38 32 39 83 40 77 41 79 42 33 43 82 44 76 45 75 46
REMARK SMILES IDX 34 48 64 49 45 50 63 51 46 52 49 53 62 54 80 55 47 56 48 57
REMARK SMILES IDX 61 59 81 60 50 61 35 62 36 63 44 64 37 65 43 66 38 67 39 68
REMARK SMILES IDX 40 69 41 70 42 71 65 72 66 73 74 74 67 75 73 76 68 77 69 78
REMARK SMILES IDX 70 79 71 80 72 81 51 82 52 83 60 84 53 85 59 86 54 87 55 88
REMARK SMILES IDX 56 89 57 90 58 91
REMARK H PARENT 19 6 11 16 15 23 23 28 79 47 49 58
REMARK Flexibility Score: inf
ROOT
ATOM      1  C   UNL A   1      41.142  21.789  27.615  1.00  0.00     0.042 C 
ENDROOT
BRANCH   1   2
ATOM      2  C   UNL A   1      40.667  21.471  26.204  1.00  0.00     0.117 C 
BRANCH   2   3
ATOM      3  N   UNL A   1      39.224  21.349  26.138  1.00  0.00    -0.356 N 
ATOM      4  O   UNL A   1      38.789  23.605  26.102  1.00  0.00    -0.275 OA
ATOM      5  C   UNL A   1      38.419  22.448  25.934  1.00  0.00     0.220 C 
ATOM      6  H   UNL A   1      38.811  20.461  26.241  1.00  0.00     0.163 HD
BRANCH   5   7
ATOM      7  C   UNL A   1      37.086  22.089  25.297  1.00  0.00     0.104 C 
BRANCH   7   8
ATOM      8  C   UNL A   1      36.297  23.385  25.020  1.00  0.00     0.010 C 
ATOM      9  C   UNL A   1      35.777  23.494  23.561  1.00  0.00     0.069 C 
ATOM     10  C   UNL A   1      35.225  23.665  26.102  1.00  0.00     0.069 C 
ATOM     11  C   UNL A   1      34.276  23.361  23.373  1.00  0.00     0.184 C 
ATOM     12  C   UNL A   1      33.775  23.592  25.614  1.00  0.00     0.184 C 
ATOM     13  C   UNL A   1      33.805  21.965  23.810  1.00  0.00     0.071 C 
ATOM     14  N   UNL A   1      33.584  24.209  24.312  1.00  0.00    -0.327 N 
ATOM     15  C   UNL A   1      33.429  22.129  25.283  1.00  0.00     0.071 C 
ATOM     16  H   UNL A   1      32.586  24.261  24.110  1.00  0.00     0.348 HD
BRANCH  14  17
ATOM     17  C   UNL A   1      33.454  25.645  24.110  1.00  0.00     0.310 C 
BRANCH  17  18
ATOM     18  C   UNL A   1      33.065  26.457  22.840  1.00  0.00     0.252 C 
ATOM     19  C   UNL A   1      31.609  26.639  22.458  1.00  0.00     0.170 C 
ATOM     20  O   UNL A   1      33.719  25.999  21.646  1.00  0.00    -0.438 OA
ATOM     21  N   UNL A   1      31.530  25.999  21.191  1.00  0.00    -0.318 N 
ATOM     22  C   UNL A   1      32.771  25.715  20.708  1.00  0.00     0.407 C 
ATOM     23  H   UNL A   1      30.688  25.789  20.725  1.00  0.00     0.167 HD
ATOM     24  O   UNL A   1      33.007  25.257  19.601  1.00  0.00    -0.225 OA
ENDBRANCH  17  18
ENDBRANCH  14  17
ENDBRANCH   7   8
ENDBRANCH   5   7
ENDBRANCH   2   3
ENDBRANCH   1   2
BRANCH   1  25
ATOM     25  C   UNL A   1      41.830  23.146  27.756  1.00  0.00     0.118 C 
BRANCH  25  26
ATOM     26  N   UNL A   1      41.964  23.863  26.498  1.00  0.00    -0.352 N 
ATOM     27  C   UNL A   1      41.780  25.202  26.232  1.00  0.00     0.251 C 
ATOM     28  H   UNL A   1      42.226  23.311  25.725  1.00  0.00     0.163 HD
ATOM     29  O   UNL A   1      41.806  25.592  25.067  1.00  0.00    -0.269 OA
BRANCH  27  30
ATOM     30  C   UNL A   1      41.522  26.165  27.330  1.00  0.00     0.039 A 
ATOM     31  C   UNL A   1      40.397  25.980  28.138  1.00  0.00     0.014 A 
ATOM     32  C   UNL A   1      42.364  27.257  27.560  1.00  0.00     0.014 A 
ATOM     33  C   UNL A   1      40.150  26.852  29.203  1.00  0.00     0.010 A 
ATOM     34  C   UNL A   1      42.167  28.072  28.676  1.00  0.00     0.010 A 
ATOM     35  C   UNL A   1      41.048  27.890  29.504  1.00  0.00    -0.014 A 
BRANCH  35  36
ATOM     36  C   UNL A   1      40.813  28.792  30.666  1.00  0.00     0.031 A 
ATOM     37  C   UNL A   1      41.652  28.670  31.915  1.00  0.00     0.074 A 
ATOM     38  C   UNL A   1      39.829  29.714  30.613  1.00  0.00     0.049 A 
ATOM     39  N   UNL A   1      41.605  29.382  33.013  1.00  0.00    -0.248 NA
ATOM     40  C   UNL A   1      42.658  27.596  31.942  1.00  0.00     0.031 C 
ATOM     41  C   UNL A   1      38.913  29.912  29.486  1.00  0.00     0.029 A 
ATOM     42  N   UNL A   1      39.438  30.664  31.525  1.00  0.00    -0.354 N 
ATOM     43  C   UNL A   1      42.565  28.839  33.860  1.00  0.00     0.074 A 
ATOM     44  C   UNL A   1      43.134  27.700  33.175  1.00  0.00     0.031 C 
ATOM     45  C   UNL A   1      38.100  30.946  29.755  1.00  0.00     0.029 A 
ATOM     46  C   UNL A   1      38.403  31.459  31.088  1.00  0.00     0.049 A 
ATOM     47  H   UNL A   1      39.859  30.767  32.409  1.00  0.00     0.167 HD
ATOM     48  C   UNL A   1      42.960  29.262  35.087  1.00  0.00     0.031 A 
ATOM     49  C   UNL A   1      37.768  32.487  31.686  1.00  0.00     0.031 A 
ATOM     50  C   UNL A   1      42.395  30.396  35.770  1.00  0.00     0.049 A 
ATOM     51  C   UNL A   1      38.215  32.930  33.053  1.00  0.00     0.074 A 
ATOM     52  C   UNL A   1      42.758  30.931  36.995  1.00  0.00     0.029 A 
ATOM     53  N   UNL A   1      41.346  31.169  35.295  1.00  0.00    -0.354 N 
ATOM     54  N   UNL A   1      39.171  32.442  33.808  1.00  0.00    -0.248 NA
ATOM     55  C   UNL A   1      37.508  34.076  33.639  1.00  0.00     0.031 C 
ATOM     56  C   UNL A   1      41.887  31.985  37.289  1.00  0.00     0.029 A 
ATOM     57  C   UNL A   1      41.032  32.159  36.212  1.00  0.00     0.049 A 
ATOM     58  H   UNL A   1      40.890  31.033  34.433  1.00  0.00     0.167 HD
ATOM     59  C   UNL A   1      39.206  33.249  34.942  1.00  0.00     0.074 A 
ATOM     60  C   UNL A   1      38.187  34.264  34.763  1.00  0.00     0.031 C 
ATOM     61  C   UNL A   1      40.011  33.161  36.030  1.00  0.00     0.031 A 
BRANCH  48  62
ATOM     62  C   UNL A   1      44.054  28.483  35.776  1.00  0.00    -0.014 A 
ATOM     63  C   UNL A   1      43.759  27.369  36.584  1.00  0.00     0.010 A 
ATOM     64  C   UNL A   1      45.400  28.842  35.577  1.00  0.00     0.010 A 
ATOM     65  C   UNL A   1      44.784  26.660  37.216  1.00  0.00     0.020 A 
ATOM     66  C   UNL A   1      46.430  28.114  36.180  1.00  0.00     0.020 A 
ATOM     67  C   UNL A   1      46.114  27.038  37.011  1.00  0.00     0.054 A 
BRANCH  67  68
ATOM     68  S   UNL A   1      47.423  26.084  37.827  1.00  0.00     0.124 S 
ATOM     69  O   UNL A   1      48.543  27.020  37.792  1.00  0.00    -0.237 OA
ATOM     70  O   UNL A   1      46.856  25.831  39.149  1.00  0.00    -0.237 OA
ATOM     71  O   UNL A   1      47.573  24.903  36.978  1.00  0.00    -0.744 OA
ENDBRANCH  67  68
ENDBRANCH  48  62
BRANCH  49  72
ATOM     72  C   UNL A   1      36.654  33.186  30.985  1.00  0.00    -0.014 A 
ATOM     73  C   UNL A   1      35.325  33.044  31.423  1.00  0.00     0.010 A 
ATOM     74  C   UNL A   1      36.920  34.000  29.868  1.00  0.00     0.010 A 
ATOM     75  C   UNL A   1      34.281  33.682  30.744  1.00  0.00     0.020 A 
ATOM     76  C   UNL A   1      35.884  34.667  29.208  1.00  0.00     0.020 A 
ATOM     77  C   UNL A   1      34.569  34.493  29.642  1.00  0.00     0.054 A 
BRANCH  77  78
ATOM     78  S   UNL A   1      33.205  35.348  28.806  1.00  0.00     0.124 S 
ATOM     79  O   UNL A   1      33.916  36.316  27.977  1.00  0.00    -0.237 OA
ATOM     80  O   UNL A   1      32.545  34.261  28.089  1.00  0.00    -0.237 OA
ATOM     81  O   UNL A   1      32.431  35.917  29.908  1.00  0.00    -0.744 OA
ENDBRANCH  77  78
ENDBRANCH  49  72
BRANCH  61  82
ATOM     82  C   UNL A   1      39.862  34.223  37.091  1.00  0.00    -0.014 A 
ATOM     83  C   UNL A   1      39.017  34.046  38.202  1.00  0.00     0.010 A 
ATOM     84  C   UNL A   1      40.593  35.419  36.975  1.00  0.00     0.010 A 
ATOM     85  C   UNL A   1      38.861  35.070  39.142  1.00  0.00     0.020 A 
ATOM     86  C   UNL A   1      40.470  36.429  37.931  1.00  0.00     0.020 A 
ATOM     87  C   UNL A   1      39.584  36.259  38.996  1.00  0.00     0.054 A 
BRANCH  87  88
ATOM     88  S   UNL A   1      39.361  37.573  40.226  1.00  0.00     0.124 S 
ATOM     89  O   UNL A   1      38.273  38.352  39.644  1.00  0.00    -0.237 OA
ATOM     90  O   UNL A   1      39.024  36.826  41.435  1.00  0.00    -0.237 OA
ATOM     91  O   UNL A   1      40.660  38.242  40.256  1.00  0.00    -0.744 OA
ENDBRANCH  87  88
ENDBRANCH  61  82
ENDBRANCH  35  36
ENDBRANCH  27  30
ENDBRANCH  25  26
ENDBRANCH   1  25
TORSDOF 16
ENDMDL
MODEL 3
REMARK VINA RESULT:     -11.7      3.109      9.117
REMARK SMILES O=C(C[C@H]1C[C@H]2CC[C@@H](C1)[N@H+]2C[C@@H]1CNC(=O)O1)NCCCNC(=O)c1ccc(-c2c3nc(c(-c4ccc(S(=O)(=O)[O-])cc4)c4ccc([nH]4)c(-c4ccc(S(=O)(=O)[O-])cc4)c4nc(c(-c5ccc(S(=O)(=O)[O-])cc5)c5ccc2[nH]5)C=C4)C=C3)cc1
REMARK SMILES IDX 21 1 20 2 19 3 1 4 2 5 3 7 4 8 5 9 10 10 6 11 9 12 7 13
REMARK SMILES IDX 11 14 8 15 12 17 13 18 14 19 18 20 15 21 16 22 17 24 22 25
REMARK SMILES IDX 23 26 24 27 25 29 26 30 27 31 85 32 28 33 84 34 29 35 30 36
REMARK SMILES IDX 31 37 78 38 32 39 83 40 77 41 79 42 33 43 82 44 76 45 75 46
REMARK SMILES IDX 34 48 64 49 45 50 63 51 46 52 49 53 62 54 80 55 47 56 48 57
REMARK SMILES IDX 61 59 81 60 50 61 35 62 36 63 44 64 37 65 43 66 38 67 39 68
REMARK SMILES IDX 40 69 41 70 42 71 65 72 66 73 74 74 67 75 73 76 68 77 69 78
REMARK SMILES IDX 70 79 71 80 72 81 51 82 52 83 60 84 53 85 59 86 54 87 55 88
REMARK SMILES IDX 56 89 57 90 58 91
REMARK H PARENT 19 6 11 16 15 23 23 28 79 47 49 58
REMARK Flexibility Score: inf
ROOT
ATOM      1  C   UNL A   1      33.607  28.625  24.553  1.00  0.00     0.042 C 
ENDROOT
BRANCH   1   2
ATOM      2  C   UNL A   1      32.565  27.523  24.424  1.00  0.00     0.117 C 
BRANCH   2   3
ATOM      3  N   UNL A   1      33.100  26.232  24.809  1.00  0.00    -0.356 N 
ATOM      4  O   UNL A   1      33.753  25.597  22.700  1.00  0.00    -0.275 OA
ATOM      5  C   UNL A   1      33.794  25.446  23.916  1.00  0.00     0.220 C 
ATOM      6  H   UNL A   1      32.965  25.910  25.730  1.00  0.00     0.163 HD
BRANCH   5   7
ATOM      7  C   UNL A   1      34.763  24.496  24.599  1.00  0.00     0.104 C 
BRANCH   7   8
ATOM      8  C   UNL A   1      34.484  23.058  24.114  1.00  0.00     0.010 C 
ATOM      9  C   UNL A   1      35.559  22.032  24.564  1.00  0.00     0.069 C 
ATOM     10  C   UNL A   1      33.025  22.617  24.389  1.00  0.00     0.069 C 
ATOM     11  C   UNL A   1      35.123  21.022  25.612  1.00  0.00     0.184 C 
ATOM     12  C   UNL A   1      32.871  21.479  25.404  1.00  0.00     0.184 C 
ATOM     13  C   UNL A   1      34.752  21.737  26.920  1.00  0.00     0.071 C 
ATOM     14  N   UNL A   1      33.863  20.432  25.234  1.00  0.00    -0.327 N 
ATOM     15  C   UNL A   1      33.250  21.999  26.803  1.00  0.00     0.071 C 
ATOM     16  H   UNL A   1      33.622  19.643  25.833  1.00  0.00     0.348 HD
BRANCH  14  17
ATOM     17  C   UNL A   1      33.768  19.385  24.227  1.00  0.00     0.310 C 
BRANCH  17  18
ATOM     18  C   UNL A   1      33.307  17.903  24.348  1.00  0.00     0.252 C 
ATOM     19  C   UNL A   1      32.633  17.408  25.614  1.00  0.00     0.170 C 
ATOM     20  O   UNL A   1      34.349  16.954  24.072  1.00  0.00    -0.438 OA
ATOM     21  N   UNL A   1      33.531  16.409  26.082  1.00  0.00    -0.318 N 
ATOM     22  C   UNL A   1      34.464  16.108  25.136  1.00  0.00     0.407 C 
ATOM     23  H   UNL A   1      33.485  15.992  26.972  1.00  0.00     0.167 HD
ATOM     24  O   UNL A   1      35.297  15.220  25.228  1.00  0.00    -0.225 OA
ENDBRANCH  17  18
ENDBRANCH  14  17
ENDBRANCH   7   8
ENDBRANCH   5   7
ENDBRANCH   2   3
ENDBRANCH   1   2
BRANCH   1  25
ATOM     25  C   UNL A   1      34.077  28.880  25.985  1.00  0.00     0.118 C 
BRANCH  25  26
ATOM     26  N   UNL A   1      33.705  30.191  26.494  1.00  0.00    -0.352 N 
ATOM     27  C   UNL A   1      34.285  30.935  27.498  1.00  0.00     0.251 C 
ATOM     28  H   UNL A   1      32.926  30.606  26.057  1.00  0.00     0.163 HD
ATOM     29  O   UNL A   1      33.734  31.965  27.877  1.00  0.00    -0.269 OA
BRANCH  27  30
ATOM     30  C   UNL A   1      35.545  30.489  28.141  1.00  0.00     0.039 A 
ATOM     31  C   UNL A   1      36.760  30.967  27.643  1.00  0.00     0.014 A 
ATOM     32  C   UNL A   1      35.543  29.595  29.216  1.00  0.00     0.014 A 
ATOM     33  C   UNL A   1      37.961  30.591  28.254  1.00  0.00     0.010 A 
ATOM     34  C   UNL A   1      36.734  29.293  29.879  1.00  0.00     0.010 A 
ATOM     35  C   UNL A   1      37.961  29.775  29.398  1.00  0.00    -0.014 A 
BRANCH  35  36
ATOM     36  C   UNL A   1      39.236  29.412  30.079  1.00  0.00     0.031 A 
ATOM     37  C   UNL A   1      39.670  30.133  31.331  1.00  0.00     0.074 A 
ATOM     38  C   UNL A   1      40.020  28.444  29.562  1.00  0.00     0.049 A 
ATOM     39  N   UNL A   1      40.733  29.937  32.070  1.00  0.00    -0.248 NA
ATOM     40  C   UNL A   1      38.810  31.230  31.803  1.00  0.00     0.031 C 
ATOM     41  C   UNL A   1      39.746  27.696  28.333  1.00  0.00     0.029 A 
ATOM     42  N   UNL A   1      41.208  27.915  30.010  1.00  0.00    -0.354 N 
ATOM     43  C   UNL A   1      40.673  30.887  33.084  1.00  0.00     0.074 A 
ATOM     44  C   UNL A   1      39.504  31.699  32.830  1.00  0.00     0.031 C 
ATOM     45  C   UNL A   1      40.709  26.778  28.149  1.00  0.00     0.029 A 
ATOM     46  C   UNL A   1      41.694  26.898  29.221  1.00  0.00     0.049 A 
ATOM     47  H   UNL A   1      41.668  28.235  30.819  1.00  0.00     0.167 HD
ATOM     48  C   UNL A   1      41.499  31.055  34.147  1.00  0.00     0.031 A 
ATOM     49  C   UNL A   1      42.804  26.143  29.342  1.00  0.00     0.031 A 
ATOM     50  C   UNL A   1      42.663  30.247  34.401  1.00  0.00     0.049 A 
ATOM     51  C   UNL A   1      43.712  26.358  30.523  1.00  0.00     0.074 A 
ATOM     52  C   UNL A   1      43.536  30.310  35.474  1.00  0.00     0.029 A 
ATOM     53  N   UNL A   1      43.122  29.232  33.575  1.00  0.00    -0.354 N 
ATOM     54  N   UNL A   1      43.599  27.219  31.506  1.00  0.00    -0.248 NA
ATOM     55  C   UNL A   1      44.887  25.481  30.619  1.00  0.00     0.031 C 
ATOM     56  C   UNL A   1      44.558  29.379  35.264  1.00  0.00     0.029 A 
ATOM     57  C   UNL A   1      44.278  28.680  34.100  1.00  0.00     0.049 A 
ATOM     58  H   UNL A   1      42.690  28.947  32.737  1.00  0.00     0.167 HD
ATOM     59  C   UNL A   1      44.669  26.961  32.359  1.00  0.00     0.074 A 
ATOM     60  C   UNL A   1      45.404  25.853  31.783  1.00  0.00     0.031 C 
ATOM     61  C   UNL A   1      45.009  27.582  33.517  1.00  0.00     0.031 A 
BRANCH  48  62
ATOM     62  C   UNL A   1      41.174  32.169  35.113  1.00  0.00    -0.014 A 
ATOM     63  C   UNL A   1      40.343  31.949  36.227  1.00  0.00     0.010 A 
ATOM     64  C   UNL A   1      41.744  33.442  34.930  1.00  0.00     0.010 A 
ATOM     65  C   UNL A   1      40.051  32.992  37.111  1.00  0.00     0.020 A 
ATOM     66  C   UNL A   1      41.482  34.478  35.831  1.00  0.00     0.020 A 
ATOM     67  C   UNL A   1      40.622  34.251  36.906  1.00  0.00     0.054 A 
BRANCH  67  68
ATOM     68  S   UNL A   1      40.242  35.577  38.083  1.00  0.00     0.124 S 
ATOM     69  O   UNL A   1      41.510  35.721  38.793  1.00  0.00    -0.237 OA
ATOM     70  O   UNL A   1      39.884  36.689  37.206  1.00  0.00    -0.237 OA
ATOM     71  O   UNL A   1      39.142  35.033  38.878  1.00  0.00    -0.744 OA
ENDBRANCH  67  68
ENDBRANCH  48  62
BRANCH  49  72
ATOM     72  C   UNL A   1      43.108  25.094  28.328  1.00  0.00    -0.014 A 
ATOM     73  C   UNL A   1      43.885  25.391  27.193  1.00  0.00     0.010 A 
ATOM     74  C   UNL A   1      42.616  23.785  28.492  1.00  0.00     0.010 A 
ATOM     75  C   UNL A   1      44.144  24.409  26.232  1.00  0.00     0.020 A 
ATOM     76  C   UNL A   1      42.903  22.792  27.551  1.00  0.00     0.020 A 
ATOM     77  C   UNL A   1      43.653  23.114  26.420  1.00  0.00     0.054 A 
BRANCH  77  78
ATOM     78  S   UNL A   1      44.041  21.844  25.184  1.00  0.00     0.124 S 
ATOM     79  O   UNL A   1      43.879  22.578  23.932  1.00  0.00    -0.237 OA
ATOM     80  O   UNL A   1      45.412  21.477  25.531  1.00  0.00    -0.237 OA
ATOM     81  O   UNL A   1      43.044  20.806  25.434  1.00  0.00    -0.744 OA
ENDBRANCH  77  78
ENDBRANCH  49  72
BRANCH  61  82
ATOM     82  C   UNL A   1      46.200  27.041  34.269  1.00  0.00    -0.014 A 
ATOM     83  C   UNL A   1      47.500  27.532  34.048  1.00  0.00     0.010 A 
ATOM     84  C   UNL A   1      46.008  26.028  35.226  1.00  0.00     0.010 A 
ATOM     85  C   UNL A   1      48.590  26.975  34.723  1.00  0.00     0.020 A 
ATOM     86  C   UNL A   1      47.089  25.496  35.931  1.00  0.00     0.020 A 
ATOM     87  C   UNL A   1      48.377  25.955  35.656  1.00  0.00     0.054 A 
BRANCH  87  88
ATOM     88  S   UNL A   1      49.808  25.247  36.518  1.00  0.00     0.124 S 
ATOM     89  O   UNL A   1      50.261  24.233  35.571  1.00  0.00    -0.237 OA
ATOM     90  O   UNL A   1      50.690  26.400  36.675  1.00  0.00    -0.237 OA
ATOM     91  O   UNL A   1      49.242  24.730  37.762  1.00  0.00    -0.744 OA
ENDBRANCH  87  88
ENDBRANCH  61  82
ENDBRANCH  35  36
ENDBRANCH  27  30
ENDBRANCH  25  26
ENDBRANCH   1  25
TORSDOF 16
ENDMDL
