MODEL 1
REMARK VINA RESULT:     -11.4      0.000      0.000
REMARK SMILES CC(C)C[C@H](C(=O)NCCCNC(=O)c1ccc(-c2c3nc(c(-c4ccc(S(=O)(=O)[O-])cc4)c4ccc([nH]4)c(-c4ccc(S(=O)(=O)[O-])cc4)c4nc(c(-c5ccc(S(=O)(=O)[O-])cc5)c5ccc2[nH]5)C=C4)C=C3)cc1)N1C(=O)/C(=C2\C(=O)Nc3ccc(Br)cc32)SC1=S
REMARK SMILES IDX 10 1 9 2 8 3 6 4 7 5 5 7 4 8 2 9 1 10 3 11 75 12 76 13 91 14
REMARK SMILES IDX 77 15 78 16 90 17 92 18 79 19 80 20 89 21 81 22 82 23 83 24
REMARK SMILES IDX 88 25 84 27 86 28 85 29 87 30 11 31 12 32 13 33 14 35 15 36
REMARK SMILES IDX 16 37 74 38 17 39 73 40 18 41 19 42 20 43 67 44 21 45 72 46
REMARK SMILES IDX 66 47 68 48 22 49 71 50 65 51 64 52 23 54 53 55 34 56 52 57
REMARK SMILES IDX 35 58 38 59 51 60 69 61 36 62 37 63 50 65 70 66 39 67 24 68
REMARK SMILES IDX 25 69 33 70 26 71 32 72 27 73 28 74 29 75 30 76 31 77 54 78
REMARK SMILES IDX 55 79 63 80 56 81 62 82 57 83 58 84 59 85 60 86 61 87 40 88
REMARK SMILES IDX 41 89 49 90 42 91 48 92 43 93 44 94 45 95 46 96 47 97
REMARK H PARENT 8 6 82 26 12 34 68 53 38 64
REMARK Flexibility Score: inf
ROOT
ATOM      1  C   UNL A   1      38.143  22.758  25.867  1.00  0.00     0.042 C 
ENDROOT
BRANCH   1   2
ATOM      2  C   UNL A   1      36.755  23.178  25.379  1.00  0.00     0.117 C 
BRANCH   2   3
ATOM      3  N   UNL A   1      35.776  23.013  26.444  1.00  0.00    -0.354 N 
ATOM      4  C   UNL A   1      34.408  23.084  26.353  1.00  0.00     0.243 C 
ATOM      5  O   UNL A   1      33.820  23.589  27.308  1.00  0.00    -0.273 OA
ATOM      6  H   UNL A   1      36.139  22.826  27.339  1.00  0.00     0.163 HD
BRANCH   4   7
ATOM      7  C   UNL A   1      33.684  22.495  25.124  1.00  0.00     0.181 C 
BRANCH   7   8
ATOM      8  C   UNL A   1      33.291  20.992  25.272  1.00  0.00     0.038 C 
BRANCH   8   9
ATOM      9  C   UNL A   1      33.627  19.977  24.151  1.00  0.00    -0.015 C 
ATOM     10  C   UNL A   1      34.473  18.791  24.614  1.00  0.00     0.007 C 
ATOM     11  C   UNL A   1      32.318  19.417  23.573  1.00  0.00     0.007 C 
ENDBRANCH   8   9
ENDBRANCH   7   8
BRANCH   7  12
ATOM     12  N   UNL A   1      32.589  23.351  24.609  1.00  0.00    -0.280 N 
ATOM     13  C   UNL A   1      32.813  24.238  23.573  1.00  0.00     0.267 C 
ATOM     14  C   UNL A   1      31.281  23.317  25.056  1.00  0.00     0.149 C 
ATOM     15  O   UNL A   1      33.710  24.193  22.752  1.00  0.00    -0.268 OA
ATOM     16  C   UNL A   1      31.701  25.223  23.496  1.00  0.00     0.093 C 
ATOM     17  S   UNL A   1      30.303  24.459  24.140  1.00  0.00    -0.053 SA
ATOM     18  S   UNL A   1      30.611  22.447  26.310  1.00  0.00    -0.052 S 
ATOM     19  C   UNL A   1      31.811  26.495  23.096  1.00  0.00     0.069 C 
ATOM     20  C   UNL A   1      33.140  27.153  22.803  1.00  0.00     0.257 C 
ATOM     21  C   UNL A   1      30.783  27.534  22.894  1.00  0.00     0.013 A 
ATOM     22  O   UNL A   1      34.260  26.778  23.084  1.00  0.00    -0.269 OA
ATOM     23  N   UNL A   1      32.823  28.403  22.300  1.00  0.00    -0.321 N 
ATOM     24  C   UNL A   1      31.458  28.644  22.366  1.00  0.00     0.049 A 
ATOM     25  C   UNL A   1      29.419  27.613  23.121  1.00  0.00     0.026 A 
ATOM     26  H   UNL A   1      33.482  29.040  21.940  1.00  0.00     0.170 HD
ATOM     27  C   UNL A   1      30.825  29.823  22.026  1.00  0.00     0.028 A 
ATOM     28  C   UNL A   1      28.762  28.807  22.800  1.00  0.00     0.018 A 
ATOM     29  C   UNL A   1      29.451  29.899  22.248  1.00  0.00     0.018 A 
ATOM     30  Br  UNL A   1      26.906  28.964  23.138  1.00  0.00    -0.051 Br
ENDBRANCH   7  12
ENDBRANCH   4   7
ENDBRANCH   2   3
ENDBRANCH   1   2
BRANCH   1  31
ATOM     31  C   UNL A   1      38.916  23.893  26.533  1.00  0.00     0.118 C 
BRANCH  31  32
ATOM     32  N   UNL A   1      40.288  23.965  26.056  1.00  0.00    -0.352 N 
ATOM     33  C   UNL A   1      41.270  24.884  26.336  1.00  0.00     0.251 C 
ATOM     34  H   UNL A   1      40.553  23.246  25.438  1.00  0.00     0.163 HD
ATOM     35  O   UNL A   1      42.290  24.890  25.650  1.00  0.00    -0.269 OA
BRANCH  33  36
ATOM     36  C   UNL A   1      41.111  25.868  27.434  1.00  0.00     0.039 A 
ATOM     37  C   UNL A   1      40.092  25.668  28.370  1.00  0.00     0.014 A 
ATOM     38  C   UNL A   1      41.914  27.010  27.521  1.00  0.00     0.014 A 
ATOM     39  C   UNL A   1      39.908  26.583  29.412  1.00  0.00     0.010 A 
ATOM     40  C   UNL A   1      41.778  27.882  28.602  1.00  0.00     0.010 A 
ATOM     41  C   UNL A   1      40.765  27.686  29.553  1.00  0.00    -0.014 A 
BRANCH  41  42
ATOM     42  C   UNL A   1      40.603  28.644  30.680  1.00  0.00     0.031 A 
ATOM     43  C   UNL A   1      41.447  28.514  31.922  1.00  0.00     0.074 A 
ATOM     44  C   UNL A   1      39.667  29.612  30.606  1.00  0.00     0.049 A 
ATOM     45  N   UNL A   1      41.424  29.236  33.015  1.00  0.00    -0.248 NA
ATOM     46  C   UNL A   1      42.429  27.418  31.950  1.00  0.00     0.031 C 
ATOM     47  C   UNL A   1      38.753  29.822  29.481  1.00  0.00     0.029 A 
ATOM     48  N   UNL A   1      39.329  30.601  31.497  1.00  0.00    -0.354 N 
ATOM     49  C   UNL A   1      42.374  28.675  33.861  1.00  0.00     0.074 A 
ATOM     50  C   UNL A   1      42.919  27.522  33.176  1.00  0.00     0.031 C 
ATOM     51  C   UNL A   1      37.976  30.887  29.739  1.00  0.00     0.029 A 
ATOM     52  C   UNL A   1      38.311  31.415  31.058  1.00  0.00     0.049 A 
ATOM     53  H   UNL A   1      39.773  30.716  32.367  1.00  0.00     0.167 HD
ATOM     54  C   UNL A   1      42.775  29.090  35.088  1.00  0.00     0.031 A 
ATOM     55  C   UNL A   1      37.710  32.467  31.648  1.00  0.00     0.031 A 
ATOM     56  C   UNL A   1      42.243  30.242  35.766  1.00  0.00     0.049 A 
ATOM     57  C   UNL A   1      38.180  32.916  33.004  1.00  0.00     0.074 A 
ATOM     58  C   UNL A   1      42.614  30.767  36.992  1.00  0.00     0.029 A 
ATOM     59  N   UNL A   1      41.230  31.053  35.276  1.00  0.00    -0.354 N 
ATOM     60  N   UNL A   1      39.118  32.403  33.763  1.00  0.00    -0.248 NA
ATOM     61  C   UNL A   1      37.520  34.100  33.575  1.00  0.00     0.031 C 
ATOM     62  C   UNL A   1      41.799  31.872  37.261  1.00  0.00     0.029 A 
ATOM     63  C   UNL A   1      40.954  32.065  36.179  1.00  0.00     0.049 A 
ATOM     64  H   UNL A   1      40.774  30.925  34.414  1.00  0.00     0.167 HD
ATOM     65  C   UNL A   1      39.175  33.213  34.893  1.00  0.00     0.074 A 
ATOM     66  C   UNL A   1      38.191  34.260  34.707  1.00  0.00     0.031 C 
ATOM     67  C   UNL A   1      39.970  33.099  35.985  1.00  0.00     0.031 A 
BRANCH  54  68
ATOM     68  C   UNL A   1      43.851  28.288  35.773  1.00  0.00    -0.014 A 
ATOM     69  C   UNL A   1      43.524  27.310  36.730  1.00  0.00     0.010 A 
ATOM     70  C   UNL A   1      45.201  28.489  35.434  1.00  0.00     0.010 A 
ATOM     71  C   UNL A   1      44.530  26.580  37.369  1.00  0.00     0.020 A 
ATOM     72  C   UNL A   1      46.209  27.741  36.051  1.00  0.00     0.020 A 
ATOM     73  C   UNL A   1      45.867  26.805  37.030  1.00  0.00     0.054 A 
BRANCH  73  74
ATOM     74  S   UNL A   1      47.151  25.833  37.864  1.00  0.00     0.124 S 
ATOM     75  O   UNL A   1      47.264  24.670  36.987  1.00  0.00    -0.237 OA
ATOM     76  O   UNL A   1      48.298  26.738  37.855  1.00  0.00    -0.237 OA
ATOM     77  O   UNL A   1      46.582  25.565  39.183  1.00  0.00    -0.744 OA
ENDBRANCH  73  74
ENDBRANCH  54  68
BRANCH  55  78
ATOM     78  C   UNL A   1      36.608  33.179  30.947  1.00  0.00    -0.014 A 
ATOM     79  C   UNL A   1      35.299  33.152  31.459  1.00  0.00     0.010 A 
ATOM     80  C   UNL A   1      36.867  33.902  29.769  1.00  0.00     0.010 A 
ATOM     81  C   UNL A   1      34.264  33.818  30.795  1.00  0.00     0.020 A 
ATOM     82  C   UNL A   1      35.841  34.591  29.116  1.00  0.00     0.020 A 
ATOM     83  C   UNL A   1      34.543  34.535  29.627  1.00  0.00     0.054 A 
BRANCH  83  84
ATOM     84  S   UNL A   1      33.197  35.437  28.809  1.00  0.00     0.124 S 
ATOM     85  O   UNL A   1      33.927  36.460  28.067  1.00  0.00    -0.237 OA
ATOM     86  O   UNL A   1      32.564  34.397  28.002  1.00  0.00    -0.237 OA
ATOM     87  O   UNL A   1      32.389  35.926  29.924  1.00  0.00    -0.744 OA
ENDBRANCH  83  84
ENDBRANCH  55  78
BRANCH  67  88
ATOM     88  C   UNL A   1      39.830  34.151  37.052  1.00  0.00    -0.014 A 
ATOM     89  C   UNL A   1      40.547  35.358  36.983  1.00  0.00     0.010 A 
ATOM     90  C   UNL A   1      38.937  33.943  38.120  1.00  0.00     0.010 A 
ATOM     91  C   UNL A   1      40.404  36.323  37.985  1.00  0.00     0.020 A 
ATOM     92  C   UNL A   1      38.772  34.916  39.108  1.00  0.00     0.020 A 
ATOM     93  C   UNL A   1      39.520  36.094  39.043  1.00  0.00     0.054 A 
BRANCH  93  94
ATOM     94  S   UNL A   1      39.328  37.372  40.315  1.00  0.00     0.124 S 
ATOM     95  O   UNL A   1      38.576  38.400  39.602  1.00  0.00    -0.237 OA
ATOM     96  O   UNL A   1      38.593  36.672  41.367  1.00  0.00    -0.237 OA
ATOM     97  O   UNL A   1      40.703  37.729  40.658  1.00  0.00    -0.744 OA
ENDBRANCH  93  94
ENDBRANCH  67  88
ENDBRANCH  41  42
ENDBRANCH  33  36
ENDBRANCH  31  32
ENDBRANCH   1  31
TORSDOF 16
ENDMDL
MODEL 2
REMARK VINA RESULT:     -11.4      3.190      9.556
REMARK SMILES CC(C)C[C@H](C(=O)NCCCNC(=O)c1ccc(-c2c3nc(c(-c4ccc(S(=O)(=O)[O-])cc4)c4ccc([nH]4)c(-c4ccc(S(=O)(=O)[O-])cc4)c4nc(c(-c5ccc(S(=O)(=O)[O-])cc5)c5ccc2[nH]5)C=C4)C=C3)cc1)N1C(=O)/C(=C2\C(=O)Nc3ccc(Br)cc32)SC1=S
REMARK SMILES IDX 10 1 9 2 8 3 6 4 7 5 5 7 4 8 2 9 1 10 3 11 75 12 76 13 91 14
REMARK SMILES IDX 77 15 78 16 90 17 92 18 79 19 80 20 89 21 81 22 82 23 83 24
REMARK SMILES IDX 88 25 84 27 86 28 85 29 87 30 11 31 12 32 13 33 14 35 15 36
REMARK SMILES IDX 16 37 74 38 17 39 73 40 18 41 19 42 20 43 67 44 21 45 72 46
REMARK SMILES IDX 66 47 68 48 22 49 71 50 65 51 64 52 23 54 53 55 34 56 52 57
REMARK SMILES IDX 35 58 38 59 51 60 69 61 36 62 37 63 50 65 70 66 39 67 24 68
REMARK SMILES IDX 25 69 33 70 26 71 32 72 27 73 28 74 29 75 30 76 31 77 54 78
REMARK SMILES IDX 55 79 63 80 56 81 62 82 57 83 58 84 59 85 60 86 61 87 40 88
REMARK SMILES IDX 41 89 49 90 42 91 48 92 43 93 44 94 45 95 46 96 47 97
REMARK H PARENT 8 6 82 26 12 34 68 53 38 64
REMARK Flexibility Score: inf
ROOT
ATOM      1  C   UNL A   1      33.302  28.208  27.247  1.00  0.00     0.042 C 
ENDROOT
BRANCH   1   2
ATOM      2  C   UNL A   1      31.952  27.875  26.608  1.00  0.00     0.117 C 
BRANCH   2   3
ATOM      3  N   UNL A   1      31.274  29.098  26.201  1.00  0.00    -0.354 N 
ATOM      4  C   UNL A   1      30.963  29.508  24.929  1.00  0.00     0.243 C 
ATOM      5  O   UNL A   1      31.047  30.714  24.705  1.00  0.00    -0.273 OA
ATOM      6  H   UNL A   1      31.004  29.705  26.928  1.00  0.00     0.163 HD
BRANCH   4   7
ATOM      7  C   UNL A   1      30.481  28.481  23.883  1.00  0.00     0.181 C 
BRANCH   7   8
ATOM      8  C   UNL A   1      30.019  29.111  22.532  1.00  0.00     0.038 C 
BRANCH   8   9
ATOM      9  C   UNL A   1      28.525  29.437  22.286  1.00  0.00    -0.015 C 
ATOM     10  C   UNL A   1      27.555  28.591  23.111  1.00  0.00     0.007 C 
ATOM     11  C   UNL A   1      28.269  30.912  22.635  1.00  0.00     0.007 C 
ENDBRANCH   8   9
ENDBRANCH   7   8
BRANCH   7  12
ATOM     12  N   UNL A   1      31.391  27.321  23.721  1.00  0.00    -0.280 N 
ATOM     13  C   UNL A   1      30.977  26.046  24.057  1.00  0.00     0.267 C 
ATOM     14  C   UNL A   1      32.668  27.386  23.196  1.00  0.00     0.149 C 
ATOM     15  O   UNL A   1      29.830  25.650  24.151  1.00  0.00    -0.268 OA
ATOM     16  C   UNL A   1      32.153  25.142  24.167  1.00  0.00     0.093 C 
ATOM     17  S   UNL A   1      33.376  25.774  23.139  1.00  0.00    -0.053 SA
ATOM     18  S   UNL A   1      33.558  28.716  22.729  1.00  0.00    -0.052 S 
ATOM     19  C   UNL A   1      32.259  24.096  24.996  1.00  0.00     0.069 C 
ATOM     20  C   UNL A   1      31.231  23.781  26.058  1.00  0.00     0.257 C 
ATOM     21  C   UNL A   1      33.322  23.083  25.137  1.00  0.00     0.013 A 
ATOM     22  O   UNL A   1      30.335  24.477  26.488  1.00  0.00    -0.269 OA
ATOM     23  N   UNL A   1      31.631  22.572  26.601  1.00  0.00    -0.321 N 
ATOM     24  C   UNL A   1      32.854  22.167  26.089  1.00  0.00     0.049 A 
ATOM     25  C   UNL A   1      34.574  22.898  24.572  1.00  0.00     0.026 A 
ATOM     26  H   UNL A   1      31.112  22.065  27.267  1.00  0.00     0.170 HD
ATOM     27  C   UNL A   1      33.569  21.053  26.483  1.00  0.00     0.028 A 
ATOM     28  C   UNL A   1      35.323  21.784  24.973  1.00  0.00     0.018 A 
ATOM     29  C   UNL A   1      34.826  20.863  25.909  1.00  0.00     0.018 A 
ATOM     30  Br  UNL A   1      37.054  21.525  24.254  1.00  0.00    -0.051 Br
ENDBRANCH   7  12
ENDBRANCH   4   7
ENDBRANCH   2   3
ENDBRANCH   1   2
BRANCH   1  31
ATOM     31  C   UNL A   1      34.148  29.159  26.406  1.00  0.00     0.118 C 
BRANCH  31  32
ATOM     32  N   UNL A   1      33.939  30.548  26.784  1.00  0.00    -0.352 N 
ATOM     33  C   UNL A   1      34.565  31.303  27.746  1.00  0.00     0.251 C 
ATOM     34  H   UNL A   1      33.241  31.019  26.273  1.00  0.00     0.163 HD
ATOM     35  O   UNL A   1      34.081  32.389  28.057  1.00  0.00    -0.269 OA
BRANCH  33  36
ATOM     36  C   UNL A   1      35.798  30.823  28.416  1.00  0.00     0.039 A 
ATOM     37  C   UNL A   1      37.014  31.440  28.103  1.00  0.00     0.014 A 
ATOM     38  C   UNL A   1      35.781  29.741  29.301  1.00  0.00     0.014 A 
ATOM     39  C   UNL A   1      38.197  31.005  28.709  1.00  0.00     0.010 A 
ATOM     40  C   UNL A   1      36.950  29.357  29.961  1.00  0.00     0.010 A 
ATOM     41  C   UNL A   1      38.173  29.976  29.664  1.00  0.00    -0.014 A 
BRANCH  41  42
ATOM     42  C   UNL A   1      39.420  29.531  30.343  1.00  0.00     0.031 A 
ATOM     43  C   UNL A   1      39.902  30.228  31.589  1.00  0.00     0.074 A 
ATOM     44  C   UNL A   1      40.145  28.522  29.818  1.00  0.00     0.049 A 
ATOM     45  N   UNL A   1      40.980  30.000  32.298  1.00  0.00    -0.248 NA
ATOM     46  C   UNL A   1      39.080  31.340  32.093  1.00  0.00     0.031 C 
ATOM     47  C   UNL A   1      39.817  27.792  28.591  1.00  0.00     0.029 A 
ATOM     48  N   UNL A   1      41.311  27.939  30.249  1.00  0.00    -0.354 N 
ATOM     49  C   UNL A   1      40.971  30.944  33.318  1.00  0.00     0.074 A 
ATOM     50  C   UNL A   1      39.809  31.781  33.107  1.00  0.00     0.031 C 
ATOM     51  C   UNL A   1      40.744  26.843  28.383  1.00  0.00     0.029 A 
ATOM     52  C   UNL A   1      41.750  26.918  29.438  1.00  0.00     0.049 A 
ATOM     53  H   UNL A   1      41.788  28.224  31.060  1.00  0.00     0.167 HD
ATOM     54  C   UNL A   1      41.837  31.093  34.351  1.00  0.00     0.031 A 
ATOM     55  C   UNL A   1      42.839  26.131  29.528  1.00  0.00     0.031 A 
ATOM     56  C   UNL A   1      42.986  30.255  34.570  1.00  0.00     0.049 A 
ATOM     57  C   UNL A   1      43.779  26.306  30.689  1.00  0.00     0.074 A 
ATOM     58  C   UNL A   1      43.899  30.300  35.611  1.00  0.00     0.029 A 
ATOM     59  N   UNL A   1      43.382  29.218  33.738  1.00  0.00    -0.354 N 
ATOM     60  N   UNL A   1      43.722  27.170  31.673  1.00  0.00    -0.248 NA
ATOM     61  C   UNL A   1      44.923  25.384  30.760  1.00  0.00     0.031 C 
ATOM     62  C   UNL A   1      44.867  29.315  35.387  1.00  0.00     0.029 A 
ATOM     63  C   UNL A   1      44.529  28.624  34.235  1.00  0.00     0.049 A 
ATOM     64  H   UNL A   1      42.914  28.946  32.916  1.00  0.00     0.167 HD
ATOM     65  C   UNL A   1      44.810  26.885  32.492  1.00  0.00     0.074 A 
ATOM     66  C   UNL A   1      45.494  25.755  31.898  1.00  0.00     0.031 C 
ATOM     67  C   UNL A   1      45.204  27.503  33.632  1.00  0.00     0.031 A 
BRANCH  54  68
ATOM     68  C   UNL A   1      41.563  32.206  35.330  1.00  0.00    -0.014 A 
ATOM     69  C   UNL A   1      42.059  33.503  35.104  1.00  0.00     0.010 A 
ATOM     70  C   UNL A   1      40.777  31.963  36.469  1.00  0.00     0.010 A 
ATOM     71  C   UNL A   1      41.811  34.526  36.022  1.00  0.00     0.020 A 
ATOM     72  C   UNL A   1      40.503  32.991  37.378  1.00  0.00     0.020 A 
ATOM     73  C   UNL A   1      41.039  34.262  37.158  1.00  0.00     0.054 A 
BRANCH  73  74
ATOM     74  S   UNL A   1      40.720  35.612  38.326  1.00  0.00     0.124 S 
ATOM     75  O   UNL A   1      42.061  35.888  38.837  1.00  0.00    -0.237 OA
ATOM     76  O   UNL A   1      40.149  36.650  37.471  1.00  0.00    -0.237 OA
ATOM     77  O   UNL A   1      39.795  35.024  39.291  1.00  0.00    -0.744 OA
ENDBRANCH  73  74
ENDBRANCH  54  68
BRANCH  55  78
ATOM     78  C   UNL A   1      43.090  25.090  28.494  1.00  0.00    -0.014 A 
ATOM     79  C   UNL A   1      43.819  25.397  27.333  1.00  0.00     0.010 A 
ATOM     80  C   UNL A   1      42.609  23.781  28.676  1.00  0.00     0.010 A 
ATOM     81  C   UNL A   1      44.047  24.417  26.361  1.00  0.00     0.020 A 
ATOM     82  C   UNL A   1      42.857  22.792  27.719  1.00  0.00     0.020 A 
ATOM     83  C   UNL A   1      43.565  23.121  26.561  1.00  0.00     0.054 A 
BRANCH  83  84
ATOM     84  S   UNL A   1      43.917  21.851  25.313  1.00  0.00     0.124 S 
ATOM     85  O   UNL A   1      42.863  20.874  25.570  1.00  0.00    -0.237 OA
ATOM     86  O   UNL A   1      43.801  22.595  24.062  1.00  0.00    -0.237 OA
ATOM     87  O   UNL A   1      45.272  21.415  25.645  1.00  0.00    -0.744 OA
ENDBRANCH  83  84
ENDBRANCH  55  78
BRANCH  67  88
ATOM     88  C   UNL A   1      46.419  26.952  34.329  1.00  0.00    -0.014 A 
ATOM     89  C   UNL A   1      47.707  27.434  34.039  1.00  0.00     0.010 A 
ATOM     90  C   UNL A   1      46.263  25.963  35.318  1.00  0.00     0.010 A 
ATOM     91  C   UNL A   1      48.823  26.909  34.698  1.00  0.00     0.020 A 
ATOM     92  C   UNL A   1      47.373  25.454  35.996  1.00  0.00     0.020 A 
ATOM     93  C   UNL A   1      48.649  25.920  35.669  1.00  0.00     0.054 A 
BRANCH  93  94
ATOM     94  S   UNL A   1      50.108  25.274  36.533  1.00  0.00     0.124 S 
ATOM     95  O   UNL A   1      51.123  26.267  36.197  1.00  0.00    -0.237 OA
ATOM     96  O   UNL A   1      49.677  25.263  37.929  1.00  0.00    -0.237 OA
ATOM     97  O   UNL A   1      50.305  23.953  35.938  1.00  0.00    -0.744 OA
ENDBRANCH  93  94
ENDBRANCH  67  88
ENDBRANCH  41  42
ENDBRANCH  33  36
ENDBRANCH  31  32
ENDBRANCH   1  31
TORSDOF 16
ENDMDL
MODEL 3
REMARK VINA RESULT:     -11.2      6.273     12.064
REMARK SMILES CC(C)C[C@H](C(=O)NCCCNC(=O)c1ccc(-c2c3nc(c(-c4ccc(S(=O)(=O)[O-])cc4)c4ccc([nH]4)c(-c4ccc(S(=O)(=O)[O-])cc4)c4nc(c(-c5ccc(S(=O)(=O)[O-])cc5)c5ccc2[nH]5)C=C4)C=C3)cc1)N1C(=O)/C(=C2\C(=O)Nc3ccc(Br)cc32)SC1=S
REMARK SMILES IDX 10 1 9 2 8 3 6 4 7 5 5 7 4 8 2 9 1 10 3 11 75 12 76 13 91 14
REMARK SMILES IDX 77 15 78 16 90 17 92 18 79 19 80 20 89 21 81 22 82 23 83 24
REMARK SMILES IDX 88 25 84 27 86 28 85 29 87 30 11 31 12 32 13 33 14 35 15 36
REMARK SMILES IDX 16 37 74 38 17 39 73 40 18 41 19 42 20 43 67 44 21 45 72 46
REMARK SMILES IDX 66 47 68 48 22 49 71 50 65 51 64 52 23 54 53 55 34 56 52 57
REMARK SMILES IDX 35 58 38 59 51 60 69 61 36 62 37 63 50 65 70 66 39 67 24 68
REMARK SMILES IDX 25 69 33 70 26 71 32 72 27 73 28 74 29 75 30 76 31 77 54 78
REMARK SMILES IDX 55 79 63 80 56 81 62 82 57 83 58 84 59 85 60 86 61 87 40 88
REMARK SMILES IDX 41 89 49 90 42 91 48 92 43 93 44 94 45 95 46 96 47 97
REMARK H PARENT 8 6 82 26 12 34 68 53 38 64
REMARK Flexibility Score: inf
ROOT
ATOM      1  C   UNL A   1      34.089  30.277  27.361  1.00  0.00     0.042 C 
ENDROOT
BRANCH   1   2
ATOM      2  C   UNL A   1      33.228  29.092  26.920  1.00  0.00     0.117 C 
BRANCH   2   3
ATOM      3  N   UNL A   1      33.575  28.697  25.562  1.00  0.00    -0.354 N 
ATOM      4  C   UNL A   1      33.183  27.572  24.882  1.00  0.00     0.243 C 
ATOM      5  O   UNL A   1      34.013  27.066  24.131  1.00  0.00    -0.273 OA
ATOM      6  H   UNL A   1      34.164  29.314  25.070  1.00  0.00     0.163 HD
BRANCH   4   7
ATOM      7  C   UNL A   1      31.743  27.038  25.040  1.00  0.00     0.181 C 
BRANCH   7   8
ATOM      8  C   UNL A   1      30.642  27.992  24.481  1.00  0.00     0.038 C 
BRANCH   8   9
ATOM      9  C   UNL A   1      31.024  29.364  23.871  1.00  0.00    -0.015 C 
ATOM     10  C   UNL A   1      31.673  29.275  22.489  1.00  0.00     0.007 C 
ATOM     11  C   UNL A   1      29.757  30.224  23.736  1.00  0.00     0.007 C 
ENDBRANCH   8   9
ENDBRANCH   7   8
BRANCH   7  12
ATOM     12  N   UNL A   1      31.579  25.626  24.619  1.00  0.00    -0.280 N 
ATOM     13  C   UNL A   1      31.506  24.613  25.556  1.00  0.00     0.267 C 
ATOM     14  C   UNL A   1      31.440  25.202  23.310  1.00  0.00     0.149 C 
ATOM     15  O   UNL A   1      31.202  24.722  26.729  1.00  0.00    -0.268 OA
ATOM     16  C   UNL A   1      31.725  23.296  24.900  1.00  0.00     0.093 C 
ATOM     17  S   UNL A   1      31.222  23.455  23.265  1.00  0.00    -0.053 SA
ATOM     18  S   UNL A   1      31.529  26.079  21.896  1.00  0.00    -0.052 S 
ATOM     19  C   UNL A   1      32.302  22.228  25.465  1.00  0.00     0.069 C 
ATOM     20  C   UNL A   1      32.957  22.272  26.826  1.00  0.00     0.257 C 
ATOM     21  C   UNL A   1      32.496  20.857  24.957  1.00  0.00     0.013 A 
ATOM     22  O   UNL A   1      33.276  23.234  27.493  1.00  0.00    -0.269 OA
ATOM     23  N   UNL A   1      33.310  20.962  27.100  1.00  0.00    -0.321 N 
ATOM     24  C   UNL A   1      33.065  20.134  26.014  1.00  0.00     0.049 A 
ATOM     25  C   UNL A   1      32.258  20.221  23.749  1.00  0.00     0.026 A 
ATOM     26  H   UNL A   1      33.686  20.656  27.957  1.00  0.00     0.170 HD
ATOM     27  C   UNL A   1      33.382  18.792  25.930  1.00  0.00     0.028 A 
ATOM     28  C   UNL A   1      32.590  18.865  23.637  1.00  0.00     0.018 A 
ATOM     29  C   UNL A   1      33.136  18.152  24.717  1.00  0.00     0.018 A 
ATOM     30  Br  UNL A   1      32.319  17.978  21.988  1.00  0.00    -0.051 Br
ENDBRANCH   7  12
ENDBRANCH   4   7
ENDBRANCH   2   3
ENDBRANCH   1   2
BRANCH   1  31
ATOM     31  C   UNL A   1      35.420  29.858  27.979  1.00  0.00     0.118 C 
BRANCH  31  32
ATOM     32  N   UNL A   1      35.472  30.152  29.402  1.00  0.00    -0.352 N 
ATOM     33  C   UNL A   1      36.491  29.964  30.304  1.00  0.00     0.251 C 
ATOM     34  H   UNL A   1      34.651  30.546  29.778  1.00  0.00     0.163 HD
ATOM     35  O   UNL A   1      36.249  30.069  31.504  1.00  0.00    -0.269 OA
BRANCH  33  36
ATOM     36  C   UNL A   1      37.863  29.626  29.853  1.00  0.00     0.039 A 
ATOM     37  C   UNL A   1      38.813  29.262  30.812  1.00  0.00     0.014 A 
ATOM     38  C   UNL A   1      38.240  29.717  28.509  1.00  0.00     0.014 A 
ATOM     39  C   UNL A   1      40.119  28.947  30.422  1.00  0.00     0.010 A 
ATOM     40  C   UNL A   1      39.521  29.331  28.112  1.00  0.00     0.010 A 
ATOM     41  C   UNL A   1      40.479  28.954  29.065  1.00  0.00    -0.014 A 
BRANCH  41  42
ATOM     42  C   UNL A   1      41.855  28.584  28.635  1.00  0.00     0.031 A 
ATOM     43  C   UNL A   1      42.942  29.626  28.570  1.00  0.00     0.074 A 
ATOM     44  C   UNL A   1      42.121  27.315  28.263  1.00  0.00     0.049 A 
ATOM     45  N   UNL A   1      44.188  29.495  28.189  1.00  0.00    -0.248 NA
ATOM     46  C   UNL A   1      42.577  30.997  28.961  1.00  0.00     0.031 C 
ATOM     47  C   UNL A   1      41.150  26.219  28.235  1.00  0.00     0.029 A 
ATOM     48  N   UNL A   1      43.289  26.734  27.834  1.00  0.00    -0.354 N 
ATOM     49  C   UNL A   1      44.749  30.764  28.283  1.00  0.00     0.074 A 
ATOM     50  C   UNL A   1      43.695  31.660  28.706  1.00  0.00     0.031 C 
ATOM     51  C   UNL A   1      41.767  25.095  27.836  1.00  0.00     0.029 A 
ATOM     52  C   UNL A   1      43.167  25.395  27.547  1.00  0.00     0.049 A 
ATOM     53  H   UNL A   1      44.134  27.230  27.740  1.00  0.00     0.167 HD
ATOM     54  C   UNL A   1      46.030  31.149  28.059  1.00  0.00     0.031 A 
ATOM     55  C   UNL A   1      44.074  24.505  27.100  1.00  0.00     0.031 A 
ATOM     56  C   UNL A   1      47.083  30.258  27.649  1.00  0.00     0.049 A 
ATOM     57  C   UNL A   1      45.491  24.953  26.869  1.00  0.00     0.074 A 
ATOM     58  C   UNL A   1      48.421  30.546  27.438  1.00  0.00     0.029 A 
ATOM     59  N   UNL A   1      46.922  28.905  27.392  1.00  0.00    -0.354 N 
ATOM     60  N   UNL A   1      46.013  26.147  27.017  1.00  0.00    -0.248 NA
ATOM     61  C   UNL A   1      46.447  23.926  26.429  1.00  0.00     0.031 C 
ATOM     62  C   UNL A   1      49.060  29.375  27.016  1.00  0.00     0.029 A 
ATOM     63  C   UNL A   1      48.131  28.347  27.014  1.00  0.00     0.049 A 
ATOM     64  H   UNL A   1      46.072  28.415  27.468  1.00  0.00     0.167 HD
ATOM     65  C   UNL A   1      47.362  26.011  26.706  1.00  0.00     0.074 A 
ATOM     66  C   UNL A   1      47.578  24.616  26.384  1.00  0.00     0.031 C 
ATOM     67  C   UNL A   1      48.332  26.958  26.690  1.00  0.00     0.031 A 
BRANCH  54  68
ATOM     68  C   UNL A   1      46.360  32.605  28.261  1.00  0.00    -0.014 A 
ATOM     69  C   UNL A   1      46.402  33.494  27.171  1.00  0.00     0.010 A 
ATOM     70  C   UNL A   1      46.600  33.099  29.555  1.00  0.00     0.010 A 
ATOM     71  C   UNL A   1      46.721  34.840  27.366  1.00  0.00     0.020 A 
ATOM     72  C   UNL A   1      46.892  34.452  29.758  1.00  0.00     0.020 A 
ATOM     73  C   UNL A   1      46.971  35.310  28.658  1.00  0.00     0.054 A 
BRANCH  73  74
ATOM     74  S   UNL A   1      47.369  37.065  28.885  1.00  0.00     0.124 S 
ATOM     75  O   UNL A   1      48.199  37.031  30.086  1.00  0.00    -0.237 OA
ATOM     76  O   UNL A   1      48.071  37.399  27.647  1.00  0.00    -0.237 OA
ATOM     77  O   UNL A   1      46.063  37.698  29.047  1.00  0.00    -0.744 OA
ENDBRANCH  73  74
ENDBRANCH  54  68
BRANCH  55  78
ATOM     78  C   UNL A   1      43.671  23.093  26.857  1.00  0.00    -0.014 A 
ATOM     79  C   UNL A   1      43.148  22.309  27.900  1.00  0.00     0.010 A 
ATOM     80  C   UNL A   1      43.796  22.531  25.574  1.00  0.00     0.010 A 
ATOM     81  C   UNL A   1      42.776  20.982  27.670  1.00  0.00     0.020 A 
ATOM     82  C   UNL A   1      43.401  21.212  25.333  1.00  0.00     0.020 A 
ATOM     83  C   UNL A   1      42.904  20.442  26.387  1.00  0.00     0.054 A 
BRANCH  83  84
ATOM     84  S   UNL A   1      42.365  18.733  26.096  1.00  0.00     0.124 S 
ATOM     85  O   UNL A   1      43.310  18.288  25.075  1.00  0.00    -0.237 OA
ATOM     86  O   UNL A   1      42.521  18.122  27.414  1.00  0.00    -0.237 OA
ATOM     87  O   UNL A   1      40.983  18.884  25.648  1.00  0.00    -0.744 OA
ENDBRANCH  83  84
ENDBRANCH  55  78
BRANCH  67  88
ATOM     88  C   UNL A   1      49.726  26.509  26.340  1.00  0.00    -0.014 A 
ATOM     89  C   UNL A   1      50.234  26.663  25.038  1.00  0.00     0.010 A 
ATOM     90  C   UNL A   1      50.552  25.962  27.338  1.00  0.00     0.010 A 
ATOM     91  C   UNL A   1      51.531  26.240  24.731  1.00  0.00     0.020 A 
ATOM     92  C   UNL A   1      51.857  25.562  27.042  1.00  0.00     0.020 A 
ATOM     93  C   UNL A   1      52.333  25.689  25.735  1.00  0.00     0.054 A 
BRANCH  93  94
ATOM     94  S   UNL A   1      54.022  25.174  25.322  1.00  0.00     0.124 S 
ATOM     95  O   UNL A   1      54.362  26.090  24.237  1.00  0.00    -0.237 OA
ATOM     96  O   UNL A   1      54.741  25.392  26.576  1.00  0.00    -0.237 OA
ATOM     97  O   UNL A   1      53.872  23.774  24.933  1.00  0.00    -0.744 OA
ENDBRANCH  93  94
ENDBRANCH  67  88
ENDBRANCH  41  42
ENDBRANCH  33  36
ENDBRANCH  31  32
ENDBRANCH   1  31
TORSDOF 16
ENDMDL
