MODEL 1
REMARK VINA RESULT:     -10.2      0.000      0.000
REMARK SMILES O=C(C[C@@H](NC(=O)C1CC=CC1)C1CC1)NCCCNC(=O)c1ccc(-c2c3nc(c(-c4ccc(S(=O)(=O)[O-])cc4)c4ccc([nH]4)c(-c4ccc(S(=O)(=O)[O-])cc4)c4nc(c(-c5ccc(S(=O)(=O)[O-])cc5)c5ccc2[nH]5)C=C4)C=C3)cc1
REMARK SMILES IDX 18 1 17 2 16 3 1 4 2 5 3 7 4 8 5 9 6 10 7 12 8 13 9 14 12 15
REMARK SMILES IDX 10 16 11 17 13 18 14 19 15 20 19 21 20 22 21 23 22 25 23 26
REMARK SMILES IDX 24 27 82 28 25 29 81 30 26 31 27 32 28 33 75 34 29 35 80 36
REMARK SMILES IDX 74 37 76 38 30 39 79 40 73 41 72 42 31 44 61 45 42 46 60 47
REMARK SMILES IDX 43 48 46 49 59 50 77 51 44 52 45 53 58 55 78 56 47 57 32 58
REMARK SMILES IDX 33 59 41 60 34 61 40 62 35 63 36 64 37 65 38 66 39 67 62 68
REMARK SMILES IDX 63 69 71 70 64 71 70 72 65 73 66 74 67 75 68 76 69 77 48 78
REMARK SMILES IDX 49 79 57 80 50 81 56 82 51 83 52 84 53 85 54 86 55 87
REMARK H PARENT 16 6 5 11 20 24 76 43 46 54
REMARK Flexibility Score: inf
ROOT
ATOM      1  C   UNL A   1      32.106  27.849  27.050  1.00  0.00     0.042 C 
ENDROOT
BRANCH   1   2
ATOM      2  C   UNL A   1      31.720  27.196  25.729  1.00  0.00     0.117 C 
BRANCH   2   3
ATOM      3  N   UNL A   1      32.009  25.774  25.729  1.00  0.00    -0.356 N 
ATOM      4  O   UNL A   1      33.979  25.894  24.547  1.00  0.00    -0.275 OA
ATOM      5  C   UNL A   1      33.110  25.235  25.107  1.00  0.00     0.222 C 
ATOM      6  H   UNL A   1      31.390  25.169  26.196  1.00  0.00     0.163 HD
BRANCH   5   7
ATOM      7  C   UNL A   1      33.191  23.730  25.221  1.00  0.00     0.125 C 
BRANCH   7   8
ATOM      8  C   UNL A   1      33.152  23.097  23.823  1.00  0.00     0.094 C 
BRANCH   8   9
ATOM      9  N   UNL A   1      34.512  22.993  23.257  1.00  0.00    -0.352 N 
ATOM     10  C   UNL A   1      35.797  22.901  23.687  1.00  0.00     0.223 C 
ATOM     11  H   UNL A   1      34.477  22.990  22.273  1.00  0.00     0.163 HD
ATOM     12  O   UNL A   1      36.651  23.214  22.853  1.00  0.00    -0.275 OA
BRANCH  10  13
ATOM     13  C   UNL A   1      36.169  22.437  25.090  1.00  0.00     0.086 C 
ATOM     14  C   UNL A   1      37.180  21.279  25.036  1.00  0.00     0.040 C 
ATOM     15  C   UNL A   1      36.866  23.533  25.930  1.00  0.00     0.040 C 
ATOM     16  C   UNL A   1      38.460  21.859  25.528  1.00  0.00    -0.030 C 
ATOM     17  C   UNL A   1      38.291  23.087  26.018  1.00  0.00    -0.030 C 
ENDBRANCH  10  13
ENDBRANCH   8   9
BRANCH   8  18
ATOM     18  C   UNL A   1      32.351  21.826  23.844  1.00  0.00     0.012 C 
ATOM     19  C   UNL A   1      32.989  20.543  24.336  1.00  0.00     0.006 C 
ATOM     20  C   UNL A   1      31.930  21.205  25.158  1.00  0.00     0.006 C 
ENDBRANCH   8  18
ENDBRANCH   7   8
ENDBRANCH   5   7
ENDBRANCH   2   3
ENDBRANCH   1   2
BRANCH   1  21
ATOM     21  C   UNL A   1      33.484  28.508  27.048  1.00  0.00     0.118 C 
BRANCH  21  22
ATOM     22  N   UNL A   1      33.454  29.900  27.472  1.00  0.00    -0.352 N 
ATOM     23  C   UNL A   1      34.409  30.638  28.127  1.00  0.00     0.251 C 
ATOM     24  H   UNL A   1      32.625  30.385  27.257  1.00  0.00     0.163 HD
ATOM     25  O   UNL A   1      34.131  31.761  28.543  1.00  0.00    -0.269 OA
BRANCH  23  26
ATOM     26  C   UNL A   1      35.757  30.076  28.366  1.00  0.00     0.039 A 
ATOM     27  C   UNL A   1      36.671  30.054  27.309  1.00  0.00     0.014 A 
ATOM     28  C   UNL A   1      36.125  29.577  29.618  1.00  0.00     0.014 A 
ATOM     29  C   UNL A   1      37.979  29.615  27.532  1.00  0.00     0.010 A 
ATOM     30  C   UNL A   1      37.448  29.210  29.857  1.00  0.00     0.010 A 
ATOM     31  C   UNL A   1      38.393  29.238  28.820  1.00  0.00    -0.014 A 
BRANCH  31  32
ATOM     32  C   UNL A   1      39.815  28.918  29.110  1.00  0.00     0.031 A 
ATOM     33  C   UNL A   1      40.734  29.962  29.685  1.00  0.00     0.074 A 
ATOM     34  C   UNL A   1      40.298  27.701  28.789  1.00  0.00     0.049 A 
ATOM     35  N   UNL A   1      42.016  29.882  29.933  1.00  0.00    -0.248 NA
ATOM     36  C   UNL A   1      40.141  31.270  30.002  1.00  0.00     0.031 C 
ATOM     37  C   UNL A   1      39.518  26.610  28.197  1.00  0.00     0.029 A 
ATOM     38  N   UNL A   1      41.563  27.177  28.904  1.00  0.00    -0.354 N 
ATOM     39  C   UNL A   1      42.386  31.129  30.425  1.00  0.00     0.074 A 
ATOM     40  C   UNL A   1      41.202  31.960  30.396  1.00  0.00     0.031 C 
ATOM     41  C   UNL A   1      40.314  25.543  28.025  1.00  0.00     0.029 A 
ATOM     42  C   UNL A   1      41.671  25.886  28.440  1.00  0.00     0.049 A 
ATOM     43  H   UNL A   1      42.321  27.679  29.281  1.00  0.00     0.167 HD
ATOM     44  C   UNL A   1      43.599  31.540  30.873  1.00  0.00     0.031 A 
ATOM     45  C   UNL A   1      42.740  25.072  28.344  1.00  0.00     0.031 A 
ATOM     46  C   UNL A   1      44.776  30.711  30.896  1.00  0.00     0.049 A 
ATOM     47  C   UNL A   1      44.083  25.566  28.808  1.00  0.00     0.074 A 
ATOM     48  C   UNL A   1      46.035  31.021  31.377  1.00  0.00     0.029 A 
ATOM     49  N   UNL A   1      44.844  29.413  30.410  1.00  0.00    -0.354 N 
ATOM     50  N   UNL A   1      44.396  26.727  29.332  1.00  0.00    -0.248 NA
ATOM     51  C   UNL A   1      45.214  24.639  28.672  1.00  0.00     0.031 C 
ATOM     52  C   UNL A   1      46.882  29.938  31.122  1.00  0.00     0.029 A 
ATOM     53  C   UNL A   1      46.134  28.925  30.545  1.00  0.00     0.049 A 
ATOM     54  H   UNL A   1      44.089  28.914  30.024  1.00  0.00     0.167 HD
ATOM     55  C   UNL A   1      45.758  26.661  29.608  1.00  0.00     0.074 A 
ATOM     56  C   UNL A   1      46.201  25.339  29.214  1.00  0.00     0.031 C 
ATOM     57  C   UNL A   1      46.568  27.610  30.139  1.00  0.00     0.031 A 
BRANCH  44  58
ATOM     58  C   UNL A   1      43.718  32.961  31.362  1.00  0.00    -0.014 A 
ATOM     59  C   UNL A   1      43.537  33.283  32.720  1.00  0.00     0.010 A 
ATOM     60  C   UNL A   1      44.066  33.982  30.459  1.00  0.00     0.010 A 
ATOM     61  C   UNL A   1      43.663  34.605  33.158  1.00  0.00     0.020 A 
ATOM     62  C   UNL A   1      44.223  35.301  30.898  1.00  0.00     0.020 A 
ATOM     63  C   UNL A   1      44.003  35.605  32.244  1.00  0.00     0.054 A 
BRANCH  63  64
ATOM     64  S   UNL A   1      44.182  37.307  32.846  1.00  0.00     0.124 S 
ATOM     65  O   UNL A   1      45.509  37.272  33.455  1.00  0.00    -0.237 OA
ATOM     66  O   UNL A   1      44.075  38.092  31.618  1.00  0.00    -0.237 OA
ATOM     67  O   UNL A   1      43.072  37.464  33.782  1.00  0.00    -0.744 OA
ENDBRANCH  63  64
ENDBRANCH  44  58
BRANCH  45  68
ATOM     68  C   UNL A   1      42.584  23.704  27.776  1.00  0.00    -0.014 A 
ATOM     69  C   UNL A   1      42.868  23.454  26.422  1.00  0.00     0.010 A 
ATOM     70  C   UNL A   1      42.158  22.639  28.591  1.00  0.00     0.010 A 
ATOM     71  C   UNL A   1      42.712  22.171  25.890  1.00  0.00     0.020 A 
ATOM     72  C   UNL A   1      42.031  21.348  28.071  1.00  0.00     0.020 A 
ATOM     73  C   UNL A   1      42.298  21.125  26.720  1.00  0.00     0.054 A 
BRANCH  73  74
ATOM     74  S   UNL A   1      42.153  19.458  26.018  1.00  0.00     0.124 S 
ATOM     75  O   UNL A   1      40.717  19.354  25.776  1.00  0.00    -0.237 OA
ATOM     76  O   UNL A   1      42.992  19.545  24.826  1.00  0.00    -0.237 OA
ATOM     77  O   UNL A   1      42.674  18.595  27.076  1.00  0.00    -0.744 OA
ENDBRANCH  73  74
ENDBRANCH  45  68
BRANCH  57  78
ATOM     78  C   UNL A   1      48.016  27.250  30.346  1.00  0.00    -0.014 A 
ATOM     79  C   UNL A   1      48.988  27.553  29.376  1.00  0.00     0.010 A 
ATOM     80  C   UNL A   1      48.418  26.645  31.551  1.00  0.00     0.010 A 
ATOM     81  C   UNL A   1      50.331  27.230  29.595  1.00  0.00     0.020 A 
ATOM     82  C   UNL A   1      49.763  26.349  31.787  1.00  0.00     0.020 A 
ATOM     83  C   UNL A   1      50.710  26.632  30.800  1.00  0.00     0.054 A 
BRANCH  83  84
ATOM     84  S   UNL A   1      52.465  26.265  31.077  1.00  0.00     0.124 S 
ATOM     85  O   UNL A   1      52.400  25.013  31.826  1.00  0.00    -0.237 OA
ATOM     86  O   UNL A   1      52.987  26.157  29.717  1.00  0.00    -0.237 OA
ATOM     87  O   UNL A   1      52.946  27.420  31.832  1.00  0.00    -0.744 OA
ENDBRANCH  83  84
ENDBRANCH  57  78
ENDBRANCH  31  32
ENDBRANCH  23  26
ENDBRANCH  21  22
ENDBRANCH   1  21
TORSDOF 17
ENDMDL
MODEL 2
REMARK VINA RESULT:     -10.0      2.689      9.572
REMARK SMILES O=C(C[C@@H](NC(=O)C1CC=CC1)C1CC1)NCCCNC(=O)c1ccc(-c2c3nc(c(-c4ccc(S(=O)(=O)[O-])cc4)c4ccc([nH]4)c(-c4ccc(S(=O)(=O)[O-])cc4)c4nc(c(-c5ccc(S(=O)(=O)[O-])cc5)c5ccc2[nH]5)C=C4)C=C3)cc1
REMARK SMILES IDX 18 1 17 2 16 3 1 4 2 5 3 7 4 8 5 9 6 10 7 12 8 13 9 14 12 15
REMARK SMILES IDX 10 16 11 17 13 18 14 19 15 20 19 21 20 22 21 23 22 25 23 26
REMARK SMILES IDX 24 27 82 28 25 29 81 30 26 31 27 32 28 33 75 34 29 35 80 36
REMARK SMILES IDX 74 37 76 38 30 39 79 40 73 41 72 42 31 44 61 45 42 46 60 47
REMARK SMILES IDX 43 48 46 49 59 50 77 51 44 52 45 53 58 55 78 56 47 57 32 58
REMARK SMILES IDX 33 59 41 60 34 61 40 62 35 63 36 64 37 65 38 66 39 67 62 68
REMARK SMILES IDX 63 69 71 70 64 71 70 72 65 73 66 74 67 75 68 76 69 77 48 78
REMARK SMILES IDX 49 79 57 80 50 81 56 82 51 83 52 84 53 85 54 86 55 87
REMARK H PARENT 16 6 5 11 20 24 76 43 46 54
REMARK Flexibility Score: inf
ROOT
ATOM      1  C   UNL A   1      35.788  23.021  24.454  1.00  0.00     0.042 C 
ENDROOT
BRANCH   1   2
ATOM      2  C   UNL A   1      34.763  22.669  25.524  1.00  0.00     0.117 C 
BRANCH   2   3
ATOM      3  N   UNL A   1      34.155  23.858  26.094  1.00  0.00    -0.356 N 
ATOM      4  O   UNL A   1      32.828  24.380  24.289  1.00  0.00    -0.275 OA
ATOM      5  C   UNL A   1      33.252  24.636  25.411  1.00  0.00     0.222 C 
ATOM      6  H   UNL A   1      34.399  24.117  27.012  1.00  0.00     0.163 HD
BRANCH   5   7
ATOM      7  C   UNL A   1      32.772  25.834  26.197  1.00  0.00     0.125 C 
BRANCH   7   8
ATOM      8  C   UNL A   1      33.494  27.100  25.716  1.00  0.00     0.094 C 
BRANCH   8   9
ATOM      9  N   UNL A   1      33.137  27.409  24.317  1.00  0.00    -0.352 N 
ATOM     10  C   UNL A   1      32.027  27.641  23.571  1.00  0.00     0.223 C 
ATOM     11  H   UNL A   1      33.946  27.461  23.758  1.00  0.00     0.163 HD
ATOM     12  O   UNL A   1      32.173  27.486  22.354  1.00  0.00    -0.275 OA
BRANCH  10  13
ATOM     13  C   UNL A   1      30.697  28.072  24.176  1.00  0.00     0.086 C 
ATOM     14  C   UNL A   1      30.577  29.604  24.208  1.00  0.00     0.040 C 
ATOM     15  C   UNL A   1      29.473  27.596  23.359  1.00  0.00     0.040 C 
ATOM     16  C   UNL A   1      29.545  29.935  23.188  1.00  0.00    -0.030 C 
ATOM     17  C   UNL A   1      28.940  28.841  22.724  1.00  0.00    -0.030 C 
ENDBRANCH  10  13
ENDBRANCH   8   9
BRANCH   8  18
ATOM     18  C   UNL A   1      33.308  28.218  26.703  1.00  0.00     0.012 C 
ATOM     19  C   UNL A   1      34.519  28.949  27.247  1.00  0.00     0.006 C 
ATOM     20  C   UNL A   1      33.593  29.650  26.305  1.00  0.00     0.006 C 
ENDBRANCH   8  18
ENDBRANCH   7   8
ENDBRANCH   5   7
ENDBRANCH   2   3
ENDBRANCH   1   2
BRANCH   1  21
ATOM     21  C   UNL A   1      37.054  23.687  24.988  1.00  0.00     0.118 C 
BRANCH  21  22
ATOM     22  N   UNL A   1      38.062  22.733  25.428  1.00  0.00    -0.352 N 
ATOM     23  C   UNL A   1      39.193  22.936  26.180  1.00  0.00     0.251 C 
ATOM     24  H   UNL A   1      37.910  21.803  25.144  1.00  0.00     0.163 HD
ATOM     25  O   UNL A   1      40.008  22.025  26.312  1.00  0.00    -0.269 OA
BRANCH  23  26
ATOM     26  C   UNL A   1      39.453  24.254  26.802  1.00  0.00     0.039 A 
ATOM     27  C   UNL A   1      38.979  24.490  28.095  1.00  0.00     0.014 A 
ATOM     28  C   UNL A   1      40.160  25.250  26.123  1.00  0.00     0.014 A 
ATOM     29  C   UNL A   1      39.291  25.691  28.739  1.00  0.00     0.010 A 
ATOM     30  C   UNL A   1      40.533  26.414  26.793  1.00  0.00     0.010 A 
ATOM     31  C   UNL A   1      40.114  26.641  28.113  1.00  0.00    -0.014 A 
BRANCH  31  32
ATOM     32  C   UNL A   1      40.585  27.850  28.838  1.00  0.00     0.031 A 
ATOM     33  C   UNL A   1      41.937  27.871  29.497  1.00  0.00     0.074 A 
ATOM     34  C   UNL A   1      39.760  28.910  28.961  1.00  0.00     0.049 A 
ATOM     35  N   UNL A   1      42.481  28.809  30.230  1.00  0.00    -0.248 NA
ATOM     36  C   UNL A   1      42.779  26.677  29.328  1.00  0.00     0.031 C 
ATOM     37  C   UNL A   1      38.411  29.004  28.395  1.00  0.00     0.029 A 
ATOM     38  N   UNL A   1      39.929  30.108  29.611  1.00  0.00    -0.354 N 
ATOM     39  C   UNL A   1      43.721  28.316  30.619  1.00  0.00     0.074 A 
ATOM     40  C   UNL A   1      43.830  26.978  30.078  1.00  0.00     0.031 C 
ATOM     41  C   UNL A   1      37.887  30.200  28.702  1.00  0.00     0.029 A 
ATOM     42  C   UNL A   1      38.835  30.939  29.530  1.00  0.00     0.049 A 
ATOM     43  H   UNL A   1      40.753  30.349  30.092  1.00  0.00     0.167 HD
ATOM     44  C   UNL A   1      44.687  28.928  31.348  1.00  0.00     0.031 A 
ATOM     45  C   UNL A   1      38.609  32.152  30.072  1.00  0.00     0.031 A 
ATOM     46  C   UNL A   1      44.573  30.258  31.888  1.00  0.00     0.049 A 
ATOM     47  C   UNL A   1      39.681  32.791  30.912  1.00  0.00     0.074 A 
ATOM     48  C   UNL A   1      45.517  30.981  32.595  1.00  0.00     0.029 A 
ATOM     49  N   UNL A   1      43.447  31.062  31.790  1.00  0.00    -0.354 N 
ATOM     50  N   UNL A   1      40.874  32.335  31.211  1.00  0.00    -0.248 NA
ATOM     51  C   UNL A   1      39.377  34.111  31.483  1.00  0.00     0.031 C 
ATOM     52  C   UNL A   1      44.940  32.195  32.983  1.00  0.00     0.029 A 
ATOM     53  C   UNL A   1      43.660  32.258  32.458  1.00  0.00     0.049 A 
ATOM     54  H   UNL A   1      42.619  30.819  31.318  1.00  0.00     0.167 HD
ATOM     55  C   UNL A   1      41.471  33.322  31.988  1.00  0.00     0.074 A 
ATOM     56  C   UNL A   1      40.517  34.408  32.093  1.00  0.00     0.031 C 
ATOM     57  C   UNL A   1      42.699  33.328  32.565  1.00  0.00     0.031 A 
BRANCH  44  58
ATOM     58  C   UNL A   1      45.953  28.154  31.620  1.00  0.00    -0.014 A 
ATOM     59  C   UNL A   1      47.061  28.244  30.759  1.00  0.00     0.010 A 
ATOM     60  C   UNL A   1      46.052  27.365  32.780  1.00  0.00     0.010 A 
ATOM     61  C   UNL A   1      48.231  27.528  31.033  1.00  0.00     0.020 A 
ATOM     62  C   UNL A   1      47.230  26.672  33.074  1.00  0.00     0.020 A 
ATOM     63  C   UNL A   1      48.307  26.745  32.188  1.00  0.00     0.054 A 
BRANCH  63  64
ATOM     64  S   UNL A   1      49.846  25.847  32.529  1.00  0.00     0.124 S 
ATOM     65  O   UNL A   1      50.438  25.749  31.197  1.00  0.00    -0.237 OA
ATOM     66  O   UNL A   1      50.536  26.737  33.459  1.00  0.00    -0.237 OA
ATOM     67  O   UNL A   1      49.391  24.582  33.101  1.00  0.00    -0.744 OA
ENDBRANCH  63  64
ENDBRANCH  44  58
BRANCH  45  68
ATOM     68  C   UNL A   1      37.309  32.840  29.840  1.00  0.00    -0.014 A 
ATOM     69  C   UNL A   1      37.026  33.440  28.601  1.00  0.00     0.010 A 
ATOM     70  C   UNL A   1      36.339  32.890  30.860  1.00  0.00     0.010 A 
ATOM     71  C   UNL A   1      35.808  34.092  28.391  1.00  0.00     0.020 A 
ATOM     72  C   UNL A   1      35.107  33.513  30.643  1.00  0.00     0.020 A 
ATOM     73  C   UNL A   1      34.855  34.121  29.413  1.00  0.00     0.054 A 
BRANCH  73  74
ATOM     74  S   UNL A   1      33.260  34.929  29.098  1.00  0.00     0.124 S 
ATOM     75  O   UNL A   1      32.674  34.060  28.083  1.00  0.00    -0.237 OA
ATOM     76  O   UNL A   1      32.623  34.889  30.411  1.00  0.00    -0.237 OA
ATOM     77  O   UNL A   1      33.639  36.263  28.638  1.00  0.00    -0.744 OA
ENDBRANCH  73  74
ENDBRANCH  45  68
BRANCH  57  78
ATOM     78  C   UNL A   1      43.093  34.555  33.345  1.00  0.00    -0.014 A 
ATOM     79  C   UNL A   1      42.962  34.601  34.744  1.00  0.00     0.010 A 
ATOM     80  C   UNL A   1      43.651  35.658  32.674  1.00  0.00     0.010 A 
ATOM     81  C   UNL A   1      43.353  35.741  35.454  1.00  0.00     0.020 A 
ATOM     82  C   UNL A   1      44.071  36.787  33.382  1.00  0.00     0.020 A 
ATOM     83  C   UNL A   1      43.907  36.826  34.768  1.00  0.00     0.054 A 
BRANCH  83  84
ATOM     84  S   UNL A   1      44.449  38.273  35.718  1.00  0.00     0.124 S 
ATOM     85  O   UNL A   1      43.918  39.376  34.922  1.00  0.00    -0.237 OA
ATOM     86  O   UNL A   1      43.804  38.065  37.013  1.00  0.00    -0.237 OA
ATOM     87  O   UNL A   1      45.905  38.156  35.729  1.00  0.00    -0.744 OA
ENDBRANCH  83  84
ENDBRANCH  57  78
ENDBRANCH  31  32
ENDBRANCH  23  26
ENDBRANCH  21  22
ENDBRANCH   1  21
TORSDOF 17
ENDMDL
MODEL 3
REMARK VINA RESULT:      -9.9      2.570      9.194
REMARK SMILES O=C(C[C@@H](NC(=O)C1CC=CC1)C1CC1)NCCCNC(=O)c1ccc(-c2c3nc(c(-c4ccc(S(=O)(=O)[O-])cc4)c4ccc([nH]4)c(-c4ccc(S(=O)(=O)[O-])cc4)c4nc(c(-c5ccc(S(=O)(=O)[O-])cc5)c5ccc2[nH]5)C=C4)C=C3)cc1
REMARK SMILES IDX 18 1 17 2 16 3 1 4 2 5 3 7 4 8 5 9 6 10 7 12 8 13 9 14 12 15
REMARK SMILES IDX 10 16 11 17 13 18 14 19 15 20 19 21 20 22 21 23 22 25 23 26
REMARK SMILES IDX 24 27 82 28 25 29 81 30 26 31 27 32 28 33 75 34 29 35 80 36
REMARK SMILES IDX 74 37 76 38 30 39 79 40 73 41 72 42 31 44 61 45 42 46 60 47
REMARK SMILES IDX 43 48 46 49 59 50 77 51 44 52 45 53 58 55 78 56 47 57 32 58
REMARK SMILES IDX 33 59 41 60 34 61 40 62 35 63 36 64 37 65 38 66 39 67 62 68
REMARK SMILES IDX 63 69 71 70 64 71 70 72 65 73 66 74 67 75 68 76 69 77 48 78
REMARK SMILES IDX 49 79 57 80 50 81 56 82 51 83 52 84 53 85 54 86 55 87
REMARK H PARENT 16 6 5 11 20 24 76 43 46 54
REMARK Flexibility Score: inf
ROOT
ATOM      1  C   UNL A   1      36.245  23.827  24.465  1.00  0.00     0.042 C 
ENDROOT
BRANCH   1   2
ATOM      2  C   UNL A   1      35.711  22.830  23.445  1.00  0.00     0.117 C 
BRANCH   2   3
ATOM      3  N   UNL A   1      34.293  22.581  23.631  1.00  0.00    -0.356 N 
ATOM      4  O   UNL A   1      33.568  23.704  21.759  1.00  0.00    -0.275 OA
ATOM      5  C   UNL A   1      33.331  23.068  22.779  1.00  0.00     0.222 C 
ATOM      6  H   UNL A   1      34.009  22.037  24.401  1.00  0.00     0.163 HD
BRANCH   5   7
ATOM      7  C   UNL A   1      31.922  22.699  23.187  1.00  0.00     0.125 C 
BRANCH   7   8
ATOM      8  C   UNL A   1      31.480  23.560  24.378  1.00  0.00     0.094 C 
BRANCH   8   9
ATOM      9  N   UNL A   1      30.436  24.522  23.971  1.00  0.00    -0.352 N 
ATOM     10  C   UNL A   1      30.148  25.841  24.110  1.00  0.00     0.223 C 
ATOM     11  H   UNL A   1      29.739  24.071  23.440  1.00  0.00     0.163 HD
ATOM     12  O   UNL A   1      28.967  26.143  23.917  1.00  0.00    -0.275 OA
BRANCH  10  13
ATOM     13  C   UNL A   1      31.199  26.885  24.468  1.00  0.00     0.086 C 
ATOM     14  C   UNL A   1      31.487  26.881  25.979  1.00  0.00     0.040 C 
ATOM     15  C   UNL A   1      32.571  26.622  23.803  1.00  0.00     0.040 C 
ATOM     16  C   UNL A   1      32.857  26.316  26.112  1.00  0.00    -0.030 C 
ATOM     17  C   UNL A   1      33.452  26.175  24.927  1.00  0.00    -0.030 C 
ENDBRANCH  10  13
ENDBRANCH   8   9
BRANCH   8  18
ATOM     18  C   UNL A   1      31.149  22.693  25.559  1.00  0.00     0.012 C 
ATOM     19  C   UNL A   1      31.865  22.913  26.877  1.00  0.00     0.006 C 
ATOM     20  C   UNL A   1      30.417  23.266  26.753  1.00  0.00     0.006 C 
ENDBRANCH   8  18
ENDBRANCH   7   8
ENDBRANCH   5   7
ENDBRANCH   2   3
ENDBRANCH   1   2
BRANCH   1  21
ATOM     21  C   UNL A   1      36.498  23.236  25.851  1.00  0.00     0.118 C 
BRANCH  21  22
ATOM     22  N   UNL A   1      37.683  22.393  25.906  1.00  0.00    -0.352 N 
ATOM     23  C   UNL A   1      38.970  22.710  26.269  1.00  0.00     0.251 C 
ATOM     24  H   UNL A   1      37.541  21.455  25.644  1.00  0.00     0.163 HD
ATOM     25  O   UNL A   1      39.870  21.891  26.095  1.00  0.00    -0.269 OA
BRANCH  23  26
ATOM     26  C   UNL A   1      39.281  24.042  26.833  1.00  0.00     0.039 A 
ATOM     27  C   UNL A   1      38.904  24.317  28.150  1.00  0.00     0.014 A 
ATOM     28  C   UNL A   1      39.944  25.013  26.078  1.00  0.00     0.014 A 
ATOM     29  C   UNL A   1      39.270  25.532  28.737  1.00  0.00     0.010 A 
ATOM     30  C   UNL A   1      40.372  26.192  26.687  1.00  0.00     0.010 A 
ATOM     31  C   UNL A   1      40.051  26.458  28.027  1.00  0.00    -0.014 A 
BRANCH  31  32
ATOM     32  C   UNL A   1      40.581  27.683  28.682  1.00  0.00     0.031 A 
ATOM     33  C   UNL A   1      41.974  27.707  29.251  1.00  0.00     0.074 A 
ATOM     34  C   UNL A   1      39.777  28.756  28.827  1.00  0.00     0.049 A 
ATOM     35  N   UNL A   1      42.574  28.660  29.917  1.00  0.00    -0.248 NA
ATOM     36  C   UNL A   1      42.791  26.498  29.063  1.00  0.00     0.031 C 
ATOM     37  C   UNL A   1      38.394  28.849  28.348  1.00  0.00     0.029 A 
ATOM     38  N   UNL A   1      40.000  29.970  29.428  1.00  0.00    -0.354 N 
ATOM     39  C   UNL A   1      43.832  28.164  30.239  1.00  0.00     0.074 A 
ATOM     40  C   UNL A   1      43.891  26.809  29.734  1.00  0.00     0.031 C 
ATOM     41  C   UNL A   1      37.904  30.060  28.652  1.00  0.00     0.029 A 
ATOM     42  C   UNL A   1      38.912  30.812  29.393  1.00  0.00     0.049 A 
ATOM     43  H   UNL A   1      40.856  30.216  29.846  1.00  0.00     0.167 HD
ATOM     44  C   UNL A   1      44.850  28.785  30.884  1.00  0.00     0.031 A 
ATOM     45  C   UNL A   1      38.734  32.043  29.911  1.00  0.00     0.031 A 
ATOM     46  C   UNL A   1      44.785  30.132  31.389  1.00  0.00     0.049 A 
ATOM     47  C   UNL A   1      39.865  32.694  30.659  1.00  0.00     0.074 A 
ATOM     48  C   UNL A   1      45.781  30.865  32.011  1.00  0.00     0.029 A 
ATOM     49  N   UNL A   1      43.663  30.947  31.341  1.00  0.00    -0.354 N 
ATOM     50  N   UNL A   1      41.071  32.233  30.894  1.00  0.00    -0.248 NA
ATOM     51  C   UNL A   1      39.613  34.034  31.209  1.00  0.00     0.031 C 
ATOM     52  C   UNL A   1      45.243  32.096  32.399  1.00  0.00     0.029 A 
ATOM     53  C   UNL A   1      43.932  32.159  31.957  1.00  0.00     0.049 A 
ATOM     54  H   UNL A   1      42.803  30.699  30.932  1.00  0.00     0.167 HD
ATOM     55  C   UNL A   1      41.727  33.235  31.600  1.00  0.00     0.074 A 
ATOM     56  C   UNL A   1      40.793  34.335  31.733  1.00  0.00     0.031 C 
ATOM     57  C   UNL A   1      42.990  33.244  32.094  1.00  0.00     0.031 A 
BRANCH  44  58
ATOM     58  C   UNL A   1      46.123  28.005  31.097  1.00  0.00    -0.014 A 
ATOM     59  C   UNL A   1      47.167  28.043  30.155  1.00  0.00     0.010 A 
ATOM     60  C   UNL A   1      46.297  27.263  32.279  1.00  0.00     0.010 A 
ATOM     61  C   UNL A   1      48.345  27.322  30.373  1.00  0.00     0.020 A 
ATOM     62  C   UNL A   1      47.485  26.565  32.515  1.00  0.00     0.020 A 
ATOM     63  C   UNL A   1      48.496  26.586  31.551  1.00  0.00     0.054 A 
BRANCH  63  64
ATOM     64  S   UNL A   1      50.044  25.680  31.817  1.00  0.00     0.124 S 
ATOM     65  O   UNL A   1      49.671  24.754  32.884  1.00  0.00    -0.237 OA
ATOM     66  O   UNL A   1      50.284  25.069  30.512  1.00  0.00    -0.237 OA
ATOM     67  O   UNL A   1      50.995  26.719  32.201  1.00  0.00    -0.744 OA
ENDBRANCH  63  64
ENDBRANCH  44  58
BRANCH  45  68
ATOM     68  C   UNL A   1      37.428  32.739  29.744  1.00  0.00    -0.014 A 
ATOM     69  C   UNL A   1      37.135  33.439  28.561  1.00  0.00     0.010 A 
ATOM     70  C   UNL A   1      36.464  32.698  30.769  1.00  0.00     0.010 A 
ATOM     71  C   UNL A   1      35.912  34.099  28.412  1.00  0.00     0.020 A 
ATOM     72  C   UNL A   1      35.227  33.329  30.611  1.00  0.00     0.020 A 
ATOM     73  C   UNL A   1      34.964  34.036  29.438  1.00  0.00     0.054 A 
BRANCH  73  74
ATOM     74  S   UNL A   1      33.363  34.857  29.200  1.00  0.00     0.124 S 
ATOM     75  O   UNL A   1      32.797  34.816  30.544  1.00  0.00    -0.237 OA
ATOM     76  O   UNL A   1      33.757  36.179  28.718  1.00  0.00    -0.237 OA
ATOM     77  O   UNL A   1      32.692  34.017  28.211  1.00  0.00    -0.744 OA
ENDBRANCH  73  74
ENDBRANCH  45  68
BRANCH  57  78
ATOM     78  C   UNL A   1      43.448  34.488  32.809  1.00  0.00    -0.014 A 
ATOM     79  C   UNL A   1      43.352  34.602  34.207  1.00  0.00     0.010 A 
ATOM     80  C   UNL A   1      44.030  35.539  32.076  1.00  0.00     0.010 A 
ATOM     81  C   UNL A   1      43.801  35.756  34.856  1.00  0.00     0.020 A 
ATOM     82  C   UNL A   1      44.508  36.681  32.723  1.00  0.00     0.020 A 
ATOM     83  C   UNL A   1      44.378  36.788  34.109  1.00  0.00     0.054 A 
BRANCH  83  84
ATOM     84  S   UNL A   1      44.994  38.255  34.981  1.00  0.00     0.124 S 
ATOM     85  O   UNL A   1      46.146  38.631  34.165  1.00  0.00    -0.237 OA
ATOM     86  O   UNL A   1      43.854  39.167  34.917  1.00  0.00    -0.237 OA
ATOM     87  O   UNL A   1      45.313  37.757  36.317  1.00  0.00    -0.744 OA
ENDBRANCH  83  84
ENDBRANCH  57  78
ENDBRANCH  31  32
ENDBRANCH  23  26
ENDBRANCH  21  22
ENDBRANCH   1  21
TORSDOF 17
ENDMDL
