MODEL 1
REMARK VINA RESULT:     -11.1      0.000      0.000
REMARK SMILES NC(=O)CC[N@@H+]1[C@@H](C(=O)NCCCNC(=O)c2ccc(-c3c4nc(c(-c5ccc(S(=O)(=O)[O-])cc5)c5ccc([nH]5)c(-c5ccc(S(=O)(=O)[O-])cc5)c5nc(c(-c6ccc(S(=O)(=O)[O-])cc6)c6ccc3[nH]6)C=C5)C=C4)cc2)CC[C@@H]2CCCC[C@H]21
REMARK SMILES IDX 12 1 11 2 10 3 8 4 9 5 7 7 6 8 84 9 77 11 79 12 83 13 78 14
REMARK SMILES IDX 80 15 82 16 81 17 5 18 4 19 2 20 1 21 3 24 13 25 14 26 15 27
REMARK SMILES IDX 16 29 17 30 18 31 76 32 19 33 75 34 20 35 21 36 22 37 69 38
REMARK SMILES IDX 23 39 74 40 68 41 70 42 24 43 73 44 67 45 66 46 25 48 55 49
REMARK SMILES IDX 36 50 54 51 37 52 40 53 53 54 71 55 38 56 39 57 52 59 72 60
REMARK SMILES IDX 41 61 26 62 27 63 35 64 28 65 34 66 29 67 30 68 31 69 32 70
REMARK SMILES IDX 33 71 56 72 57 73 65 74 58 75 64 76 59 77 60 78 61 79 62 80
REMARK SMILES IDX 63 81 42 82 43 83 51 84 44 85 50 86 45 87 46 88 47 89 48 90
REMARK SMILES IDX 49 91
REMARK H PARENT 10 6 6 10 1 22 1 23 14 28 70 47 40 58
REMARK Flexibility Score: inf
ROOT
ATOM      1  C   UNL A   1      34.835  30.787  27.271  1.00  0.00     0.042 C 
ENDROOT
BRANCH   1   2
ATOM      2  C   UNL A   1      33.887  31.649  28.093  1.00  0.00     0.118 C 
BRANCH   2   3
ATOM      3  N   UNL A   1      34.053  33.062  27.812  1.00  0.00    -0.351 N 
ATOM      4  C   UNL A   1      34.924  33.960  28.351  1.00  0.00     0.278 C 
ATOM      5  O   UNL A   1      34.894  35.119  27.922  1.00  0.00    -0.268 OA
ATOM      6  H   UNL A   1      33.445  33.427  27.129  1.00  0.00     0.163 HD
BRANCH   4   7
ATOM      7  C   UNL A   1      35.930  33.558  29.452  1.00  0.00     0.274 C 
ATOM      8  N   UNL A   1      35.771  34.371  30.731  1.00  0.00    -0.322 N 
ATOM      9  C   UNL A   1      36.808  33.925  31.724  1.00  0.00     0.187 C 
ATOM     10  H   UNL A   1      35.938  35.370  30.614  1.00  0.00     0.349 HD
ATOM     11  C   UNL A   1      37.334  33.559  28.840  1.00  0.00     0.076 C 
ATOM     12  C   UNL A   1      38.237  34.034  31.098  1.00  0.00     0.048 C 
ATOM     13  C   UNL A   1      36.820  34.738  33.041  1.00  0.00     0.065 C 
ATOM     14  C   UNL A   1      38.371  33.152  29.858  1.00  0.00     0.016 C 
ATOM     15  C   UNL A   1      39.363  33.669  32.077  1.00  0.00     0.010 C 
ATOM     16  C   UNL A   1      37.942  34.346  33.999  1.00  0.00     0.006 C 
ATOM     17  C   UNL A   1      39.300  34.503  33.345  1.00  0.00     0.001 C 
BRANCH   8  18
ATOM     18  C   UNL A   1      34.346  34.209  31.163  1.00  0.00     0.273 C 
BRANCH  18  19
ATOM     19  C   UNL A   1      33.441  35.371  31.590  1.00  0.00     0.161 C 
BRANCH  19  20
ATOM     20  C   UNL A   1      33.032  36.404  30.559  1.00  0.00     0.223 C 
ATOM     21  N   UNL A   1      33.456  37.678  30.738  1.00  0.00    -0.369 N 
ATOM     22  H   UNL A   1      33.209  38.375  30.088  1.00  0.00     0.159 HD
ATOM     23  H   UNL A   1      34.012  37.908  31.518  1.00  0.00     0.159 HD
ATOM     24  O   UNL A   1      32.328  36.112  29.597  1.00  0.00    -0.275 OA
ENDBRANCH  19  20
ENDBRANCH  18  19
ENDBRANCH   8  18
ENDBRANCH   4   7
ENDBRANCH   2   3
ENDBRANCH   1   2
BRANCH   1  25
ATOM     25  C   UNL A   1      35.602  29.760  28.092  1.00  0.00     0.118 C 
BRANCH  25  26
ATOM     26  N   UNL A   1      35.541  30.031  29.521  1.00  0.00    -0.352 N 
ATOM     27  C   UNL A   1      36.516  29.920  30.481  1.00  0.00     0.251 C 
ATOM     28  H   UNL A   1      34.666  30.340  29.849  1.00  0.00     0.163 HD
ATOM     29  O   UNL A   1      36.206  29.997  31.668  1.00  0.00    -0.269 OA
BRANCH  27  30
ATOM     30  C   UNL A   1      37.924  29.689  30.095  1.00  0.00     0.039 A 
ATOM     31  C   UNL A   1      38.851  29.353  31.085  1.00  0.00     0.014 A 
ATOM     32  C   UNL A   1      38.338  29.816  28.766  1.00  0.00     0.014 A 
ATOM     33  C   UNL A   1      40.173  29.073  30.731  1.00  0.00     0.010 A 
ATOM     34  C   UNL A   1      39.632  29.454  28.404  1.00  0.00     0.010 A 
ATOM     35  C   UNL A   1      40.565  29.081  29.382  1.00  0.00    -0.014 A 
BRANCH  35  36
ATOM     36  C   UNL A   1      41.940  28.694  28.973  1.00  0.00     0.031 A 
ATOM     37  C   UNL A   1      43.042  29.719  28.951  1.00  0.00     0.074 A 
ATOM     38  C   UNL A   1      42.183  27.433  28.562  1.00  0.00     0.049 A 
ATOM     39  N   UNL A   1      44.285  29.585  28.564  1.00  0.00    -0.248 NA
ATOM     40  C   UNL A   1      42.698  31.078  29.403  1.00  0.00     0.031 C 
ATOM     41  C   UNL A   1      41.193  26.354  28.507  1.00  0.00     0.029 A 
ATOM     42  N   UNL A   1      43.337  26.845  28.108  1.00  0.00    -0.354 N 
ATOM     43  C   UNL A   1      44.866  30.839  28.711  1.00  0.00     0.074 A 
ATOM     44  C   UNL A   1      43.827  31.734  29.172  1.00  0.00     0.031 C 
ATOM     45  C   UNL A   1      41.789  25.231  28.077  1.00  0.00     0.029 A 
ATOM     46  C   UNL A   1      43.188  25.518  27.779  1.00  0.00     0.049 A 
ATOM     47  H   UNL A   1      44.191  27.328  28.026  1.00  0.00     0.167 HD
ATOM     48  C   UNL A   1      46.152  31.209  28.503  1.00  0.00     0.031 A 
ATOM     49  C   UNL A   1      44.075  24.631  27.283  1.00  0.00     0.031 A 
ATOM     50  C   UNL A   1      47.183  30.315  28.047  1.00  0.00     0.049 A 
ATOM     51  C   UNL A   1      45.489  25.076  27.027  1.00  0.00     0.074 A 
ATOM     52  C   UNL A   1      48.527  30.583  27.847  1.00  0.00     0.029 A 
ATOM     53  N   UNL A   1      46.989  28.982  27.718  1.00  0.00    -0.354 N 
ATOM     54  N   UNL A   1      46.032  26.253  27.226  1.00  0.00    -0.248 NA
ATOM     55  C   UNL A   1      46.412  24.068  26.488  1.00  0.00     0.031 C 
ATOM     56  C   UNL A   1      49.132  29.429  27.341  1.00  0.00     0.029 A 
ATOM     57  C   UNL A   1      48.182  28.421  27.291  1.00  0.00     0.049 A 
ATOM     58  H   UNL A   1      46.131  28.504  27.779  1.00  0.00     0.167 HD
ATOM     59  C   UNL A   1      47.368  26.119  26.866  1.00  0.00     0.074 A 
ATOM     60  C   UNL A   1      47.554  24.743  26.450  1.00  0.00     0.031 C 
ATOM     61  C   UNL A   1      48.353  27.050  26.880  1.00  0.00     0.031 A 
BRANCH  48  62
ATOM     62  C   UNL A   1      46.516  32.649  28.760  1.00  0.00    -0.014 A 
ATOM     63  C   UNL A   1      46.403  33.618  27.746  1.00  0.00     0.010 A 
ATOM     64  C   UNL A   1      46.930  33.048  30.044  1.00  0.00     0.010 A 
ATOM     65  C   UNL A   1      46.733  34.952  28.001  1.00  0.00     0.020 A 
ATOM     66  C   UNL A   1      47.231  34.388  30.311  1.00  0.00     0.020 A 
ATOM     67  C   UNL A   1      47.146  35.328  29.283  1.00  0.00     0.054 A 
BRANCH  67  68
ATOM     68  S   UNL A   1      47.540  37.072  29.591  1.00  0.00     0.124 S 
ATOM     69  O   UNL A   1      48.374  37.399  28.438  1.00  0.00    -0.237 OA
ATOM     70  O   UNL A   1      46.221  37.699  29.610  1.00  0.00    -0.237 OA
ATOM     71  O   UNL A   1      48.236  37.050  30.875  1.00  0.00    -0.744 OA
ENDBRANCH  67  68
ENDBRANCH  48  62
BRANCH  49  72
ATOM     72  C   UNL A   1      43.652  23.230  27.009  1.00  0.00    -0.014 A 
ATOM     73  C   UNL A   1      43.692  22.716  25.701  1.00  0.00     0.010 A 
ATOM     74  C   UNL A   1      43.214  22.398  28.056  1.00  0.00     0.010 A 
ATOM     75  C   UNL A   1      43.286  21.404  25.443  1.00  0.00     0.020 A 
ATOM     76  C   UNL A   1      42.837  21.075  27.806  1.00  0.00     0.020 A 
ATOM     77  C   UNL A   1      42.864  20.591  26.498  1.00  0.00     0.054 A 
BRANCH  77  78
ATOM     78  S   UNL A   1      42.389  18.876  26.145  1.00  0.00     0.124 S 
ATOM     79  O   UNL A   1      41.006  19.028  25.706  1.00  0.00    -0.237 OA
ATOM     80  O   UNL A   1      43.345  18.492  25.109  1.00  0.00    -0.237 OA
ATOM     81  O   UNL A   1      42.569  18.200  27.428  1.00  0.00    -0.744 OA
ENDBRANCH  77  78
ENDBRANCH  49  72
BRANCH  61  82
ATOM     82  C   UNL A   1      49.734  26.610  26.470  1.00  0.00    -0.014 A 
ATOM     83  C   UNL A   1      50.640  26.076  27.402  1.00  0.00     0.010 A 
ATOM     84  C   UNL A   1      50.107  26.678  25.114  1.00  0.00     0.010 A 
ATOM     85  C   UNL A   1      51.905  25.645  26.991  1.00  0.00     0.020 A 
ATOM     86  C   UNL A   1      51.357  26.221  24.695  1.00  0.00     0.020 A 
ATOM     87  C   UNL A   1      52.254  25.718  25.639  1.00  0.00     0.054 A 
BRANCH  87  88
ATOM     88  S   UNL A   1      53.883  25.105  25.126  1.00  0.00     0.124 S 
ATOM     89  O   UNL A   1      53.587  23.724  24.759  1.00  0.00    -0.237 OA
ATOM     90  O   UNL A   1      54.222  25.993  24.016  1.00  0.00    -0.237 OA
ATOM     91  O   UNL A   1      54.707  25.270  26.321  1.00  0.00    -0.744 OA
ENDBRANCH  87  88
ENDBRANCH  61  82
ENDBRANCH  35  36
ENDBRANCH  27  30
ENDBRANCH  25  26
ENDBRANCH   1  25
TORSDOF 16
ENDMDL
MODEL 2
REMARK VINA RESULT:     -10.7      5.031     11.234
REMARK SMILES NC(=O)CC[N@@H+]1[C@@H](C(=O)NCCCNC(=O)c2ccc(-c3c4nc(c(-c5ccc(S(=O)(=O)[O-])cc5)c5ccc([nH]5)c(-c5ccc(S(=O)(=O)[O-])cc5)c5nc(c(-c6ccc(S(=O)(=O)[O-])cc6)c6ccc3[nH]6)C=C5)C=C4)cc2)CC[C@@H]2CCCC[C@H]21
REMARK SMILES IDX 12 1 11 2 10 3 8 4 9 5 7 7 6 8 84 9 77 11 79 12 83 13 78 14
REMARK SMILES IDX 80 15 82 16 81 17 5 18 4 19 2 20 1 21 3 24 13 25 14 26 15 27
REMARK SMILES IDX 16 29 17 30 18 31 76 32 19 33 75 34 20 35 21 36 22 37 69 38
REMARK SMILES IDX 23 39 74 40 68 41 70 42 24 43 73 44 67 45 66 46 25 48 55 49
REMARK SMILES IDX 36 50 54 51 37 52 40 53 53 54 71 55 38 56 39 57 52 59 72 60
REMARK SMILES IDX 41 61 26 62 27 63 35 64 28 65 34 66 29 67 30 68 31 69 32 70
REMARK SMILES IDX 33 71 56 72 57 73 65 74 58 75 64 76 59 77 60 78 61 79 62 80
REMARK SMILES IDX 63 81 42 82 43 83 51 84 44 85 50 86 45 87 46 88 47 89 48 90
REMARK SMILES IDX 49 91
REMARK H PARENT 10 6 6 10 1 22 1 23 14 28 70 47 40 58
REMARK Flexibility Score: inf
ROOT
ATOM      1  C   UNL A   1      35.788  22.931  24.906  1.00  0.00     0.042 C 
ENDROOT
BRANCH   1   2
ATOM      2  C   UNL A   1      35.419  23.220  23.457  1.00  0.00     0.118 C 
BRANCH   2   3
ATOM      3  N   UNL A   1      33.999  23.056  23.214  1.00  0.00    -0.351 N 
ATOM      4  C   UNL A   1      32.977  23.941  23.391  1.00  0.00     0.278 C 
ATOM      5  O   UNL A   1      31.838  23.574  23.082  1.00  0.00    -0.268 OA
ATOM      6  H   UNL A   1      33.732  22.173  22.871  1.00  0.00     0.163 HD
BRANCH   4   7
ATOM      7  C   UNL A   1      33.220  25.363  23.945  1.00  0.00     0.274 C 
ATOM      8  N   UNL A   1      32.484  25.625  25.253  1.00  0.00    -0.322 N 
ATOM      9  C   UNL A   1      32.760  27.037  25.693  1.00  0.00     0.187 C 
ATOM     10  H   UNL A   1      31.469  25.572  25.179  1.00  0.00     0.349 HD
ATOM     11  C   UNL A   1      32.947  26.366  22.821  1.00  0.00     0.076 C 
ATOM     12  C   UNL A   1      32.377  28.041  24.557  1.00  0.00     0.048 C 
ATOM     13  C   UNL A   1      31.994  27.469  26.966  1.00  0.00     0.065 C 
ATOM     14  C   UNL A   1      33.186  27.782  23.288  1.00  0.00     0.016 C 
ATOM     15  C   UNL A   1      32.557  29.513  24.956  1.00  0.00     0.010 C 
ATOM     16  C   UNL A   1      32.201  28.933  27.344  1.00  0.00     0.006 C 
ATOM     17  C   UNL A   1      31.783  29.855  26.216  1.00  0.00     0.001 C 
BRANCH   8  18
ATOM     18  C   UNL A   1      32.914  24.553  26.207  1.00  0.00     0.273 C 
BRANCH  18  19
ATOM     19  C   UNL A   1      32.010  23.405  26.671  1.00  0.00     0.161 C 
BRANCH  19  20
ATOM     20  C   UNL A   1      30.506  23.576  26.603  1.00  0.00     0.223 C 
ATOM     21  N   UNL A   1      29.740  22.458  26.628  1.00  0.00    -0.369 N 
ATOM     22  H   UNL A   1      28.760  22.533  26.585  1.00  0.00     0.159 HD
ATOM     23  H   UNL A   1      30.164  21.572  26.689  1.00  0.00     0.159 HD
ATOM     24  O   UNL A   1      29.985  24.685  26.514  1.00  0.00    -0.275 OA
ENDBRANCH  19  20
ENDBRANCH  18  19
ENDBRANCH   8  18
ENDBRANCH   4   7
ENDBRANCH   2   3
ENDBRANCH   1   2
BRANCH   1  25
ATOM     25  C   UNL A   1      37.043  23.653  25.377  1.00  0.00     0.118 C 
BRANCH  25  26
ATOM     26  N   UNL A   1      38.143  22.740  25.651  1.00  0.00    -0.352 N 
ATOM     27  C   UNL A   1      39.370  22.983  26.213  1.00  0.00     0.251 C 
ATOM     28  H   UNL A   1      37.981  21.804  25.393  1.00  0.00     0.163 HD
ATOM     29  O   UNL A   1      40.239  22.114  26.167  1.00  0.00    -0.269 OA
BRANCH  27  30
ATOM     30  C   UNL A   1      39.657  24.286  26.851  1.00  0.00     0.039 A 
ATOM     31  C   UNL A   1      39.233  24.504  28.165  1.00  0.00     0.014 A 
ATOM     32  C   UNL A   1      40.328  25.296  26.157  1.00  0.00     0.014 A 
ATOM     33  C   UNL A   1      39.546  25.706  28.804  1.00  0.00     0.010 A 
ATOM     34  C   UNL A   1      40.713  26.457  26.822  1.00  0.00     0.010 A 
ATOM     35  C   UNL A   1      40.325  26.677  28.151  1.00  0.00    -0.014 A 
BRANCH  35  36
ATOM     36  C   UNL A   1      40.752  27.920  28.844  1.00  0.00     0.031 A 
ATOM     37  C   UNL A   1      42.118  28.010  29.468  1.00  0.00     0.074 A 
ATOM     38  C   UNL A   1      39.885  28.946  28.963  1.00  0.00     0.049 A 
ATOM     39  N   UNL A   1      42.642  28.984  30.167  1.00  0.00    -0.248 NA
ATOM     40  C   UNL A   1      43.005  26.845  29.306  1.00  0.00     0.031 C 
ATOM     41  C   UNL A   1      38.520  28.971  28.430  1.00  0.00     0.029 A 
ATOM     42  N   UNL A   1      40.021  30.166  29.577  1.00  0.00    -0.354 N 
ATOM     43  C   UNL A   1      43.908  28.548  30.538  1.00  0.00     0.074 A 
ATOM     44  C   UNL A   1      44.054  27.200  30.033  1.00  0.00     0.031 C 
ATOM     45  C   UNL A   1      37.959  30.157  28.711  1.00  0.00     0.029 A 
ATOM     46  C   UNL A   1      38.900  30.958  29.486  1.00  0.00     0.049 A 
ATOM     47  H   UNL A   1      40.843  30.448  30.040  1.00  0.00     0.167 HD
ATOM     48  C   UNL A   1      44.872  29.214  31.218  1.00  0.00     0.031 A 
ATOM     49  C   UNL A   1      38.651  32.189  29.978  1.00  0.00     0.031 A 
ATOM     50  C   UNL A   1      44.723  30.557  31.716  1.00  0.00     0.049 A 
ATOM     51  C   UNL A   1      39.725  32.895  30.760  1.00  0.00     0.074 A 
ATOM     52  C   UNL A   1      45.656  31.335  32.379  1.00  0.00     0.029 A 
ATOM     53  N   UNL A   1      43.571  31.320  31.609  1.00  0.00    -0.354 N 
ATOM     54  N   UNL A   1      40.937  32.485  31.052  1.00  0.00    -0.248 NA
ATOM     55  C   UNL A   1      39.400  34.233  31.272  1.00  0.00     0.031 C 
ATOM     56  C   UNL A   1      45.049  32.546  32.725  1.00  0.00     0.029 A 
ATOM     57  C   UNL A   1      43.760  32.551  32.217  1.00  0.00     0.049 A 
ATOM     58  H   UNL A   1      42.740  31.031  31.166  1.00  0.00     0.167 HD
ATOM     59  C   UNL A   1      41.529  33.528  31.755  1.00  0.00     0.074 A 
ATOM     60  C   UNL A   1      40.548  34.592  31.831  1.00  0.00     0.031 C 
ATOM     61  C   UNL A   1      42.775  33.601  32.286  1.00  0.00     0.031 A 
BRANCH  48  62
ATOM     62  C   UNL A   1      46.173  28.497  31.471  1.00  0.00    -0.014 A 
ATOM     63  C   UNL A   1      46.375  27.754  32.649  1.00  0.00     0.010 A 
ATOM     64  C   UNL A   1      47.189  28.526  30.498  1.00  0.00     0.010 A 
ATOM     65  C   UNL A   1      47.583  27.085  32.866  1.00  0.00     0.020 A 
ATOM     66  C   UNL A   1      48.386  27.831  30.698  1.00  0.00     0.020 A 
ATOM     67  C   UNL A   1      48.581  27.129  31.888  1.00  0.00     0.054 A 
BRANCH  67  68
ATOM     68  S   UNL A   1      50.127  26.226  32.185  1.00  0.00     0.124 S 
ATOM     69  O   UNL A   1      49.682  24.837  32.108  1.00  0.00    -0.237 OA
ATOM     70  O   UNL A   1      50.975  26.675  31.084  1.00  0.00    -0.237 OA
ATOM     71  O   UNL A   1      50.541  26.673  33.512  1.00  0.00    -0.744 OA
ENDBRANCH  67  68
ENDBRANCH  48  62
BRANCH  49  72
ATOM     72  C   UNL A   1      37.333  32.836  29.733  1.00  0.00    -0.014 A 
ATOM     73  C   UNL A   1      36.951  33.206  28.431  1.00  0.00     0.010 A 
ATOM     74  C   UNL A   1      36.448  33.079  30.799  1.00  0.00     0.010 A 
ATOM     75  C   UNL A   1      35.718  33.822  28.203  1.00  0.00     0.020 A 
ATOM     76  C   UNL A   1      35.200  33.667  30.570  1.00  0.00     0.020 A 
ATOM     77  C   UNL A   1      34.849  34.046  29.274  1.00  0.00     0.054 A 
BRANCH  77  78
ATOM     78  S   UNL A   1      33.233  34.803  28.946  1.00  0.00     0.124 S 
ATOM     79  O   UNL A   1      32.587  34.719  30.252  1.00  0.00    -0.237 OA
ATOM     80  O   UNL A   1      33.598  36.146  28.504  1.00  0.00    -0.237 OA
ATOM     81  O   UNL A   1      32.660  33.949  27.908  1.00  0.00    -0.744 OA
ENDBRANCH  77  78
ENDBRANCH  49  72
BRANCH  61  82
ATOM     82  C   UNL A   1      43.168  34.885  32.968  1.00  0.00    -0.014 A 
ATOM     83  C   UNL A   1      42.927  35.091  34.338  1.00  0.00     0.010 A 
ATOM     84  C   UNL A   1      43.844  35.878  32.234  1.00  0.00     0.010 A 
ATOM     85  C   UNL A   1      43.329  36.279  34.955  1.00  0.00     0.020 A 
ATOM     86  C   UNL A   1      44.275  37.053  32.854  1.00  0.00     0.020 A 
ATOM     87  C   UNL A   1      44.003  37.251  34.209  1.00  0.00     0.054 A 
BRANCH  87  88
ATOM     88  S   UNL A   1      44.558  38.761  35.047  1.00  0.00     0.124 S 
ATOM     89  O   UNL A   1      43.707  39.778  34.436  1.00  0.00    -0.237 OA
ATOM     90  O   UNL A   1      44.280  38.468  36.450  1.00  0.00    -0.237 OA
ATOM     91  O   UNL A   1      45.976  38.848  34.704  1.00  0.00    -0.744 OA
ENDBRANCH  87  88
ENDBRANCH  61  82
ENDBRANCH  35  36
ENDBRANCH  27  30
ENDBRANCH  25  26
ENDBRANCH   1  25
TORSDOF 16
ENDMDL
MODEL 3
REMARK VINA RESULT:     -10.7      4.687      7.112
REMARK SMILES NC(=O)CC[N@@H+]1[C@@H](C(=O)NCCCNC(=O)c2ccc(-c3c4nc(c(-c5ccc(S(=O)(=O)[O-])cc5)c5ccc([nH]5)c(-c5ccc(S(=O)(=O)[O-])cc5)c5nc(c(-c6ccc(S(=O)(=O)[O-])cc6)c6ccc3[nH]6)C=C5)C=C4)cc2)CC[C@@H]2CCCC[C@H]21
REMARK SMILES IDX 12 1 11 2 10 3 8 4 9 5 7 7 6 8 84 9 77 11 79 12 83 13 78 14
REMARK SMILES IDX 80 15 82 16 81 17 5 18 4 19 2 20 1 21 3 24 13 25 14 26 15 27
REMARK SMILES IDX 16 29 17 30 18 31 76 32 19 33 75 34 20 35 21 36 22 37 69 38
REMARK SMILES IDX 23 39 74 40 68 41 70 42 24 43 73 44 67 45 66 46 25 48 55 49
REMARK SMILES IDX 36 50 54 51 37 52 40 53 53 54 71 55 38 56 39 57 52 59 72 60
REMARK SMILES IDX 41 61 26 62 27 63 35 64 28 65 34 66 29 67 30 68 31 69 32 70
REMARK SMILES IDX 33 71 56 72 57 73 65 74 58 75 64 76 59 77 60 78 61 79 62 80
REMARK SMILES IDX 63 81 42 82 43 83 51 84 44 85 50 86 45 87 46 88 47 89 48 90
REMARK SMILES IDX 49 91
REMARK H PARENT 10 6 6 10 1 22 1 23 14 28 70 47 40 58
REMARK Flexibility Score: inf
ROOT
ATOM      1  C   UNL A   1      32.688  27.654  26.850  1.00  0.00     0.042 C 
ENDROOT
BRANCH   1   2
ATOM      2  C   UNL A   1      32.771  26.287  26.186  1.00  0.00     0.118 C 
BRANCH   2   3
ATOM      3  N   UNL A   1      31.628  26.026  25.333  1.00  0.00    -0.351 N 
ATOM      4  C   UNL A   1      31.483  25.122  24.322  1.00  0.00     0.278 C 
ATOM      5  O   UNL A   1      30.387  25.068  23.753  1.00  0.00    -0.268 OA
ATOM      6  H   UNL A   1      30.837  26.585  25.510  1.00  0.00     0.163 HD
BRANCH   4   7
ATOM      7  C   UNL A   1      32.634  24.183  23.900  1.00  0.00     0.274 C 
ATOM      8  N   UNL A   1      33.117  23.287  25.034  1.00  0.00    -0.322 N 
ATOM      9  C   UNL A   1      34.251  22.435  24.533  1.00  0.00     0.187 C 
ATOM     10  H   UNL A   1      33.506  23.792  25.829  1.00  0.00     0.349 HD
ATOM     11  C   UNL A   1      33.716  25.029  23.222  1.00  0.00     0.076 C 
ATOM     12  C   UNL A   1      35.381  23.338  23.936  1.00  0.00     0.048 C 
ATOM     13  C   UNL A   1      34.902  21.539  25.614  1.00  0.00     0.065 C 
ATOM     14  C   UNL A   1      34.868  24.169  22.762  1.00  0.00     0.016 C 
ATOM     15  C   UNL A   1      36.612  22.547  23.471  1.00  0.00     0.010 C 
ATOM     16  C   UNL A   1      36.116  20.758  25.120  1.00  0.00     0.006 C 
ATOM     17  C   UNL A   1      37.185  21.689  24.584  1.00  0.00     0.001 C 
BRANCH   8  18
ATOM     18  C   UNL A   1      31.915  22.541  25.529  1.00  0.00     0.273 C 
BRANCH  18  19
ATOM     19  C   UNL A   1      31.303  22.728  26.921  1.00  0.00     0.161 C 
BRANCH  19  20
ATOM     20  C   UNL A   1      29.861  23.179  27.040  1.00  0.00     0.223 C 
ATOM     21  N   UNL A   1      28.906  22.224  27.147  1.00  0.00    -0.369 N 
ATOM     22  H   UNL A   1      27.960  22.482  27.226  1.00  0.00     0.159 HD
ATOM     23  H   UNL A   1      29.159  21.272  27.147  1.00  0.00     0.159 HD
ATOM     24  O   UNL A   1      29.554  24.368  27.027  1.00  0.00    -0.275 OA
ENDBRANCH  19  20
ENDBRANCH  18  19
ENDBRANCH   8  18
ENDBRANCH   4   7
ENDBRANCH   2   3
ENDBRANCH   1   2
BRANCH   1  25
ATOM     25  C   UNL A   1      33.832  28.589  26.479  1.00  0.00     0.118 C 
BRANCH  25  26
ATOM     26  N   UNL A   1      33.688  29.909  27.076  1.00  0.00    -0.352 N 
ATOM     27  C   UNL A   1      34.518  30.582  27.937  1.00  0.00     0.251 C 
ATOM     28  H   UNL A   1      32.870  30.394  26.822  1.00  0.00     0.163 HD
ATOM     29  O   UNL A   1      34.116  31.604  28.489  1.00  0.00    -0.269 OA
BRANCH  27  30
ATOM     30  C   UNL A   1      35.878  30.072  28.217  1.00  0.00     0.039 A 
ATOM     31  C   UNL A   1      36.847  30.142  27.212  1.00  0.00     0.014 A 
ATOM     32  C   UNL A   1      36.198  29.515  29.458  1.00  0.00     0.014 A 
ATOM     33  C   UNL A   1      38.152  29.720  27.477  1.00  0.00     0.010 A 
ATOM     34  C   UNL A   1      37.516  29.176  29.747  1.00  0.00     0.010 A 
ATOM     35  C   UNL A   1      38.508  29.272  28.761  1.00  0.00    -0.014 A 
BRANCH  35  36
ATOM     36  C   UNL A   1      39.910  28.909  29.092  1.00  0.00     0.031 A 
ATOM     37  C   UNL A   1      40.821  29.917  29.740  1.00  0.00     0.074 A 
ATOM     38  C   UNL A   1      40.381  27.692  28.754  1.00  0.00     0.049 A 
ATOM     39  N   UNL A   1      42.089  29.806  30.044  1.00  0.00    -0.248 NA
ATOM     40  C   UNL A   1      40.239  31.229  30.070  1.00  0.00     0.031 C 
ATOM     41  C   UNL A   1      39.608  26.637  28.094  1.00  0.00     0.029 A 
ATOM     42  N   UNL A   1      41.626  27.137  28.915  1.00  0.00    -0.354 N 
ATOM     43  C   UNL A   1      42.459  31.032  30.586  1.00  0.00     0.074 A 
ATOM     44  C   UNL A   1      41.296  31.890  30.520  1.00  0.00     0.031 C 
ATOM     45  C   UNL A   1      40.385  25.554  27.936  1.00  0.00     0.029 A 
ATOM     46  C   UNL A   1      41.723  25.851  28.436  1.00  0.00     0.049 A 
ATOM     47  H   UNL A   1      42.379  27.614  29.332  1.00  0.00     0.167 HD
ATOM     48  C   UNL A   1      43.651  31.404  31.111  1.00  0.00     0.031 A 
ATOM     49  C   UNL A   1      42.773  25.006  28.394  1.00  0.00     0.031 A 
ATOM     50  C   UNL A   1      44.804  30.545  31.178  1.00  0.00     0.049 A 
ATOM     51  C   UNL A   1      44.096  25.456  28.952  1.00  0.00     0.074 A 
ATOM     52  C   UNL A   1      46.044  30.815  31.730  1.00  0.00     0.029 A 
ATOM     53  N   UNL A   1      44.862  29.254  30.676  1.00  0.00    -0.354 N 
ATOM     54  N   UNL A   1      44.410  26.600  29.511  1.00  0.00    -0.248 NA
ATOM     55  C   UNL A   1      45.205  24.494  28.882  1.00  0.00     0.031 C 
ATOM     56  C   UNL A   1      46.870  29.709  31.510  1.00  0.00     0.029 A 
ATOM     57  C   UNL A   1      46.126  28.723  30.882  1.00  0.00     0.049 A 
ATOM     58  H   UNL A   1      44.117  28.784  30.238  1.00  0.00     0.167 HD
ATOM     59  C   UNL A   1      45.743  26.485  29.887  1.00  0.00     0.074 A 
ATOM     60  C   UNL A   1      46.172  25.155  29.505  1.00  0.00     0.031 C 
ATOM     61  C   UNL A   1      46.540  27.398  30.496  1.00  0.00     0.031 A 
BRANCH  48  62
ATOM     62  C   UNL A   1      43.770  32.806  31.650  1.00  0.00    -0.014 A 
ATOM     63  C   UNL A   1      43.476  33.094  32.996  1.00  0.00     0.010 A 
ATOM     64  C   UNL A   1      44.230  33.841  30.815  1.00  0.00     0.010 A 
ATOM     65  C   UNL A   1      43.602  34.397  33.486  1.00  0.00     0.020 A 
ATOM     66  C   UNL A   1      44.387  35.140  31.310  1.00  0.00     0.020 A 
ATOM     67  C   UNL A   1      44.056  35.412  32.638  1.00  0.00     0.054 A 
BRANCH  67  68
ATOM     68  S   UNL A   1      44.237  37.087  33.311  1.00  0.00     0.124 S 
ATOM     69  O   UNL A   1      43.862  37.912  32.166  1.00  0.00    -0.237 OA
ATOM     70  O   UNL A   1      43.290  37.088  34.423  1.00  0.00    -0.237 OA
ATOM     71  O   UNL A   1      45.644  37.158  33.693  1.00  0.00    -0.744 OA
ENDBRANCH  67  68
ENDBRANCH  48  62
BRANCH  49  72
ATOM     72  C   UNL A   1      42.611  23.645  27.814  1.00  0.00    -0.014 A 
ATOM     73  C   UNL A   1      42.362  22.539  28.647  1.00  0.00     0.010 A 
ATOM     74  C   UNL A   1      42.696  23.447  26.424  1.00  0.00     0.010 A 
ATOM     75  C   UNL A   1      42.220  21.260  28.103  1.00  0.00     0.020 A 
ATOM     76  C   UNL A   1      42.522  22.173  25.873  1.00  0.00     0.020 A 
ATOM     77  C   UNL A   1      42.298  21.086  26.718  1.00  0.00     0.054 A 
BRANCH  77  78
ATOM     78  S   UNL A   1      42.060  19.424  26.031  1.00  0.00     0.124 S 
ATOM     79  O   UNL A   1      42.542  18.575  27.116  1.00  0.00    -0.237 OA
ATOM     80  O   UNL A   1      40.619  19.387  25.790  1.00  0.00    -0.237 OA
ATOM     81  O   UNL A   1      42.885  19.430  24.826  1.00  0.00    -0.744 OA
ENDBRANCH  77  78
ENDBRANCH  49  72
BRANCH  61  82
ATOM     82  C   UNL A   1      47.950  26.982  30.824  1.00  0.00    -0.014 A 
ATOM     83  C   UNL A   1      49.019  27.269  29.958  1.00  0.00     0.010 A 
ATOM     84  C   UNL A   1      48.215  26.345  32.052  1.00  0.00     0.010 A 
ATOM     85  C   UNL A   1      50.323  26.901  30.299  1.00  0.00     0.020 A 
ATOM     86  C   UNL A   1      49.520  26.003  32.410  1.00  0.00     0.020 A 
ATOM     87  C   UNL A   1      50.566  26.273  31.525  1.00  0.00     0.054 A 
BRANCH  87  88
ATOM     88  S   UNL A   1      52.274  25.851  31.964  1.00  0.00     0.124 S 
ATOM     89  O   UNL A   1      52.572  26.830  33.004  1.00  0.00    -0.237 OA
ATOM     90  O   UNL A   1      52.154  24.468  32.419  1.00  0.00    -0.237 OA
ATOM     91  O   UNL A   1      53.008  26.027  30.713  1.00  0.00    -0.744 OA
ENDBRANCH  87  88
ENDBRANCH  61  82
ENDBRANCH  35  36
ENDBRANCH  27  30
ENDBRANCH  25  26
ENDBRANCH   1  25
TORSDOF 16
ENDMDL
