MODEL 1
REMARK VINA RESULT:     -13.2      0.000      0.000
REMARK SMILES COC(=O)c1sc(SCC(=O)NCCCNC(=O)c2ccc(-c3c4nc(c(-c5ccc(S(=O)(=O)[O-])cc5)c5ccc([nH]5)c(-c5ccc(S(=O)(=O)[O-])cc5)c5nc(c(-c6ccc(S(=O)(=O)[O-])cc6)c6ccc3[nH]6)C=C5)C=C4)cc2)c(NC(=O)c2ccccc2)c1O
REMARK SMILES IDX 13 1 12 2 10 3 11 4 9 6 8 7 7 8 5 9 6 10 89 11 79 12 3 13
REMARK SMILES IDX 4 14 2 15 1 16 90 17 80 19 81 20 82 22 83 23 84 24 88 25
REMARK SMILES IDX 85 26 87 27 86 28 14 29 15 30 16 31 17 32 18 34 19 35 20 36
REMARK SMILES IDX 78 37 21 38 77 39 22 40 23 41 24 42 71 43 25 44 76 45 70 46
REMARK SMILES IDX 72 47 26 48 75 49 69 50 68 51 27 53 57 54 38 55 56 56 39 57
REMARK SMILES IDX 42 58 55 59 73 60 40 61 41 62 54 64 74 65 43 66 28 67 29 68
REMARK SMILES IDX 37 69 30 70 36 71 31 72 32 73 33 74 34 75 35 76 58 77 59 78
REMARK SMILES IDX 67 79 60 80 66 81 61 82 62 83 63 84 64 85 65 86 44 87 45 88
REMARK SMILES IDX 53 89 46 90 52 91 47 92 48 93 49 94 50 95 51 96
REMARK H PARENT 12 5 90 18 80 21 16 33 72 52 42 63
REMARK Flexibility Score: inf
ROOT
ATOM      1  C   UNL A   1      34.239  23.512  25.262  1.00  0.00     0.117 C 
ENDROOT
BRANCH   1   2
ATOM      2  N   UNL A   1      33.981  23.132  26.639  1.00  0.00    -0.355 N 
ATOM      3  C   UNL A   1      32.806  22.919  27.318  1.00  0.00     0.230 C 
ATOM      4  O   UNL A   1      32.927  22.313  28.387  1.00  0.00    -0.274 OA
ATOM      5  H   UNL A   1      34.792  23.006  27.184  1.00  0.00     0.163 HD
BRANCH   3   6
ATOM      6  C   UNL A   1      31.275  23.345  26.606  1.00  0.00     0.175 C 
BRANCH   6   7
ATOM      7  S   UNL A   1      30.366  25.661  25.897  1.00  0.00    -0.103 SA
BRANCH   7   8
ATOM      8  C   UNL A   1      31.539  27.082  25.725  1.00  0.00     0.089 A 
ATOM      9  C   UNL A   1      32.941  29.083  26.292  1.00  0.00     0.157 A 
ATOM     10  S   UNL A   1      31.882  28.026  27.137  1.00  0.00    -0.116 S 
ATOM     11  C   UNL A   1      33.053  28.694  24.976  1.00  0.00     0.166 A 
ATOM     12  C   UNL A   1      32.288  27.541  24.641  1.00  0.00     0.109 A 
BRANCH   9  13
ATOM     13  C   UNL A   1      33.578  30.185  26.989  1.00  0.00     0.352 C 
ATOM     14  O   UNL A   1      33.018  31.106  27.571  1.00  0.00    -0.245 OA
BRANCH  13  15
ATOM     15  O   UNL A   1      34.935  30.029  26.919  1.00  0.00    -0.465 OA
ATOM     16  C   UNL A   1      35.562  29.439  28.063  1.00  0.00     0.282 C 
ENDBRANCH  13  15
ENDBRANCH   9  13
BRANCH  11  17
ATOM     17  O   UNL A   1      33.799  29.336  24.049  1.00  0.00    -0.504 OA
ATOM     18  H   UNL A   1      34.213  28.850  23.363  1.00  0.00     0.293 HD
ENDBRANCH  11  17
BRANCH  12  19
ATOM     19  N   UNL A   1      32.332  27.048  23.339  1.00  0.00    -0.317 N 
ATOM     20  C   UNL A   1      31.341  27.144  22.411  1.00  0.00     0.255 C 
ATOM     21  H   UNL A   1      33.157  26.586  23.065  1.00  0.00     0.170 HD
ATOM     22  O   UNL A   1      31.256  26.442  21.414  1.00  0.00    -0.269 OA
BRANCH  20  23
ATOM     23  C   UNL A   1      30.309  28.127  22.731  1.00  0.00     0.040 A 
ATOM     24  C   UNL A   1      30.536  29.765  22.039  1.00  0.00     0.014 A 
ATOM     25  C   UNL A   1      28.653  27.592  23.329  1.00  0.00     0.014 A 
ATOM     26  C   UNL A   1      29.128  30.875  21.938  1.00  0.00     0.001 A 
ATOM     27  C   UNL A   1      27.259  28.725  23.174  1.00  0.00     0.001 A 
ATOM     28  C   UNL A   1      27.503  30.358  22.469  1.00  0.00     0.000 A 
ENDBRANCH  20  23
ENDBRANCH  12  19
ENDBRANCH   7   8
ENDBRANCH   6   7
ENDBRANCH   3   6
ENDBRANCH   1   2
BRANCH   1  29
ATOM     29  C   UNL A   1      35.722  23.695  24.944  1.00  0.00     0.042 C 
BRANCH  29  30
ATOM     30  C   UNL A   1      36.610  23.480  26.144  1.00  0.00     0.118 C 
BRANCH  30  31
ATOM     31  N   UNL A   1      37.552  22.375  25.982  1.00  0.00    -0.352 N 
ATOM     32  C   UNL A   1      38.912  22.392  26.235  1.00  0.00     0.251 C 
ATOM     33  H   UNL A   1      37.178  21.525  25.658  1.00  0.00     0.163 HD
ATOM     34  O   UNL A   1      39.644  21.520  25.786  1.00  0.00    -0.269 OA
BRANCH  32  35
ATOM     35  C   UNL A   1      39.447  23.496  27.053  1.00  0.00     0.039 A 
ATOM     36  C   UNL A   1      40.666  23.404  27.724  1.00  0.00     0.014 A 
ATOM     37  C   UNL A   1      38.712  24.676  27.072  1.00  0.00     0.014 A 
ATOM     38  C   UNL A   1      41.156  24.543  28.360  1.00  0.00     0.010 A 
ATOM     39  C   UNL A   1      39.308  25.835  27.463  1.00  0.00     0.010 A 
ATOM     40  C   UNL A   1      40.470  25.758  28.210  1.00  0.00    -0.014 A 
BRANCH  40  41
ATOM     41  C   UNL A   1      40.961  27.003  28.773  1.00  0.00     0.031 A 
ATOM     42  C   UNL A   1      42.143  27.553  28.072  1.00  0.00     0.074 A 
ATOM     43  C   UNL A   1      40.260  27.711  29.687  1.00  0.00     0.049 A 
ATOM     44  N   UNL A   1      43.375  27.491  28.449  1.00  0.00    -0.248 NA
ATOM     45  C   UNL A   1      41.965  28.052  26.698  1.00  0.00     0.031 C 
ATOM     46  C   UNL A   1      38.902  27.468  30.197  1.00  0.00     0.029 A 
ATOM     47  N   UNL A   1      40.580  28.892  30.270  1.00  0.00    -0.354 N 
ATOM     48  C   UNL A   1      44.095  28.189  27.487  1.00  0.00     0.074 A 
ATOM     49  C   UNL A   1      43.230  28.278  26.338  1.00  0.00     0.031 C 
ATOM     50  C   UNL A   1      38.435  28.584  30.801  1.00  0.00     0.029 A 
ATOM     51  C   UNL A   1      39.521  29.541  30.895  1.00  0.00     0.049 A 
ATOM     52  H   UNL A   1      41.491  29.261  30.252  1.00  0.00     0.167 HD
ATOM     53  C   UNL A   1      45.209  28.900  27.821  1.00  0.00     0.031 A 
ATOM     54  C   UNL A   1      39.538  30.788  31.427  1.00  0.00     0.031 A 
ATOM     55  C   UNL A   1      45.636  28.597  29.167  1.00  0.00     0.049 A 
ATOM     56  C   UNL A   1      40.965  31.133  31.653  1.00  0.00     0.074 A 
ATOM     57  C   UNL A   1      46.019  27.450  29.835  1.00  0.00     0.029 A 
ATOM     58  N   UNL A   1      45.286  29.508  30.140  1.00  0.00    -0.354 N 
ATOM     59  N   UNL A   1      41.729  30.500  32.501  1.00  0.00    -0.248 NA
ATOM     60  C   UNL A   1      41.667  31.842  30.595  1.00  0.00     0.031 C 
ATOM     61  C   UNL A   1      45.432  27.569  31.130  1.00  0.00     0.029 A 
ATOM     62  C   UNL A   1      44.801  28.814  31.216  1.00  0.00     0.049 A 
ATOM     63  H   UNL A   1      45.370  30.487  30.072  1.00  0.00     0.167 HD
ATOM     64  C   UNL A   1      42.950  30.365  31.853  1.00  0.00     0.074 A 
ATOM     65  C   UNL A   1      42.879  31.293  30.724  1.00  0.00     0.031 C 
ATOM     66  C   UNL A   1      43.785  29.315  32.121  1.00  0.00     0.031 A 
BRANCH  53  67
ATOM     67  C   UNL A   1      45.636  30.175  27.132  1.00  0.00    -0.014 A 
ATOM     68  C   UNL A   1      47.016  30.415  26.963  1.00  0.00     0.010 A 
ATOM     69  C   UNL A   1      44.770  31.262  26.899  1.00  0.00     0.010 A 
ATOM     70  C   UNL A   1      47.504  31.695  26.676  1.00  0.00     0.020 A 
ATOM     71  C   UNL A   1      45.242  32.533  26.568  1.00  0.00     0.020 A 
ATOM     72  C   UNL A   1      46.609  32.749  26.497  1.00  0.00     0.054 A 
BRANCH  72  73
ATOM     73  S   UNL A   1      47.247  34.422  26.242  1.00  0.00     0.124 S 
ATOM     74  O   UNL A   1      47.674  34.786  27.589  1.00  0.00    -0.237 OA
ATOM     75  O   UNL A   1      48.316  34.198  25.273  1.00  0.00    -0.237 OA
ATOM     76  O   UNL A   1      46.090  35.153  25.730  1.00  0.00    -0.744 OA
ENDBRANCH  72  73
ENDBRANCH  53  67
BRANCH  54  77
ATOM     77  C   UNL A   1      38.448  31.797  31.437  1.00  0.00    -0.014 A 
ATOM     78  C   UNL A   1      37.756  32.132  30.258  1.00  0.00     0.010 A 
ATOM     79  C   UNL A   1      37.896  32.225  32.663  1.00  0.00     0.010 A 
ATOM     80  C   UNL A   1      36.525  32.812  30.309  1.00  0.00     0.020 A 
ATOM     81  C   UNL A   1      36.672  32.905  32.720  1.00  0.00     0.020 A 
ATOM     82  C   UNL A   1      35.979  33.175  31.544  1.00  0.00     0.054 A 
BRANCH  82  83
ATOM     83  S   UNL A   1      34.305  33.885  31.610  1.00  0.00     0.124 S 
ATOM     84  O   UNL A   1      33.626  32.997  32.548  1.00  0.00    -0.237 OA
ATOM     85  O   UNL A   1      34.553  35.242  32.089  1.00  0.00    -0.237 OA
ATOM     86  O   UNL A   1      33.842  33.800  30.226  1.00  0.00    -0.744 OA
ENDBRANCH  82  83
ENDBRANCH  54  77
BRANCH  66  87
ATOM     87  C   UNL A   1      43.522  28.474  33.350  1.00  0.00    -0.014 A 
ATOM     88  C   UNL A   1      44.237  28.584  34.559  1.00  0.00     0.010 A 
ATOM     89  C   UNL A   1      42.382  27.650  33.319  1.00  0.00     0.010 A 
ATOM     90  C   UNL A   1      43.826  27.874  35.700  1.00  0.00     0.020 A 
ATOM     91  C   UNL A   1      41.959  26.957  34.454  1.00  0.00     0.020 A 
ATOM     92  C   UNL A   1      42.686  27.064  35.638  1.00  0.00     0.054 A 
BRANCH  92  93
ATOM     93  S   UNL A   1      42.125  26.184  37.123  1.00  0.00     0.124 S 
ATOM     94  O   UNL A   1      42.059  24.799  36.665  1.00  0.00    -0.237 OA
ATOM     95  O   UNL A   1      43.176  26.479  38.094  1.00  0.00    -0.237 OA
ATOM     96  O   UNL A   1      40.830  26.796  37.422  1.00  0.00    -0.744 OA
ENDBRANCH  92  93
ENDBRANCH  66  87
ENDBRANCH  40  41
ENDBRANCH  32  35
ENDBRANCH  30  31
ENDBRANCH  29  30
ENDBRANCH   1  29
TORSDOF 20
ENDMDL
MODEL 2
REMARK VINA RESULT:     -12.8      2.074      3.569
REMARK SMILES COC(=O)c1sc(SCC(=O)NCCCNC(=O)c2ccc(-c3c4nc(c(-c5ccc(S(=O)(=O)[O-])cc5)c5ccc([nH]5)c(-c5ccc(S(=O)(=O)[O-])cc5)c5nc(c(-c6ccc(S(=O)(=O)[O-])cc6)c6ccc3[nH]6)C=C5)C=C4)cc2)c(NC(=O)c2ccccc2)c1O
REMARK SMILES IDX 13 1 12 2 10 3 11 4 9 6 8 7 7 8 5 9 6 10 89 11 79 12 3 13
REMARK SMILES IDX 4 14 2 15 1 16 90 17 80 19 81 20 82 22 83 23 84 24 88 25
REMARK SMILES IDX 85 26 87 27 86 28 14 29 15 30 16 31 17 32 18 34 19 35 20 36
REMARK SMILES IDX 78 37 21 38 77 39 22 40 23 41 24 42 71 43 25 44 76 45 70 46
REMARK SMILES IDX 72 47 26 48 75 49 69 50 68 51 27 53 57 54 38 55 56 56 39 57
REMARK SMILES IDX 42 58 55 59 73 60 40 61 41 62 54 64 74 65 43 66 28 67 29 68
REMARK SMILES IDX 37 69 30 70 36 71 31 72 32 73 33 74 34 75 35 76 58 77 59 78
REMARK SMILES IDX 67 79 60 80 66 81 61 82 62 83 63 84 64 85 65 86 44 87 45 88
REMARK SMILES IDX 53 89 46 90 52 91 47 92 48 93 49 94 50 95 51 96
REMARK H PARENT 12 5 90 18 80 21 16 33 72 52 42 63
REMARK Flexibility Score: inf
ROOT
ATOM      1  C   UNL A   1      37.376  22.993  25.436  1.00  0.00     0.117 C 
ENDROOT
BRANCH   1   2
ATOM      2  N   UNL A   1      36.356  23.086  26.465  1.00  0.00    -0.355 N 
ATOM      3  C   UNL A   1      34.994  22.916  26.412  1.00  0.00     0.230 C 
ATOM      4  O   UNL A   1      34.449  22.761  27.509  1.00  0.00    -0.274 OA
ATOM      5  H   UNL A   1      36.703  23.312  27.359  1.00  0.00     0.163 HD
BRANCH   3   6
ATOM      6  C   UNL A   1      34.172  22.773  24.884  1.00  0.00     0.175 C 
BRANCH   6   7
ATOM      7  S   UNL A   1      33.721  24.566  23.073  1.00  0.00    -0.103 SA
BRANCH   7   8
ATOM      8  C   UNL A   1      32.253  25.679  23.244  1.00  0.00     0.089 A 
ATOM      9  C   UNL A   1      30.605  27.519  22.804  1.00  0.00     0.157 A 
ATOM     10  S   UNL A   1      32.037  26.927  22.062  1.00  0.00    -0.116 S 
ATOM     11  C   UNL A   1      30.287  26.754  23.905  1.00  0.00     0.166 A 
ATOM     12  C   UNL A   1      31.194  25.685  24.154  1.00  0.00     0.109 A 
BRANCH   9  13
ATOM     13  C   UNL A   1      29.914  28.663  22.242  1.00  0.00     0.352 C 
ATOM     14  O   UNL A   1      30.413  29.577  21.596  1.00  0.00    -0.245 OA
BRANCH  13  15
ATOM     15  O   UNL A   1      28.580  28.560  22.526  1.00  0.00    -0.465 OA
ATOM     16  C   UNL A   1      27.896  29.788  22.799  1.00  0.00     0.282 C 
ENDBRANCH  13  15
ENDBRANCH   9  13
BRANCH  11  17
ATOM     17  O   UNL A   1      29.226  26.978  24.712  1.00  0.00    -0.504 OA
ATOM     18  H   UNL A   1      28.613  26.290  24.881  1.00  0.00     0.293 HD
ENDBRANCH  11  17
BRANCH  12  19
ATOM     19  N   UNL A   1      30.967  24.836  25.234  1.00  0.00    -0.317 N 
ATOM     20  C   UNL A   1      31.536  24.937  26.467  1.00  0.00     0.255 C 
ATOM     21  H   UNL A   1      30.336  24.093  25.093  1.00  0.00     0.170 HD
ATOM     22  O   UNL A   1      31.588  24.027  27.281  1.00  0.00    -0.269 OA
BRANCH  20  23
ATOM     23  C   UNL A   1      32.164  26.227  26.736  1.00  0.00     0.040 A 
ATOM     24  C   UNL A   1      33.792  26.476  26.031  1.00  0.00     0.014 A 
ATOM     25  C   UNL A   1      31.158  27.668  27.283  1.00  0.00     0.014 A 
ATOM     26  C   UNL A   1      34.428  28.148  25.865  1.00  0.00     0.001 A 
ATOM     27  C   UNL A   1      31.819  29.331  27.064  1.00  0.00     0.001 A 
ATOM     28  C   UNL A   1      33.448  29.561  26.345  1.00  0.00     0.000 A 
ENDBRANCH  20  23
ENDBRANCH  12  19
ENDBRANCH   7   8
ENDBRANCH   6   7
ENDBRANCH   3   6
ENDBRANCH   1   2
BRANCH   1  29
ATOM     29  C   UNL A   1      38.471  21.974  25.747  1.00  0.00     0.042 C 
BRANCH  29  30
ATOM     30  C   UNL A   1      39.624  22.569  26.515  1.00  0.00     0.118 C 
BRANCH  30  31
ATOM     31  N   UNL A   1      40.933  22.160  26.014  1.00  0.00    -0.352 N 
ATOM     32  C   UNL A   1      42.004  22.980  25.706  1.00  0.00     0.251 C 
ATOM     33  H   UNL A   1      41.069  21.194  25.880  1.00  0.00     0.163 HD
ATOM     34  O   UNL A   1      42.931  22.569  25.019  1.00  0.00    -0.269 OA
BRANCH  32  35
ATOM     35  C   UNL A   1      41.987  24.359  26.224  1.00  0.00     0.039 A 
ATOM     36  C   UNL A   1      41.401  25.413  25.522  1.00  0.00     0.014 A 
ATOM     37  C   UNL A   1      42.522  24.560  27.491  1.00  0.00     0.014 A 
ATOM     38  C   UNL A   1      41.312  26.654  26.148  1.00  0.00     0.010 A 
ATOM     39  C   UNL A   1      42.202  25.686  28.187  1.00  0.00     0.010 A 
ATOM     40  C   UNL A   1      41.707  26.773  27.490  1.00  0.00    -0.014 A 
BRANCH  40  41
ATOM     41  C   UNL A   1      41.569  28.011  28.235  1.00  0.00     0.031 A 
ATOM     42  C   UNL A   1      42.658  28.983  27.989  1.00  0.00     0.074 A 
ATOM     43  C   UNL A   1      40.434  28.338  28.891  1.00  0.00     0.049 A 
ATOM     44  N   UNL A   1      43.668  29.235  28.752  1.00  0.00    -0.248 NA
ATOM     45  C   UNL A   1      42.749  29.602  26.655  1.00  0.00     0.031 C 
ATOM     46  C   UNL A   1      39.143  27.632  28.911  1.00  0.00     0.029 A 
ATOM     47  N   UNL A   1      40.157  29.462  29.596  1.00  0.00    -0.354 N 
ATOM     48  C   UNL A   1      44.373  30.247  28.113  1.00  0.00     0.074 A 
ATOM     49  C   UNL A   1      43.917  30.242  26.746  1.00  0.00     0.031 C 
ATOM     50  C   UNL A   1      38.177  28.459  29.370  1.00  0.00     0.029 A 
ATOM     51  C   UNL A   1      38.807  29.670  29.859  1.00  0.00     0.049 A 
ATOM     52  H   UNL A   1      40.857  30.085  29.897  1.00  0.00     0.167 HD
ATOM     53  C   UNL A   1      45.038  31.200  28.827  1.00  0.00     0.031 A 
ATOM     54  C   UNL A   1      38.253  30.774  30.417  1.00  0.00     0.031 A 
ATOM     55  C   UNL A   1      45.113  30.845  30.225  1.00  0.00     0.049 A 
ATOM     56  C   UNL A   1      39.350  31.491  31.118  1.00  0.00     0.074 A 
ATOM     57  C   UNL A   1      45.630  29.779  30.934  1.00  0.00     0.029 A 
ATOM     58  N   UNL A   1      44.208  31.460  31.062  1.00  0.00    -0.354 N 
ATOM     59  N   UNL A   1      39.986  30.996  32.146  1.00  0.00    -0.248 NA
ATOM     60  C   UNL A   1      40.065  32.522  30.384  1.00  0.00     0.031 C 
ATOM     61  C   UNL A   1      44.675  29.528  31.964  1.00  0.00     0.029 A 
ATOM     62  C   UNL A   1      43.676  30.503  31.887  1.00  0.00     0.049 A 
ATOM     63  H   UNL A   1      43.982  32.418  31.067  1.00  0.00     0.167 HD
ATOM     64  C   UNL A   1      41.318  31.326  31.935  1.00  0.00     0.074 A 
ATOM     65  C   UNL A   1      41.291  32.345  30.886  1.00  0.00     0.031 C 
ATOM     66  C   UNL A   1      42.329  30.544  32.422  1.00  0.00     0.031 A 
BRANCH  53  67
ATOM     67  C   UNL A   1      45.209  32.631  28.372  1.00  0.00    -0.014 A 
ATOM     68  C   UNL A   1      46.473  33.237  28.532  1.00  0.00     0.010 A 
ATOM     69  C   UNL A   1      44.131  33.483  28.060  1.00  0.00     0.010 A 
ATOM     70  C   UNL A   1      46.627  34.627  28.481  1.00  0.00     0.020 A 
ATOM     71  C   UNL A   1      44.281  34.867  27.961  1.00  0.00     0.020 A 
ATOM     72  C   UNL A   1      45.522  35.433  28.211  1.00  0.00     0.054 A 
BRANCH  72  73
ATOM     73  S   UNL A   1      45.701  37.232  28.262  1.00  0.00     0.124 S 
ATOM     74  O   UNL A   1      44.505  37.630  28.997  1.00  0.00    -0.237 OA
ATOM     75  O   UNL A   1      46.968  37.394  28.969  1.00  0.00    -0.237 OA
ATOM     76  O   UNL A   1      45.725  37.611  26.851  1.00  0.00    -0.744 OA
ENDBRANCH  72  73
ENDBRANCH  53  67
BRANCH  54  77
ATOM     77  C   UNL A   1      36.944  31.402  30.106  1.00  0.00    -0.014 A 
ATOM     78  C   UNL A   1      36.207  32.078  31.097  1.00  0.00     0.010 A 
ATOM     79  C   UNL A   1      36.550  31.582  28.763  1.00  0.00     0.010 A 
ATOM     80  C   UNL A   1      35.159  32.951  30.752  1.00  0.00     0.020 A 
ATOM     81  C   UNL A   1      35.505  32.447  28.413  1.00  0.00     0.020 A 
ATOM     82  C   UNL A   1      34.829  33.147  29.408  1.00  0.00     0.054 A 
BRANCH  82  83
ATOM     83  S   UNL A   1      33.601  34.415  28.962  1.00  0.00     0.124 S 
ATOM     84  O   UNL A   1      32.765  33.712  27.994  1.00  0.00    -0.237 OA
ATOM     85  O   UNL A   1      32.970  34.713  30.245  1.00  0.00    -0.237 OA
ATOM     86  O   UNL A   1      34.413  35.499  28.412  1.00  0.00    -0.744 OA
ENDBRANCH  82  83
ENDBRANCH  54  77
BRANCH  66  87
ATOM     87  C   UNL A   1      41.999  29.492  33.458  1.00  0.00    -0.014 A 
ATOM     88  C   UNL A   1      41.816  28.125  33.175  1.00  0.00     0.010 A 
ATOM     89  C   UNL A   1      42.045  29.897  34.804  1.00  0.00     0.010 A 
ATOM     90  C   UNL A   1      41.667  27.192  34.217  1.00  0.00     0.020 A 
ATOM     91  C   UNL A   1      41.916  28.974  35.843  1.00  0.00     0.020 A 
ATOM     92  C   UNL A   1      41.719  27.626  35.546  1.00  0.00     0.054 A 
BRANCH  92  93
ATOM     93  S   UNL A   1      41.576  26.419  36.895  1.00  0.00     0.124 S 
ATOM     94  O   UNL A   1      42.823  26.613  37.629  1.00  0.00    -0.237 OA
ATOM     95  O   UNL A   1      40.362  26.846  37.587  1.00  0.00    -0.237 OA
ATOM     96  O   UNL A   1      41.462  25.135  36.202  1.00  0.00    -0.744 OA
ENDBRANCH  92  93
ENDBRANCH  66  87
ENDBRANCH  40  41
ENDBRANCH  32  35
ENDBRANCH  30  31
ENDBRANCH  29  30
ENDBRANCH   1  29
TORSDOF 20
ENDMDL
MODEL 3
REMARK VINA RESULT:     -12.7      1.921      3.351
REMARK SMILES COC(=O)c1sc(SCC(=O)NCCCNC(=O)c2ccc(-c3c4nc(c(-c5ccc(S(=O)(=O)[O-])cc5)c5ccc([nH]5)c(-c5ccc(S(=O)(=O)[O-])cc5)c5nc(c(-c6ccc(S(=O)(=O)[O-])cc6)c6ccc3[nH]6)C=C5)C=C4)cc2)c(NC(=O)c2ccccc2)c1O
REMARK SMILES IDX 13 1 12 2 10 3 11 4 9 6 8 7 7 8 5 9 6 10 89 11 79 12 3 13
REMARK SMILES IDX 4 14 2 15 1 16 90 17 80 19 81 20 82 22 83 23 84 24 88 25
REMARK SMILES IDX 85 26 87 27 86 28 14 29 15 30 16 31 17 32 18 34 19 35 20 36
REMARK SMILES IDX 78 37 21 38 77 39 22 40 23 41 24 42 71 43 25 44 76 45 70 46
REMARK SMILES IDX 72 47 26 48 75 49 69 50 68 51 27 53 57 54 38 55 56 56 39 57
REMARK SMILES IDX 42 58 55 59 73 60 40 61 41 62 54 64 74 65 43 66 28 67 29 68
REMARK SMILES IDX 37 69 30 70 36 71 31 72 32 73 33 74 34 75 35 76 58 77 59 78
REMARK SMILES IDX 67 79 60 80 66 81 61 82 62 83 63 84 64 85 65 86 44 87 45 88
REMARK SMILES IDX 53 89 46 90 52 91 47 92 48 93 49 94 50 95 51 96
REMARK H PARENT 12 5 90 18 80 21 16 33 72 52 42 63
REMARK Flexibility Score: inf
ROOT
ATOM      1  C   UNL A   1      36.112  23.281  25.196  1.00  0.00     0.117 C 
ENDROOT
BRANCH   1   2
ATOM      2  N   UNL A   1      35.438  23.005  23.940  1.00  0.00    -0.355 N 
ATOM      3  C   UNL A   1      34.325  23.567  23.364  1.00  0.00     0.230 C 
ATOM      4  O   UNL A   1      34.186  23.325  22.161  1.00  0.00    -0.274 OA
ATOM      5  H   UNL A   1      35.852  22.287  23.408  1.00  0.00     0.163 HD
BRANCH   3   6
ATOM      6  C   UNL A   1      33.310  24.659  24.264  1.00  0.00     0.175 C 
BRANCH   6   7
ATOM      7  S   UNL A   1      30.791  25.186  23.988  1.00  0.00    -0.103 SA
BRANCH   7   8
ATOM      8  C   UNL A   1      30.278  26.815  23.278  1.00  0.00     0.089 A 
ATOM      9  C   UNL A   1      28.868  28.795  22.656  1.00  0.00     0.157 A 
ATOM     10  S   UNL A   1      28.645  27.335  23.534  1.00  0.00    -0.116 S 
ATOM     11  C   UNL A   1      30.169  28.892  22.215  1.00  0.00     0.166 A 
ATOM     12  C   UNL A   1      30.994  27.792  22.583  1.00  0.00     0.109 A 
BRANCH   9  13
ATOM     13  C   UNL A   1      27.763  29.719  22.489  1.00  0.00     0.352 C 
ATOM     14  O   UNL A   1      26.797  29.850  23.231  1.00  0.00    -0.245 OA
BRANCH  13  15
ATOM     15  O   UNL A   1      27.973  30.462  21.359  1.00  0.00    -0.465 OA
ATOM     16  C   UNL A   1      27.926  31.884  21.522  1.00  0.00     0.282 C 
ENDBRANCH  13  15
ENDBRANCH   9  13
BRANCH  11  17
ATOM     17  O   UNL A   1      30.653  29.918  21.478  1.00  0.00    -0.504 OA
ATOM     18  H   UNL A   1      30.695  30.779  21.846  1.00  0.00     0.293 HD
ENDBRANCH  11  17
BRANCH  12  19
ATOM     19  N   UNL A   1      32.333  27.786  22.203  1.00  0.00    -0.317 N 
ATOM     20  C   UNL A   1      33.369  28.319  22.907  1.00  0.00     0.255 C 
ATOM     21  H   UNL A   1      32.551  27.356  21.344  1.00  0.00     0.170 HD
ATOM     22  O   UNL A   1      34.459  28.598  22.429  1.00  0.00    -0.269 OA
BRANCH  20  23
ATOM     23  C   UNL A   1      33.060  28.613  24.303  1.00  0.00     0.040 A 
ATOM     24  C   UNL A   1      34.185  27.933  25.522  1.00  0.00     0.014 A 
ATOM     25  C   UNL A   1      31.941  30.005  24.747  1.00  0.00     0.014 A 
ATOM     26  C   UNL A   1      34.204  28.626  27.179  1.00  0.00     0.001 A 
ATOM     27  C   UNL A   1      32.020  30.696  26.410  1.00  0.00     0.001 A 
ATOM     28  C   UNL A   1      33.160  30.008  27.614  1.00  0.00     0.000 A 
ENDBRANCH  20  23
ENDBRANCH  12  19
ENDBRANCH   7   8
ENDBRANCH   6   7
ENDBRANCH   3   6
ENDBRANCH   1   2
BRANCH   1  29
ATOM     29  C   UNL A   1      37.290  22.349  25.478  1.00  0.00     0.042 C 
BRANCH  29  30
ATOM     30  C   UNL A   1      38.420  23.036  26.202  1.00  0.00     0.118 C 
BRANCH  30  31
ATOM     31  N   UNL A   1      39.694  22.329  26.102  1.00  0.00    -0.352 N 
ATOM     32  C   UNL A   1      40.962  22.880  26.148  1.00  0.00     0.251 C 
ATOM     33  H   UNL A   1      39.645  21.353  25.988  1.00  0.00     0.163 HD
ATOM     34  O   UNL A   1      41.935  22.247  25.756  1.00  0.00    -0.269 OA
BRANCH  32  35
ATOM     35  C   UNL A   1      41.099  24.250  26.673  1.00  0.00     0.039 A 
ATOM     36  C   UNL A   1      40.415  25.333  26.121  1.00  0.00     0.014 A 
ATOM     37  C   UNL A   1      41.894  24.412  27.802  1.00  0.00     0.014 A 
ATOM     38  C   UNL A   1      40.501  26.565  26.767  1.00  0.00     0.010 A 
ATOM     39  C   UNL A   1      41.765  25.534  28.563  1.00  0.00     0.010 A 
ATOM     40  C   UNL A   1      41.171  26.647  27.997  1.00  0.00    -0.014 A 
BRANCH  40  41
ATOM     41  C   UNL A   1      41.233  27.875  28.768  1.00  0.00     0.031 A 
ATOM     42  C   UNL A   1      42.373  28.751  28.412  1.00  0.00     0.074 A 
ATOM     43  C   UNL A   1      40.215  28.289  29.556  1.00  0.00     0.049 A 
ATOM     44  N   UNL A   1      43.481  28.893  29.056  1.00  0.00    -0.248 NA
ATOM     45  C   UNL A   1      42.368  29.389  27.084  1.00  0.00     0.031 C 
ATOM     46  C   UNL A   1      38.875  27.701  29.714  1.00  0.00     0.029 A 
ATOM     47  N   UNL A   1      40.124  29.417  30.301  1.00  0.00    -0.354 N 
ATOM     48  C   UNL A   1      44.200  29.852  28.352  1.00  0.00     0.074 A 
ATOM     49  C   UNL A   1      43.593  29.920  27.048  1.00  0.00     0.031 C 
ATOM     50  C   UNL A   1      38.048  28.601  30.292  1.00  0.00     0.029 A 
ATOM     51  C   UNL A   1      38.838  29.739  30.720  1.00  0.00     0.049 A 
ATOM     52  H   UNL A   1      40.909  29.966  30.527  1.00  0.00     0.167 HD
ATOM     53  C   UNL A   1      45.026  30.725  28.997  1.00  0.00     0.031 A 
ATOM     54  C   UNL A   1      38.456  30.876  31.352  1.00  0.00     0.031 A 
ATOM     55  C   UNL A   1      45.226  30.332  30.373  1.00  0.00     0.049 A 
ATOM     56  C   UNL A   1      39.686  31.474  31.931  1.00  0.00     0.074 A 
ATOM     57  C   UNL A   1      45.720  29.207  31.004  1.00  0.00     0.029 A 
ATOM     58  N   UNL A   1      44.482  31.006  31.317  1.00  0.00    -0.354 N 
ATOM     59  N   UNL A   1      40.386  30.901  32.873  1.00  0.00    -0.248 NA
ATOM     60  C   UNL A   1      40.406  32.453  31.133  1.00  0.00     0.031 C 
ATOM     61  C   UNL A   1      44.869  29.020  32.135  1.00  0.00     0.029 A 
ATOM     62  C   UNL A   1      43.962  30.083  32.185  1.00  0.00     0.049 A 
ATOM     63  H   UNL A   1      44.348  31.980  31.359  1.00  0.00     0.167 HD
ATOM     64  C   UNL A   1      41.711  31.113  32.514  1.00  0.00     0.074 A 
ATOM     65  C   UNL A   1      41.659  32.155  31.488  1.00  0.00     0.031 C 
ATOM     66  C   UNL A   1      42.694  30.232  32.872  1.00  0.00     0.031 A 
BRANCH  53  67
ATOM     67  C   UNL A   1      45.276  32.144  28.544  1.00  0.00    -0.014 A 
ATOM     68  C   UNL A   1      46.591  32.511  28.191  1.00  0.00     0.010 A 
ATOM     69  C   UNL A   1      44.348  33.191  28.714  1.00  0.00     0.010 A 
ATOM     70  C   UNL A   1      46.977  33.855  28.113  1.00  0.00     0.020 A 
ATOM     71  C   UNL A   1      44.710  34.533  28.594  1.00  0.00     0.020 A 
ATOM     72  C   UNL A   1      46.033  34.857  28.333  1.00  0.00     0.054 A 
BRANCH  72  73
ATOM     73  S   UNL A   1      46.559  36.586  28.346  1.00  0.00     0.124 S 
ATOM     74  O   UNL A   1      45.290  37.283  28.526  1.00  0.00    -0.237 OA
ATOM     75  O   UNL A   1      47.472  36.620  29.485  1.00  0.00    -0.237 OA
ATOM     76  O   UNL A   1      47.192  36.760  27.040  1.00  0.00    -0.744 OA
ENDBRANCH  72  73
ENDBRANCH  53  67
BRANCH  54  77
ATOM     77  C   UNL A   1      37.183  31.626  31.202  1.00  0.00    -0.014 A 
ATOM     78  C   UNL A   1      36.113  31.431  32.096  1.00  0.00     0.010 A 
ATOM     79  C   UNL A   1      37.122  32.745  30.345  1.00  0.00     0.010 A 
ATOM     80  C   UNL A   1      35.056  32.356  32.175  1.00  0.00     0.020 A 
ATOM     81  C   UNL A   1      36.070  33.669  30.416  1.00  0.00     0.020 A 
ATOM     82  C   UNL A   1      35.053  33.483  31.348  1.00  0.00     0.054 A 
BRANCH  82  83
ATOM     83  S   UNL A   1      33.784  34.766  31.586  1.00  0.00     0.124 S 
ATOM     84  O   UNL A   1      32.976  34.209  32.666  1.00  0.00    -0.237 OA
ATOM     85  O   UNL A   1      34.579  35.941  31.930  1.00  0.00    -0.237 OA
ATOM     86  O   UNL A   1      33.120  34.835  30.285  1.00  0.00    -0.744 OA
ENDBRANCH  82  83
ENDBRANCH  54  77
BRANCH  66  87
ATOM     87  C   UNL A   1      42.388  29.191  33.926  1.00  0.00    -0.014 A 
ATOM     88  C   UNL A   1      41.873  27.909  33.653  1.00  0.00     0.010 A 
ATOM     89  C   UNL A   1      42.805  29.480  35.238  1.00  0.00     0.010 A 
ATOM     90  C   UNL A   1      41.765  26.949  34.675  1.00  0.00     0.020 A 
ATOM     91  C   UNL A   1      42.718  28.525  36.252  1.00  0.00     0.020 A 
ATOM     92  C   UNL A   1      42.191  27.266  35.970  1.00  0.00     0.054 A 
BRANCH  92  93
ATOM     93  S   UNL A   1      42.099  26.014  37.281  1.00  0.00     0.124 S 
ATOM     94  O   UNL A   1      40.687  26.045  37.651  1.00  0.00    -0.237 OA
ATOM     95  O   UNL A   1      42.547  24.799  36.604  1.00  0.00    -0.237 OA
ATOM     96  O   UNL A   1      43.016  26.514  38.305  1.00  0.00    -0.744 OA
ENDBRANCH  92  93
ENDBRANCH  66  87
ENDBRANCH  40  41
ENDBRANCH  32  35
ENDBRANCH  30  31
ENDBRANCH  29  30
ENDBRANCH   1  29
TORSDOF 20
ENDMDL
