MODEL 1
REMARK VINA RESULT:      -9.0      0.000      0.000
REMARK SMILES Cc1cc(C)cc(C[N@@H+]2CCO[C@@H](CC(=O)NCCCNC(=O)c3ccc(-c4c5nc(c(-c6ccc(S(=O)(=O)[O-])cc6)c6ccc([nH]6)c(-c6ccc(S(=O)(=O)[O-])cc6)c6nc(c(-c7ccc(S(=O)(=O)[O-])cc7)c7ccc4[nH]7)C=C6)C=C5)cc3)C2)c1
REMARK SMILES IDX 19 1 18 2 17 3 15 4 16 5 14 7 13 8 9 9 10 10 84 11 11 13
REMARK SMILES IDX 12 14 8 15 7 16 1 17 2 18 3 19 85 20 4 21 5 22 6 23 20 24
REMARK SMILES IDX 21 25 22 26 23 28 24 29 25 30 83 31 26 32 82 33 27 34 28 35
REMARK SMILES IDX 29 36 76 37 30 38 81 39 75 40 77 41 31 42 80 43 74 44 73 45
REMARK SMILES IDX 32 47 62 48 43 49 61 50 44 51 47 52 60 53 78 54 45 55 46 56
REMARK SMILES IDX 59 58 79 59 48 60 33 61 34 62 42 63 35 64 41 65 36 66 37 67
REMARK SMILES IDX 38 68 39 69 40 70 63 71 64 72 72 73 65 74 71 75 66 76 67 77
REMARK SMILES IDX 68 78 69 79 70 80 49 81 50 82 58 83 51 84 57 85 52 86 53 87
REMARK SMILES IDX 54 88 55 89 56 90
REMARK H PARENT 17 6 9 12 21 27 77 46 47 57
REMARK Flexibility Score: inf
ROOT
ATOM      1  C   UNL A   1      41.414  20.394  26.112  1.00  0.00     0.042 C 
ENDROOT
BRANCH   1   2
ATOM      2  C   UNL A   1      42.924  20.629  26.203  1.00  0.00     0.117 C 
BRANCH   2   3
ATOM      3  N   UNL A   1      43.522  20.972  24.917  1.00  0.00    -0.356 N 
ATOM      4  C   UNL A   1      43.811  22.187  24.366  1.00  0.00     0.222 C 
ATOM      5  O   UNL A   1      44.310  22.211  23.239  1.00  0.00    -0.275 OA
ATOM      6  H   UNL A   1      43.756  20.199  24.354  1.00  0.00     0.163 HD
BRANCH   4   7
ATOM      7  C   UNL A   1      43.502  23.467  25.111  1.00  0.00     0.138 C 
BRANCH   7   8
ATOM      8  C   UNL A   1      44.759  24.212  25.572  1.00  0.00     0.182 C 
ATOM      9  N   UNL A   1      45.609  25.812  27.387  1.00  0.00    -0.327 N 
ATOM     10  C   UNL A   1      46.706  24.860  27.577  1.00  0.00     0.291 C 
ATOM     11  C   UNL A   1      44.464  25.174  26.738  1.00  0.00     0.295 C 
ATOM     12  H   UNL A   1      45.320  26.064  28.332  1.00  0.00     0.348 HD
ATOM     13  C   UNL A   1      46.926  23.846  26.435  1.00  0.00     0.222 C 
ATOM     14  O   UNL A   1      45.708  23.218  26.009  1.00  0.00    -0.366 OA
BRANCH   9  15
ATOM     15  C   UNL A   1      45.950  27.151  26.894  1.00  0.00     0.299 C 
BRANCH  15  16
ATOM     16  C   UNL A   1      44.916  28.216  27.158  1.00  0.00     0.007 A 
ATOM     17  C   UNL A   1      41.536  29.327  25.792  1.00  0.00     0.044 C 
ATOM     18  C   UNL A   1      42.815  29.300  26.575  1.00  0.00    -0.050 A 
ATOM     19  C   UNL A   1      43.195  30.410  27.341  1.00  0.00     0.006 A 
ATOM     20  C   UNL A   1      43.684  28.207  26.485  1.00  0.00     0.013 A 
ATOM     21  C   UNL A   1      44.407  30.419  28.042  1.00  0.00    -0.050 A 
ATOM     22  C   UNL A   1      44.857  31.647  28.772  1.00  0.00     0.044 C 
ATOM     23  C   UNL A   1      45.232  29.296  27.987  1.00  0.00     0.013 A 
ENDBRANCH  15  16
ENDBRANCH   9  15
ENDBRANCH   7   8
ENDBRANCH   4   7
ENDBRANCH   2   3
ENDBRANCH   1   2
BRANCH   1  24
ATOM     24  C   UNL A   1      40.572  21.447  26.814  1.00  0.00     0.118 C 
BRANCH  24  25
ATOM     25  N   UNL A   1      39.495  21.916  25.961  1.00  0.00    -0.352 N 
ATOM     26  C   UNL A   1      38.791  23.093  26.010  1.00  0.00     0.251 C 
ATOM     27  H   UNL A   1      39.230  21.298  25.242  1.00  0.00     0.163 HD
ATOM     28  O   UNL A   1      37.724  23.168  25.392  1.00  0.00    -0.269 OA
BRANCH  26  29
ATOM     29  C   UNL A   1      39.276  24.264  26.782  1.00  0.00     0.039 A 
ATOM     30  C   UNL A   1      38.799  24.454  28.084  1.00  0.00     0.014 A 
ATOM     31  C   UNL A   1      40.122  25.222  26.217  1.00  0.00     0.014 A 
ATOM     32  C   UNL A   1      39.191  25.578  28.821  1.00  0.00     0.010 A 
ATOM     33  C   UNL A   1      40.574  26.301  26.980  1.00  0.00     0.010 A 
ATOM     34  C   UNL A   1      40.096  26.505  28.282  1.00  0.00    -0.014 A 
BRANCH  34  35
ATOM     35  C   UNL A   1      40.515  27.712  29.046  1.00  0.00     0.031 A 
ATOM     36  C   UNL A   1      41.854  27.744  29.740  1.00  0.00     0.074 A 
ATOM     37  C   UNL A   1      39.682  28.766  29.155  1.00  0.00     0.049 A 
ATOM     38  N   UNL A   1      42.372  28.682  30.493  1.00  0.00    -0.248 NA
ATOM     39  C   UNL A   1      42.712  26.558  29.588  1.00  0.00     0.031 C 
ATOM     40  C   UNL A   1      38.346  28.855  28.561  1.00  0.00     0.029 A 
ATOM     41  N   UNL A   1      39.834  29.964  29.809  1.00  0.00    -0.354 N 
ATOM     42  C   UNL A   1      43.602  28.191  30.920  1.00  0.00     0.074 A 
ATOM     43  C   UNL A   1      43.733  26.856  30.378  1.00  0.00     0.031 C 
ATOM     44  C   UNL A   1      37.813  30.052  28.858  1.00  0.00     0.029 A 
ATOM     45  C   UNL A   1      38.749  30.799  29.691  1.00  0.00     0.049 A 
ATOM     46  H   UNL A   1      40.645  30.202  30.315  1.00  0.00     0.167 HD
ATOM     47  C   UNL A   1      44.546  28.799  31.678  1.00  0.00     0.031 A 
ATOM     48  C   UNL A   1      38.527  32.028  30.199  1.00  0.00     0.031 A 
ATOM     49  C   UNL A   1      44.429  30.135  32.200  1.00  0.00     0.049 A 
ATOM     50  C   UNL A   1      39.591  32.686  31.035  1.00  0.00     0.074 A 
ATOM     51  C   UNL A   1      45.356  30.857  32.931  1.00  0.00     0.029 A 
ATOM     52  N   UNL A   1      43.318  30.950  32.046  1.00  0.00    -0.354 N 
ATOM     53  N   UNL A   1      40.768  32.224  31.381  1.00  0.00    -0.248 NA
ATOM     54  C   UNL A   1      39.298  34.035  31.539  1.00  0.00     0.031 C 
ATOM     55  C   UNL A   1      44.790  32.096  33.253  1.00  0.00     0.029 A 
ATOM     56  C   UNL A   1      43.529  32.162  32.682  1.00  0.00     0.049 A 
ATOM     57  H   UNL A   1      42.502  30.705  31.555  1.00  0.00     0.167 HD
ATOM     58  C   UNL A   1      41.367  33.235  32.124  1.00  0.00     0.074 A 
ATOM     59  C   UNL A   1      40.428  34.338  32.166  1.00  0.00     0.031 C 
ATOM     60  C   UNL A   1      42.586  33.249  32.718  1.00  0.00     0.031 A 
BRANCH  47  61
ATOM     61  C   UNL A   1      45.794  28.017  31.993  1.00  0.00    -0.014 A 
ATOM     62  C   UNL A   1      46.928  28.092  31.164  1.00  0.00     0.010 A 
ATOM     63  C   UNL A   1      45.848  27.222  33.153  1.00  0.00     0.010 A 
ATOM     64  C   UNL A   1      48.075  27.351  31.463  1.00  0.00     0.020 A 
ATOM     65  C   UNL A   1      47.003  26.501  33.470  1.00  0.00     0.020 A 
ATOM     66  C   UNL A   1      48.103  26.555  32.612  1.00  0.00     0.054 A 
BRANCH  66  67
ATOM     67  S   UNL A   1      49.608  25.614  32.984  1.00  0.00     0.124 S 
ATOM     68  O   UNL A   1      49.202  24.855  34.164  1.00  0.00    -0.237 OA
ATOM     69  O   UNL A   1      49.804  24.826  31.769  1.00  0.00    -0.237 OA
ATOM     70  O   UNL A   1      50.613  26.647  33.221  1.00  0.00    -0.744 OA
ENDBRANCH  66  67
ENDBRANCH  47  61
BRANCH  48  71
ATOM     71  C   UNL A   1      37.243  32.724  29.916  1.00  0.00    -0.014 A 
ATOM     72  C   UNL A   1      37.173  33.715  28.920  1.00  0.00     0.010 A 
ATOM     73  C   UNL A   1      36.078  32.387  30.628  1.00  0.00     0.010 A 
ATOM     74  C   UNL A   1      35.966  34.365  28.652  1.00  0.00     0.020 A 
ATOM     75  C   UNL A   1      34.864  33.018  30.346  1.00  0.00     0.020 A 
ATOM     76  C   UNL A   1      34.817  34.011  29.365  1.00  0.00     0.054 A 
BRANCH  76  77
ATOM     77  S   UNL A   1      33.246  34.823  28.959  1.00  0.00     0.124 S 
ATOM     78  O   UNL A   1      33.698  36.072  28.352  1.00  0.00    -0.237 OA
ATOM     79  O   UNL A   1      32.620  33.867  28.049  1.00  0.00    -0.237 OA
ATOM     80  O   UNL A   1      32.588  34.958  30.256  1.00  0.00    -0.744 OA
ENDBRANCH  76  77
ENDBRANCH  48  71
BRANCH  60  81
ATOM     81  C   UNL A   1      42.990  34.506  33.441  1.00  0.00    -0.014 A 
ATOM     82  C   UNL A   1      42.845  34.621  34.835  1.00  0.00     0.010 A 
ATOM     83  C   UNL A   1      43.572  35.565  32.721  1.00  0.00     0.010 A 
ATOM     84  C   UNL A   1      43.249  35.785  35.492  1.00  0.00     0.020 A 
ATOM     85  C   UNL A   1      43.999  36.722  33.378  1.00  0.00     0.020 A 
ATOM     86  C   UNL A   1      43.822  36.830  34.759  1.00  0.00     0.054 A 
BRANCH  86  87
ATOM     87  S   UNL A   1      44.381  38.315  35.640  1.00  0.00     0.124 S 
ATOM     88  O   UNL A   1      45.832  38.156  35.611  1.00  0.00    -0.237 OA
ATOM     89  O   UNL A   1      43.850  39.397  34.814  1.00  0.00    -0.237 OA
ATOM     90  O   UNL A   1      43.766  38.187  36.958  1.00  0.00    -0.744 OA
ENDBRANCH  86  87
ENDBRANCH  60  81
ENDBRANCH  34  35
ENDBRANCH  26  29
ENDBRANCH  24  25
ENDBRANCH   1  24
TORSDOF 16
ENDMDL
MODEL 2
REMARK VINA RESULT:      -8.9      4.447     11.290
REMARK SMILES Cc1cc(C)cc(C[N@@H+]2CCO[C@@H](CC(=O)NCCCNC(=O)c3ccc(-c4c5nc(c(-c6ccc(S(=O)(=O)[O-])cc6)c6ccc([nH]6)c(-c6ccc(S(=O)(=O)[O-])cc6)c6nc(c(-c7ccc(S(=O)(=O)[O-])cc7)c7ccc4[nH]7)C=C6)C=C5)cc3)C2)c1
REMARK SMILES IDX 19 1 18 2 17 3 15 4 16 5 14 7 13 8 9 9 10 10 84 11 11 13
REMARK SMILES IDX 12 14 8 15 7 16 1 17 2 18 3 19 85 20 4 21 5 22 6 23 20 24
REMARK SMILES IDX 21 25 22 26 23 28 24 29 25 30 83 31 26 32 82 33 27 34 28 35
REMARK SMILES IDX 29 36 76 37 30 38 81 39 75 40 77 41 31 42 80 43 74 44 73 45
REMARK SMILES IDX 32 47 62 48 43 49 61 50 44 51 47 52 60 53 78 54 45 55 46 56
REMARK SMILES IDX 59 58 79 59 48 60 33 61 34 62 42 63 35 64 41 65 36 66 37 67
REMARK SMILES IDX 38 68 39 69 40 70 63 71 64 72 72 73 65 74 71 75 66 76 67 77
REMARK SMILES IDX 68 78 69 79 70 80 49 81 50 82 58 83 51 84 57 85 52 86 53 87
REMARK SMILES IDX 54 88 55 89 56 90
REMARK H PARENT 17 6 9 12 21 27 77 46 47 57
REMARK Flexibility Score: inf
ROOT
ATOM      1  C   UNL A   1      33.033  28.219  25.475  1.00  0.00     0.042 C 
ENDROOT
BRANCH   1   2
ATOM      2  C   UNL A   1      31.633  28.823  25.347  1.00  0.00     0.117 C 
BRANCH   2   3
ATOM      3  N   UNL A   1      31.320  29.240  23.984  1.00  0.00    -0.356 N 
ATOM      4  C   UNL A   1      30.645  28.593  22.988  1.00  0.00     0.222 C 
ATOM      5  O   UNL A   1      30.525  29.162  21.902  1.00  0.00    -0.275 OA
ATOM      6  H   UNL A   1      31.649  30.136  23.743  1.00  0.00     0.163 HD
BRANCH   4   7
ATOM      7  C   UNL A   1      30.086  27.205  23.210  1.00  0.00     0.138 C 
BRANCH   7   8
ATOM      8  C   UNL A   1      31.173  26.139  23.378  1.00  0.00     0.182 C 
ATOM      9  N   UNL A   1      31.589  23.620  23.136  1.00  0.00    -0.327 N 
ATOM     10  C   UNL A   1      32.767  23.988  22.348  1.00  0.00     0.291 C 
ATOM     11  C   UNL A   1      30.620  24.715  23.179  1.00  0.00     0.295 C 
ATOM     12  H   UNL A   1      31.159  22.855  22.616  1.00  0.00     0.348 HD
ATOM     13  C   UNL A   1      33.250  25.446  22.495  1.00  0.00     0.222 C 
ATOM     14  O   UNL A   1      32.182  26.398  22.380  1.00  0.00    -0.366 OA
BRANCH   9  15
ATOM     15  C   UNL A   1      31.813  22.925  24.408  1.00  0.00     0.299 C 
BRANCH  15  16
ATOM     16  C   UNL A   1      32.733  21.732  24.335  1.00  0.00     0.007 A 
ATOM     17  C   UNL A   1      32.486  17.940  24.050  1.00  0.00     0.044 C 
ATOM     18  C   UNL A   1      33.046  19.320  24.228  1.00  0.00    -0.050 A 
ATOM     19  C   UNL A   1      34.380  19.493  24.620  1.00  0.00     0.006 A 
ATOM     20  C   UNL A   1      32.227  20.445  24.092  1.00  0.00     0.013 A 
ATOM     21  C   UNL A   1      34.907  20.772  24.835  1.00  0.00    -0.050 A 
ATOM     22  C   UNL A   1      36.300  20.947  25.355  1.00  0.00     0.044 C 
ATOM     23  C   UNL A   1      34.089  21.886  24.636  1.00  0.00     0.013 A 
ENDBRANCH  15  16
ENDBRANCH   9  15
ENDBRANCH   7   8
ENDBRANCH   4   7
ENDBRANCH   2   3
ENDBRANCH   1   2
BRANCH   1  24
ATOM     24  C   UNL A   1      33.680  28.417  26.837  1.00  0.00     0.118 C 
BRANCH  24  25
ATOM     25  N   UNL A   1      33.588  29.800  27.268  1.00  0.00    -0.352 N 
ATOM     26  C   UNL A   1      34.452  30.533  28.042  1.00  0.00     0.251 C 
ATOM     27  H   UNL A   1      32.788  30.283  26.959  1.00  0.00     0.163 HD
ATOM     28  O   UNL A   1      34.046  31.589  28.540  1.00  0.00    -0.269 OA
BRANCH  26  29
ATOM     29  C   UNL A   1      35.845  30.090  28.295  1.00  0.00     0.039 A 
ATOM     30  C   UNL A   1      36.181  29.622  29.570  1.00  0.00     0.014 A 
ATOM     31  C   UNL A   1      36.845  30.211  27.326  1.00  0.00     0.014 A 
ATOM     32  C   UNL A   1      37.498  29.249  29.859  1.00  0.00     0.010 A 
ATOM     33  C   UNL A   1      38.142  29.765  27.591  1.00  0.00     0.010 A 
ATOM     34  C   UNL A   1      38.490  29.302  28.868  1.00  0.00    -0.014 A 
BRANCH  34  35
ATOM     35  C   UNL A   1      39.899  28.920  29.160  1.00  0.00     0.031 A 
ATOM     36  C   UNL A   1      40.835  29.909  29.807  1.00  0.00     0.074 A 
ATOM     37  C   UNL A   1      40.354  27.700  28.811  1.00  0.00     0.049 A 
ATOM     38  N   UNL A   1      42.106  29.777  30.094  1.00  0.00    -0.248 NA
ATOM     39  C   UNL A   1      40.277  31.225  30.157  1.00  0.00     0.031 C 
ATOM     40  C   UNL A   1      39.565  26.658  28.149  1.00  0.00     0.029 A 
ATOM     41  N   UNL A   1      41.596  27.132  28.958  1.00  0.00    -0.354 N 
ATOM     42  C   UNL A   1      42.502  30.997  30.634  1.00  0.00     0.074 A 
ATOM     43  C   UNL A   1      41.348  31.869  30.596  1.00  0.00     0.031 C 
ATOM     44  C   UNL A   1      40.334  25.571  27.971  1.00  0.00     0.029 A 
ATOM     45  C   UNL A   1      41.678  25.849  28.469  1.00  0.00     0.049 A 
ATOM     46  H   UNL A   1      42.356  27.599  29.374  1.00  0.00     0.167 HD
ATOM     47  C   UNL A   1      43.709  31.356  31.135  1.00  0.00     0.031 A 
ATOM     48  C   UNL A   1      42.717  24.992  28.421  1.00  0.00     0.031 A 
ATOM     49  C   UNL A   1      44.852  30.485  31.195  1.00  0.00     0.049 A 
ATOM     50  C   UNL A   1      44.047  25.410  28.986  1.00  0.00     0.074 A 
ATOM     51  C   UNL A   1      46.101  30.740  31.735  1.00  0.00     0.029 A 
ATOM     52  N   UNL A   1      44.888  29.190  30.701  1.00  0.00    -0.354 N 
ATOM     53  N   UNL A   1      44.383  26.551  29.542  1.00  0.00    -0.248 NA
ATOM     54  C   UNL A   1      45.134  24.423  28.927  1.00  0.00     0.031 C 
ATOM     55  C   UNL A   1      46.905  29.613  31.531  1.00  0.00     0.029 A 
ATOM     56  C   UNL A   1      46.142  28.640  30.907  1.00  0.00     0.049 A 
ATOM     57  H   UNL A   1      44.133  28.730  30.269  1.00  0.00     0.167 HD
ATOM     58  C   UNL A   1      45.714  26.408  29.919  1.00  0.00     0.074 A 
ATOM     59  C   UNL A   1      46.117  25.069  29.541  1.00  0.00     0.031 C 
ATOM     60  C   UNL A   1      46.529  27.306  30.525  1.00  0.00     0.031 A 
BRANCH  47  61
ATOM     61  C   UNL A   1      43.855  32.762  31.655  1.00  0.00    -0.014 A 
ATOM     62  C   UNL A   1      43.593  33.069  33.003  1.00  0.00     0.010 A 
ATOM     63  C   UNL A   1      44.293  33.785  30.794  1.00  0.00     0.010 A 
ATOM     64  C   UNL A   1      43.721  34.380  33.469  1.00  0.00     0.020 A 
ATOM     65  C   UNL A   1      44.449  35.093  31.264  1.00  0.00     0.020 A 
ATOM     66  C   UNL A   1      44.143  35.386  32.594  1.00  0.00     0.054 A 
BRANCH  66  67
ATOM     67  S   UNL A   1      44.314  37.077  33.227  1.00  0.00     0.124 S 
ATOM     68  O   UNL A   1      43.019  37.288  33.870  1.00  0.00    -0.237 OA
ATOM     69  O   UNL A   1      45.453  36.967  34.136  1.00  0.00    -0.237 OA
ATOM     70  O   UNL A   1      44.553  37.874  32.028  1.00  0.00    -0.744 OA
ENDBRANCH  66  67
ENDBRANCH  47  61
BRANCH  48  71
ATOM     71  C   UNL A   1      42.534  23.640  27.827  1.00  0.00    -0.014 A 
ATOM     72  C   UNL A   1      42.971  23.372  26.518  1.00  0.00     0.010 A 
ATOM     73  C   UNL A   1      41.939  22.609  28.575  1.00  0.00     0.010 A 
ATOM     74  C   UNL A   1      42.802  22.100  25.962  1.00  0.00     0.020 A 
ATOM     75  C   UNL A   1      41.791  21.330  28.032  1.00  0.00     0.020 A 
ATOM     76  C   UNL A   1      42.216  21.086  26.724  1.00  0.00     0.054 A 
BRANCH  76  77
ATOM     77  S   UNL A   1      42.063  19.427  26.007  1.00  0.00     0.124 S 
ATOM     78  O   UNL A   1      40.620  19.311  25.814  1.00  0.00    -0.237 OA
ATOM     79  O   UNL A   1      42.857  19.534  24.785  1.00  0.00    -0.237 OA
ATOM     80  O   UNL A   1      42.631  18.558  27.035  1.00  0.00    -0.744 OA
ENDBRANCH  76  77
ENDBRANCH  48  71
BRANCH  60  81
ATOM     81  C   UNL A   1      47.932  26.863  30.845  1.00  0.00    -0.014 A 
ATOM     82  C   UNL A   1      48.997  27.135  29.968  1.00  0.00     0.010 A 
ATOM     83  C   UNL A   1      48.194  26.215  32.065  1.00  0.00     0.010 A 
ATOM     84  C   UNL A   1      50.297  26.738  30.295  1.00  0.00     0.020 A 
ATOM     85  C   UNL A   1      49.496  25.839  32.405  1.00  0.00     0.020 A 
ATOM     86  C   UNL A   1      50.538  26.091  31.511  1.00  0.00     0.054 A 
BRANCH  86  87
ATOM     87  S   UNL A   1      52.239  25.625  31.934  1.00  0.00     0.124 S 
ATOM     88  O   UNL A   1      52.531  26.523  33.048  1.00  0.00    -0.237 OA
ATOM     89  O   UNL A   1      52.110  24.212  32.282  1.00  0.00    -0.237 OA
ATOM     90  O   UNL A   1      52.986  25.892  30.707  1.00  0.00    -0.744 OA
ENDBRANCH  86  87
ENDBRANCH  60  81
ENDBRANCH  34  35
ENDBRANCH  26  29
ENDBRANCH  24  25
ENDBRANCH   1  24
TORSDOF 16
ENDMDL
MODEL 3
REMARK VINA RESULT:      -8.9      3.039      4.224
REMARK SMILES Cc1cc(C)cc(C[N@@H+]2CCO[C@@H](CC(=O)NCCCNC(=O)c3ccc(-c4c5nc(c(-c6ccc(S(=O)(=O)[O-])cc6)c6ccc([nH]6)c(-c6ccc(S(=O)(=O)[O-])cc6)c6nc(c(-c7ccc(S(=O)(=O)[O-])cc7)c7ccc4[nH]7)C=C6)C=C5)cc3)C2)c1
REMARK SMILES IDX 19 1 18 2 17 3 15 4 16 5 14 7 13 8 9 9 10 10 84 11 11 13
REMARK SMILES IDX 12 14 8 15 7 16 1 17 2 18 3 19 85 20 4 21 5 22 6 23 20 24
REMARK SMILES IDX 21 25 22 26 23 28 24 29 25 30 83 31 26 32 82 33 27 34 28 35
REMARK SMILES IDX 29 36 76 37 30 38 81 39 75 40 77 41 31 42 80 43 74 44 73 45
REMARK SMILES IDX 32 47 62 48 43 49 61 50 44 51 47 52 60 53 78 54 45 55 46 56
REMARK SMILES IDX 59 58 79 59 48 60 33 61 34 62 42 63 35 64 41 65 36 66 37 67
REMARK SMILES IDX 38 68 39 69 40 70 63 71 64 72 72 73 65 74 71 75 66 76 67 77
REMARK SMILES IDX 68 78 69 79 70 80 49 81 50 82 58 83 51 84 57 85 52 86 53 87
REMARK SMILES IDX 54 88 55 89 56 90
REMARK H PARENT 17 6 9 12 21 27 77 46 47 57
REMARK Flexibility Score: inf
ROOT
ATOM      1  C   UNL A   1      41.111  21.594  27.057  1.00  0.00     0.042 C 
ENDROOT
BRANCH   1   2
ATOM      2  C   UNL A   1      42.406  20.798  26.874  1.00  0.00     0.117 C 
BRANCH   2   3
ATOM      3  N   UNL A   1      42.961  20.923  25.530  1.00  0.00    -0.356 N 
ATOM      4  C   UNL A   1      44.168  21.400  25.107  1.00  0.00     0.222 C 
ATOM      5  O   UNL A   1      44.396  21.413  23.896  1.00  0.00    -0.275 OA
ATOM      6  H   UNL A   1      42.367  20.610  24.810  1.00  0.00     0.163 HD
BRANCH   4   7
ATOM      7  C   UNL A   1      45.183  21.921  26.099  1.00  0.00     0.138 C 
BRANCH   7   8
ATOM      8  C   UNL A   1      44.865  23.334  26.599  1.00  0.00     0.182 C 
ATOM      9  N   UNL A   1      45.565  25.061  28.361  1.00  0.00    -0.327 N 
ATOM     10  C   UNL A   1      45.664  26.011  27.250  1.00  0.00     0.291 C 
ATOM     11  C   UNL A   1      45.643  23.681  27.882  1.00  0.00     0.295 C 
ATOM     12  H   UNL A   1      46.398  25.234  28.923  1.00  0.00     0.348 HD
ATOM     13  C   UNL A   1      44.952  25.600  25.944  1.00  0.00     0.222 C 
ATOM     14  O   UNL A   1      45.246  24.251  25.553  1.00  0.00    -0.366 OA
BRANCH   9  15
ATOM     15  C   UNL A   1      44.548  25.318  29.385  1.00  0.00     0.299 C 
BRANCH  15  16
ATOM     16  C   UNL A   1      44.980  25.045  30.804  1.00  0.00     0.007 A 
ATOM     17  C   UNL A   1      43.691  23.216  33.889  1.00  0.00     0.044 C 
ATOM     18  C   UNL A   1      44.527  24.082  32.994  1.00  0.00    -0.050 A 
ATOM     19  C   UNL A   1      45.546  24.876  33.535  1.00  0.00     0.006 A 
ATOM     20  C   UNL A   1      44.247  24.175  31.626  1.00  0.00     0.013 A 
ATOM     21  C   UNL A   1      46.306  25.725  32.721  1.00  0.00    -0.050 A 
ATOM     22  C   UNL A   1      47.321  26.649  33.319  1.00  0.00     0.044 C 
ATOM     23  C   UNL A   1      46.051  25.759  31.350  1.00  0.00     0.013 A 
ENDBRANCH  15  16
ENDBRANCH   9  15
ENDBRANCH   7   8
ENDBRANCH   4   7
ENDBRANCH   2   3
ENDBRANCH   1   2
BRANCH   1  24
ATOM     24  C   UNL A   1      41.318  23.047  27.454  1.00  0.00     0.118 C 
BRANCH  24  25
ATOM     25  N   UNL A   1      41.514  23.889  26.288  1.00  0.00    -0.352 N 
ATOM     26  C   UNL A   1      41.332  25.243  26.148  1.00  0.00     0.251 C 
ATOM     27  H   UNL A   1      41.824  23.421  25.480  1.00  0.00     0.163 HD
ATOM     28  O   UNL A   1      41.262  25.713  25.007  1.00  0.00    -0.269 OA
BRANCH  26  29
ATOM     29  C   UNL A   1      41.214  26.143  27.321  1.00  0.00     0.039 A 
ATOM     30  C   UNL A   1      40.166  25.935  28.226  1.00  0.00     0.014 A 
ATOM     31  C   UNL A   1      42.062  27.239  27.499  1.00  0.00     0.014 A 
ATOM     32  C   UNL A   1      39.992  26.799  29.312  1.00  0.00     0.010 A 
ATOM     33  C   UNL A   1      41.936  28.054  28.625  1.00  0.00     0.010 A 
ATOM     34  C   UNL A   1      40.885  27.859  29.532  1.00  0.00    -0.014 A 
BRANCH  34  35
ATOM     35  C   UNL A   1      40.708  28.795  30.677  1.00  0.00     0.031 A 
ATOM     36  C   UNL A   1      41.585  28.676  31.898  1.00  0.00     0.074 A 
ATOM     37  C   UNL A   1      39.736  29.729  30.642  1.00  0.00     0.049 A 
ATOM     38  N   UNL A   1      41.549  29.365  33.011  1.00  0.00    -0.248 NA
ATOM     39  C   UNL A   1      42.622  27.632  31.875  1.00  0.00     0.031 C 
ATOM     40  C   UNL A   1      38.796  29.932  29.537  1.00  0.00     0.029 A 
ATOM     41  N   UNL A   1      39.372  30.678  31.566  1.00  0.00    -0.354 N 
ATOM     42  C   UNL A   1      42.539  28.824  33.825  1.00  0.00     0.074 A 
ATOM     43  C   UNL A   1      43.129  27.723  33.096  1.00  0.00     0.031 C 
ATOM     44  C   UNL A   1      37.981  30.957  29.837  1.00  0.00     0.029 A 
ATOM     45  C   UNL A   1      38.314  31.460  31.166  1.00  0.00     0.049 A 
ATOM     46  H   UNL A   1      39.827  30.788  32.432  1.00  0.00     0.167 HD
ATOM     47  C   UNL A   1      42.936  29.216  35.060  1.00  0.00     0.031 A 
ATOM     48  C   UNL A   1      37.677  32.465  31.799  1.00  0.00     0.031 A 
ATOM     49  C   UNL A   1      42.367  30.325  35.780  1.00  0.00     0.049 A 
ATOM     50  C   UNL A   1      38.137  32.887  33.168  1.00  0.00     0.074 A 
ATOM     51  C   UNL A   1      42.740  30.833  37.012  1.00  0.00     0.029 A 
ATOM     52  N   UNL A   1      41.306  31.097  35.333  1.00  0.00    -0.354 N 
ATOM     53  N   UNL A   1      39.112  32.395  33.896  1.00  0.00    -0.248 NA
ATOM     54  C   UNL A   1      37.419  34.005  33.794  1.00  0.00     0.031 C 
ATOM     55  C   UNL A   1      41.878  31.889  37.329  1.00  0.00     0.029 A 
ATOM     56  C   UNL A   1      40.999  32.067  36.273  1.00  0.00     0.049 A 
ATOM     57  H   UNL A   1      40.841  30.975  34.475  1.00  0.00     0.167 HD
ATOM     58  C   UNL A   1      39.138  33.160  35.057  1.00  0.00     0.074 A 
ATOM     59  C   UNL A   1      38.091  34.155  34.929  1.00  0.00     0.031 C 
ATOM     60  C   UNL A   1      39.955  33.049  36.133  1.00  0.00     0.031 A 
BRANCH  47  61
ATOM     61  C   UNL A   1      44.043  28.432  35.716  1.00  0.00    -0.014 A 
ATOM     62  C   UNL A   1      45.365  28.913  35.728  1.00  0.00     0.010 A 
ATOM     63  C   UNL A   1      43.752  27.216  36.359  1.00  0.00     0.010 A 
ATOM     64  C   UNL A   1      46.384  28.169  36.329  1.00  0.00     0.020 A 
ATOM     65  C   UNL A   1      44.764  26.482  36.986  1.00  0.00     0.020 A 
ATOM     66  C   UNL A   1      46.077  26.954  36.950  1.00  0.00     0.054 A 
BRANCH  66  67
ATOM     67  S   UNL A   1      47.416  26.016  37.735  1.00  0.00     0.124 S 
ATOM     68  O   UNL A   1      47.635  26.777  38.963  1.00  0.00    -0.237 OA
ATOM     69  O   UNL A   1      46.819  24.694  37.918  1.00  0.00    -0.237 OA
ATOM     70  O   UNL A   1      48.501  26.077  36.760  1.00  0.00    -0.744 OA
ENDBRANCH  66  67
ENDBRANCH  47  61
BRANCH  48  71
ATOM     71  C   UNL A   1      36.540  33.156  31.133  1.00  0.00    -0.014 A 
ATOM     72  C   UNL A   1      35.271  33.184  31.736  1.00  0.00     0.010 A 
ATOM     73  C   UNL A   1      36.726  33.804  29.899  1.00  0.00     0.010 A 
ATOM     74  C   UNL A   1      34.204  33.837  31.112  1.00  0.00     0.020 A 
ATOM     75  C   UNL A   1      35.668  34.479  29.283  1.00  0.00     0.020 A 
ATOM     76  C   UNL A   1      34.410  34.483  29.890  1.00  0.00     0.054 A 
BRANCH  76  77
ATOM     77  S   UNL A   1      33.029  35.377  29.125  1.00  0.00     0.124 S 
ATOM     78  O   UNL A   1      32.561  34.418  28.129  1.00  0.00    -0.237 OA
ATOM     79  O   UNL A   1      32.132  35.604  30.256  1.00  0.00    -0.237 OA
ATOM     80  O   UNL A   1      33.658  36.582  28.590  1.00  0.00    -0.744 OA
ENDBRANCH  76  77
ENDBRANCH  48  71
BRANCH  60  81
ATOM     81  C   UNL A   1      39.773  34.045  37.247  1.00  0.00    -0.014 A 
ATOM     82  C   UNL A   1      38.957  33.755  38.354  1.00  0.00     0.010 A 
ATOM     83  C   UNL A   1      40.472  35.265  37.209  1.00  0.00     0.010 A 
ATOM     84  C   UNL A   1      38.821  34.681  39.391  1.00  0.00     0.020 A 
ATOM     85  C   UNL A   1      40.357  36.183  38.255  1.00  0.00     0.020 A 
ATOM     86  C   UNL A   1      39.521  35.891  39.335  1.00  0.00     0.054 A 
BRANCH  86  87
ATOM     87  S   UNL A   1      39.364  37.060  40.713  1.00  0.00     0.124 S 
ATOM     88  O   UNL A   1      40.733  37.545  40.857  1.00  0.00    -0.237 OA
ATOM     89  O   UNL A   1      38.402  38.034  40.202  1.00  0.00    -0.237 OA
ATOM     90  O   UNL A   1      38.877  36.233  41.814  1.00  0.00    -0.744 OA
ENDBRANCH  86  87
ENDBRANCH  60  81
ENDBRANCH  34  35
ENDBRANCH  26  29
ENDBRANCH  24  25
ENDBRANCH   1  24
TORSDOF 16
ENDMDL
