MODEL 1
REMARK VINA RESULT:      -9.7      0.000      0.000
REMARK SMILES C[C@@H](CC(=O)NCCCNC(=O)c1ccc(-c2c3nc(c(-c4ccc(S(=O)(=O)[O-])cc4)c4ccc([nH]4)c(-c4ccc(S(=O)(=O)[O-])cc4)c4nc(c(-c5ccc(S(=O)(=O)[O-])cc5)c5ccc2[nH]5)C=C4)C=C3)cc1)N1C(=O)CCCC1=O
REMARK SMILES IDX 8 1 7 2 6 3 4 4 5 5 3 7 2 8 1 9 73 10 74 11 79 12 75 13
REMARK SMILES IDX 76 14 78 15 80 16 77 17 9 18 10 19 11 20 12 22 13 23 14 24
REMARK SMILES IDX 72 25 15 26 71 27 16 28 17 29 18 30 65 31 19 32 70 33 64 34
REMARK SMILES IDX 66 35 20 36 69 37 63 38 62 39 21 41 51 42 32 43 50 44 33 45
REMARK SMILES IDX 36 46 49 47 67 48 34 49 35 50 48 52 68 53 37 54 22 55 23 56
REMARK SMILES IDX 31 57 24 58 30 59 25 60 26 61 27 62 28 63 29 64 52 65 53 66
REMARK SMILES IDX 61 67 54 68 60 69 55 70 56 71 57 72 58 73 59 74 38 75 39 76
REMARK SMILES IDX 47 77 40 78 46 79 41 80 42 81 43 82 44 83 45 84
REMARK H PARENT 6 6 10 21 66 40 36 51
REMARK Flexibility Score: inf
ROOT
ATOM      1  C   UNL A   1      33.718  33.666  28.325  1.00  0.00     0.042 C 
ENDROOT
BRANCH   1   2
ATOM      2  C   UNL A   1      34.195  34.855  29.157  1.00  0.00     0.117 C 
BRANCH   2   3
ATOM      3  N   UNL A   1      33.108  35.547  29.827  1.00  0.00    -0.356 N 
ATOM      4  C   UNL A   1      33.014  36.049  31.086  1.00  0.00     0.222 C 
ATOM      5  O   UNL A   1      31.931  36.512  31.457  1.00  0.00    -0.275 OA
ATOM      6  H   UNL A   1      32.303  35.675  29.275  1.00  0.00     0.163 HD
BRANCH   4   7
ATOM      7  C   UNL A   1      34.218  36.118  31.994  1.00  0.00     0.125 C 
BRANCH   7   8
ATOM      8  C   UNL A   1      34.546  34.918  32.903  1.00  0.00     0.099 C 
ATOM      9  C   UNL A   1      34.753  35.268  34.379  1.00  0.00     0.032 C 
BRANCH   8  10
ATOM     10  N   UNL A   1      35.555  33.960  32.398  1.00  0.00    -0.279 N 
ATOM     11  C   UNL A   1      36.912  34.270  32.535  1.00  0.00     0.229 C 
ATOM     12  C   UNL A   1      35.083  32.730  31.929  1.00  0.00     0.229 C 
ATOM     13  O   UNL A   1      37.328  35.233  33.182  1.00  0.00    -0.274 OA
ATOM     14  C   UNL A   1      37.920  33.309  31.945  1.00  0.00     0.101 C 
ATOM     15  C   UNL A   1      36.119  31.720  31.500  1.00  0.00     0.101 C 
ATOM     16  O   UNL A   1      33.893  32.409  31.921  1.00  0.00    -0.274 OA
ATOM     17  C   UNL A   1      37.315  32.411  30.892  1.00  0.00     0.020 C 
ENDBRANCH   8  10
ENDBRANCH   7   8
ENDBRANCH   4   7
ENDBRANCH   2   3
ENDBRANCH   1   2
BRANCH   1  18
ATOM     18  C   UNL A   1      34.718  32.521  28.208  1.00  0.00     0.118 C 
BRANCH  18  19
ATOM     19  N   UNL A   1      34.057  31.236  28.045  1.00  0.00    -0.352 N 
ATOM     20  C   UNL A   1      34.596  29.978  27.928  1.00  0.00     0.251 C 
ATOM     21  H   UNL A   1      33.074  31.273  28.014  1.00  0.00     0.163 HD
ATOM     22  O   UNL A   1      33.872  29.054  27.555  1.00  0.00    -0.269 OA
BRANCH  20  23
ATOM     23  C   UNL A   1      36.025  29.712  28.231  1.00  0.00     0.039 A 
ATOM     24  C   UNL A   1      36.980  29.983  27.245  1.00  0.00     0.014 A 
ATOM     25  C   UNL A   1      36.428  29.134  29.438  1.00  0.00     0.014 A 
ATOM     26  C   UNL A   1      38.333  29.714  27.484  1.00  0.00     0.010 A 
ATOM     27  C   UNL A   1      37.784  28.930  29.702  1.00  0.00     0.010 A 
ATOM     28  C   UNL A   1      38.752  29.200  28.722  1.00  0.00    -0.014 A 
BRANCH  28  29
ATOM     29  C   UNL A   1      40.188  28.920  28.995  1.00  0.00     0.031 A 
ATOM     30  C   UNL A   1      40.793  27.595  28.602  1.00  0.00     0.074 A 
ATOM     31  C   UNL A   1      40.941  29.829  29.647  1.00  0.00     0.049 A 
ATOM     32  N   UNL A   1      42.006  27.148  28.808  1.00  0.00    -0.248 NA
ATOM     33  C   UNL A   1      39.914  26.639  27.909  1.00  0.00     0.031 C 
ATOM     34  C   UNL A   1      40.471  31.131  30.130  1.00  0.00     0.029 A 
ATOM     35  N   UNL A   1      42.260  29.791  30.028  1.00  0.00    -0.354 N 
ATOM     36  C   UNL A   1      42.026  25.852  28.304  1.00  0.00     0.074 A 
ATOM     37  C   UNL A   1      40.697  25.572  27.806  1.00  0.00     0.031 C 
ATOM     38  C   UNL A   1      41.488  31.768  30.733  1.00  0.00     0.029 A 
ATOM     39  C   UNL A   1      42.672  30.915  30.707  1.00  0.00     0.049 A 
ATOM     40  H   UNL A   1      42.855  29.031  29.835  1.00  0.00     0.167 HD
ATOM     41  C   UNL A   1      43.058  24.977  28.248  1.00  0.00     0.031 A 
ATOM     42  C   UNL A   1      43.863  31.222  31.258  1.00  0.00     0.031 A 
ATOM     43  C   UNL A   1      44.393  25.266  28.701  1.00  0.00     0.049 A 
ATOM     44  C   UNL A   1      45.005  30.249  31.142  1.00  0.00     0.074 A 
ATOM     45  C   UNL A   1      45.524  24.474  28.598  1.00  0.00     0.029 A 
ATOM     46  N   UNL A   1      44.778  26.434  29.336  1.00  0.00    -0.354 N 
ATOM     47  N   UNL A   1      45.022  29.063  30.584  1.00  0.00    -0.248 NA
ATOM     48  C   UNL A   1      46.293  30.664  31.717  1.00  0.00     0.031 C 
ATOM     49  C   UNL A   1      46.586  25.147  29.210  1.00  0.00     0.029 A 
ATOM     50  C   UNL A   1      46.125  26.376  29.652  1.00  0.00     0.049 A 
ATOM     51  H   UNL A   1      44.183  27.193  29.535  1.00  0.00     0.167 HD
ATOM     52  C   UNL A   1      46.327  28.601  30.720  1.00  0.00     0.074 A 
ATOM     53  C   UNL A   1      47.073  29.640  31.399  1.00  0.00     0.031 C 
ATOM     54  C   UNL A   1      46.858  27.420  30.320  1.00  0.00     0.031 A 
BRANCH  41  55
ATOM     55  C   UNL A   1      42.791  23.610  27.675  1.00  0.00    -0.014 A 
ATOM     56  C   UNL A   1      43.082  23.315  26.331  1.00  0.00     0.010 A 
ATOM     57  C   UNL A   1      42.310  22.587  28.514  1.00  0.00     0.010 A 
ATOM     58  C   UNL A   1      42.868  22.028  25.829  1.00  0.00     0.020 A 
ATOM     59  C   UNL A   1      42.117  21.294  28.020  1.00  0.00     0.020 A 
ATOM     60  C   UNL A   1      42.385  21.026  26.677  1.00  0.00     0.054 A 
BRANCH  60  61
ATOM     61  S   UNL A   1      42.158  19.354  26.011  1.00  0.00     0.124 S 
ATOM     62  O   UNL A   1      40.715  19.312  25.789  1.00  0.00    -0.237 OA
ATOM     63  O   UNL A   1      42.978  19.375  24.802  1.00  0.00    -0.237 OA
ATOM     64  O   UNL A   1      42.650  18.486  27.077  1.00  0.00    -0.744 OA
ENDBRANCH  60  61
ENDBRANCH  41  55
BRANCH  42  65
ATOM     65  C   UNL A   1      44.044  32.515  31.971  1.00  0.00    -0.014 A 
ATOM     66  C   UNL A   1      44.466  33.663  31.279  1.00  0.00     0.010 A 
ATOM     67  C   UNL A   1      43.801  32.599  33.355  1.00  0.00     0.010 A 
ATOM     68  C   UNL A   1      44.670  34.867  31.962  1.00  0.00     0.020 A 
ATOM     69  C   UNL A   1      43.980  33.806  34.036  1.00  0.00     0.020 A 
ATOM     70  C   UNL A   1      44.429  34.929  33.337  1.00  0.00     0.054 A 
BRANCH  70  71
ATOM     71  S   UNL A   1      44.664  36.507  34.201  1.00  0.00     0.124 S 
ATOM     72  O   UNL A   1      44.214  37.469  33.201  1.00  0.00    -0.237 OA
ATOM     73  O   UNL A   1      43.803  36.361  35.372  1.00  0.00    -0.237 OA
ATOM     74  O   UNL A   1      46.096  36.526  34.490  1.00  0.00    -0.744 OA
ENDBRANCH  70  71
ENDBRANCH  42  65
BRANCH  54  75
ATOM     75  C   UNL A   1      48.325  27.198  30.571  1.00  0.00    -0.014 A 
ATOM     76  C   UNL A   1      49.288  27.560  29.613  1.00  0.00     0.010 A 
ATOM     77  C   UNL A   1      48.746  26.669  31.804  1.00  0.00     0.010 A 
ATOM     78  C   UNL A   1      50.648  27.368  29.873  1.00  0.00     0.020 A 
ATOM     79  C   UNL A   1      50.105  26.497  32.077  1.00  0.00     0.020 A 
ATOM     80  C   UNL A   1      51.047  26.834  31.103  1.00  0.00     0.054 A 
BRANCH  80  81
ATOM     81  S   UNL A   1      52.819  26.632  31.436  1.00  0.00     0.124 S 
ATOM     82  O   UNL A   1      52.998  27.453  32.632  1.00  0.00    -0.237 OA
ATOM     83  O   UNL A   1      52.949  25.192  31.637  1.00  0.00    -0.237 OA
ATOM     84  O   UNL A   1      53.458  27.146  30.227  1.00  0.00    -0.744 OA
ENDBRANCH  80  81
ENDBRANCH  54  75
ENDBRANCH  28  29
ENDBRANCH  20  23
ENDBRANCH  18  19
ENDBRANCH   1  18
TORSDOF 15
ENDMDL
MODEL 2
REMARK VINA RESULT:      -9.7      3.194     10.362
REMARK SMILES C[C@@H](CC(=O)NCCCNC(=O)c1ccc(-c2c3nc(c(-c4ccc(S(=O)(=O)[O-])cc4)c4ccc([nH]4)c(-c4ccc(S(=O)(=O)[O-])cc4)c4nc(c(-c5ccc(S(=O)(=O)[O-])cc5)c5ccc2[nH]5)C=C4)C=C3)cc1)N1C(=O)CCCC1=O
REMARK SMILES IDX 8 1 7 2 6 3 4 4 5 5 3 7 2 8 1 9 73 10 74 11 79 12 75 13
REMARK SMILES IDX 76 14 78 15 80 16 77 17 9 18 10 19 11 20 12 22 13 23 14 24
REMARK SMILES IDX 72 25 15 26 71 27 16 28 17 29 18 30 65 31 19 32 70 33 64 34
REMARK SMILES IDX 66 35 20 36 69 37 63 38 62 39 21 41 51 42 32 43 50 44 33 45
REMARK SMILES IDX 36 46 49 47 67 48 34 49 35 50 48 52 68 53 37 54 22 55 23 56
REMARK SMILES IDX 31 57 24 58 30 59 25 60 26 61 27 62 28 63 29 64 52 65 53 66
REMARK SMILES IDX 61 67 54 68 60 69 55 70 56 71 57 72 58 73 59 74 38 75 39 76
REMARK SMILES IDX 47 77 40 78 46 79 41 80 42 81 43 82 44 83 45 84
REMARK H PARENT 6 6 10 21 66 40 36 51
REMARK Flexibility Score: inf
ROOT
ATOM      1  C   UNL A   1      32.408  27.382  27.194  1.00  0.00     0.042 C 
ENDROOT
BRANCH   1   2
ATOM      2  C   UNL A   1      31.847  26.431  26.137  1.00  0.00     0.117 C 
BRANCH   2   3
ATOM      3  N   UNL A   1      31.125  25.310  26.714  1.00  0.00    -0.356 N 
ATOM      4  C   UNL A   1      31.444  23.991  26.792  1.00  0.00     0.222 C 
ATOM      5  O   UNL A   1      30.606  23.208  27.249  1.00  0.00    -0.275 OA
ATOM      6  H   UNL A   1      30.259  25.546  27.116  1.00  0.00     0.163 HD
BRANCH   4   7
ATOM      7  C   UNL A   1      32.816  23.492  26.406  1.00  0.00     0.125 C 
BRANCH   7   8
ATOM      8  C   UNL A   1      33.118  23.189  24.926  1.00  0.00     0.099 C 
ATOM      9  C   UNL A   1      32.011  22.432  24.187  1.00  0.00     0.032 C 
BRANCH   8  10
ATOM     10  N   UNL A   1      34.468  22.667  24.619  1.00  0.00    -0.279 N 
ATOM     11  C   UNL A   1      34.883  21.470  25.212  1.00  0.00     0.229 C 
ATOM     12  C   UNL A   1      35.202  23.343  23.639  1.00  0.00     0.229 C 
ATOM     13  O   UNL A   1      34.137  20.742  25.870  1.00  0.00    -0.274 OA
ATOM     14  C   UNL A   1      36.294  20.997  24.939  1.00  0.00     0.101 C 
ATOM     15  C   UNL A   1      36.541  22.756  23.262  1.00  0.00     0.101 C 
ATOM     16  O   UNL A   1      34.786  24.329  23.028  1.00  0.00    -0.274 OA
ATOM     17  C   UNL A   1      37.194  22.111  24.459  1.00  0.00     0.020 C 
ENDBRANCH   8  10
ENDBRANCH   7   8
ENDBRANCH   4   7
ENDBRANCH   2   3
ENDBRANCH   1   2
BRANCH   1  18
ATOM     18  C   UNL A   1      33.613  28.201  26.747  1.00  0.00     0.118 C 
BRANCH  18  19
ATOM     19  N   UNL A   1      33.437  29.619  27.016  1.00  0.00    -0.352 N 
ATOM     20  C   UNL A   1      34.244  30.490  27.707  1.00  0.00     0.251 C 
ATOM     21  H   UNL A   1      32.615  30.016  26.647  1.00  0.00     0.163 HD
ATOM     22  O   UNL A   1      33.793  31.591  28.026  1.00  0.00    -0.269 OA
BRANCH  20  23
ATOM     23  C   UNL A   1      35.634  30.131  28.083  1.00  0.00     0.039 A 
ATOM     24  C   UNL A   1      36.632  30.198  27.105  1.00  0.00     0.014 A 
ATOM     25  C   UNL A   1      35.954  29.660  29.360  1.00  0.00     0.014 A 
ATOM     26  C   UNL A   1      37.947  29.835  27.416  1.00  0.00     0.010 A 
ATOM     27  C   UNL A   1      37.279  29.363  29.688  1.00  0.00     0.010 A 
ATOM     28  C   UNL A   1      38.288  29.430  28.716  1.00  0.00    -0.014 A 
BRANCH  28  29
ATOM     29  C   UNL A   1      39.686  29.051  29.065  1.00  0.00     0.031 A 
ATOM     30  C   UNL A   1      40.614  30.064  29.689  1.00  0.00     0.074 A 
ATOM     31  C   UNL A   1      40.144  27.818  28.772  1.00  0.00     0.049 A 
ATOM     32  N   UNL A   1      41.878  29.937  30.008  1.00  0.00    -0.248 NA
ATOM     33  C   UNL A   1      40.059  31.398  29.967  1.00  0.00     0.031 C 
ATOM     34  C   UNL A   1      39.369  26.756  28.123  1.00  0.00     0.029 A 
ATOM     35  N   UNL A   1      41.379  27.251  28.971  1.00  0.00    -0.354 N 
ATOM     36  C   UNL A   1      42.276  31.180  30.490  1.00  0.00     0.074 A 
ATOM     37  C   UNL A   1      41.128  32.056  30.397  1.00  0.00     0.031 C 
ATOM     38  C   UNL A   1      40.144  25.667  27.987  1.00  0.00     0.029 A 
ATOM     39  C   UNL A   1      41.475  25.958  28.510  1.00  0.00     0.049 A 
ATOM     40  H   UNL A   1      42.127  27.726  29.402  1.00  0.00     0.167 HD
ATOM     41  C   UNL A   1      43.482  31.556  30.978  1.00  0.00     0.031 A 
ATOM     42  C   UNL A   1      42.518  25.104  28.498  1.00  0.00     0.031 A 
ATOM     43  C   UNL A   1      44.613  30.677  31.115  1.00  0.00     0.049 A 
ATOM     44  C   UNL A   1      43.834  25.534  29.087  1.00  0.00     0.074 A 
ATOM     45  C   UNL A   1      45.845  30.947  31.685  1.00  0.00     0.029 A 
ATOM     46  N   UNL A   1      44.651  29.363  30.682  1.00  0.00    -0.354 N 
ATOM     47  N   UNL A   1      44.161  26.689  29.617  1.00  0.00    -0.248 NA
ATOM     48  C   UNL A   1      44.917  24.540  29.092  1.00  0.00     0.031 C 
ATOM     49  C   UNL A   1      46.645  29.807  31.559  1.00  0.00     0.029 A 
ATOM     50  C   UNL A   1      45.893  28.814  30.952  1.00  0.00     0.049 A 
ATOM     51  H   UNL A   1      43.906  28.889  30.246  1.00  0.00     0.167 HD
ATOM     52  C   UNL A   1      45.479  26.550  30.037  1.00  0.00     0.074 A 
ATOM     53  C   UNL A   1      45.885  25.198  29.716  1.00  0.00     0.031 C 
ATOM     54  C   UNL A   1      46.282  27.465  30.635  1.00  0.00     0.031 A 
BRANCH  41  55
ATOM     55  C   UNL A   1      43.651  32.990  31.405  1.00  0.00    -0.014 A 
ATOM     56  C   UNL A   1      43.337  33.402  32.713  1.00  0.00     0.010 A 
ATOM     57  C   UNL A   1      44.200  33.923  30.505  1.00  0.00     0.010 A 
ATOM     58  C   UNL A   1      43.542  34.729  33.104  1.00  0.00     0.020 A 
ATOM     59  C   UNL A   1      44.428  35.244  30.901  1.00  0.00     0.020 A 
ATOM     60  C   UNL A   1      44.084  35.642  32.194  1.00  0.00     0.054 A 
BRANCH  60  61
ATOM     61  S   UNL A   1      44.382  37.345  32.741  1.00  0.00     0.124 S 
ATOM     62  O   UNL A   1      45.752  37.265  33.240  1.00  0.00    -0.237 OA
ATOM     63  O   UNL A   1      44.206  38.114  31.511  1.00  0.00    -0.237 OA
ATOM     64  O   UNL A   1      43.360  37.567  33.760  1.00  0.00    -0.744 OA
ENDBRANCH  60  61
ENDBRANCH  41  55
BRANCH  42  65
ATOM     65  C   UNL A   1      42.364  23.747  27.908  1.00  0.00    -0.014 A 
ATOM     66  C   UNL A   1      42.646  23.520  26.550  1.00  0.00     0.010 A 
ATOM     67  C   UNL A   1      41.921  22.675  28.705  1.00  0.00     0.010 A 
ATOM     68  C   UNL A   1      42.463  22.251  25.991  1.00  0.00     0.020 A 
ATOM     69  C   UNL A   1      41.761  21.400  28.155  1.00  0.00     0.020 A 
ATOM     70  C   UNL A   1      42.018  21.200  26.797  1.00  0.00     0.054 A 
BRANCH  70  71
ATOM     71  S   UNL A   1      41.820  19.552  26.065  1.00  0.00     0.124 S 
ATOM     72  O   UNL A   1      42.240  18.683  27.160  1.00  0.00    -0.237 OA
ATOM     73  O   UNL A   1      40.397  19.516  25.739  1.00  0.00    -0.237 OA
ATOM     74  O   UNL A   1      42.714  19.583  24.910  1.00  0.00    -0.744 OA
ENDBRANCH  70  71
ENDBRANCH  42  65
BRANCH  54  75
ATOM     75  C   UNL A   1      47.670  27.025  31.015  1.00  0.00    -0.014 A 
ATOM     76  C   UNL A   1      47.924  26.421  32.259  1.00  0.00     0.010 A 
ATOM     77  C   UNL A   1      48.722  27.172  30.094  1.00  0.00     0.010 A 
ATOM     78  C   UNL A   1      49.216  25.998  32.586  1.00  0.00     0.020 A 
ATOM     79  C   UNL A   1      50.009  26.731  30.408  1.00  0.00     0.020 A 
ATOM     80  C   UNL A   1      50.251  26.159  31.659  1.00  0.00     0.054 A 
BRANCH  80  81
ATOM     81  S   UNL A   1      51.911  25.565  32.088  1.00  0.00     0.124 S 
ATOM     82  O   UNL A   1      51.704  24.121  32.171  1.00  0.00    -0.237 OA
ATOM     83  O   UNL A   1      52.719  26.021  30.960  1.00  0.00    -0.237 OA
ATOM     84  O   UNL A   1      52.196  26.228  33.358  1.00  0.00    -0.744 OA
ENDBRANCH  80  81
ENDBRANCH  54  75
ENDBRANCH  28  29
ENDBRANCH  20  23
ENDBRANCH  18  19
ENDBRANCH   1  18
TORSDOF 15
ENDMDL
MODEL 3
REMARK VINA RESULT:      -9.5      4.501     12.495
REMARK SMILES C[C@@H](CC(=O)NCCCNC(=O)c1ccc(-c2c3nc(c(-c4ccc(S(=O)(=O)[O-])cc4)c4ccc([nH]4)c(-c4ccc(S(=O)(=O)[O-])cc4)c4nc(c(-c5ccc(S(=O)(=O)[O-])cc5)c5ccc2[nH]5)C=C4)C=C3)cc1)N1C(=O)CCCC1=O
REMARK SMILES IDX 8 1 7 2 6 3 4 4 5 5 3 7 2 8 1 9 73 10 74 11 79 12 75 13
REMARK SMILES IDX 76 14 78 15 80 16 77 17 9 18 10 19 11 20 12 22 13 23 14 24
REMARK SMILES IDX 72 25 15 26 71 27 16 28 17 29 18 30 65 31 19 32 70 33 64 34
REMARK SMILES IDX 66 35 20 36 69 37 63 38 62 39 21 41 51 42 32 43 50 44 33 45
REMARK SMILES IDX 36 46 49 47 67 48 34 49 35 50 48 52 68 53 37 54 22 55 23 56
REMARK SMILES IDX 31 57 24 58 30 59 25 60 26 61 27 62 28 63 29 64 52 65 53 66
REMARK SMILES IDX 61 67 54 68 60 69 55 70 56 71 57 72 58 73 59 74 38 75 39 76
REMARK SMILES IDX 47 77 40 78 46 79 41 80 42 81 43 82 44 83 45 84
REMARK H PARENT 6 6 10 21 66 40 36 51
REMARK Flexibility Score: inf
ROOT
ATOM      1  C   UNL A   1      42.463  23.469  28.756  1.00  0.00     0.042 C 
ENDROOT
BRANCH   1   2
ATOM      2  C   UNL A   1      43.596  22.446  28.812  1.00  0.00     0.117 C 
BRANCH   2   3
ATOM      3  N   UNL A   1      44.898  23.032  28.543  1.00  0.00    -0.356 N 
ATOM      4  C   UNL A   1      45.509  23.342  27.370  1.00  0.00     0.222 C 
ATOM      5  O   UNL A   1      46.676  23.745  27.401  1.00  0.00    -0.275 OA
ATOM      6  H   UNL A   1      45.426  23.240  29.347  1.00  0.00     0.163 HD
BRANCH   4   7
ATOM      7  C   UNL A   1      44.765  23.275  26.057  1.00  0.00     0.125 C 
BRANCH   7   8
ATOM      8  C   UNL A   1      45.200  22.245  24.997  1.00  0.00     0.099 C 
ATOM      9  C   UNL A   1      44.979  22.684  23.547  1.00  0.00     0.032 C 
BRANCH   8  10
ATOM     10  N   UNL A   1      44.799  20.840  25.235  1.00  0.00    -0.279 N 
ATOM     11  C   UNL A   1      43.452  20.551  25.476  1.00  0.00     0.229 C 
ATOM     12  C   UNL A   1      45.785  19.862  25.069  1.00  0.00     0.229 C 
ATOM     13  O   UNL A   1      42.547  21.381  25.363  1.00  0.00    -0.274 OA
ATOM     14  C   UNL A   1      43.080  19.119  25.789  1.00  0.00     0.101 C 
ATOM     15  C   UNL A   1      45.352  18.424  25.222  1.00  0.00     0.101 C 
ATOM     16  O   UNL A   1      46.946  20.108  24.737  1.00  0.00    -0.274 OA
ATOM     17  C   UNL A   1      44.262  18.305  26.258  1.00  0.00     0.020 C 
ENDBRANCH   8  10
ENDBRANCH   7   8
ENDBRANCH   4   7
ENDBRANCH   2   3
ENDBRANCH   1   2
BRANCH   1  18
ATOM     18  C   UNL A   1      41.294  23.085  27.855  1.00  0.00     0.118 C 
BRANCH  18  19
ATOM     19  N   UNL A   1      41.305  23.825  26.604  1.00  0.00    -0.352 N 
ATOM     20  C   UNL A   1      41.002  25.141  26.357  1.00  0.00     0.251 C 
ATOM     21  H   UNL A   1      41.572  23.303  25.812  1.00  0.00     0.163 HD
ATOM     22  O   UNL A   1      40.840  25.505  25.192  1.00  0.00    -0.269 OA
BRANCH  20  23
ATOM     23  C   UNL A   1      40.854  26.125  27.459  1.00  0.00     0.039 A 
ATOM     24  C   UNL A   1      41.840  27.104  27.620  1.00  0.00     0.014 A 
ATOM     25  C   UNL A   1      39.803  26.051  28.377  1.00  0.00     0.014 A 
ATOM     26  C   UNL A   1      41.751  28.027  28.668  1.00  0.00     0.010 A 
ATOM     27  C   UNL A   1      39.678  27.014  29.381  1.00  0.00     0.010 A 
ATOM     28  C   UNL A   1      40.659  28.003  29.550  1.00  0.00    -0.014 A 
BRANCH  28  29
ATOM     29  C   UNL A   1      40.544  28.986  30.663  1.00  0.00     0.031 A 
ATOM     30  C   UNL A   1      41.419  28.857  31.885  1.00  0.00     0.074 A 
ATOM     31  C   UNL A   1      39.615  29.962  30.608  1.00  0.00     0.049 A 
ATOM     32  N   UNL A   1      41.423  29.579  32.977  1.00  0.00    -0.248 NA
ATOM     33  C   UNL A   1      42.399  27.759  31.892  1.00  0.00     0.031 C 
ATOM     34  C   UNL A   1      38.669  30.172  29.509  1.00  0.00     0.029 A 
ATOM     35  N   UNL A   1      39.306  30.955  31.505  1.00  0.00    -0.354 N 
ATOM     36  C   UNL A   1      42.377  29.005  33.811  1.00  0.00     0.074 A 
ATOM     37  C   UNL A   1      42.912  27.858  33.112  1.00  0.00     0.031 C 
ATOM     38  C   UNL A   1      37.894  31.232  29.793  1.00  0.00     0.029 A 
ATOM     39  C   UNL A   1      38.265  31.759  31.102  1.00  0.00     0.049 A 
ATOM     40  H   UNL A   1      39.784  31.080  32.357  1.00  0.00     0.167 HD
ATOM     41  C   UNL A   1      42.780  29.403  35.041  1.00  0.00     0.031 A 
ATOM     42  C   UNL A   1      37.667  32.798  31.720  1.00  0.00     0.031 A 
ATOM     43  C   UNL A   1      42.283  30.569  35.721  1.00  0.00     0.049 A 
ATOM     44  C   UNL A   1      38.165  33.245  33.066  1.00  0.00     0.074 A 
ATOM     45  C   UNL A   1      42.700  31.101  36.930  1.00  0.00     0.029 A 
ATOM     46  N   UNL A   1      41.264  31.383  35.256  1.00  0.00    -0.354 N 
ATOM     47  N   UNL A   1      39.128  32.738  33.798  1.00  0.00    -0.248 NA
ATOM     48  C   UNL A   1      37.506  34.416  33.664  1.00  0.00     0.031 C 
ATOM     49  C   UNL A   1      41.905  32.215  37.216  1.00  0.00     0.029 A 
ATOM     50  C   UNL A   1      41.024  32.401  36.163  1.00  0.00     0.049 A 
ATOM     51  H   UNL A   1      40.782  31.257  34.407  1.00  0.00     0.167 HD
ATOM     52  C   UNL A   1      39.204  33.542  34.930  1.00  0.00     0.074 A 
ATOM     53  C   UNL A   1      38.203  34.577  34.781  1.00  0.00     0.031 C 
ATOM     54  C   UNL A   1      40.030  33.430  35.999  1.00  0.00     0.031 A 
BRANCH  41  55
ATOM     55  C   UNL A   1      43.818  28.568  35.744  1.00  0.00    -0.014 A 
ATOM     56  C   UNL A   1      45.188  28.864  35.632  1.00  0.00     0.010 A 
ATOM     57  C   UNL A   1      43.409  27.518  36.587  1.00  0.00     0.010 A 
ATOM     58  C   UNL A   1      46.134  28.104  36.327  1.00  0.00     0.020 A 
ATOM     59  C   UNL A   1      44.351  26.771  37.302  1.00  0.00     0.020 A 
ATOM     60  C   UNL A   1      45.709  27.062  37.156  1.00  0.00     0.054 A 
BRANCH  60  61
ATOM     61  S   UNL A   1      46.953  26.121  38.082  1.00  0.00     0.124 S 
ATOM     62  O   UNL A   1      47.908  25.773  37.033  1.00  0.00    -0.237 OA
ATOM     63  O   UNL A   1      47.427  27.092  39.065  1.00  0.00    -0.237 OA
ATOM     64  O   UNL A   1      46.200  24.998  38.635  1.00  0.00    -0.744 OA
ENDBRANCH  60  61
ENDBRANCH  41  55
BRANCH  42  65
ATOM     65  C   UNL A   1      36.525  33.494  31.068  1.00  0.00    -0.014 A 
ATOM     66  C   UNL A   1      36.651  34.021  29.771  1.00  0.00     0.010 A 
ATOM     67  C   UNL A   1      35.304  33.642  31.752  1.00  0.00     0.010 A 
ATOM     68  C   UNL A   1      35.587  34.708  29.178  1.00  0.00     0.020 A 
ATOM     69  C   UNL A   1      34.229  34.305  31.153  1.00  0.00     0.020 A 
ATOM     70  C   UNL A   1      34.384  34.849  29.875  1.00  0.00     0.054 A 
BRANCH  70  71
ATOM     71  S   UNL A   1      33.000  35.710  29.079  1.00  0.00     0.124 S 
ATOM     72  O   UNL A   1      32.425  34.656  28.250  1.00  0.00    -0.237 OA
ATOM     73  O   UNL A   1      32.190  36.135  30.217  1.00  0.00    -0.237 OA
ATOM     74  O   UNL A   1      33.651  36.796  28.349  1.00  0.00    -0.744 OA
ENDBRANCH  70  71
ENDBRANCH  42  65
BRANCH  54  75
ATOM     75  C   UNL A   1      39.914  34.473  37.078  1.00  0.00    -0.014 A 
ATOM     76  C   UNL A   1      39.093  34.268  38.200  1.00  0.00     0.010 A 
ATOM     77  C   UNL A   1      40.678  35.650  36.990  1.00  0.00     0.010 A 
ATOM     78  C   UNL A   1      39.015  35.239  39.203  1.00  0.00     0.020 A 
ATOM     79  C   UNL A   1      40.620  36.612  38.001  1.00  0.00     0.020 A 
ATOM     80  C   UNL A   1      39.777  36.407  39.095  1.00  0.00     0.054 A 
BRANCH  80  81
ATOM     81  S   UNL A   1      39.693  37.634  40.428  1.00  0.00     0.124 S 
ATOM     82  O   UNL A   1      39.901  36.807  41.615  1.00  0.00    -0.237 OA
ATOM     83  O   UNL A   1      40.785  38.546  40.099  1.00  0.00    -0.237 OA
ATOM     84  O   UNL A   1      38.353  38.200  40.291  1.00  0.00    -0.744 OA
ENDBRANCH  80  81
ENDBRANCH  54  75
ENDBRANCH  28  29
ENDBRANCH  20  23
ENDBRANCH  18  19
ENDBRANCH   1  18
TORSDOF 15
ENDMDL
