MODEL 1
REMARK VINA RESULT:     -10.8      0.000      0.000
REMARK SMILES Cc1c(Cl)ccc2c(OCC(=O)NCCCNC(=O)c3ccc(-c4c5nc(c(-c6ccc(S(=O)(=O)[O-])cc6)c6ccc([nH]6)c(-c6ccc(S(=O)(=O)[O-])cc6)c6nc(c(-c7ccc(S(=O)(=O)[O-])cc7)c7ccc4[nH]7)C=C6)C=C5)cc3)ccnc12
REMARK SMILES IDX 15 1 14 2 13 3 11 4 12 5 10 7 9 8 8 9 1 10 2 11 3 12 83 13
REMARK SMILES IDX 4 14 5 15 7 16 82 17 6 18 81 19 80 20 16 21 17 22 18 23
REMARK SMILES IDX 19 25 20 26 21 27 79 28 22 29 78 30 23 31 24 32 25 33 72 34
REMARK SMILES IDX 26 35 77 36 71 37 73 38 27 39 76 40 70 41 69 42 28 44 58 45
REMARK SMILES IDX 39 46 57 47 40 48 43 49 56 50 74 51 41 52 42 53 55 55 75 56
REMARK SMILES IDX 44 57 29 58 30 59 38 60 31 61 37 62 32 63 33 64 34 65 35 66
REMARK SMILES IDX 36 67 59 68 60 69 68 70 61 71 67 72 62 73 63 74 64 75 65 76
REMARK SMILES IDX 66 77 45 78 46 79 54 80 47 81 53 82 48 83 49 84 50 85 51 86
REMARK SMILES IDX 52 87
REMARK H PARENT 13 6 17 24 73 43 43 54
REMARK Flexibility Score: inf
ROOT
ATOM      1  C   UNL A   1      32.970  27.463  25.895  1.00  0.00     0.042 C 
ENDROOT
BRANCH   1   2
ATOM      2  C   UNL A   1      32.316  27.741  24.546  1.00  0.00     0.117 C 
BRANCH   2   3
ATOM      3  N   UNL A   1      33.115  27.273  23.428  1.00  0.00    -0.353 N 
ATOM      4  C   UNL A   1      33.157  26.029  22.872  1.00  0.00     0.257 C 
ATOM      5  O   UNL A   1      33.883  25.842  21.892  1.00  0.00    -0.271 OA
ATOM      6  H   UNL A   1      33.706  27.943  23.016  1.00  0.00     0.163 HD
BRANCH   4   7
ATOM      7  C   UNL A   1      32.282  24.904  23.438  1.00  0.00     0.329 C 
BRANCH   7   8
ATOM      8  O   UNL A   1      32.700  24.301  24.651  1.00  0.00    -0.483 OA
BRANCH   8   9
ATOM      9  C   UNL A   1      33.201  23.022  24.622  1.00  0.00     0.131 A 
ATOM     10  C   UNL A   1      37.151  20.069  25.058  1.00  0.00     0.048 C 
ATOM     11  C   UNL A   1      36.501  21.422  25.230  1.00  0.00    -0.006 A 
ATOM     12  C   UNL A   1      37.261  22.527  25.651  1.00  0.00     0.046 A 
ATOM     13  C   UNL A   1      35.146  21.589  24.898  1.00  0.00     0.078 A 
ATOM     14  Cl  UNL A   1      38.935  22.387  26.057  1.00  0.00    -0.084 Cl
ATOM     15  C   UNL A   1      36.684  23.789  25.756  1.00  0.00     0.022 A 
ATOM     16  C   UNL A   1      34.563  22.876  24.983  1.00  0.00     0.043 A 
ATOM     17  N   UNL A   1      34.420  20.526  24.502  1.00  0.00    -0.256 NA
ATOM     18  C   UNL A   1      35.348  23.964  25.419  1.00  0.00     0.016 A 
ATOM     19  C   UNL A   1      33.118  20.692  24.201  1.00  0.00     0.115 A 
ATOM     20  C   UNL A   1      32.466  21.903  24.251  1.00  0.00     0.067 A 
ENDBRANCH   8   9
ENDBRANCH   7   8
ENDBRANCH   4   7
ENDBRANCH   2   3
ENDBRANCH   1   2
BRANCH   1  21
ATOM     21  C   UNL A   1      34.186  28.334  26.202  1.00  0.00     0.118 C 
BRANCH  21  22
ATOM     22  N   UNL A   1      33.829  29.608  26.814  1.00  0.00    -0.352 N 
ATOM     23  C   UNL A   1      34.516  30.366  27.730  1.00  0.00     0.251 C 
ATOM     24  H   UNL A   1      32.964  29.980  26.528  1.00  0.00     0.163 HD
ATOM     25  O   UNL A   1      33.963  31.327  28.260  1.00  0.00    -0.269 OA
BRANCH  23  26
ATOM     26  C   UNL A   1      35.907  30.020  28.090  1.00  0.00     0.039 A 
ATOM     27  C   UNL A   1      36.175  29.546  29.377  1.00  0.00     0.014 A 
ATOM     28  C   UNL A   1      36.946  30.190  27.170  1.00  0.00     0.014 A 
ATOM     29  C   UNL A   1      37.479  29.181  29.722  1.00  0.00     0.010 A 
ATOM     30  C   UNL A   1      38.235  29.779  27.499  1.00  0.00     0.010 A 
ATOM     31  C   UNL A   1      38.512  29.272  28.778  1.00  0.00    -0.014 A 
BRANCH  31  32
ATOM     32  C   UNL A   1      39.898  28.863  29.111  1.00  0.00     0.031 A 
ATOM     33  C   UNL A   1      40.823  29.837  29.784  1.00  0.00     0.074 A 
ATOM     34  C   UNL A   1      40.340  27.640  28.761  1.00  0.00     0.049 A 
ATOM     35  N   UNL A   1      42.089  29.697  30.082  1.00  0.00    -0.248 NA
ATOM     36  C   UNL A   1      40.255  31.143  30.162  1.00  0.00     0.031 C 
ATOM     37  C   UNL A   1      39.540  26.608  28.099  1.00  0.00     0.029 A 
ATOM     38  N   UNL A   1      41.575  27.060  28.909  1.00  0.00    -0.354 N 
ATOM     39  C   UNL A   1      42.470  30.895  30.675  1.00  0.00     0.074 A 
ATOM     40  C   UNL A   1      41.314  31.764  30.663  1.00  0.00     0.031 C 
ATOM     41  C   UNL A   1      40.299  25.516  27.913  1.00  0.00     0.029 A 
ATOM     42  C   UNL A   1      41.648  25.782  28.407  1.00  0.00     0.049 A 
ATOM     43  H   UNL A   1      42.337  27.516  29.334  1.00  0.00     0.167 HD
ATOM     44  C   UNL A   1      43.672  31.232  31.198  1.00  0.00     0.031 A 
ATOM     45  C   UNL A   1      42.685  24.922  28.343  1.00  0.00     0.031 A 
ATOM     46  C   UNL A   1      44.819  30.366  31.214  1.00  0.00     0.049 A 
ATOM     47  C   UNL A   1      44.021  25.335  28.894  1.00  0.00     0.074 A 
ATOM     48  C   UNL A   1      46.072  30.614  31.747  1.00  0.00     0.029 A 
ATOM     49  N   UNL A   1      44.855  29.087  30.681  1.00  0.00    -0.354 N 
ATOM     50  N   UNL A   1      44.359  26.467  29.462  1.00  0.00    -0.248 NA
ATOM     51  C   UNL A   1      45.112  24.355  28.804  1.00  0.00     0.031 C 
ATOM     52  C   UNL A   1      46.879  29.500  31.497  1.00  0.00     0.029 A 
ATOM     53  C   UNL A   1      46.113  28.539  30.857  1.00  0.00     0.049 A 
ATOM     54  H   UNL A   1      44.098  28.636  30.241  1.00  0.00     0.167 HD
ATOM     55  C   UNL A   1      45.696  26.327  29.818  1.00  0.00     0.074 A 
ATOM     56  C   UNL A   1      46.103  25.000  29.406  1.00  0.00     0.031 C 
ATOM     57  C   UNL A   1      46.507  27.217  30.441  1.00  0.00     0.031 A 
BRANCH  44  58
ATOM     58  C   UNL A   1      43.814  32.601  31.803  1.00  0.00    -0.014 A 
ATOM     59  C   UNL A   1      44.159  33.706  31.004  1.00  0.00     0.010 A 
ATOM     60  C   UNL A   1      43.520  32.800  33.163  1.00  0.00     0.010 A 
ATOM     61  C   UNL A   1      44.218  34.986  31.560  1.00  0.00     0.020 A 
ATOM     62  C   UNL A   1      43.557  34.081  33.718  1.00  0.00     0.020 A 
ATOM     63  C   UNL A   1      43.909  35.166  32.912  1.00  0.00     0.054 A 
BRANCH  63  64
ATOM     64  S   UNL A   1      43.956  36.847  33.590  1.00  0.00     0.124 S 
ATOM     65  O   UNL A   1      45.099  36.778  34.499  1.00  0.00    -0.237 OA
ATOM     66  O   UNL A   1      44.152  37.663  32.395  1.00  0.00    -0.237 OA
ATOM     67  O   UNL A   1      42.657  36.997  34.242  1.00  0.00    -0.744 OA
ENDBRANCH  63  64
ENDBRANCH  44  58
BRANCH  45  68
ATOM     68  C   UNL A   1      42.480  23.573  27.753  1.00  0.00    -0.014 A 
ATOM     69  C   UNL A   1      42.836  23.325  26.417  1.00  0.00     0.010 A 
ATOM     70  C   UNL A   1      41.978  22.518  28.537  1.00  0.00     0.010 A 
ATOM     71  C   UNL A   1      42.701  22.044  25.875  1.00  0.00     0.020 A 
ATOM     72  C   UNL A   1      41.862  21.230  28.005  1.00  0.00     0.020 A 
ATOM     73  C   UNL A   1      42.228  21.001  26.677  1.00  0.00     0.054 A 
BRANCH  73  74
ATOM     74  S   UNL A   1      42.130  19.336  25.963  1.00  0.00     0.124 S 
ATOM     75  O   UNL A   1      40.700  19.191  25.710  1.00  0.00    -0.237 OA
ATOM     76  O   UNL A   1      42.972  19.463  24.776  1.00  0.00    -0.237 OA
ATOM     77  O   UNL A   1      42.667  18.476  27.014  1.00  0.00    -0.744 OA
ENDBRANCH  73  74
ENDBRANCH  45  68
BRANCH  57  78
ATOM     78  C   UNL A   1      47.916  26.790  30.749  1.00  0.00    -0.014 A 
ATOM     79  C   UNL A   1      48.984  27.147  29.909  1.00  0.00     0.010 A 
ATOM     80  C   UNL A   1      48.183  26.112  31.952  1.00  0.00     0.010 A 
ATOM     81  C   UNL A   1      50.296  26.822  30.264  1.00  0.00     0.020 A 
ATOM     82  C   UNL A   1      49.495  25.805  32.320  1.00  0.00     0.020 A 
ATOM     83  C   UNL A   1      50.544  26.161  31.471  1.00  0.00     0.054 A 
BRANCH  83  84
ATOM     84  S   UNL A   1      52.262  25.797  31.924  1.00  0.00     0.124 S 
ATOM     85  O   UNL A   1      52.161  24.439  32.452  1.00  0.00    -0.237 OA
ATOM     86  O   UNL A   1      52.957  25.925  30.647  1.00  0.00    -0.237 OA
ATOM     87  O   UNL A   1      52.588  26.822  32.913  1.00  0.00    -0.744 OA
ENDBRANCH  83  84
ENDBRANCH  57  78
ENDBRANCH  31  32
ENDBRANCH  23  26
ENDBRANCH  21  22
ENDBRANCH   1  21
TORSDOF 15
ENDMDL
MODEL 2
REMARK VINA RESULT:     -10.6      1.283      2.053
REMARK SMILES Cc1c(Cl)ccc2c(OCC(=O)NCCCNC(=O)c3ccc(-c4c5nc(c(-c6ccc(S(=O)(=O)[O-])cc6)c6ccc([nH]6)c(-c6ccc(S(=O)(=O)[O-])cc6)c6nc(c(-c7ccc(S(=O)(=O)[O-])cc7)c7ccc4[nH]7)C=C6)C=C5)cc3)ccnc12
REMARK SMILES IDX 15 1 14 2 13 3 11 4 12 5 10 7 9 8 8 9 1 10 2 11 3 12 83 13
REMARK SMILES IDX 4 14 5 15 7 16 82 17 6 18 81 19 80 20 16 21 17 22 18 23
REMARK SMILES IDX 19 25 20 26 21 27 79 28 22 29 78 30 23 31 24 32 25 33 72 34
REMARK SMILES IDX 26 35 77 36 71 37 73 38 27 39 76 40 70 41 69 42 28 44 58 45
REMARK SMILES IDX 39 46 57 47 40 48 43 49 56 50 74 51 41 52 42 53 55 55 75 56
REMARK SMILES IDX 44 57 29 58 30 59 38 60 31 61 37 62 32 63 33 64 34 65 35 66
REMARK SMILES IDX 36 67 59 68 60 69 68 70 61 71 67 72 62 73 63 74 64 75 65 76
REMARK SMILES IDX 66 77 45 78 46 79 54 80 47 81 53 82 48 83 49 84 50 85 51 86
REMARK SMILES IDX 52 87
REMARK H PARENT 13 6 17 24 73 43 43 54
REMARK Flexibility Score: inf
ROOT
ATOM      1  C   UNL A   1      32.553  27.846  26.226  1.00  0.00     0.042 C 
ENDROOT
BRANCH   1   2
ATOM      2  C   UNL A   1      32.430  26.330  26.120  1.00  0.00     0.117 C 
BRANCH   2   3
ATOM      3  N   UNL A   1      31.201  25.825  26.704  1.00  0.00    -0.353 N 
ATOM      4  C   UNL A   1      29.998  25.606  26.102  1.00  0.00     0.257 C 
ATOM      5  O   UNL A   1      29.077  25.132  26.772  1.00  0.00    -0.271 OA
ATOM      6  H   UNL A   1      31.241  25.613  27.664  1.00  0.00     0.163 HD
BRANCH   4   7
ATOM      7  C   UNL A   1      29.820  25.908  24.609  1.00  0.00     0.329 C 
BRANCH   7   8
ATOM      8  O   UNL A   1      30.207  24.900  23.691  1.00  0.00    -0.483 OA
BRANCH   8   9
ATOM      9  C   UNL A   1      31.480  24.920  23.175  1.00  0.00     0.131 A 
ATOM     10  C   UNL A   1      36.012  22.925  23.147  1.00  0.00     0.048 C 
ATOM     11  C   UNL A   1      34.556  22.866  23.547  1.00  0.00    -0.006 A 
ATOM     12  C   UNL A   1      34.091  21.835  24.383  1.00  0.00     0.046 A 
ATOM     13  C   UNL A   1      33.681  23.885  23.138  1.00  0.00     0.078 A 
ATOM     14  Cl  UNL A   1      35.123  20.563  24.931  1.00  0.00    -0.084 Cl
ATOM     15  C   UNL A   1      32.765  21.805  24.804  1.00  0.00     0.022 A 
ATOM     16  C   UNL A   1      32.337  23.868  23.583  1.00  0.00     0.043 A 
ATOM     17  N   UNL A   1      34.130  24.867  22.332  1.00  0.00    -0.256 NA
ATOM     18  C   UNL A   1      31.897  22.816  24.413  1.00  0.00     0.016 A 
ATOM     19  C   UNL A   1      33.280  25.831  21.932  1.00  0.00     0.115 A 
ATOM     20  C   UNL A   1      31.960  25.899  22.314  1.00  0.00     0.067 A 
ENDBRANCH   8   9
ENDBRANCH   7   8
ENDBRANCH   4   7
ENDBRANCH   2   3
ENDBRANCH   1   2
BRANCH   1  21
ATOM     21  C   UNL A   1      33.667  28.329  27.153  1.00  0.00     0.118 C 
BRANCH  21  22
ATOM     22  N   UNL A   1      33.560  29.746  27.474  1.00  0.00    -0.352 N 
ATOM     23  C   UNL A   1      34.461  30.577  28.092  1.00  0.00     0.251 C 
ATOM     24  H   UNL A   1      32.714  30.172  27.209  1.00  0.00     0.163 HD
ATOM     25  O   UNL A   1      34.113  31.706  28.432  1.00  0.00    -0.269 OA
BRANCH  23  26
ATOM     26  C   UNL A   1      35.839  30.115  28.362  1.00  0.00     0.039 A 
ATOM     27  C   UNL A   1      36.796  30.213  27.348  1.00  0.00     0.014 A 
ATOM     28  C   UNL A   1      36.178  29.562  29.600  1.00  0.00     0.014 A 
ATOM     29  C   UNL A   1      38.111  29.813  27.597  1.00  0.00     0.010 A 
ATOM     30  C   UNL A   1      37.499  29.211  29.862  1.00  0.00     0.010 A 
ATOM     31  C   UNL A   1      38.477  29.333  28.863  1.00  0.00    -0.014 A 
BRANCH  31  32
ATOM     32  C   UNL A   1      39.872  28.930  29.161  1.00  0.00     0.031 A 
ATOM     33  C   UNL A   1      40.812  29.911  29.804  1.00  0.00     0.074 A 
ATOM     34  C   UNL A   1      40.309  27.707  28.806  1.00  0.00     0.049 A 
ATOM     35  N   UNL A   1      42.085  29.777  30.068  1.00  0.00    -0.248 NA
ATOM     36  C   UNL A   1      40.249  31.217  30.190  1.00  0.00     0.031 C 
ATOM     37  C   UNL A   1      39.495  26.669  28.171  1.00  0.00     0.029 A 
ATOM     38  N   UNL A   1      41.550  27.132  28.923  1.00  0.00    -0.354 N 
ATOM     39  C   UNL A   1      42.478  30.979  30.645  1.00  0.00     0.074 A 
ATOM     40  C   UNL A   1      41.319  31.845  30.659  1.00  0.00     0.031 C 
ATOM     41  C   UNL A   1      40.253  25.578  27.970  1.00  0.00     0.029 A 
ATOM     42  C   UNL A   1      41.614  25.852  28.426  1.00  0.00     0.049 A 
ATOM     43  H   UNL A   1      42.322  27.593  29.325  1.00  0.00     0.167 HD
ATOM     44  C   UNL A   1      43.693  31.324  31.133  1.00  0.00     0.031 A 
ATOM     45  C   UNL A   1      42.652  24.996  28.339  1.00  0.00     0.031 A 
ATOM     46  C   UNL A   1      44.843  30.462  31.123  1.00  0.00     0.049 A 
ATOM     47  C   UNL A   1      44.001  25.416  28.851  1.00  0.00     0.074 A 
ATOM     48  C   UNL A   1      46.109  30.717  31.620  1.00  0.00     0.029 A 
ATOM     49  N   UNL A   1      44.870  29.181  30.595  1.00  0.00    -0.354 N 
ATOM     50  N   UNL A   1      44.351  26.553  29.404  1.00  0.00    -0.248 NA
ATOM     51  C   UNL A   1      45.093  24.439  28.736  1.00  0.00     0.031 C 
ATOM     52  C   UNL A   1      46.913  29.605  31.354  1.00  0.00     0.029 A 
ATOM     53  C   UNL A   1      46.133  28.638  30.741  1.00  0.00     0.049 A 
ATOM     54  H   UNL A   1      44.103  28.725  30.178  1.00  0.00     0.167 HD
ATOM     55  C   UNL A   1      45.697  26.419  29.724  1.00  0.00     0.074 A 
ATOM     56  C   UNL A   1      46.098  25.091  29.308  1.00  0.00     0.031 C 
ATOM     57  C   UNL A   1      46.521  27.315  30.320  1.00  0.00     0.031 A 
BRANCH  44  58
ATOM     58  C   UNL A   1      43.846  32.696  31.727  1.00  0.00    -0.014 A 
ATOM     59  C   UNL A   1      43.639  32.911  33.101  1.00  0.00     0.010 A 
ATOM     60  C   UNL A   1      44.280  33.764  30.921  1.00  0.00     0.010 A 
ATOM     61  C   UNL A   1      43.852  34.174  33.657  1.00  0.00     0.020 A 
ATOM     62  C   UNL A   1      44.515  35.023  31.478  1.00  0.00     0.020 A 
ATOM     63  C   UNL A   1      44.297  35.220  32.843  1.00  0.00     0.054 A 
BRANCH  63  64
ATOM     64  S   UNL A   1      44.605  36.836  33.607  1.00  0.00     0.124 S 
ATOM     65  O   UNL A   1      45.136  36.459  34.916  1.00  0.00    -0.237 OA
ATOM     66  O   UNL A   1      45.565  37.439  32.689  1.00  0.00    -0.237 OA
ATOM     67  O   UNL A   1      43.286  37.465  33.635  1.00  0.00    -0.744 OA
ENDBRANCH  63  64
ENDBRANCH  44  58
BRANCH  45  68
ATOM     68  C   UNL A   1      42.436  23.643  27.761  1.00  0.00    -0.014 A 
ATOM     69  C   UNL A   1      42.801  23.376  26.430  1.00  0.00     0.010 A 
ATOM     70  C   UNL A   1      41.916  22.602  28.552  1.00  0.00     0.010 A 
ATOM     71  C   UNL A   1      42.656  22.090  25.901  1.00  0.00     0.020 A 
ATOM     72  C   UNL A   1      41.789  21.310  28.033  1.00  0.00     0.020 A 
ATOM     73  C   UNL A   1      42.164  21.062  26.711  1.00  0.00     0.054 A 
BRANCH  73  74
ATOM     74  S   UNL A   1      42.052  19.391  26.013  1.00  0.00     0.124 S 
ATOM     75  O   UNL A   1      40.616  19.238  25.803  1.00  0.00    -0.237 OA
ATOM     76  O   UNL A   1      42.858  19.511  24.801  1.00  0.00    -0.237 OA
ATOM     77  O   UNL A   1      42.623  18.542  27.055  1.00  0.00    -0.744 OA
ENDBRANCH  73  74
ENDBRANCH  45  68
BRANCH  57  78
ATOM     78  C   UNL A   1      47.939  26.895  30.593  1.00  0.00    -0.014 A 
ATOM     79  C   UNL A   1      48.968  27.173  29.678  1.00  0.00     0.010 A 
ATOM     80  C   UNL A   1      48.258  26.307  31.830  1.00  0.00     0.010 A 
ATOM     81  C   UNL A   1      50.293  26.859  29.993  1.00  0.00     0.020 A 
ATOM     82  C   UNL A   1      49.584  26.012  32.158  1.00  0.00     0.020 A 
ATOM     83  C   UNL A   1      50.593  26.289  31.235  1.00  0.00     0.054 A 
BRANCH  83  84
ATOM     84  S   UNL A   1      52.328  25.938  31.631  1.00  0.00     0.124 S 
ATOM     85  O   UNL A   1      52.267  24.552  32.086  1.00  0.00    -0.237 OA
ATOM     86  O   UNL A   1      52.992  26.150  30.348  1.00  0.00    -0.237 OA
ATOM     87  O   UNL A   1      52.654  26.916  32.667  1.00  0.00    -0.744 OA
ENDBRANCH  83  84
ENDBRANCH  57  78
ENDBRANCH  31  32
ENDBRANCH  23  26
ENDBRANCH  21  22
ENDBRANCH   1  21
TORSDOF 15
ENDMDL
MODEL 3
REMARK VINA RESULT:     -10.6      2.280      3.563
REMARK SMILES Cc1c(Cl)ccc2c(OCC(=O)NCCCNC(=O)c3ccc(-c4c5nc(c(-c6ccc(S(=O)(=O)[O-])cc6)c6ccc([nH]6)c(-c6ccc(S(=O)(=O)[O-])cc6)c6nc(c(-c7ccc(S(=O)(=O)[O-])cc7)c7ccc4[nH]7)C=C6)C=C5)cc3)ccnc12
REMARK SMILES IDX 15 1 14 2 13 3 11 4 12 5 10 7 9 8 8 9 1 10 2 11 3 12 83 13
REMARK SMILES IDX 4 14 5 15 7 16 82 17 6 18 81 19 80 20 16 21 17 22 18 23
REMARK SMILES IDX 19 25 20 26 21 27 79 28 22 29 78 30 23 31 24 32 25 33 72 34
REMARK SMILES IDX 26 35 77 36 71 37 73 38 27 39 76 40 70 41 69 42 28 44 58 45
REMARK SMILES IDX 39 46 57 47 40 48 43 49 56 50 74 51 41 52 42 53 55 55 75 56
REMARK SMILES IDX 44 57 29 58 30 59 38 60 31 61 37 62 32 63 33 64 34 65 35 66
REMARK SMILES IDX 36 67 59 68 60 69 68 70 61 71 67 72 62 73 63 74 64 75 65 76
REMARK SMILES IDX 66 77 45 78 46 79 54 80 47 81 53 82 48 83 49 84 50 85 51 86
REMARK SMILES IDX 52 87
REMARK H PARENT 13 6 17 24 73 43 43 54
REMARK Flexibility Score: inf
ROOT
ATOM      1  C   UNL A   1      32.515  27.280  26.270  1.00  0.00     0.042 C 
ENDROOT
BRANCH   1   2
ATOM      2  C   UNL A   1      32.624  25.759  26.233  1.00  0.00     0.117 C 
BRANCH   2   3
ATOM      3  N   UNL A   1      31.494  25.101  26.863  1.00  0.00    -0.353 N 
ATOM      4  C   UNL A   1      30.793  24.013  26.433  1.00  0.00     0.257 C 
ATOM      5  O   UNL A   1      29.880  23.580  27.140  1.00  0.00    -0.271 OA
ATOM      6  H   UNL A   1      31.193  25.492  27.714  1.00  0.00     0.163 HD
BRANCH   4   7
ATOM      7  C   UNL A   1      31.172  23.327  25.115  1.00  0.00     0.329 C 
BRANCH   7   8
ATOM      8  O   UNL A   1      30.597  23.840  23.926  1.00  0.00    -0.483 OA
BRANCH   8   9
ATOM      9  C   UNL A   1      31.117  24.986  23.373  1.00  0.00     0.131 A 
ATOM     10  C   UNL A   1      30.323  29.640  21.882  1.00  0.00     0.048 C 
ATOM     11  C   UNL A   1      29.867  28.406  22.625  1.00  0.00    -0.006 A 
ATOM     12  C   UNL A   1      28.575  28.346  23.177  1.00  0.00     0.046 A 
ATOM     13  C   UNL A   1      30.715  27.289  22.702  1.00  0.00     0.078 A 
ATOM     14  Cl  UNL A   1      27.483  29.682  23.099  1.00  0.00    -0.084 Cl
ATOM     15  C   UNL A   1      28.126  27.193  23.812  1.00  0.00     0.022 A 
ATOM     16  C   UNL A   1      30.251  26.107  23.329  1.00  0.00     0.043 A 
ATOM     17  N   UNL A   1      31.954  27.353  22.178  1.00  0.00    -0.256 NA
ATOM     18  C   UNL A   1      28.954  26.080  23.882  1.00  0.00     0.016 A 
ATOM     19  C   UNL A   1      32.765  26.283  22.270  1.00  0.00     0.115 A 
ATOM     20  C   UNL A   1      32.402  25.092  22.857  1.00  0.00     0.067 A 
ENDBRANCH   8   9
ENDBRANCH   7   8
ENDBRANCH   4   7
ENDBRANCH   2   3
ENDBRANCH   1   2
BRANCH   1  21
ATOM     21  C   UNL A   1      33.695  27.984  26.935  1.00  0.00     0.118 C 
BRANCH  21  22
ATOM     22  N   UNL A   1      33.447  29.401  27.173  1.00  0.00    -0.352 N 
ATOM     23  C   UNL A   1      34.242  30.343  27.777  1.00  0.00     0.251 C 
ATOM     24  H   UNL A   1      32.577  29.731  26.853  1.00  0.00     0.163 HD
ATOM     25  O   UNL A   1      33.779  31.450  28.041  1.00  0.00    -0.269 OA
BRANCH  23  26
ATOM     26  C   UNL A   1      35.643  30.025  28.123  1.00  0.00     0.039 A 
ATOM     27  C   UNL A   1      35.943  29.616  29.425  1.00  0.00     0.014 A 
ATOM     28  C   UNL A   1      36.661  30.155  27.174  1.00  0.00     0.014 A 
ATOM     29  C   UNL A   1      37.257  29.278  29.760  1.00  0.00     0.010 A 
ATOM     30  C   UNL A   1      37.960  29.770  27.494  1.00  0.00     0.010 A 
ATOM     31  C   UNL A   1      38.269  29.329  28.789  1.00  0.00    -0.014 A 
BRANCH  31  32
ATOM     32  C   UNL A   1      39.664  28.946  29.112  1.00  0.00     0.031 A 
ATOM     33  C   UNL A   1      40.581  29.942  29.765  1.00  0.00     0.074 A 
ATOM     34  C   UNL A   1      40.122  27.726  28.770  1.00  0.00     0.049 A 
ATOM     35  N   UNL A   1      41.851  29.825  30.050  1.00  0.00    -0.248 NA
ATOM     36  C   UNL A   1      39.995  31.242  30.135  1.00  0.00     0.031 C 
ATOM     37  C   UNL A   1      39.332  26.675  28.128  1.00  0.00     0.029 A 
ATOM     38  N   UNL A   1      41.368  27.168  28.910  1.00  0.00    -0.354 N 
ATOM     39  C   UNL A   1      42.219  31.035  30.627  1.00  0.00     0.074 A 
ATOM     40  C   UNL A   1      41.050  31.885  30.618  1.00  0.00     0.031 C 
ATOM     41  C   UNL A   1      40.106  25.593  27.945  1.00  0.00     0.029 A 
ATOM     42  C   UNL A   1      41.456  25.886  28.421  1.00  0.00     0.049 A 
ATOM     43  H   UNL A   1      42.127  27.640  29.322  1.00  0.00     0.167 HD
ATOM     44  C   UNL A   1      43.421  31.397  31.133  1.00  0.00     0.031 A 
ATOM     45  C   UNL A   1      42.506  25.042  28.355  1.00  0.00     0.031 A 
ATOM     46  C   UNL A   1      44.582  30.549  31.146  1.00  0.00     0.049 A 
ATOM     47  C   UNL A   1      43.841  25.482  28.887  1.00  0.00     0.074 A 
ATOM     48  C   UNL A   1      45.837  30.824  31.662  1.00  0.00     0.029 A 
ATOM     49  N   UNL A   1      44.634  29.266  30.625  1.00  0.00    -0.354 N 
ATOM     50  N   UNL A   1      44.167  26.626  29.439  1.00  0.00    -0.248 NA
ATOM     51  C   UNL A   1      44.947  24.519  28.795  1.00  0.00     0.031 C 
ATOM     52  C   UNL A   1      46.659  29.720  31.415  1.00  0.00     0.029 A 
ATOM     53  C   UNL A   1      45.902  28.741  30.794  1.00  0.00     0.049 A 
ATOM     54  H   UNL A   1      43.879  28.799  30.198  1.00  0.00     0.167 HD
ATOM     55  C   UNL A   1      45.510  26.511  29.782  1.00  0.00     0.074 A 
ATOM     56  C   UNL A   1      45.934  25.187  29.379  1.00  0.00     0.031 C 
ATOM     57  C   UNL A   1      46.313  27.421  30.387  1.00  0.00     0.031 A 
BRANCH  44  58
ATOM     58  C   UNL A   1      43.547  32.774  31.722  1.00  0.00    -0.014 A 
ATOM     59  C   UNL A   1      43.341  32.988  33.097  1.00  0.00     0.010 A 
ATOM     60  C   UNL A   1      43.956  33.848  30.912  1.00  0.00     0.010 A 
ATOM     61  C   UNL A   1      43.530  34.257  33.648  1.00  0.00     0.020 A 
ATOM     62  C   UNL A   1      44.166  35.114  31.464  1.00  0.00     0.020 A 
ATOM     63  C   UNL A   1      43.950  35.310  32.829  1.00  0.00     0.054 A 
BRANCH  63  64
ATOM     64  S   UNL A   1      44.225  36.935  33.587  1.00  0.00     0.124 S 
ATOM     65  O   UNL A   1      45.186  36.620  34.643  1.00  0.00    -0.237 OA
ATOM     66  O   UNL A   1      44.751  37.716  32.472  1.00  0.00    -0.237 OA
ATOM     67  O   UNL A   1      42.899  37.330  34.057  1.00  0.00    -0.744 OA
ENDBRANCH  63  64
ENDBRANCH  44  58
BRANCH  45  68
ATOM     68  C   UNL A   1      42.317  23.684  27.781  1.00  0.00    -0.014 A 
ATOM     69  C   UNL A   1      42.575  23.450  26.419  1.00  0.00     0.010 A 
ATOM     70  C   UNL A   1      41.930  22.608  28.601  1.00  0.00     0.010 A 
ATOM     71  C   UNL A   1      42.457  22.162  25.888  1.00  0.00     0.020 A 
ATOM     72  C   UNL A   1      41.830  21.315  28.078  1.00  0.00     0.020 A 
ATOM     73  C   UNL A   1      42.099  21.101  26.724  1.00  0.00     0.054 A 
BRANCH  73  74
ATOM     74  S   UNL A   1      42.020  19.431  26.018  1.00  0.00     0.124 S 
ATOM     75  O   UNL A   1      42.860  19.558  24.831  1.00  0.00    -0.237 OA
ATOM     76  O   UNL A   1      42.571  18.616  27.098  1.00  0.00    -0.237 OA
ATOM     77  O   UNL A   1      40.597  19.233  25.756  1.00  0.00    -0.744 OA
ENDBRANCH  73  74
ENDBRANCH  45  68
BRANCH  57  78
ATOM     78  C   UNL A   1      47.731  27.020  30.684  1.00  0.00    -0.014 A 
ATOM     79  C   UNL A   1      48.784  27.380  29.826  1.00  0.00     0.010 A 
ATOM     80  C   UNL A   1      48.023  26.364  31.894  1.00  0.00     0.010 A 
ATOM     81  C   UNL A   1      50.105  27.080  30.169  1.00  0.00     0.020 A 
ATOM     82  C   UNL A   1      49.344  26.082  32.251  1.00  0.00     0.020 A 
ATOM     83  C   UNL A   1      50.377  26.441  31.384  1.00  0.00     0.054 A 
BRANCH  83  84
ATOM     84  S   UNL A   1      52.106  26.110  31.821  1.00  0.00     0.124 S 
ATOM     85  O   UNL A   1      51.996  24.888  32.613  1.00  0.00    -0.237 OA
ATOM     86  O   UNL A   1      52.736  25.956  30.513  1.00  0.00    -0.237 OA
ATOM     87  O   UNL A   1      52.511  27.299  32.568  1.00  0.00    -0.744 OA
ENDBRANCH  83  84
ENDBRANCH  57  78
ENDBRANCH  31  32
ENDBRANCH  23  26
ENDBRANCH  21  22
ENDBRANCH   1  21
TORSDOF 15
ENDMDL
