MODEL 1
REMARK VINA RESULT:     -11.0      0.000      0.000
REMARK SMILES O=C(NCCCNC(=O)c1ccc(N2C(=O)/C(=C/C3=c4ccccc4=NC3)SC2=S)cc1O)c1ccc(-c2c3nc(c(-c4ccc(S(=O)(=O)[O-])cc4)c4ccc([nH]4)c(-c4ccc(S(=O)(=O)[O-])cc4)c4nc(c(-c5ccc(S(=O)(=O)[O-])cc5)c5ccc2[nH]5)C=C4)C=C3)cc1
REMARK SMILES IDX 4 1 3 2 1 3 2 4 34 6 35 7 93 8 36 9 92 10 37 11 38 12 39 13
REMARK SMILES IDX 86 14 40 15 91 16 85 17 87 18 41 19 90 20 84 21 83 22 42 24
REMARK SMILES IDX 72 25 53 26 71 27 54 28 57 29 70 30 88 31 55 32 56 33 69 35
REMARK SMILES IDX 89 36 58 37 43 38 44 39 52 40 45 41 51 42 46 43 47 44 48 45
REMARK SMILES IDX 49 46 50 47 73 48 74 49 82 50 75 51 81 52 76 53 77 54 78 55
REMARK SMILES IDX 79 56 80 57 59 58 60 59 68 60 61 61 67 62 62 63 63 64 64 65
REMARK SMILES IDX 65 66 66 67 5 68 6 69 7 70 8 71 9 73 10 74 11 75 32 76 12 77
REMARK SMILES IDX 31 78 13 79 33 80 14 82 15 83 29 84 16 85 17 86 28 87 30 88
REMARK SMILES IDX 18 89 19 90 20 91 27 92 21 93 25 94 26 95 22 96 24 97 23 98
REMARK H PARENT 3 5 87 23 57 34 7 72 33 81
REMARK Flexibility Score: inf
ROOT
ATOM      1  C   UNL A   1      34.470  32.736  28.346  1.00  0.00     0.118 C 
ENDROOT
BRANCH   1   2
ATOM      2  N   UNL A   1      33.866  31.446  28.050  1.00  0.00    -0.352 N 
ATOM      3  O   UNL A   1      33.734  29.295  27.435  1.00  0.00    -0.269 OA
ATOM      4  C   UNL A   1      34.428  30.205  27.883  1.00  0.00     0.251 C 
ATOM      5  H   UNL A   1      32.886  31.466  27.954  1.00  0.00     0.163 HD
BRANCH   4   6
ATOM      6  C   UNL A   1      35.848  29.952  28.222  1.00  0.00     0.039 A 
ATOM      7  C   UNL A   1      36.820  30.134  27.234  1.00  0.00     0.014 A 
ATOM      8  C   UNL A   1      36.228  29.466  29.474  1.00  0.00     0.014 A 
ATOM      9  C   UNL A   1      38.160  29.843  27.510  1.00  0.00     0.010 A 
ATOM     10  C   UNL A   1      37.573  29.310  29.791  1.00  0.00     0.010 A 
ATOM     11  C   UNL A   1      38.548  29.434  28.796  1.00  0.00    -0.014 A 
BRANCH  11  12
ATOM     12  C   UNL A   1      39.942  29.004  29.085  1.00  0.00     0.031 A 
ATOM     13  C   UNL A   1      40.859  29.932  29.846  1.00  0.00     0.074 A 
ATOM     14  C   UNL A   1      40.384  27.799  28.674  1.00  0.00     0.049 A 
ATOM     15  N   UNL A   1      42.107  29.752  30.192  1.00  0.00    -0.248 NA
ATOM     16  C   UNL A   1      40.317  31.243  30.251  1.00  0.00     0.031 C 
ATOM     17  C   UNL A   1      39.597  26.821  27.920  1.00  0.00     0.029 A 
ATOM     18  N   UNL A   1      41.598  27.180  28.851  1.00  0.00    -0.354 N 
ATOM     19  C   UNL A   1      42.493  30.923  30.835  1.00  0.00     0.074 A 
ATOM     20  C   UNL A   1      41.380  31.837  30.768  1.00  0.00     0.031 C 
ATOM     21  C   UNL A   1      40.325  25.706  27.754  1.00  0.00     0.029 A 
ATOM     22  C   UNL A   1      41.646  25.900  28.346  1.00  0.00     0.049 A 
ATOM     23  H   UNL A   1      42.361  27.612  29.297  1.00  0.00     0.167 HD
ATOM     24  C   UNL A   1      43.656  31.198  31.466  1.00  0.00     0.031 A 
ATOM     25  C   UNL A   1      42.634  24.981  28.373  1.00  0.00     0.031 A 
ATOM     26  C   UNL A   1      44.741  30.262  31.583  1.00  0.00     0.049 A 
ATOM     27  C   UNL A   1      43.924  25.317  29.076  1.00  0.00     0.074 A 
ATOM     28  C   UNL A   1      45.941  30.427  32.249  1.00  0.00     0.029 A 
ATOM     29  N   UNL A   1      44.750  28.984  31.045  1.00  0.00    -0.354 N 
ATOM     30  N   UNL A   1      44.253  26.414  29.716  1.00  0.00    -0.248 NA
ATOM     31  C   UNL A   1      44.970  24.284  29.081  1.00  0.00     0.031 C 
ATOM     32  C   UNL A   1      46.707  29.279  32.053  1.00  0.00     0.029 A 
ATOM     33  C   UNL A   1      45.946  28.359  31.347  1.00  0.00     0.049 A 
ATOM     34  H   UNL A   1      44.015  28.582  30.528  1.00  0.00     0.167 HD
ATOM     35  C   UNL A   1      45.521  26.184  30.240  1.00  0.00     0.074 A 
ATOM     36  C   UNL A   1      45.899  24.843  29.848  1.00  0.00     0.031 C 
ATOM     37  C   UNL A   1      46.298  27.010  30.982  1.00  0.00     0.031 A 
BRANCH  24  38
ATOM     38  C   UNL A   1      43.824  32.543  32.125  1.00  0.00    -0.014 A 
ATOM     39  C   UNL A   1      43.339  32.745  33.430  1.00  0.00     0.010 A 
ATOM     40  C   UNL A   1      44.318  33.644  31.402  1.00  0.00     0.010 A 
ATOM     41  C   UNL A   1      43.287  34.028  33.977  1.00  0.00     0.020 A 
ATOM     42  C   UNL A   1      44.301  34.926  31.959  1.00  0.00     0.020 A 
ATOM     43  C   UNL A   1      43.752  35.114  33.229  1.00  0.00     0.054 A 
BRANCH  43  44
ATOM     44  S   UNL A   1      43.596  36.782  33.923  1.00  0.00     0.124 S 
ATOM     45  O   UNL A   1      44.671  36.805  34.911  1.00  0.00    -0.237 OA
ATOM     46  O   UNL A   1      43.795  37.633  32.752  1.00  0.00    -0.237 OA
ATOM     47  O   UNL A   1      42.242  36.799  34.473  1.00  0.00    -0.744 OA
ENDBRANCH  43  44
ENDBRANCH  24  38
BRANCH  25  48
ATOM     48  C   UNL A   1      42.402  23.631  27.784  1.00  0.00    -0.014 A 
ATOM     49  C   UNL A   1      41.949  22.563  28.580  1.00  0.00     0.010 A 
ATOM     50  C   UNL A   1      42.687  23.390  26.426  1.00  0.00     0.010 A 
ATOM     51  C   UNL A   1      41.831  21.276  28.046  1.00  0.00     0.020 A 
ATOM     52  C   UNL A   1      42.534  22.112  25.879  1.00  0.00     0.020 A 
ATOM     53  C   UNL A   1      42.134  21.058  26.700  1.00  0.00     0.054 A 
BRANCH  53  54
ATOM     54  S   UNL A   1      42.007  19.371  26.042  1.00  0.00     0.124 S 
ATOM     55  O   UNL A   1      42.899  19.433  24.887  1.00  0.00    -0.237 OA
ATOM     56  O   UNL A   1      42.481  18.558  27.159  1.00  0.00    -0.237 OA
ATOM     57  O   UNL A   1      40.588  19.230  25.730  1.00  0.00    -0.744 OA
ENDBRANCH  53  54
ENDBRANCH  25  48
BRANCH  37  58
ATOM     58  C   UNL A   1      47.627  26.502  31.481  1.00  0.00    -0.014 A 
ATOM     59  C   UNL A   1      48.704  26.391  30.577  1.00  0.00     0.010 A 
ATOM     60  C   UNL A   1      47.773  25.990  32.781  1.00  0.00     0.010 A 
ATOM     61  C   UNL A   1      49.881  25.740  30.949  1.00  0.00     0.020 A 
ATOM     62  C   UNL A   1      48.966  25.372  33.170  1.00  0.00     0.020 A 
ATOM     63  C   UNL A   1      50.000  25.225  32.241  1.00  0.00     0.054 A 
BRANCH  63  64
ATOM     64  S   UNL A   1      51.522  24.349  32.693  1.00  0.00     0.124 S 
ATOM     65  O   UNL A   1      51.299  23.027  32.114  1.00  0.00    -0.237 OA
ATOM     66  O   UNL A   1      52.558  25.152  32.049  1.00  0.00    -0.237 OA
ATOM     67  O   UNL A   1      51.525  24.397  34.153  1.00  0.00    -0.744 OA
ENDBRANCH  63  64
ENDBRANCH  37  58
ENDBRANCH  11  12
ENDBRANCH   4   6
ENDBRANCH   1   2
BRANCH   1  68
ATOM     68  C   UNL A   1      34.427  33.077  29.824  1.00  0.00     0.042 C 
BRANCH  68  69
ATOM     69  C   UNL A   1      35.610  33.904  30.295  1.00  0.00     0.118 C 
BRANCH  69  70
ATOM     70  N   UNL A   1      35.223  34.927  31.253  1.00  0.00    -0.352 N 
ATOM     71  C   UNL A   1      35.622  35.086  32.553  1.00  0.00     0.255 C 
ATOM     72  H   UNL A   1      34.584  35.598  30.921  1.00  0.00     0.163 HD
ATOM     73  O   UNL A   1      35.101  35.945  33.259  1.00  0.00    -0.269 OA
BRANCH  71  74
ATOM     74  C   UNL A   1      36.644  34.195  33.135  1.00  0.00     0.081 A 
ATOM     75  C   UNL A   1      37.957  34.319  32.662  1.00  0.00     0.020 A 
ATOM     76  C   UNL A   1      36.341  33.224  34.093  1.00  0.00     0.130 A 
ATOM     77  C   UNL A   1      38.964  33.486  33.160  1.00  0.00     0.028 A 
ATOM     78  C   UNL A   1      37.347  32.403  34.594  1.00  0.00     0.073 A 
ATOM     79  C   UNL A   1      38.660  32.500  34.106  1.00  0.00     0.054 A 
BRANCH  76  80
ATOM     80  O   UNL A   1      35.062  33.060  34.549  1.00  0.00    -0.507 OA
ATOM     81  H   UNL A   1      34.464  33.781  34.532  1.00  0.00     0.293 HD
ENDBRANCH  76  80
BRANCH  79  82
ATOM     82  N   UNL A   1      39.653  31.586  34.566  1.00  0.00    -0.261 N 
ATOM     83  C   UNL A   1      39.856  30.375  33.903  1.00  0.00     0.270 C 
ATOM     84  C   UNL A   1      40.464  31.831  35.669  1.00  0.00     0.152 C 
ATOM     85  O   UNL A   1      39.237  29.927  32.951  1.00  0.00    -0.268 OA
ATOM     86  C   UNL A   1      41.022  29.664  34.503  1.00  0.00     0.081 C 
ATOM     87  S   UNL A   1      41.675  30.570  35.806  1.00  0.00    -0.054 SA
ATOM     88  S   UNL A   1      40.367  33.029  36.837  1.00  0.00    -0.051 S 
ATOM     89  C   UNL A   1      41.496  28.507  34.020  1.00  0.00     0.027 C 
BRANCH  89  90
ATOM     90  C   UNL A   1      42.633  27.789  34.544  1.00  0.00    -0.016 C 
ATOM     91  C   UNL A   1      42.643  26.540  35.006  1.00  0.00     0.005 A 
ATOM     92  C   UNL A   1      44.014  28.382  34.600  1.00  0.00     0.179 C 
ATOM     93  C   UNL A   1      41.669  25.512  35.189  1.00  0.00     0.011 A 
ATOM     94  C   UNL A   1      44.065  26.325  35.326  1.00  0.00     0.065 A 
ATOM     95  N   UNL A   1      44.890  27.311  35.138  1.00  0.00    -0.280 NA
ATOM     96  C   UNL A   1      42.070  24.321  35.662  1.00  0.00     0.001 A 
ATOM     97  C   UNL A   1      44.430  24.984  35.829  1.00  0.00     0.028 A 
ATOM     98  C   UNL A   1      43.466  24.060  35.975  1.00  0.00     0.002 A 
ENDBRANCH  89  90
ENDBRANCH  79  82
ENDBRANCH  71  74
ENDBRANCH  69  70
ENDBRANCH  68  69
ENDBRANCH   1  68
TORSDOF 16
ENDMDL
MODEL 2
REMARK VINA RESULT:     -11.0      0.962      7.963
REMARK SMILES O=C(NCCCNC(=O)c1ccc(N2C(=O)/C(=C/C3=c4ccccc4=NC3)SC2=S)cc1O)c1ccc(-c2c3nc(c(-c4ccc(S(=O)(=O)[O-])cc4)c4ccc([nH]4)c(-c4ccc(S(=O)(=O)[O-])cc4)c4nc(c(-c5ccc(S(=O)(=O)[O-])cc5)c5ccc2[nH]5)C=C4)C=C3)cc1
REMARK SMILES IDX 4 1 3 2 1 3 2 4 34 6 35 7 93 8 36 9 92 10 37 11 38 12 39 13
REMARK SMILES IDX 86 14 40 15 91 16 85 17 87 18 41 19 90 20 84 21 83 22 42 24
REMARK SMILES IDX 72 25 53 26 71 27 54 28 57 29 70 30 88 31 55 32 56 33 69 35
REMARK SMILES IDX 89 36 58 37 43 38 44 39 52 40 45 41 51 42 46 43 47 44 48 45
REMARK SMILES IDX 49 46 50 47 73 48 74 49 82 50 75 51 81 52 76 53 77 54 78 55
REMARK SMILES IDX 79 56 80 57 59 58 60 59 68 60 61 61 67 62 62 63 63 64 64 65
REMARK SMILES IDX 65 66 66 67 5 68 6 69 7 70 8 71 9 73 10 74 11 75 32 76 12 77
REMARK SMILES IDX 31 78 13 79 33 80 14 82 15 83 29 84 16 85 17 86 28 87 30 88
REMARK SMILES IDX 18 89 19 90 20 91 27 92 21 93 25 94 26 95 22 96 24 97 23 98
REMARK H PARENT 3 5 87 23 57 34 7 72 33 81
REMARK Flexibility Score: inf
ROOT
ATOM      1  C   UNL A   1      35.028  33.203  28.133  1.00  0.00     0.118 C 
ENDROOT
BRANCH   1   2
ATOM      2  N   UNL A   1      34.164  32.039  28.012  1.00  0.00    -0.352 N 
ATOM      3  O   UNL A   1      33.571  29.912  27.630  1.00  0.00    -0.269 OA
ATOM      4  C   UNL A   1      34.462  30.701  27.935  1.00  0.00     0.251 C 
ATOM      5  H   UNL A   1      33.202  32.245  27.980  1.00  0.00     0.163 HD
BRANCH   4   6
ATOM      6  C   UNL A   1      35.832  30.200  28.201  1.00  0.00     0.039 A 
ATOM      7  C   UNL A   1      36.140  29.728  29.480  1.00  0.00     0.014 A 
ATOM      8  C   UNL A   1      36.835  30.259  27.233  1.00  0.00     0.014 A 
ATOM      9  C   UNL A   1      37.440  29.307  29.774  1.00  0.00     0.010 A 
ATOM     10  C   UNL A   1      38.089  29.714  27.484  1.00  0.00     0.010 A 
ATOM     11  C   UNL A   1      38.426  29.290  28.774  1.00  0.00    -0.014 A 
BRANCH  11  12
ATOM     12  C   UNL A   1      39.842  28.963  29.086  1.00  0.00     0.031 A 
ATOM     13  C   UNL A   1      40.391  27.610  28.700  1.00  0.00     0.074 A 
ATOM     14  C   UNL A   1      40.630  29.863  29.707  1.00  0.00     0.049 A 
ATOM     15  N   UNL A   1      41.591  27.126  28.887  1.00  0.00    -0.248 NA
ATOM     16  C   UNL A   1      39.470  26.666  28.038  1.00  0.00     0.031 C 
ATOM     17  C   UNL A   1      40.211  31.197  30.141  1.00  0.00     0.029 A 
ATOM     18  N   UNL A   1      41.957  29.802  30.061  1.00  0.00    -0.354 N 
ATOM     19  C   UNL A   1      41.558  25.829  28.385  1.00  0.00     0.074 A 
ATOM     20  C   UNL A   1      40.207  25.570  27.952  1.00  0.00     0.031 C 
ATOM     21  C   UNL A   1      41.272  31.848  30.646  1.00  0.00     0.029 A 
ATOM     22  C   UNL A   1      42.436  30.966  30.616  1.00  0.00     0.049 A 
ATOM     23  H   UNL A   1      42.511  28.999  29.930  1.00  0.00     0.167 HD
ATOM     24  C   UNL A   1      42.573  24.948  28.252  1.00  0.00     0.031 A 
ATOM     25  C   UNL A   1      43.676  31.295  31.035  1.00  0.00     0.031 A 
ATOM     26  C   UNL A   1      43.931  25.232  28.628  1.00  0.00     0.049 A 
ATOM     27  C   UNL A   1      44.789  30.289  30.884  1.00  0.00     0.074 A 
ATOM     28  C   UNL A   1      45.042  24.422  28.484  1.00  0.00     0.029 A 
ATOM     29  N   UNL A   1      44.366  26.418  29.197  1.00  0.00    -0.354 N 
ATOM     30  N   UNL A   1      44.746  29.085  30.365  1.00  0.00    -0.248 NA
ATOM     31  C   UNL A   1      46.122  30.692  31.352  1.00  0.00     0.031 C 
ATOM     32  C   UNL A   1      46.137  25.087  29.032  1.00  0.00     0.029 A 
ATOM     33  C   UNL A   1      45.728  26.351  29.430  1.00  0.00     0.049 A 
ATOM     34  H   UNL A   1      43.793  27.192  29.402  1.00  0.00     0.167 HD
ATOM     35  C   UNL A   1      46.052  28.608  30.400  1.00  0.00     0.074 A 
ATOM     36  C   UNL A   1      46.864  29.653  30.986  1.00  0.00     0.031 C 
ATOM     37  C   UNL A   1      46.533  27.412  29.982  1.00  0.00     0.031 A 
BRANCH  24  38
ATOM     38  C   UNL A   1      42.288  23.600  27.638  1.00  0.00    -0.014 A 
ATOM     39  C   UNL A   1      41.891  22.530  28.460  1.00  0.00     0.010 A 
ATOM     40  C   UNL A   1      42.563  23.354  26.280  1.00  0.00     0.010 A 
ATOM     41  C   UNL A   1      41.831  21.230  27.954  1.00  0.00     0.020 A 
ATOM     42  C   UNL A   1      42.470  22.060  25.760  1.00  0.00     0.020 A 
ATOM     43  C   UNL A   1      42.139  21.002  26.609  1.00  0.00     0.054 A 
BRANCH  43  44
ATOM     44  S   UNL A   1      42.141  19.296  25.993  1.00  0.00     0.124 S 
ATOM     45  O   UNL A   1      43.012  19.392  24.826  1.00  0.00    -0.237 OA
ATOM     46  O   UNL A   1      42.682  18.550  27.127  1.00  0.00    -0.237 OA
ATOM     47  O   UNL A   1      40.733  19.036  25.702  1.00  0.00    -0.744 OA
ENDBRANCH  43  44
ENDBRANCH  24  38
BRANCH  25  48
ATOM     48  C   UNL A   1      43.939  32.666  31.560  1.00  0.00    -0.014 A 
ATOM     49  C   UNL A   1      43.859  32.939  32.938  1.00  0.00     0.010 A 
ATOM     50  C   UNL A   1      44.219  33.724  30.675  1.00  0.00     0.010 A 
ATOM     51  C   UNL A   1      44.005  34.245  33.415  1.00  0.00     0.020 A 
ATOM     52  C   UNL A   1      44.403  35.026  31.153  1.00  0.00     0.020 A 
ATOM     53  C   UNL A   1      44.267  35.282  32.517  1.00  0.00     0.054 A 
BRANCH  53  54
ATOM     54  S   UNL A   1      44.416  36.973  33.159  1.00  0.00     0.124 S 
ATOM     55  O   UNL A   1      43.047  37.253  33.584  1.00  0.00    -0.237 OA
ATOM     56  O   UNL A   1      45.390  36.819  34.236  1.00  0.00    -0.237 OA
ATOM     57  O   UNL A   1      44.882  37.738  32.006  1.00  0.00    -0.744 OA
ENDBRANCH  53  54
ENDBRANCH  25  48
BRANCH  37  58
ATOM     58  C   UNL A   1      48.015  27.151  30.080  1.00  0.00    -0.014 A 
ATOM     59  C   UNL A   1      48.540  26.614  31.273  1.00  0.00     0.010 A 
ATOM     60  C   UNL A   1      48.900  27.577  29.076  1.00  0.00     0.010 A 
ATOM     61  C   UNL A   1      49.919  26.548  31.477  1.00  0.00     0.020 A 
ATOM     62  C   UNL A   1      50.283  27.476  29.261  1.00  0.00     0.020 A 
ATOM     63  C   UNL A   1      50.782  26.989  30.473  1.00  0.00     0.054 A 
BRANCH  63  64
ATOM     64  S   UNL A   1      52.570  26.932  30.773  1.00  0.00     0.124 S 
ATOM     65  O   UNL A   1      52.762  28.046  31.696  1.00  0.00    -0.237 OA
ATOM     66  O   UNL A   1      52.757  25.601  31.343  1.00  0.00    -0.237 OA
ATOM     67  O   UNL A   1      53.146  27.118  29.442  1.00  0.00    -0.744 OA
ENDBRANCH  63  64
ENDBRANCH  37  58
ENDBRANCH  11  12
ENDBRANCH   4   6
ENDBRANCH   1   2
BRANCH   1  68
ATOM     68  C   UNL A   1      34.470  34.249  29.081  1.00  0.00     0.042 C 
BRANCH  68  69
ATOM     69  C   UNL A   1      34.586  33.870  30.545  1.00  0.00     0.118 C 
BRANCH  69  70
ATOM     70  N   UNL A   1      34.512  35.027  31.424  1.00  0.00    -0.352 N 
ATOM     71  C   UNL A   1      35.229  35.294  32.560  1.00  0.00     0.255 C 
ATOM     72  H   UNL A   1      33.853  35.711  31.168  1.00  0.00     0.163 HD
ATOM     73  O   UNL A   1      34.952  36.272  33.249  1.00  0.00    -0.269 OA
BRANCH  71  74
ATOM     74  C   UNL A   1      36.307  34.385  32.994  1.00  0.00     0.081 A 
ATOM     75  C   UNL A   1      37.500  34.398  32.260  1.00  0.00     0.020 A 
ATOM     76  C   UNL A   1      36.163  33.502  34.066  1.00  0.00     0.130 A 
ATOM     77  C   UNL A   1      38.550  33.542  32.610  1.00  0.00     0.028 A 
ATOM     78  C   UNL A   1      37.211  32.658  34.419  1.00  0.00     0.073 A 
ATOM     79  C   UNL A   1      38.401  32.643  33.673  1.00  0.00     0.054 A 
BRANCH  76  80
ATOM     80  O   UNL A   1      34.997  33.447  34.780  1.00  0.00    -0.507 OA
ATOM     81  H   UNL A   1      34.196  33.217  34.351  1.00  0.00     0.293 HD
ENDBRANCH  76  80
BRANCH  79  82
ATOM     82  N   UNL A   1      39.424  31.705  33.996  1.00  0.00    -0.261 N 
ATOM     83  C   UNL A   1      39.352  30.394  33.525  1.00  0.00     0.270 C 
ATOM     84  C   UNL A   1      40.532  32.022  34.774  1.00  0.00     0.152 C 
ATOM     85  O   UNL A   1      38.458  29.880  32.871  1.00  0.00    -0.268 OA
ATOM     86  C   UNL A   1      40.594  29.657  33.896  1.00  0.00     0.081 C 
ATOM     87  S   UNL A   1      41.650  30.670  34.792  1.00  0.00    -0.054 SA
ATOM     88  S   UNL A   1      40.851  33.383  35.698  1.00  0.00    -0.051 S 
ATOM     89  C   UNL A   1      40.835  28.395  33.512  1.00  0.00     0.027 C 
BRANCH  89  90
ATOM     90  C   UNL A   1      42.027  27.643  33.822  1.00  0.00    -0.016 C 
ATOM     91  C   UNL A   1      42.109  26.563  34.595  1.00  0.00     0.005 A 
ATOM     92  C   UNL A   1      43.376  27.987  33.252  1.00  0.00     0.179 C 
ATOM     93  C   UNL A   1      41.192  25.794  35.374  1.00  0.00     0.011 A 
ATOM     94  C   UNL A   1      43.531  26.193  34.484  1.00  0.00     0.065 A 
ATOM     95  N   UNL A   1      44.304  26.946  33.761  1.00  0.00    -0.280 NA
ATOM     96  C   UNL A   1      41.647  24.704  36.014  1.00  0.00     0.001 A 
ATOM     97  C   UNL A   1      43.951  24.974  35.206  1.00  0.00     0.028 A 
ATOM     98  C   UNL A   1      43.038  24.293  35.918  1.00  0.00     0.002 A 
ENDBRANCH  89  90
ENDBRANCH  79  82
ENDBRANCH  71  74
ENDBRANCH  69  70
ENDBRANCH  68  69
ENDBRANCH   1  68
TORSDOF 16
ENDMDL
MODEL 3
REMARK VINA RESULT:      -9.5      4.137      7.432
REMARK SMILES O=C(NCCCNC(=O)c1ccc(N2C(=O)/C(=C/C3=c4ccccc4=NC3)SC2=S)cc1O)c1ccc(-c2c3nc(c(-c4ccc(S(=O)(=O)[O-])cc4)c4ccc([nH]4)c(-c4ccc(S(=O)(=O)[O-])cc4)c4nc(c(-c5ccc(S(=O)(=O)[O-])cc5)c5ccc2[nH]5)C=C4)C=C3)cc1
REMARK SMILES IDX 4 1 3 2 1 3 2 4 34 6 35 7 93 8 36 9 92 10 37 11 38 12 39 13
REMARK SMILES IDX 86 14 40 15 91 16 85 17 87 18 41 19 90 20 84 21 83 22 42 24
REMARK SMILES IDX 72 25 53 26 71 27 54 28 57 29 70 30 88 31 55 32 56 33 69 35
REMARK SMILES IDX 89 36 58 37 43 38 44 39 52 40 45 41 51 42 46 43 47 44 48 45
REMARK SMILES IDX 49 46 50 47 73 48 74 49 82 50 75 51 81 52 76 53 77 54 78 55
REMARK SMILES IDX 79 56 80 57 59 58 60 59 68 60 61 61 67 62 62 63 63 64 64 65
REMARK SMILES IDX 65 66 66 67 5 68 6 69 7 70 8 71 9 73 10 74 11 75 32 76 12 77
REMARK SMILES IDX 31 78 13 79 33 80 14 82 15 83 29 84 16 85 17 86 28 87 30 88
REMARK SMILES IDX 18 89 19 90 20 91 27 92 21 93 25 94 26 95 22 96 24 97 23 98
REMARK H PARENT 3 5 87 23 57 34 7 72 33 81
REMARK Flexibility Score: inf
ROOT
ATOM      1  C   UNL A   1      38.112  32.747  33.668  1.00  0.00     0.118 C 
ENDROOT
BRANCH   1   2
ATOM      2  N   UNL A   1      37.180  31.704  33.272  1.00  0.00    -0.352 N 
ATOM      3  O   UNL A   1      36.277  30.075  32.025  1.00  0.00    -0.269 OA
ATOM      4  C   UNL A   1      37.281  30.718  32.323  1.00  0.00     0.251 C 
ATOM      5  H   UNL A   1      36.330  31.704  33.770  1.00  0.00     0.163 HD
BRANCH   4   6
ATOM      6  C   UNL A   1      38.569  30.427  31.650  1.00  0.00     0.039 A 
ATOM      7  C   UNL A   1      38.728  30.793  30.310  1.00  0.00     0.014 A 
ATOM      8  C   UNL A   1      39.594  29.734  32.296  1.00  0.00     0.014 A 
ATOM      9  C   UNL A   1      39.911  30.476  29.635  1.00  0.00     0.010 A 
ATOM     10  C   UNL A   1      40.819  29.541  31.668  1.00  0.00     0.010 A 
ATOM     11  C   UNL A   1      40.971  29.851  30.312  1.00  0.00    -0.014 A 
BRANCH  11  12
ATOM     12  C   UNL A   1      42.189  29.395  29.593  1.00  0.00     0.031 A 
ATOM     13  C   UNL A   1      43.378  30.321  29.492  1.00  0.00     0.074 A 
ATOM     14  C   UNL A   1      42.234  28.168  29.036  1.00  0.00     0.049 A 
ATOM     15  N   UNL A   1      44.529  30.119  28.904  1.00  0.00    -0.248 NA
ATOM     16  C   UNL A   1      43.256  31.656  30.109  1.00  0.00     0.031 C 
ATOM     17  C   UNL A   1      41.146  27.190  29.055  1.00  0.00     0.029 A 
ATOM     18  N   UNL A   1      43.245  27.525  28.363  1.00  0.00    -0.354 N 
ATOM     19  C   UNL A   1      45.248  31.298  29.069  1.00  0.00     0.074 A 
ATOM     20  C   UNL A   1      44.386  32.238  29.743  1.00  0.00     0.031 C 
ATOM     21  C   UNL A   1      41.567  26.052  28.480  1.00  0.00     0.029 A 
ATOM     22  C   UNL A   1      42.938  26.231  28.008  1.00  0.00     0.049 A 
ATOM     23  H   UNL A   1      44.108  27.950  28.155  1.00  0.00     0.167 HD
ATOM     24  C   UNL A   1      46.530  31.561  28.730  1.00  0.00     0.031 A 
ATOM     25  C   UNL A   1      43.682  25.289  27.391  1.00  0.00     0.031 A 
ATOM     26  C   UNL A   1      47.405  30.602  28.114  1.00  0.00     0.049 A 
ATOM     27  C   UNL A   1      45.105  25.611  27.016  1.00  0.00     0.074 A 
ATOM     28  C   UNL A   1      48.738  30.757  27.779  1.00  0.00     0.029 A 
ATOM     29  N   UNL A   1      47.047  29.311  27.762  1.00  0.00    -0.354 N 
ATOM     30  N   UNL A   1      45.781  26.717  27.221  1.00  0.00    -0.248 NA
ATOM     31  C   UNL A   1      45.876  24.554  26.348  1.00  0.00     0.031 C 
ATOM     32  C   UNL A   1      49.167  29.585  27.159  1.00  0.00     0.029 A 
ATOM     33  C   UNL A   1      48.130  28.665  27.193  1.00  0.00     0.049 A 
ATOM     34  H   UNL A   1      46.157  28.913  27.897  1.00  0.00     0.167 HD
ATOM     35  C   UNL A   1      47.067  26.471  26.751  1.00  0.00     0.074 A 
ATOM     36  C   UNL A   1      47.078  25.111  26.257  1.00  0.00     0.031 C 
ATOM     37  C   UNL A   1      48.140  27.298  26.736  1.00  0.00     0.031 A 
BRANCH  24  38
ATOM     38  C   UNL A   1      47.100  32.920  29.049  1.00  0.00    -0.014 A 
ATOM     39  C   UNL A   1      47.594  33.183  30.340  1.00  0.00     0.010 A 
ATOM     40  C   UNL A   1      47.005  33.977  28.125  1.00  0.00     0.010 A 
ATOM     41  C   UNL A   1      47.924  34.485  30.722  1.00  0.00     0.020 A 
ATOM     42  C   UNL A   1      47.369  35.276  28.492  1.00  0.00     0.020 A 
ATOM     43  C   UNL A   1      47.792  35.526  29.799  1.00  0.00     0.054 A 
BRANCH  43  44
ATOM     44  S   UNL A   1      48.144  37.221  30.340  1.00  0.00     0.124 S 
ATOM     45  O   UNL A   1      48.275  37.060  31.786  1.00  0.00    -0.237 OA
ATOM     46  O   UNL A   1      49.378  37.533  29.623  1.00  0.00    -0.237 OA
ATOM     47  O   UNL A   1      46.970  37.972  29.899  1.00  0.00    -0.744 OA
ENDBRANCH  43  44
ENDBRANCH  24  38
BRANCH  25  48
ATOM     48  C   UNL A   1      43.112  23.929  27.167  1.00  0.00    -0.014 A 
ATOM     49  C   UNL A   1      43.106  22.969  28.196  1.00  0.00     0.010 A 
ATOM     50  C   UNL A   1      42.618  23.565  25.900  1.00  0.00     0.010 A 
ATOM     51  C   UNL A   1      42.665  21.665  27.952  1.00  0.00     0.020 A 
ATOM     52  C   UNL A   1      42.141  22.272  25.662  1.00  0.00     0.020 A 
ATOM     53  C   UNL A   1      42.194  21.323  26.682  1.00  0.00     0.054 A 
BRANCH  53  54
ATOM     54  S   UNL A   1      41.661  19.614  26.383  1.00  0.00     0.124 S 
ATOM     55  O   UNL A   1      42.469  19.249  25.222  1.00  0.00    -0.237 OA
ATOM     56  O   UNL A   1      42.018  18.946  27.632  1.00  0.00    -0.237 OA
ATOM     57  O   UNL A   1      40.228  19.740  26.134  1.00  0.00    -0.744 OA
ENDBRANCH  53  54
ENDBRANCH  25  48
BRANCH  37  58
ATOM     58  C   UNL A   1      49.455  26.771  26.217  1.00  0.00    -0.014 A 
ATOM     59  C   UNL A   1      50.369  26.196  27.123  1.00  0.00     0.010 A 
ATOM     60  C   UNL A   1      49.853  26.982  24.887  1.00  0.00     0.010 A 
ATOM     61  C   UNL A   1      51.669  25.884  26.721  1.00  0.00     0.020 A 
ATOM     62  C   UNL A   1      51.142  26.634  24.470  1.00  0.00     0.020 A 
ATOM     63  C   UNL A   1      52.050  26.115  25.398  1.00  0.00     0.054 A 
BRANCH  63  64
ATOM     64  S   UNL A   1      53.754  25.739  24.904  1.00  0.00     0.124 S 
ATOM     65  O   UNL A   1      54.451  25.730  26.187  1.00  0.00    -0.237 OA
ATOM     66  O   UNL A   1      53.619  24.440  24.250  1.00  0.00    -0.237 OA
ATOM     67  O   UNL A   1      54.103  26.844  24.012  1.00  0.00    -0.744 OA
ENDBRANCH  63  64
ENDBRANCH  37  58
ENDBRANCH  11  12
ENDBRANCH   4   6
ENDBRANCH   1   2
BRANCH   1  68
ATOM     68  C   UNL A   1      37.536  34.142  33.504  1.00  0.00     0.042 C 
BRANCH  68  69
ATOM     69  C   UNL A   1      37.030  34.432  32.103  1.00  0.00     0.118 C 
BRANCH  69  70
ATOM     70  N   UNL A   1      35.880  35.323  32.104  1.00  0.00    -0.352 N 
ATOM     71  C   UNL A   1      34.752  35.275  31.329  1.00  0.00     0.255 C 
ATOM     72  H   UNL A   1      35.920  36.065  32.748  1.00  0.00     0.163 HD
ATOM     73  O   UNL A   1      33.927  36.183  31.381  1.00  0.00    -0.269 OA
BRANCH  71  74
ATOM     74  C   UNL A   1      34.538  34.158  30.389  1.00  0.00     0.081 A 
ATOM     75  C   UNL A   1      34.429  34.468  29.028  1.00  0.00     0.020 A 
ATOM     76  C   UNL A   1      34.404  32.832  30.811  1.00  0.00     0.130 A 
ATOM     77  C   UNL A   1      34.204  33.453  28.091  1.00  0.00     0.028 A 
ATOM     78  C   UNL A   1      34.189  31.824  29.877  1.00  0.00     0.073 A 
ATOM     79  C   UNL A   1      34.050  32.127  28.513  1.00  0.00     0.054 A 
BRANCH  76  80
ATOM     80  O   UNL A   1      34.475  32.505  32.137  1.00  0.00    -0.507 OA
ATOM     81  H   UNL A   1      35.258  32.124  32.483  1.00  0.00     0.293 HD
ENDBRANCH  76  80
BRANCH  79  82
ATOM     82  N   UNL A   1      33.738  31.089  27.587  1.00  0.00    -0.261 N 
ATOM     83  C   UNL A   1      32.481  31.038  26.985  1.00  0.00     0.270 C 
ATOM     84  C   UNL A   1      34.636  30.090  27.229  1.00  0.00     0.152 C 
ATOM     85  O   UNL A   1      31.524  31.772  27.179  1.00  0.00    -0.268 OA
ATOM     86  C   UNL A   1      32.452  29.940  25.975  1.00  0.00     0.081 C 
ATOM     87  S   UNL A   1      33.957  29.117  25.938  1.00  0.00    -0.054 SA
ATOM     88  S   UNL A   1      36.119  29.680  27.894  1.00  0.00    -0.051 S 
ATOM     89  C   UNL A   1      31.393  29.703  25.188  1.00  0.00     0.027 C 
BRANCH  89  90
ATOM     90  C   UNL A   1      31.319  28.672  24.180  1.00  0.00    -0.016 C 
ATOM     91  C   UNL A   1      31.136  27.370  24.386  1.00  0.00     0.005 A 
ATOM     92  C   UNL A   1      31.408  28.966  22.708  1.00  0.00     0.179 C 
ATOM     93  C   UNL A   1      30.981  26.529  25.529  1.00  0.00     0.011 A 
ATOM     94  C   UNL A   1      31.070  26.832  23.015  1.00  0.00     0.065 A 
ATOM     95  N   UNL A   1      31.226  27.660  22.026  1.00  0.00    -0.280 NA
ATOM     96  C   UNL A   1      30.768  25.216  25.340  1.00  0.00     0.001 A 
ATOM     97  C   UNL A   1      30.820  25.381  22.889  1.00  0.00     0.028 A 
ATOM     98  C   UNL A   1      30.680  24.646  24.004  1.00  0.00     0.002 A 
ENDBRANCH  89  90
ENDBRANCH  79  82
ENDBRANCH  71  74
ENDBRANCH  69  70
ENDBRANCH  68  69
ENDBRANCH   1  68
TORSDOF 16
ENDMDL
