MODEL 1
REMARK VINA RESULT:     -12.3      0.000      0.000
REMARK SMILES Nc1nccc(N2CCC[C@@](Cc3ccc(F)cc3F)(C(=O)NCCCNC(=O)c3ccc(-c4c5nc(c(-c6ccc(S(=O)(=O)[O-])cc6)c6ccc([nH]6)c(-c6ccc(S(=O)(=O)[O-])cc6)c6nc(c(-c7ccc(S(=O)(=O)[O-])cc7)c7ccc4[nH]7)C=C6)C=C5)cc3)C2)n1
REMARK SMILES IDX 25 1 24 2 23 3 21 4 22 5 11 7 7 8 8 9 90 10 9 11 10 12 6 13
REMARK SMILES IDX 2 14 3 15 91 16 4 17 5 18 1 19 12 22 13 23 14 24 19 25 15 26
REMARK SMILES IDX 18 27 20 28 16 29 17 30 26 31 27 32 28 33 29 35 30 36 31 37
REMARK SMILES IDX 89 38 32 39 88 40 33 41 34 42 35 43 82 44 36 45 87 46 81 47
REMARK SMILES IDX 83 48 37 49 86 50 80 51 79 52 38 54 68 55 49 56 67 57 50 58
REMARK SMILES IDX 53 59 66 60 84 61 51 62 52 63 65 65 85 66 54 67 39 68 40 69
REMARK SMILES IDX 48 70 41 71 47 72 42 73 43 74 44 75 45 76 46 77 69 78 70 79
REMARK SMILES IDX 78 80 71 81 77 82 72 83 73 84 74 85 75 86 76 87 55 88 56 89
REMARK SMILES IDX 64 90 57 91 63 92 58 93 59 94 60 95 61 96 62 97
REMARK H PARENT 23 6 1 20 1 21 27 34 83 53 53 64
REMARK Flexibility Score: inf
ROOT
ATOM      1  C   UNL A   1      32.306  27.832  27.012  1.00  0.00     0.042 C 
ENDROOT
BRANCH   1   2
ATOM      2  C   UNL A   1      32.313  26.567  26.192  1.00  0.00     0.117 C 
BRANCH   2   3
ATOM      3  N   UNL A   1      31.276  25.615  26.507  1.00  0.00    -0.355 N 
ATOM      4  C   UNL A   1      31.324  24.253  26.494  1.00  0.00     0.228 C 
ATOM      5  O   UNL A   1      30.474  23.684  27.186  1.00  0.00    -0.274 OA
ATOM      6  H   UNL A   1      30.411  26.004  26.771  1.00  0.00     0.163 HD
BRANCH   4   7
ATOM      7  C   UNL A   1      32.362  23.460  25.669  1.00  0.00     0.071 C 
ATOM      8  N   UNL A   1      32.422  21.533  24.149  1.00  0.00    -0.355 N 
ATOM      9  C   UNL A   1      32.788  22.235  22.936  1.00  0.00     0.118 C 
ATOM     10  C   UNL A   1      31.556  22.245  25.083  1.00  0.00     0.135 C 
ATOM     11  C   UNL A   1      33.561  23.480  23.344  1.00  0.00     0.023 C 
ATOM     12  C   UNL A   1      32.847  24.285  24.434  1.00  0.00     0.021 C 
BRANCH   8  13
ATOM     13  C   UNL A   1      32.402  20.156  24.147  1.00  0.00     0.134 A 
ATOM     14  C   UNL A   1      32.545  18.156  25.239  1.00  0.00     0.221 A 
ATOM     15  N   UNL A   1      32.516  17.437  24.113  1.00  0.00    -0.222 NA
ATOM     16  N   UNL A   1      32.512  19.489  25.304  1.00  0.00    -0.196 NA
ATOM     17  C   UNL A   1      32.424  18.136  22.971  1.00  0.00     0.119 A 
ATOM     18  C   UNL A   1      32.342  19.503  22.933  1.00  0.00     0.067 A 
BRANCH  14  19
ATOM     19  N   UNL A   1      32.604  17.471  26.418  1.00  0.00    -0.368 N 
ATOM     20  H   UNL A   1      31.778  17.285  26.921  1.00  0.00     0.159 HD
ATOM     21  H   UNL A   1      33.472  17.162  26.765  1.00  0.00     0.159 HD
ENDBRANCH  14  19
ENDBRANCH   8  13
BRANCH   7  22
ATOM     22  C   UNL A   1      33.481  22.823  26.571  1.00  0.00     0.057 C 
BRANCH  22  23
ATOM     23  C   UNL A   1      34.896  22.670  26.069  1.00  0.00    -0.011 A 
ATOM     24  C   UNL A   1      35.412  21.403  25.746  1.00  0.00     0.010 A 
ATOM     25  C   UNL A   1      35.741  23.784  25.943  1.00  0.00     0.129 A 
ATOM     26  C   UNL A   1      36.762  21.257  25.409  1.00  0.00     0.040 A 
ATOM     27  C   UNL A   1      37.083  23.646  25.607  1.00  0.00     0.078 A 
ATOM     28  F   UNL A   1      35.268  25.010  26.195  1.00  0.00    -0.207 F 
ATOM     29  C   UNL A   1      37.587  22.377  25.363  1.00  0.00     0.126 A 
ATOM     30  F   UNL A   1      38.890  22.227  25.096  1.00  0.00    -0.207 F 
ENDBRANCH  22  23
ENDBRANCH   7  22
ENDBRANCH   4   7
ENDBRANCH   2   3
ENDBRANCH   1   2
BRANCH   1  31
ATOM     31  C   UNL A   1      33.682  28.465  27.110  1.00  0.00     0.118 C 
BRANCH  31  32
ATOM     32  N   UNL A   1      33.648  29.850  27.585  1.00  0.00    -0.352 N 
ATOM     33  C   UNL A   1      34.589  30.595  28.250  1.00  0.00     0.251 C 
ATOM     34  H   UNL A   1      32.807  30.327  27.397  1.00  0.00     0.163 HD
ATOM     35  O   UNL A   1      34.280  31.687  28.721  1.00  0.00    -0.269 OA
BRANCH  33  36
ATOM     36  C   UNL A   1      35.960  30.075  28.402  1.00  0.00     0.039 A 
ATOM     37  C   UNL A   1      36.849  30.146  27.328  1.00  0.00     0.014 A 
ATOM     38  C   UNL A   1      36.373  29.537  29.622  1.00  0.00     0.014 A 
ATOM     39  C   UNL A   1      38.175  29.757  27.514  1.00  0.00     0.010 A 
ATOM     40  C   UNL A   1      37.716  29.285  29.843  1.00  0.00     0.010 A 
ATOM     41  C   UNL A   1      38.631  29.375  28.788  1.00  0.00    -0.014 A 
BRANCH  41  42
ATOM     42  C   UNL A   1      40.059  29.065  29.040  1.00  0.00     0.031 A 
ATOM     43  C   UNL A   1      40.620  27.721  28.651  1.00  0.00     0.074 A 
ATOM     44  C   UNL A   1      40.826  29.967  29.686  1.00  0.00     0.049 A 
ATOM     45  N   UNL A   1      41.829  27.255  28.827  1.00  0.00    -0.248 NA
ATOM     46  C   UNL A   1      39.698  26.761  28.016  1.00  0.00     0.031 C 
ATOM     47  C   UNL A   1      40.368  31.268  30.186  1.00  0.00     0.029 A 
ATOM     48  N   UNL A   1      42.150  29.929  30.037  1.00  0.00    -0.354 N 
ATOM     49  C   UNL A   1      41.803  25.948  28.352  1.00  0.00     0.074 A 
ATOM     50  C   UNL A   1      40.449  25.672  27.932  1.00  0.00     0.031 C 
ATOM     51  C   UNL A   1      41.404  31.919  30.739  1.00  0.00     0.029 A 
ATOM     52  C   UNL A   1      42.586  31.067  30.677  1.00  0.00     0.049 A 
ATOM     53  H   UNL A   1      42.736  29.159  29.851  1.00  0.00     0.167 HD
ATOM     54  C   UNL A   1      42.824  25.067  28.249  1.00  0.00     0.031 A 
ATOM     55  C   UNL A   1      43.800  31.387  31.162  1.00  0.00     0.031 A 
ATOM     56  C   UNL A   1      44.177  25.364  28.634  1.00  0.00     0.049 A 
ATOM     57  C   UNL A   1      44.924  30.400  31.000  1.00  0.00     0.074 A 
ATOM     58  C   UNL A   1      45.303  24.575  28.486  1.00  0.00     0.029 A 
ATOM     59  N   UNL A   1      44.586  26.540  29.242  1.00  0.00    -0.354 N 
ATOM     60  N   UNL A   1      44.901  29.207  30.451  1.00  0.00    -0.248 NA
ATOM     61  C   UNL A   1      46.241  30.805  31.509  1.00  0.00     0.031 C 
ATOM     62  C   UNL A   1      46.383  25.249  29.063  1.00  0.00     0.029 A 
ATOM     63  C   UNL A   1      45.943  26.486  29.508  1.00  0.00     0.049 A 
ATOM     64  H   UNL A   1      43.998  27.302  29.454  1.00  0.00     0.167 HD
ATOM     65  C   UNL A   1      46.205  28.732  30.528  1.00  0.00     0.074 A 
ATOM     66  C   UNL A   1      46.994  29.777  31.147  1.00  0.00     0.031 C 
ATOM     67  C   UNL A   1      46.706  27.536  30.130  1.00  0.00     0.031 A 
BRANCH  54  68
ATOM     68  C   UNL A   1      42.529  23.698  27.693  1.00  0.00    -0.014 A 
ATOM     69  C   UNL A   1      42.621  23.436  26.314  1.00  0.00     0.010 A 
ATOM     70  C   UNL A   1      42.240  22.639  28.573  1.00  0.00     0.010 A 
ATOM     71  C   UNL A   1      42.418  22.143  25.824  1.00  0.00     0.020 A 
ATOM     72  C   UNL A   1      42.064  21.340  28.090  1.00  0.00     0.020 A 
ATOM     73  C   UNL A   1      42.148  21.101  26.716  1.00  0.00     0.054 A 
BRANCH  73  74
ATOM     74  S   UNL A   1      41.968  19.421  26.059  1.00  0.00     0.124 S 
ATOM     75  O   UNL A   1      42.389  18.605  27.195  1.00  0.00    -0.237 OA
ATOM     76  O   UNL A   1      40.546  19.358  25.734  1.00  0.00    -0.237 OA
ATOM     77  O   UNL A   1      42.869  19.398  24.909  1.00  0.00    -0.744 OA
ENDBRANCH  73  74
ENDBRANCH  54  68
BRANCH  55  78
ATOM     78  C   UNL A   1      44.019  32.692  31.846  1.00  0.00    -0.014 A 
ATOM     79  C   UNL A   1      43.832  32.820  33.233  1.00  0.00     0.010 A 
ATOM     80  C   UNL A   1      44.401  33.825  31.103  1.00  0.00     0.010 A 
ATOM     81  C   UNL A   1      43.980  34.063  33.858  1.00  0.00     0.020 A 
ATOM     82  C   UNL A   1      44.585  35.060  31.729  1.00  0.00     0.020 A 
ATOM     83  C   UNL A   1      44.352  35.176  33.100  1.00  0.00     0.054 A 
BRANCH  83  84
ATOM     84  S   UNL A   1      44.552  36.777  33.930  1.00  0.00     0.124 S 
ATOM     85  O   UNL A   1      45.723  37.324  33.255  1.00  0.00    -0.237 OA
ATOM     86  O   UNL A   1      43.284  37.443  33.640  1.00  0.00    -0.237 OA
ATOM     87  O   UNL A   1      44.748  36.412  35.332  1.00  0.00    -0.744 OA
ENDBRANCH  83  84
ENDBRANCH  55  78
BRANCH  67  88
ATOM     88  C   UNL A   1      48.181  27.310  30.327  1.00  0.00    -0.014 A 
ATOM     89  C   UNL A   1      48.681  26.759  31.520  1.00  0.00     0.010 A 
ATOM     90  C   UNL A   1      49.076  27.624  29.288  1.00  0.00     0.010 A 
ATOM     91  C   UNL A   1      50.054  26.575  31.690  1.00  0.00     0.020 A 
ATOM     92  C   UNL A   1      50.446  27.409  29.441  1.00  0.00     0.020 A 
ATOM     93  C   UNL A   1      50.929  26.905  30.650  1.00  0.00     0.054 A 
BRANCH  93  94
ATOM     94  S   UNL A   1      52.706  26.644  30.891  1.00  0.00     0.124 S 
ATOM     95  O   UNL A   1      53.120  27.909  31.491  1.00  0.00    -0.237 OA
ATOM     96  O   UNL A   1      52.741  25.485  31.779  1.00  0.00    -0.237 OA
ATOM     97  O   UNL A   1      53.207  26.401  29.540  1.00  0.00    -0.744 OA
ENDBRANCH  93  94
ENDBRANCH  67  88
ENDBRANCH  41  42
ENDBRANCH  33  36
ENDBRANCH  31  32
ENDBRANCH   1  31
TORSDOF 17
ENDMDL
MODEL 2
REMARK VINA RESULT:     -12.2      3.216      8.736
REMARK SMILES Nc1nccc(N2CCC[C@@](Cc3ccc(F)cc3F)(C(=O)NCCCNC(=O)c3ccc(-c4c5nc(c(-c6ccc(S(=O)(=O)[O-])cc6)c6ccc([nH]6)c(-c6ccc(S(=O)(=O)[O-])cc6)c6nc(c(-c7ccc(S(=O)(=O)[O-])cc7)c7ccc4[nH]7)C=C6)C=C5)cc3)C2)n1
REMARK SMILES IDX 25 1 24 2 23 3 21 4 22 5 11 7 7 8 8 9 90 10 9 11 10 12 6 13
REMARK SMILES IDX 2 14 3 15 91 16 4 17 5 18 1 19 12 22 13 23 14 24 19 25 15 26
REMARK SMILES IDX 18 27 20 28 16 29 17 30 26 31 27 32 28 33 29 35 30 36 31 37
REMARK SMILES IDX 89 38 32 39 88 40 33 41 34 42 35 43 82 44 36 45 87 46 81 47
REMARK SMILES IDX 83 48 37 49 86 50 80 51 79 52 38 54 68 55 49 56 67 57 50 58
REMARK SMILES IDX 53 59 66 60 84 61 51 62 52 63 65 65 85 66 54 67 39 68 40 69
REMARK SMILES IDX 48 70 41 71 47 72 42 73 43 74 44 75 45 76 46 77 69 78 70 79
REMARK SMILES IDX 78 80 71 81 77 82 72 83 73 84 74 85 75 86 76 87 55 88 56 89
REMARK SMILES IDX 64 90 57 91 63 92 58 93 59 94 60 95 61 96 62 97
REMARK H PARENT 23 6 1 20 1 21 27 34 83 53 53 64
REMARK Flexibility Score: inf
ROOT
ATOM      1  C   UNL A   1      35.715  23.275  25.522  1.00  0.00     0.042 C 
ENDROOT
BRANCH   1   2
ATOM      2  C   UNL A   1      34.712  24.362  25.232  1.00  0.00     0.117 C 
BRANCH   2   3
ATOM      3  N   UNL A   1      34.290  24.470  23.857  1.00  0.00    -0.355 N 
ATOM      4  C   UNL A   1      33.567  25.455  23.253  1.00  0.00     0.228 C 
ATOM      5  O   UNL A   1      33.692  25.530  22.027  1.00  0.00    -0.274 OA
ATOM      6  H   UNL A   1      34.565  23.728  23.272  1.00  0.00     0.163 HD
BRANCH   4   7
ATOM      7  C   UNL A   1      32.643  26.415  24.034  1.00  0.00     0.071 C 
ATOM      8  N   UNL A   1      30.311  27.178  23.978  1.00  0.00    -0.355 N 
ATOM      9  C   UNL A   1      29.870  26.595  25.228  1.00  0.00     0.118 C 
ATOM     10  C   UNL A   1      31.302  26.426  23.216  1.00  0.00     0.135 C 
ATOM     11  C   UNL A   1      31.086  26.484  26.135  1.00  0.00     0.023 C 
ATOM     12  C   UNL A   1      32.282  25.830  25.437  1.00  0.00     0.021 C 
BRANCH   8  13
ATOM     13  C   UNL A   1      29.469  28.034  23.304  1.00  0.00     0.134 A 
ATOM     14  C   UNL A   1      29.117  29.899  22.033  1.00  0.00     0.221 A 
ATOM     15  N   UNL A   1      27.786  29.806  22.104  1.00  0.00    -0.222 NA
ATOM     16  N   UNL A   1      29.981  29.068  22.621  1.00  0.00    -0.196 NA
ATOM     17  C   UNL A   1      27.306  28.771  22.811  1.00  0.00     0.119 A 
ATOM     18  C   UNL A   1      28.108  27.839  23.416  1.00  0.00     0.067 A 
BRANCH  14  19
ATOM     19  N   UNL A   1      29.634  30.922  21.293  1.00  0.00    -0.368 N 
ATOM     20  H   UNL A   1      29.036  31.491  20.756  1.00  0.00     0.159 HD
ATOM     21  H   UNL A   1      30.604  31.091  21.296  1.00  0.00     0.159 HD
ENDBRANCH  14  19
ENDBRANCH   8  13
BRANCH   7  22
ATOM     22  C   UNL A   1      33.162  27.898  24.005  1.00  0.00     0.057 C 
BRANCH  22  23
ATOM     23  C   UNL A   1      33.217  28.732  25.262  1.00  0.00    -0.011 A 
ATOM     24  C   UNL A   1      32.322  29.799  25.457  1.00  0.00     0.010 A 
ATOM     25  C   UNL A   1      34.181  28.484  26.250  1.00  0.00     0.129 A 
ATOM     26  C   UNL A   1      32.466  30.645  26.561  1.00  0.00     0.040 A 
ATOM     27  C   UNL A   1      34.329  29.320  27.351  1.00  0.00     0.078 A 
ATOM     28  F   UNL A   1      35.018  27.447  26.120  1.00  0.00    -0.207 F 
ATOM     29  C   UNL A   1      33.480  30.409  27.485  1.00  0.00     0.126 A 
ATOM     30  F   UNL A   1      33.651  31.254  28.509  1.00  0.00    -0.207 F 
ENDBRANCH  22  23
ENDBRANCH   7  22
ENDBRANCH   4   7
ENDBRANCH   2   3
ENDBRANCH   1   2
BRANCH   1  31
ATOM     31  C   UNL A   1      37.090  23.591  24.961  1.00  0.00     0.118 C 
BRANCH  31  32
ATOM     32  N   UNL A   1      38.129  22.671  25.427  1.00  0.00    -0.352 N 
ATOM     33  C   UNL A   1      39.266  22.898  26.162  1.00  0.00     0.251 C 
ATOM     34  H   UNL A   1      37.991  21.731  25.168  1.00  0.00     0.163 HD
ATOM     35  O   UNL A   1      40.100  22.004  26.284  1.00  0.00    -0.269 OA
BRANCH  33  36
ATOM     36  C   UNL A   1      39.480  24.213  26.791  1.00  0.00     0.039 A 
ATOM     37  C   UNL A   1      39.007  24.446  28.084  1.00  0.00     0.014 A 
ATOM     38  C   UNL A   1      40.173  25.212  26.106  1.00  0.00     0.014 A 
ATOM     39  C   UNL A   1      39.311  25.652  28.714  1.00  0.00     0.010 A 
ATOM     40  C   UNL A   1      40.592  26.345  26.782  1.00  0.00     0.010 A 
ATOM     41  C   UNL A   1      40.152  26.588  28.088  1.00  0.00    -0.014 A 
BRANCH  41  42
ATOM     42  C   UNL A   1      40.585  27.827  28.779  1.00  0.00     0.031 A 
ATOM     43  C   UNL A   1      41.951  27.900  29.411  1.00  0.00     0.074 A 
ATOM     44  C   UNL A   1      39.718  28.852  28.899  1.00  0.00     0.049 A 
ATOM     45  N   UNL A   1      42.490  28.879  30.090  1.00  0.00    -0.248 NA
ATOM     46  C   UNL A   1      42.813  26.709  29.301  1.00  0.00     0.031 C 
ATOM     47  C   UNL A   1      38.338  28.862  28.401  1.00  0.00     0.029 A 
ATOM     48  N   UNL A   1      39.864  30.085  29.481  1.00  0.00    -0.354 N 
ATOM     49  C   UNL A   1      43.732  28.413  30.506  1.00  0.00     0.074 A 
ATOM     50  C   UNL A   1      43.850  27.047  30.054  1.00  0.00     0.031 C 
ATOM     51  C   UNL A   1      37.782  30.056  28.660  1.00  0.00     0.029 A 
ATOM     52  C   UNL A   1      38.745  30.880  29.383  1.00  0.00     0.049 A 
ATOM     53  H   UNL A   1      40.692  30.376  29.928  1.00  0.00     0.167 HD
ATOM     54  C   UNL A   1      44.700  29.076  31.179  1.00  0.00     0.031 A 
ATOM     55  C   UNL A   1      38.518  32.130  29.827  1.00  0.00     0.031 A 
ATOM     56  C   UNL A   1      44.590  30.449  31.590  1.00  0.00     0.049 A 
ATOM     57  C   UNL A   1      39.627  32.854  30.542  1.00  0.00     0.074 A 
ATOM     58  C   UNL A   1      45.547  31.242  32.197  1.00  0.00     0.029 A 
ATOM     59  N   UNL A   1      43.456  31.231  31.439  1.00  0.00    -0.354 N 
ATOM     60  N   UNL A   1      40.835  32.429  30.832  1.00  0.00    -0.248 NA
ATOM     61  C   UNL A   1      39.350  34.229  30.975  1.00  0.00     0.031 C 
ATOM     62  C   UNL A   1      44.971  32.485  32.470  1.00  0.00     0.029 A 
ATOM     63  C   UNL A   1      43.677  32.489  31.971  1.00  0.00     0.049 A 
ATOM     64  H   UNL A   1      42.617  30.936  31.016  1.00  0.00     0.167 HD
ATOM     65  C   UNL A   1      41.468  33.495  31.461  1.00  0.00     0.074 A 
ATOM     66  C   UNL A   1      40.520  34.590  31.480  1.00  0.00     0.031 C 
ATOM     67  C   UNL A   1      42.717  33.562  31.984  1.00  0.00     0.031 A 
BRANCH  54  68
ATOM     68  C   UNL A   1      45.970  28.336  31.511  1.00  0.00    -0.014 A 
ATOM     69  C   UNL A   1      46.105  27.625  32.717  1.00  0.00     0.010 A 
ATOM     70  C   UNL A   1      47.008  28.280  30.564  1.00  0.00     0.010 A 
ATOM     71  C   UNL A   1      47.261  26.881  32.975  1.00  0.00     0.020 A 
ATOM     72  C   UNL A   1      48.153  27.515  30.805  1.00  0.00     0.020 A 
ATOM     73  C   UNL A   1      48.274  26.825  32.013  1.00  0.00     0.054 A 
BRANCH  73  74
ATOM     74  S   UNL A   1      49.726  25.789  32.342  1.00  0.00     0.124 S 
ATOM     75  O   UNL A   1      50.661  26.754  32.916  1.00  0.00    -0.237 OA
ATOM     76  O   UNL A   1      49.201  24.793  33.272  1.00  0.00    -0.237 OA
ATOM     77  O   UNL A   1      50.093  25.276  31.024  1.00  0.00    -0.744 OA
ENDBRANCH  73  74
ENDBRANCH  54  68
BRANCH  55  78
ATOM     78  C   UNL A   1      37.193  32.777  29.615  1.00  0.00    -0.014 A 
ATOM     79  C   UNL A   1      36.853  33.336  28.371  1.00  0.00     0.010 A 
ATOM     80  C   UNL A   1      36.266  32.853  30.672  1.00  0.00     0.010 A 
ATOM     81  C   UNL A   1      35.631  33.996  28.199  1.00  0.00     0.020 A 
ATOM     82  C   UNL A   1      35.030  33.479  30.493  1.00  0.00     0.020 A 
ATOM     83  C   UNL A   1      34.729  34.066  29.262  1.00  0.00     0.054 A 
BRANCH  83  84
ATOM     84  S   UNL A   1      33.145  34.914  29.016  1.00  0.00     0.124 S 
ATOM     85  O   UNL A   1      32.567  34.871  30.354  1.00  0.00    -0.237 OA
ATOM     86  O   UNL A   1      33.562  36.233  28.547  1.00  0.00    -0.237 OA
ATOM     87  O   UNL A   1      32.470  34.091  28.014  1.00  0.00    -0.744 OA
ENDBRANCH  83  84
ENDBRANCH  55  78
BRANCH  67  88
ATOM     88  C   UNL A   1      43.137  34.873  32.592  1.00  0.00    -0.014 A 
ATOM     89  C   UNL A   1      43.845  35.830  31.844  1.00  0.00     0.010 A 
ATOM     90  C   UNL A   1      42.790  35.162  33.924  1.00  0.00     0.010 A 
ATOM     91  C   UNL A   1      44.243  37.032  32.433  1.00  0.00     0.020 A 
ATOM     92  C   UNL A   1      43.155  36.377  34.506  1.00  0.00     0.020 A 
ATOM     93  C   UNL A   1      43.898  37.296  33.762  1.00  0.00     0.054 A 
BRANCH  93  94
ATOM     94  S   UNL A   1      44.414  38.870  34.499  1.00  0.00     0.124 S 
ATOM     95  O   UNL A   1      44.491  38.529  35.917  1.00  0.00    -0.237 OA
ATOM     96  O   UNL A   1      45.692  39.126  33.843  1.00  0.00    -0.237 OA
ATOM     97  O   UNL A   1      43.338  39.791  34.138  1.00  0.00    -0.744 OA
ENDBRANCH  93  94
ENDBRANCH  67  88
ENDBRANCH  41  42
ENDBRANCH  33  36
ENDBRANCH  31  32
ENDBRANCH   1  31
TORSDOF 17
ENDMDL
MODEL 3
REMARK VINA RESULT:     -11.9      3.444      8.011
REMARK SMILES Nc1nccc(N2CCC[C@@](Cc3ccc(F)cc3F)(C(=O)NCCCNC(=O)c3ccc(-c4c5nc(c(-c6ccc(S(=O)(=O)[O-])cc6)c6ccc([nH]6)c(-c6ccc(S(=O)(=O)[O-])cc6)c6nc(c(-c7ccc(S(=O)(=O)[O-])cc7)c7ccc4[nH]7)C=C6)C=C5)cc3)C2)n1
REMARK SMILES IDX 25 1 24 2 23 3 21 4 22 5 11 7 7 8 8 9 90 10 9 11 10 12 6 13
REMARK SMILES IDX 2 14 3 15 91 16 4 17 5 18 1 19 12 22 13 23 14 24 19 25 15 26
REMARK SMILES IDX 18 27 20 28 16 29 17 30 26 31 27 32 28 33 29 35 30 36 31 37
REMARK SMILES IDX 89 38 32 39 88 40 33 41 34 42 35 43 82 44 36 45 87 46 81 47
REMARK SMILES IDX 83 48 37 49 86 50 80 51 79 52 38 54 68 55 49 56 67 57 50 58
REMARK SMILES IDX 53 59 66 60 84 61 51 62 52 63 65 65 85 66 54 67 39 68 40 69
REMARK SMILES IDX 48 70 41 71 47 72 42 73 43 74 44 75 45 76 46 77 69 78 70 79
REMARK SMILES IDX 78 80 71 81 77 82 72 83 73 84 74 85 75 86 76 87 55 88 56 89
REMARK SMILES IDX 64 90 57 91 63 92 58 93 59 94 60 95 61 96 62 97
REMARK H PARENT 23 6 1 20 1 21 27 34 83 53 53 64
REMARK Flexibility Score: inf
ROOT
ATOM      1  C   UNL A   1      38.534  19.529  25.176  1.00  0.00     0.042 C 
ENDROOT
BRANCH   1   2
ATOM      2  C   UNL A   1      37.768  20.685  24.584  1.00  0.00     0.117 C 
BRANCH   2   3
ATOM      3  N   UNL A   1      38.025  21.973  25.182  1.00  0.00    -0.355 N 
ATOM      4  C   UNL A   1      37.139  22.922  25.596  1.00  0.00     0.228 C 
ATOM      5  O   UNL A   1      37.570  23.723  26.431  1.00  0.00    -0.274 OA
ATOM      6  H   UNL A   1      38.975  22.197  25.310  1.00  0.00     0.163 HD
BRANCH   4   7
ATOM      7  C   UNL A   1      35.692  23.007  25.062  1.00  0.00     0.071 C 
ATOM      8  N   UNL A   1      33.937  24.697  24.761  1.00  0.00    -0.355 N 
ATOM      9  C   UNL A   1      33.902  24.706  23.313  1.00  0.00     0.118 C 
ATOM     10  C   UNL A   1      35.237  24.476  25.385  1.00  0.00     0.135 C 
ATOM     11  C   UNL A   1      34.358  23.336  22.836  1.00  0.00     0.023 C 
ATOM     12  C   UNL A   1      35.660  22.883  23.506  1.00  0.00     0.021 C 
BRANCH   8  13
ATOM     13  C   UNL A   1      32.979  25.398  25.459  1.00  0.00     0.134 A 
ATOM     14  C   UNL A   1      30.836  25.645  26.207  1.00  0.00     0.221 A 
ATOM     15  N   UNL A   1      31.057  26.864  26.710  1.00  0.00    -0.222 NA
ATOM     16  N   UNL A   1      31.740  24.899  25.569  1.00  0.00    -0.196 NA
ATOM     17  C   UNL A   1      32.303  27.341  26.567  1.00  0.00     0.119 A 
ATOM     18  C   UNL A   1      33.312  26.637  25.965  1.00  0.00     0.067 A 
BRANCH  14  19
ATOM     19  N   UNL A   1      29.587  25.119  26.368  1.00  0.00    -0.368 N 
ATOM     20  H   UNL A   1      28.866  25.365  25.744  1.00  0.00     0.159 HD
ATOM     21  H   UNL A   1      29.407  24.495  27.108  1.00  0.00     0.159 HD
ENDBRANCH  14  19
ENDBRANCH   8  13
BRANCH   7  22
ATOM     22  C   UNL A   1      34.706  22.080  25.861  1.00  0.00     0.057 C 
BRANCH  22  23
ATOM     23  C   UNL A   1      34.084  20.863  25.219  1.00  0.00    -0.011 A 
ATOM     24  C   UNL A   1      34.817  19.671  25.078  1.00  0.00     0.010 A 
ATOM     25  C   UNL A   1      32.774  20.901  24.720  1.00  0.00     0.129 A 
ATOM     26  C   UNL A   1      34.279  18.595  24.366  1.00  0.00     0.040 A 
ATOM     27  C   UNL A   1      32.233  19.834  24.012  1.00  0.00     0.078 A 
ATOM     28  F   UNL A   1      32.031  22.003  24.880  1.00  0.00    -0.207 F 
ATOM     29  C   UNL A   1      33.001  18.695  23.823  1.00  0.00     0.126 A 
ATOM     30  F   UNL A   1      32.512  17.685  23.094  1.00  0.00    -0.207 F 
ENDBRANCH  22  23
ENDBRANCH   7  22
ENDBRANCH   4   7
ENDBRANCH   2   3
ENDBRANCH   1   2
BRANCH   1  31
ATOM     31  C   UNL A   1      39.563  19.979  26.196  1.00  0.00     0.118 C 
BRANCH  31  32
ATOM     32  N   UNL A   1      40.821  19.234  26.114  1.00  0.00    -0.352 N 
ATOM     33  C   UNL A   1      42.123  19.667  26.112  1.00  0.00     0.251 C 
ATOM     34  H   UNL A   1      40.715  18.257  26.048  1.00  0.00     0.163 HD
ATOM     35  O   UNL A   1      43.027  18.878  25.846  1.00  0.00    -0.269 OA
BRANCH  33  36
ATOM     36  C   UNL A   1      42.426  21.077  26.419  1.00  0.00     0.039 A 
ATOM     37  C   UNL A   1      42.663  21.461  27.740  1.00  0.00     0.014 A 
ATOM     38  C   UNL A   1      42.499  22.017  25.390  1.00  0.00     0.014 A 
ATOM     39  C   UNL A   1      43.058  22.771  28.009  1.00  0.00     0.010 A 
ATOM     40  C   UNL A   1      43.026  23.272  25.641  1.00  0.00     0.010 A 
ATOM     41  C   UNL A   1      43.296  23.671  26.955  1.00  0.00    -0.014 A 
BRANCH  41  42
ATOM     42  C   UNL A   1      43.826  25.034  27.203  1.00  0.00     0.031 A 
ATOM     43  C   UNL A   1      45.274  25.342  26.921  1.00  0.00     0.074 A 
ATOM     44  C   UNL A   1      43.021  25.965  27.753  1.00  0.00     0.049 A 
ATOM     45  N   UNL A   1      45.927  26.460  27.111  1.00  0.00    -0.248 NA
ATOM     46  C   UNL A   1      46.109  24.249  26.390  1.00  0.00     0.031 C 
ATOM     47  C   UNL A   1      41.624  25.754  28.148  1.00  0.00     0.029 A 
ATOM     48  N   UNL A   1      43.259  27.275  28.079  1.00  0.00    -0.354 N 
ATOM     49  C   UNL A   1      47.243  26.194  26.751  1.00  0.00     0.074 A 
ATOM     50  C   UNL A   1      47.314  24.800  26.384  1.00  0.00     0.031 C 
ATOM     51  C   UNL A   1      41.120  26.905  28.621  1.00  0.00     0.029 A 
ATOM     52  C   UNL A   1      42.165  27.921  28.609  1.00  0.00     0.049 A 
ATOM     53  H   UNL A   1      44.131  27.714  27.947  1.00  0.00     0.167 HD
ATOM     54  C   UNL A   1      48.294  27.046  26.703  1.00  0.00     0.031 A 
ATOM     55  C   UNL A   1      42.022  29.189  29.039  1.00  0.00     0.031 A 
ATOM     56  C   UNL A   1      48.205  28.442  27.033  1.00  0.00     0.049 A 
ATOM     57  C   UNL A   1      43.198  30.121  28.940  1.00  0.00     0.074 A 
ATOM     58  C   UNL A   1      49.186  29.412  26.930  1.00  0.00     0.029 A 
ATOM     59  N   UNL A   1      47.071  29.067  27.529  1.00  0.00    -0.354 N 
ATOM     60  N   UNL A   1      44.410  29.875  28.496  1.00  0.00    -0.248 NA
ATOM     61  C   UNL A   1      42.987  31.505  29.384  1.00  0.00     0.031 C 
ATOM     62  C   UNL A   1      48.665  30.611  27.425  1.00  0.00     0.029 A 
ATOM     63  C   UNL A   1      47.338  30.403  27.770  1.00  0.00     0.049 A 
ATOM     64  H   UNL A   1      46.205  28.626  27.686  1.00  0.00     0.167 HD
ATOM     65  C   UNL A   1      45.096  31.081  28.586  1.00  0.00     0.074 A 
ATOM     66  C   UNL A   1      44.156  32.058  29.097  1.00  0.00     0.031 C 
ATOM     67  C   UNL A   1      46.388  31.356  28.283  1.00  0.00     0.031 A 
BRANCH  54  68
ATOM     68  C   UNL A   1      49.631  26.502  26.274  1.00  0.00    -0.014 A 
ATOM     69  C   UNL A   1      50.078  26.630  24.946  1.00  0.00     0.010 A 
ATOM     70  C   UNL A   1      50.489  25.932  27.232  1.00  0.00     0.010 A 
ATOM     71  C   UNL A   1      51.353  26.187  24.582  1.00  0.00     0.020 A 
ATOM     72  C   UNL A   1      51.775  25.514  26.879  1.00  0.00     0.020 A 
ATOM     73  C   UNL A   1      52.196  25.640  25.553  1.00  0.00     0.054 A 
BRANCH  73  74
ATOM     74  S   UNL A   1      53.873  25.147  25.067  1.00  0.00     0.124 S 
ATOM     75  O   UNL A   1      53.736  23.699  24.935  1.00  0.00    -0.237 OA
ATOM     76  O   UNL A   1      54.069  25.876  23.818  1.00  0.00    -0.237 OA
ATOM     77  O   UNL A   1      54.704  25.593  26.183  1.00  0.00    -0.744 OA
ENDBRANCH  73  74
ENDBRANCH  54  68
BRANCH  55  78
ATOM     78  C   UNL A   1      40.723  29.651  29.603  1.00  0.00    -0.014 A 
ATOM     79  C   UNL A   1      40.528  29.733  30.993  1.00  0.00     0.010 A 
ATOM     80  C   UNL A   1      39.662  29.996  28.745  1.00  0.00     0.010 A 
ATOM     81  C   UNL A   1      39.285  30.109  31.514  1.00  0.00     0.020 A 
ATOM     82  C   UNL A   1      38.431  30.407  29.262  1.00  0.00     0.020 A 
ATOM     83  C   UNL A   1      38.243  30.440  30.645  1.00  0.00     0.054 A 
BRANCH  83  84
ATOM     84  S   UNL A   1      36.644  30.938  31.340  1.00  0.00     0.124 S 
ATOM     85  O   UNL A   1      36.374  29.858  32.282  1.00  0.00    -0.237 OA
ATOM     86  O   UNL A   1      36.949  32.238  31.935  1.00  0.00    -0.237 OA
ATOM     87  O   UNL A   1      35.765  30.987  30.173  1.00  0.00    -0.744 OA
ENDBRANCH  83  84
ENDBRANCH  55  78
BRANCH  67  88
ATOM     88  C   UNL A   1      46.849  32.777  28.468  1.00  0.00    -0.014 A 
ATOM     89  C   UNL A   1      47.320  33.235  29.712  1.00  0.00     0.010 A 
ATOM     90  C   UNL A   1      46.842  33.657  27.371  1.00  0.00     0.010 A 
ATOM     91  C   UNL A   1      47.724  34.562  29.867  1.00  0.00     0.020 A 
ATOM     92  C   UNL A   1      47.279  34.975  27.514  1.00  0.00     0.020 A 
ATOM     93  C   UNL A   1      47.698  35.425  28.767  1.00  0.00     0.054 A 
BRANCH  93  94
ATOM     94  S   UNL A   1      48.243  37.139  28.993  1.00  0.00     0.124 S 
ATOM     95  O   UNL A   1      47.920  37.377  30.397  1.00  0.00    -0.237 OA
ATOM     96  O   UNL A   1      49.666  37.066  28.677  1.00  0.00    -0.237 OA
ATOM     97  O   UNL A   1      47.435  37.888  28.032  1.00  0.00    -0.744 OA
ENDBRANCH  93  94
ENDBRANCH  67  88
ENDBRANCH  41  42
ENDBRANCH  33  36
ENDBRANCH  31  32
ENDBRANCH   1  31
TORSDOF 17
ENDMDL
