MODEL 1
REMARK VINA RESULT:     -11.6      0.000      0.000
REMARK SMILES C[C@H](NC(=O)c1c(C(=O)NCCCNC(=O)c2ccc(-c3c4nc(c(-c5ccc(S(=O)(=O)[O-])cc5)c5ccc([nH]5)c(-c5ccc(S(=O)(=O)[O-])cc5)c5nc(c(-c6ccc(S(=O)(=O)[O-])cc6)c6ccc3[nH]6)C=C5)C=C4)cc2)cnn1C)[C@]12C[C@H]3C[C@H](C[C@H](C3)C1)C2
REMARK SMILES IDX 12 1 11 2 10 3 8 4 9 5 7 7 6 8 79 9 77 10 78 11 80 12 4 13
REMARK SMILES IDX 3 14 5 16 2 17 1 18 81 19 82 20 89 21 90 22 83 23 87 24
REMARK SMILES IDX 85 25 84 26 88 27 86 28 13 29 14 30 15 31 16 33 17 34 18 35
REMARK SMILES IDX 76 36 19 37 75 38 20 39 21 40 22 41 69 42 23 43 74 44 68 45
REMARK SMILES IDX 70 46 24 47 73 48 67 49 66 50 25 52 55 53 36 54 54 55 37 56
REMARK SMILES IDX 40 57 53 58 71 59 38 60 39 61 52 63 72 64 41 65 26 66 27 67
REMARK SMILES IDX 35 68 28 69 34 70 29 71 30 72 31 73 32 74 33 75 56 76 57 77
REMARK SMILES IDX 65 78 58 79 64 80 59 81 60 82 61 83 62 84 63 85 42 86 43 87
REMARK SMILES IDX 51 88 44 89 50 90 45 91 46 92 47 93 48 94 49 95
REMARK H PARENT 10 6 3 15 14 32 70 51 40 62
REMARK Flexibility Score: inf
ROOT
ATOM      1  C   UNL A   1      32.790  27.570  26.066  1.00  0.00     0.042 C 
ENDROOT
BRANCH   1   2
ATOM      2  C   UNL A   1      31.262  27.503  25.966  1.00  0.00     0.118 C 
BRANCH   2   3
ATOM      3  N   UNL A   1      30.807  27.959  24.667  1.00  0.00    -0.352 N 
ATOM      4  C   UNL A   1      31.028  27.628  23.363  1.00  0.00     0.255 C 
ATOM      5  O   UNL A   1      30.372  28.316  22.570  1.00  0.00    -0.269 OA
ATOM      6  H   UNL A   1      30.170  28.704  24.748  1.00  0.00     0.163 HD
BRANCH   4   7
ATOM      7  C   UNL A   1      31.874  26.565  22.836  1.00  0.00     0.090 A 
ATOM      8  C   UNL A   1      31.941  25.173  22.903  1.00  0.00     0.138 A 
ATOM      9  N   UNL A   1      32.898  24.808  21.979  1.00  0.00    -0.262 N 
ATOM     10  C   UNL A   1      32.985  26.892  21.998  1.00  0.00     0.149 A 
ATOM     11  N   UNL A   1      33.613  25.834  21.498  1.00  0.00    -0.180 NA
ATOM     12  C   UNL A   1      33.172  23.491  21.446  1.00  0.00     0.174 C 
BRANCH   8  13
ATOM     13  C   UNL A   1      31.120  24.193  23.536  1.00  0.00     0.270 C 
ATOM     14  N   UNL A   1      31.434  23.714  24.778  1.00  0.00    -0.348 N 
ATOM     15  H   UNL A   1      30.783  23.040  25.080  1.00  0.00     0.164 HD
ATOM     16  O   UNL A   1      30.147  23.703  22.967  1.00  0.00    -0.267 OA
BRANCH  14  17
ATOM     17  C   UNL A   1      32.489  23.938  25.786  1.00  0.00     0.085 C 
ATOM     18  C   UNL A   1      32.036  23.729  27.229  1.00  0.00     0.031 C 
BRANCH  17  19
ATOM     19  C   UNL A   1      33.921  23.379  25.447  1.00  0.00    -0.009 C 
ATOM     20  C   UNL A   1      34.602  22.935  26.782  1.00  0.00     0.012 C 
ATOM     21  C   UNL A   1      34.836  24.446  24.801  1.00  0.00     0.012 C 
ATOM     22  C   UNL A   1      33.902  22.144  24.502  1.00  0.00     0.012 C 
ATOM     23  C   UNL A   1      36.023  22.400  26.545  1.00  0.00    -0.010 C 
ATOM     24  C   UNL A   1      36.260  23.917  24.561  1.00  0.00    -0.010 C 
ATOM     25  C   UNL A   1      35.327  21.605  24.261  1.00  0.00    -0.010 C 
ATOM     26  C   UNL A   1      35.950  21.189  25.604  1.00  0.00     0.007 C 
ATOM     27  C   UNL A   1      36.878  23.501  25.902  1.00  0.00     0.007 C 
ATOM     28  C   UNL A   1      36.191  22.702  23.625  1.00  0.00     0.007 C 
ENDBRANCH  17  19
ENDBRANCH  14  17
ENDBRANCH   8  13
ENDBRANCH   4   7
ENDBRANCH   2   3
ENDBRANCH   1   2
BRANCH   1  29
ATOM     29  C   UNL A   1      33.288  28.167  27.378  1.00  0.00     0.118 C 
BRANCH  29  30
ATOM     30  N   UNL A   1      33.281  29.619  27.384  1.00  0.00    -0.352 N 
ATOM     31  C   UNL A   1      34.227  30.539  27.764  1.00  0.00     0.251 C 
ATOM     32  H   UNL A   1      32.443  30.018  27.056  1.00  0.00     0.163 HD
ATOM     33  O   UNL A   1      33.906  31.727  27.775  1.00  0.00    -0.269 OA
BRANCH  31  34
ATOM     34  C   UNL A   1      35.596  30.160  28.207  1.00  0.00     0.039 A 
ATOM     35  C   UNL A   1      36.620  30.190  27.250  1.00  0.00     0.014 A 
ATOM     36  C   UNL A   1      35.888  29.690  29.489  1.00  0.00     0.014 A 
ATOM     37  C   UNL A   1      37.922  29.793  27.580  1.00  0.00     0.010 A 
ATOM     38  C   UNL A   1      37.200  29.345  29.836  1.00  0.00     0.010 A 
ATOM     39  C   UNL A   1      38.231  29.386  28.885  1.00  0.00    -0.014 A 
BRANCH  39  40
ATOM     40  C   UNL A   1      39.612  28.985  29.268  1.00  0.00     0.031 A 
ATOM     41  C   UNL A   1      40.513  29.945  30.002  1.00  0.00     0.074 A 
ATOM     42  C   UNL A   1      40.089  27.776  28.913  1.00  0.00     0.049 A 
ATOM     43  N   UNL A   1      41.785  29.826  30.288  1.00  0.00    -0.248 NA
ATOM     44  C   UNL A   1      39.910  31.207  30.457  1.00  0.00     0.031 C 
ATOM     45  C   UNL A   1      39.341  26.743  28.195  1.00  0.00     0.029 A 
ATOM     46  N   UNL A   1      41.329  27.217  29.104  1.00  0.00    -0.354 N 
ATOM     47  C   UNL A   1      42.149  31.015  30.907  1.00  0.00     0.074 A 
ATOM     48  C   UNL A   1      40.959  31.840  30.965  1.00  0.00     0.031 C 
ATOM     49  C   UNL A   1      40.130  25.669  28.026  1.00  0.00     0.029 A 
ATOM     50  C   UNL A   1      41.450  25.951  28.583  1.00  0.00     0.049 A 
ATOM     51  H   UNL A   1      42.063  27.679  29.571  1.00  0.00     0.167 HD
ATOM     52  C   UNL A   1      43.361  31.395  31.379  1.00  0.00     0.031 A 
ATOM     53  C   UNL A   1      42.505  25.116  28.535  1.00  0.00     0.031 A 
ATOM     54  C   UNL A   1      44.538  30.570  31.384  1.00  0.00     0.049 A 
ATOM     55  C   UNL A   1      43.832  25.547  29.088  1.00  0.00     0.074 A 
ATOM     56  C   UNL A   1      45.789  30.856  31.904  1.00  0.00     0.029 A 
ATOM     57  N   UNL A   1      44.610  29.295  30.849  1.00  0.00    -0.354 N 
ATOM     58  N   UNL A   1      44.152  26.678  29.665  1.00  0.00    -0.248 NA
ATOM     59  C   UNL A   1      44.943  24.592  28.964  1.00  0.00     0.031 C 
ATOM     60  C   UNL A   1      46.624  29.756  31.669  1.00  0.00     0.029 A 
ATOM     61  C   UNL A   1      45.886  28.784  31.012  1.00  0.00     0.049 A 
ATOM     62  H   UNL A   1      43.863  28.821  30.416  1.00  0.00     0.167 HD
ATOM     63  C   UNL A   1      45.505  26.574  29.968  1.00  0.00     0.074 A 
ATOM     64  C   UNL A   1      45.939  25.267  29.524  1.00  0.00     0.031 C 
ATOM     65  C   UNL A   1      46.312  27.488  30.557  1.00  0.00     0.031 A 
BRANCH  52  66
ATOM     66  C   UNL A   1      43.477  32.793  31.914  1.00  0.00    -0.014 A 
ATOM     67  C   UNL A   1      43.206  33.079  33.263  1.00  0.00     0.010 A 
ATOM     68  C   UNL A   1      43.882  33.829  31.054  1.00  0.00     0.010 A 
ATOM     69  C   UNL A   1      43.304  34.391  33.736  1.00  0.00     0.020 A 
ATOM     70  C   UNL A   1      43.991  35.139  31.527  1.00  0.00     0.020 A 
ATOM     71  C   UNL A   1      43.683  35.414  32.862  1.00  0.00     0.054 A 
BRANCH  71  72
ATOM     72  S   UNL A   1      43.808  37.114  33.481  1.00  0.00     0.124 S 
ATOM     73  O   UNL A   1      45.089  37.081  34.183  1.00  0.00    -0.237 OA
ATOM     74  O   UNL A   1      43.785  37.916  32.260  1.00  0.00    -0.237 OA
ATOM     75  O   UNL A   1      42.631  37.253  34.333  1.00  0.00    -0.744 OA
ENDBRANCH  71  72
ENDBRANCH  52  66
BRANCH  53  76
ATOM     76  C   UNL A   1      42.345  23.781  27.911  1.00  0.00    -0.014 A 
ATOM     77  C   UNL A   1      42.688  23.589  26.562  1.00  0.00     0.010 A 
ATOM     78  C   UNL A   1      41.894  22.691  28.675  1.00  0.00     0.010 A 
ATOM     79  C   UNL A   1      42.587  22.321  25.984  1.00  0.00     0.020 A 
ATOM     80  C   UNL A   1      41.804  21.420  28.102  1.00  0.00     0.020 A 
ATOM     81  C   UNL A   1      42.148  21.243  26.760  1.00  0.00     0.054 A 
BRANCH  81  82
ATOM     82  S   UNL A   1      42.110  19.578  26.042  1.00  0.00     0.124 S 
ATOM     83  O   UNL A   1      43.032  19.710  24.920  1.00  0.00    -0.237 OA
ATOM     84  O   UNL A   1      42.566  18.732  27.142  1.00  0.00    -0.237 OA
ATOM     85  O   UNL A   1      40.702  19.409  25.685  1.00  0.00    -0.744 OA
ENDBRANCH  81  82
ENDBRANCH  53  76
BRANCH  65  86
ATOM     86  C   UNL A   1      47.750  27.108  30.750  1.00  0.00    -0.014 A 
ATOM     87  C   UNL A   1      48.713  27.466  29.791  1.00  0.00     0.010 A 
ATOM     88  C   UNL A   1      48.151  26.427  31.912  1.00  0.00     0.010 A 
ATOM     89  C   UNL A   1      50.056  27.132  29.982  1.00  0.00     0.020 A 
ATOM     90  C   UNL A   1      49.495  26.098  32.110  1.00  0.00     0.020 A 
ATOM     91  C   UNL A   1      50.438  26.443  31.138  1.00  0.00     0.054 A 
BRANCH  91  92
ATOM     92  S   UNL A   1      52.191  26.051  31.401  1.00  0.00     0.124 S 
ATOM     93  O   UNL A   1      52.120  24.689  31.925  1.00  0.00    -0.237 OA
ATOM     94  O   UNL A   1      52.764  26.180  30.064  1.00  0.00    -0.237 OA
ATOM     95  O   UNL A   1      52.625  27.067  32.357  1.00  0.00    -0.744 OA
ENDBRANCH  91  92
ENDBRANCH  65  86
ENDBRANCH  39  40
ENDBRANCH  31  34
ENDBRANCH  29  30
ENDBRANCH   1  29
TORSDOF 16
ENDMDL
MODEL 2
REMARK VINA RESULT:     -11.3      2.897      3.770
REMARK SMILES C[C@H](NC(=O)c1c(C(=O)NCCCNC(=O)c2ccc(-c3c4nc(c(-c5ccc(S(=O)(=O)[O-])cc5)c5ccc([nH]5)c(-c5ccc(S(=O)(=O)[O-])cc5)c5nc(c(-c6ccc(S(=O)(=O)[O-])cc6)c6ccc3[nH]6)C=C5)C=C4)cc2)cnn1C)[C@]12C[C@H]3C[C@H](C[C@H](C3)C1)C2
REMARK SMILES IDX 12 1 11 2 10 3 8 4 9 5 7 7 6 8 79 9 77 10 78 11 80 12 4 13
REMARK SMILES IDX 3 14 5 16 2 17 1 18 81 19 82 20 89 21 90 22 83 23 87 24
REMARK SMILES IDX 85 25 84 26 88 27 86 28 13 29 14 30 15 31 16 33 17 34 18 35
REMARK SMILES IDX 76 36 19 37 75 38 20 39 21 40 22 41 69 42 23 43 74 44 68 45
REMARK SMILES IDX 70 46 24 47 73 48 67 49 66 50 25 52 55 53 36 54 54 55 37 56
REMARK SMILES IDX 40 57 53 58 71 59 38 60 39 61 52 63 72 64 41 65 26 66 27 67
REMARK SMILES IDX 35 68 28 69 34 70 29 71 30 72 31 73 32 74 33 75 56 76 57 77
REMARK SMILES IDX 65 78 58 79 64 80 59 81 60 82 61 83 62 84 63 85 42 86 43 87
REMARK SMILES IDX 51 88 44 89 50 90 45 91 46 92 47 93 48 94 49 95
REMARK H PARENT 10 6 3 15 14 32 70 51 40 62
REMARK Flexibility Score: inf
ROOT
ATOM      1  C   UNL A   1      34.790  30.118  27.467  1.00  0.00     0.042 C 
ENDROOT
BRANCH   1   2
ATOM      2  C   UNL A   1      33.323  30.390  27.115  1.00  0.00     0.118 C 
BRANCH   2   3
ATOM      3  N   UNL A   1      32.476  29.296  27.550  1.00  0.00    -0.352 N 
ATOM      4  C   UNL A   1      32.001  28.134  27.018  1.00  0.00     0.255 C 
ATOM      5  O   UNL A   1      31.298  27.490  27.807  1.00  0.00    -0.269 OA
ATOM      6  H   UNL A   1      32.161  29.426  28.473  1.00  0.00     0.163 HD
BRANCH   4   7
ATOM      7  C   UNL A   1      32.266  27.575  25.698  1.00  0.00     0.090 A 
ATOM      8  C   UNL A   1      31.597  26.793  24.757  1.00  0.00     0.138 A 
ATOM      9  N   UNL A   1      32.389  26.821  23.628  1.00  0.00    -0.262 N 
ATOM     10  C   UNL A   1      33.525  27.817  25.067  1.00  0.00     0.149 A 
ATOM     11  N   UNL A   1      33.606  27.345  23.827  1.00  0.00    -0.180 NA
ATOM     12  C   UNL A   1      32.047  26.411  22.283  1.00  0.00     0.174 C 
BRANCH   8  13
ATOM     13  C   UNL A   1      30.286  26.232  24.720  1.00  0.00     0.270 C 
ATOM     14  N   UNL A   1      30.044  24.982  25.220  1.00  0.00    -0.348 N 
ATOM     15  H   UNL A   1      29.099  24.729  25.117  1.00  0.00     0.164 HD
ATOM     16  O   UNL A   1      29.348  26.821  24.185  1.00  0.00    -0.267 OA
BRANCH  14  17
ATOM     17  C   UNL A   1      30.825  23.913  25.872  1.00  0.00     0.085 C 
ATOM     18  C   UNL A   1      30.055  23.128  26.932  1.00  0.00     0.031 C 
BRANCH  17  19
ATOM     19  C   UNL A   1      31.752  23.045  24.941  1.00  0.00    -0.009 C 
ATOM     20  C   UNL A   1      33.203  23.621  25.023  1.00  0.00     0.012 C 
ATOM     21  C   UNL A   1      31.321  23.102  23.456  1.00  0.00     0.012 C 
ATOM     22  C   UNL A   1      31.822  21.548  25.352  1.00  0.00     0.012 C 
ATOM     23  C   UNL A   1      34.174  22.845  24.118  1.00  0.00    -0.010 C 
ATOM     24  C   UNL A   1      32.289  22.329  22.545  1.00  0.00    -0.010 C 
ATOM     25  C   UNL A   1      32.794  20.766  24.444  1.00  0.00    -0.010 C 
ATOM     26  C   UNL A   1      34.202  21.375  24.558  1.00  0.00     0.007 C 
ATOM     27  C   UNL A   1      33.691  22.937  22.663  1.00  0.00     0.007 C 
ATOM     28  C   UNL A   1      32.324  20.858  22.987  1.00  0.00     0.007 C 
ENDBRANCH  17  19
ENDBRANCH  14  17
ENDBRANCH   8  13
ENDBRANCH   4   7
ENDBRANCH   2   3
ENDBRANCH   1   2
BRANCH   1  29
ATOM     29  C   UNL A   1      35.485  31.304  28.130  1.00  0.00     0.118 C 
BRANCH  29  30
ATOM     30  N   UNL A   1      35.396  31.281  29.579  1.00  0.00    -0.352 N 
ATOM     31  C   UNL A   1      36.292  30.899  30.548  1.00  0.00     0.251 C 
ATOM     32  H   UNL A   1      34.533  31.598  29.933  1.00  0.00     0.163 HD
ATOM     33  O   UNL A   1      35.904  30.871  31.715  1.00  0.00    -0.269 OA
BRANCH  31  34
ATOM     34  C   UNL A   1      37.684  30.473  30.242  1.00  0.00     0.039 A 
ATOM     35  C   UNL A   1      38.101  30.526  28.904  1.00  0.00     0.014 A 
ATOM     36  C   UNL A   1      38.553  29.937  31.196  1.00  0.00     0.014 A 
ATOM     37  C   UNL A   1      39.378  30.088  28.533  1.00  0.00     0.010 A 
ATOM     38  C   UNL A   1      39.850  29.550  30.835  1.00  0.00     0.010 A 
ATOM     39  C   UNL A   1      40.275  29.614  29.500  1.00  0.00    -0.014 A 
BRANCH  39  40
ATOM     40  C   UNL A   1      41.648  29.169  29.135  1.00  0.00     0.031 A 
ATOM     41  C   UNL A   1      42.803  30.136  29.172  1.00  0.00     0.074 A 
ATOM     42  C   UNL A   1      41.860  27.906  28.716  1.00  0.00     0.049 A 
ATOM     43  N   UNL A   1      44.032  29.968  28.753  1.00  0.00    -0.248 NA
ATOM     44  C   UNL A   1      42.537  31.468  29.737  1.00  0.00     0.031 C 
ATOM     45  C   UNL A   1      40.842  26.858  28.619  1.00  0.00     0.029 A 
ATOM     46  N   UNL A   1      43.011  27.293  28.281  1.00  0.00    -0.354 N 
ATOM     47  C   UNL A   1      44.672  31.184  28.952  1.00  0.00     0.074 A 
ATOM     48  C   UNL A   1      43.697  32.080  29.540  1.00  0.00     0.031 C 
ATOM     49  C   UNL A   1      41.418  25.728  28.177  1.00  0.00     0.029 A 
ATOM     50  C   UNL A   1      42.833  25.981  27.917  1.00  0.00     0.049 A 
ATOM     51  H   UNL A   1      43.881  27.752  28.236  1.00  0.00     0.167 HD
ATOM     52  C   UNL A   1      45.950  31.533  28.667  1.00  0.00     0.031 A 
ATOM     53  C   UNL A   1      43.698  25.083  27.409  1.00  0.00     0.031 A 
ATOM     54  C   UNL A   1      46.947  30.642  28.138  1.00  0.00     0.049 A 
ATOM     55  C   UNL A   1      45.117  25.482  27.126  1.00  0.00     0.074 A 
ATOM     56  C   UNL A   1      48.284  30.900  27.883  1.00  0.00     0.029 A 
ATOM     57  N   UNL A   1      46.720  29.322  27.788  1.00  0.00    -0.354 N 
ATOM     58  N   UNL A   1      45.698  26.640  27.319  1.00  0.00    -0.248 NA
ATOM     59  C   UNL A   1      45.990  24.456  26.538  1.00  0.00     0.031 C 
ATOM     60  C   UNL A   1      48.863  29.735  27.362  1.00  0.00     0.029 A 
ATOM     61  C   UNL A   1      47.887  28.753  27.306  1.00  0.00     0.049 A 
ATOM     62  H   UNL A   1      45.857  28.856  27.870  1.00  0.00     0.167 HD
ATOM     63  C   UNL A   1      47.004  26.484  26.870  1.00  0.00     0.074 A 
ATOM     64  C   UNL A   1      47.132  25.118  26.408  1.00  0.00     0.031 C 
ATOM     65  C   UNL A   1      48.002  27.398  26.839  1.00  0.00     0.031 A 
BRANCH  52  66
ATOM     66  C   UNL A   1      46.336  32.964  28.903  1.00  0.00    -0.014 A 
ATOM     67  C   UNL A   1      46.873  33.377  30.135  1.00  0.00     0.010 A 
ATOM     68  C   UNL A   1      46.175  33.902  27.868  1.00  0.00     0.010 A 
ATOM     69  C   UNL A   1      47.210  34.719  30.339  1.00  0.00     0.020 A 
ATOM     70  C   UNL A   1      46.521  35.240  28.066  1.00  0.00     0.020 A 
ATOM     71  C   UNL A   1      47.018  35.644  29.308  1.00  0.00     0.054 A 
BRANCH  71  72
ATOM     72  S   UNL A   1      47.457  37.383  29.579  1.00  0.00     0.124 S 
ATOM     73  O   UNL A   1      46.251  38.069  29.125  1.00  0.00    -0.237 OA
ATOM     74  O   UNL A   1      47.707  37.442  31.018  1.00  0.00    -0.237 OA
ATOM     75  O   UNL A   1      48.637  37.570  28.740  1.00  0.00    -0.744 OA
ENDBRANCH  71  72
ENDBRANCH  52  66
BRANCH  53  76
ATOM     76  C   UNL A   1      43.229  23.708  27.114  1.00  0.00    -0.014 A 
ATOM     77  C   UNL A   1      42.975  23.321  25.787  1.00  0.00     0.010 A 
ATOM     78  C   UNL A   1      43.077  22.773  28.151  1.00  0.00     0.010 A 
ATOM     79  C   UNL A   1      42.581  22.012  25.499  1.00  0.00     0.020 A 
ATOM     80  C   UNL A   1      42.695  21.460  27.864  1.00  0.00     0.020 A 
ATOM     81  C   UNL A   1      42.446  21.089  26.541  1.00  0.00     0.054 A 
BRANCH  81  82
ATOM     82  S   UNL A   1      42.031  19.364  26.162  1.00  0.00     0.124 S 
ATOM     83  O   UNL A   1      42.840  19.110  24.975  1.00  0.00    -0.237 OA
ATOM     84  O   UNL A   1      42.439  18.652  27.371  1.00  0.00    -0.237 OA
ATOM     85  O   UNL A   1      40.587  19.416  25.944  1.00  0.00    -0.744 OA
ENDBRANCH  81  82
ENDBRANCH  53  76
BRANCH  65  86
ATOM     86  C   UNL A   1      49.322  26.952  26.282  1.00  0.00    -0.014 A 
ATOM     87  C   UNL A   1      50.264  26.317  27.110  1.00  0.00     0.010 A 
ATOM     88  C   UNL A   1      49.609  27.128  24.917  1.00  0.00     0.010 A 
ATOM     89  C   UNL A   1      51.483  25.880  26.586  1.00  0.00     0.020 A 
ATOM     90  C   UNL A   1      50.824  26.686  24.389  1.00  0.00     0.020 A 
ATOM     91  C   UNL A   1      51.758  26.074  25.228  1.00  0.00     0.054 A 
BRANCH  91  92
ATOM     92  S   UNL A   1      53.326  25.466  24.544  1.00  0.00     0.124 S 
ATOM     93  O   UNL A   1      53.323  24.071  24.975  1.00  0.00    -0.237 OA
ATOM     94  O   UNL A   1      53.168  25.681  23.108  1.00  0.00    -0.237 OA
ATOM     95  O   UNL A   1      54.327  26.317  25.185  1.00  0.00    -0.744 OA
ENDBRANCH  91  92
ENDBRANCH  65  86
ENDBRANCH  39  40
ENDBRANCH  31  34
ENDBRANCH  29  30
ENDBRANCH   1  29
TORSDOF 16
ENDMDL
MODEL 3
REMARK VINA RESULT:     -11.2      3.236      5.221
REMARK SMILES C[C@H](NC(=O)c1c(C(=O)NCCCNC(=O)c2ccc(-c3c4nc(c(-c5ccc(S(=O)(=O)[O-])cc5)c5ccc([nH]5)c(-c5ccc(S(=O)(=O)[O-])cc5)c5nc(c(-c6ccc(S(=O)(=O)[O-])cc6)c6ccc3[nH]6)C=C5)C=C4)cc2)cnn1C)[C@]12C[C@H]3C[C@H](C[C@H](C3)C1)C2
REMARK SMILES IDX 12 1 11 2 10 3 8 4 9 5 7 7 6 8 79 9 77 10 78 11 80 12 4 13
REMARK SMILES IDX 3 14 5 16 2 17 1 18 81 19 82 20 89 21 90 22 83 23 87 24
REMARK SMILES IDX 85 25 84 26 88 27 86 28 13 29 14 30 15 31 16 33 17 34 18 35
REMARK SMILES IDX 76 36 19 37 75 38 20 39 21 40 22 41 69 42 23 43 74 44 68 45
REMARK SMILES IDX 70 46 24 47 73 48 67 49 66 50 25 52 55 53 36 54 54 55 37 56
REMARK SMILES IDX 40 57 53 58 71 59 38 60 39 61 52 63 72 64 41 65 26 66 27 67
REMARK SMILES IDX 35 68 28 69 34 70 29 71 30 72 31 73 32 74 33 75 56 76 57 77
REMARK SMILES IDX 65 78 58 79 64 80 59 81 60 82 61 83 62 84 63 85 42 86 43 87
REMARK SMILES IDX 51 88 44 89 50 90 45 91 46 92 47 93 48 94 49 95
REMARK H PARENT 10 6 3 15 14 32 70 51 40 62
REMARK Flexibility Score: inf
ROOT
ATOM      1  C   UNL A   1      34.186  30.478  27.313  1.00  0.00     0.042 C 
ENDROOT
BRANCH   1   2
ATOM      2  C   UNL A   1      34.375  29.006  26.931  1.00  0.00     0.118 C 
BRANCH   2   3
ATOM      3  N   UNL A   1      34.380  28.842  25.490  1.00  0.00    -0.352 N 
ATOM      4  C   UNL A   1      34.053  27.862  24.599  1.00  0.00     0.255 C 
ATOM      5  O   UNL A   1      34.215  28.204  23.420  1.00  0.00    -0.269 OA
ATOM      6  H   UNL A   1      34.704  29.651  25.034  1.00  0.00     0.163 HD
BRANCH   4   7
ATOM      7  C   UNL A   1      33.510  26.539  24.878  1.00  0.00     0.090 A 
ATOM      8  C   UNL A   1      32.311  25.993  25.337  1.00  0.00     0.138 A 
ATOM      9  N   UNL A   1      32.437  24.631  25.159  1.00  0.00    -0.262 N 
ATOM     10  C   UNL A   1      34.320  25.381  24.664  1.00  0.00     0.149 A 
ATOM     11  N   UNL A   1      33.679  24.232  24.853  1.00  0.00    -0.180 NA
ATOM     12  C   UNL A   1      31.402  23.622  25.211  1.00  0.00     0.174 C 
BRANCH   8  13
ATOM     13  C   UNL A   1      31.060  26.574  25.702  1.00  0.00     0.270 C 
ATOM     14  N   UNL A   1      30.421  27.446  24.864  1.00  0.00    -0.348 N 
ATOM     15  H   UNL A   1      29.577  27.768  25.254  1.00  0.00     0.164 HD
ATOM     16  O   UNL A   1      30.548  26.363  26.800  1.00  0.00    -0.267 OA
BRANCH  14  17
ATOM     17  C   UNL A   1      30.662  28.032  23.531  1.00  0.00     0.085 C 
ATOM     18  C   UNL A   1      30.877  27.006  22.421  1.00  0.00     0.031 C 
BRANCH  17  19
ATOM     19  C   UNL A   1      29.776  29.271  23.132  1.00  0.00    -0.009 C 
ATOM     20  C   UNL A   1      28.286  28.805  23.057  1.00  0.00     0.012 C 
ATOM     21  C   UNL A   1      30.147  29.841  21.741  1.00  0.00     0.012 C 
ATOM     22  C   UNL A   1      29.846  30.442  24.152  1.00  0.00     0.012 C 
ATOM     23  C   UNL A   1      27.352  29.952  22.644  1.00  0.00    -0.010 C 
ATOM     24  C   UNL A   1      29.215  30.989  21.321  1.00  0.00    -0.010 C 
ATOM     25  C   UNL A   1      28.910  31.597  23.739  1.00  0.00    -0.010 C 
ATOM     26  C   UNL A   1      27.462  31.084  23.676  1.00  0.00     0.007 C 
ATOM     27  C   UNL A   1      27.772  30.474  21.262  1.00  0.00     0.007 C 
ATOM     28  C   UNL A   1      29.318  32.120  22.355  1.00  0.00     0.007 C 
ENDBRANCH  17  19
ENDBRANCH  14  17
ENDBRANCH   8  13
ENDBRANCH   4   7
ENDBRANCH   2   3
ENDBRANCH   1   2
BRANCH   1  29
ATOM     29  C   UNL A   1      35.424  31.104  27.948  1.00  0.00     0.118 C 
BRANCH  29  30
ATOM     30  N   UNL A   1      35.364  31.144  29.398  1.00  0.00    -0.352 N 
ATOM     31  C   UNL A   1      36.288  30.825  30.364  1.00  0.00     0.251 C 
ATOM     32  H   UNL A   1      34.502  31.456  29.756  1.00  0.00     0.163 HD
ATOM     33  O   UNL A   1      35.923  30.840  31.539  1.00  0.00    -0.269 OA
BRANCH  31  34
ATOM     34  C   UNL A   1      37.683  30.416  30.048  1.00  0.00     0.039 A 
ATOM     35  C   UNL A   1      38.019  30.240  28.698  1.00  0.00     0.014 A 
ATOM     36  C   UNL A   1      38.635  30.108  31.023  1.00  0.00     0.014 A 
ATOM     37  C   UNL A   1      39.297  29.802  28.329  1.00  0.00     0.010 A 
ATOM     38  C   UNL A   1      39.930  29.724  30.654  1.00  0.00     0.010 A 
ATOM     39  C   UNL A   1      40.274  29.559  29.303  1.00  0.00    -0.014 A 
BRANCH  39  40
ATOM     40  C   UNL A   1      41.647  29.120  28.935  1.00  0.00     0.031 A 
ATOM     41  C   UNL A   1      42.794  30.097  28.947  1.00  0.00     0.074 A 
ATOM     42  C   UNL A   1      41.868  27.853  28.534  1.00  0.00     0.049 A 
ATOM     43  N   UNL A   1      44.022  29.933  28.521  1.00  0.00    -0.248 NA
ATOM     44  C   UNL A   1      42.522  31.436  29.494  1.00  0.00     0.031 C 
ATOM     45  C   UNL A   1      40.858  26.795  28.462  1.00  0.00     0.029 A 
ATOM     46  N   UNL A   1      43.020  27.243  28.100  1.00  0.00    -0.354 N 
ATOM     47  C   UNL A   1      44.652  31.158  28.696  1.00  0.00     0.074 A 
ATOM     48  C   UNL A   1      43.675  32.055  29.278  1.00  0.00     0.031 C 
ATOM     49  C   UNL A   1      41.440  25.663  28.033  1.00  0.00     0.029 A 
ATOM     50  C   UNL A   1      42.851  25.923  27.758  1.00  0.00     0.049 A 
ATOM     51  H   UNL A   1      43.886  27.708  28.041  1.00  0.00     0.167 HD
ATOM     52  C   UNL A   1      45.926  31.513  28.396  1.00  0.00     0.031 A 
ATOM     53  C   UNL A   1      43.720  25.025  27.258  1.00  0.00     0.031 A 
ATOM     54  C   UNL A   1      46.926  30.623  27.873  1.00  0.00     0.049 A 
ATOM     55  C   UNL A   1      45.133  25.432  26.957  1.00  0.00     0.074 A 
ATOM     56  C   UNL A   1      48.258  30.888  27.604  1.00  0.00     0.029 A 
ATOM     57  N   UNL A   1      46.708  29.296  27.546  1.00  0.00    -0.354 N 
ATOM     58  N   UNL A   1      45.705  26.598  27.127  1.00  0.00    -0.248 NA
ATOM     59  C   UNL A   1      46.010  24.404  26.378  1.00  0.00     0.031 C 
ATOM     60  C   UNL A   1      48.844  29.720  27.097  1.00  0.00     0.029 A 
ATOM     61  C   UNL A   1      47.876  28.729  27.064  1.00  0.00     0.049 A 
ATOM     62  H   UNL A   1      45.849  28.823  27.642  1.00  0.00     0.167 HD
ATOM     63  C   UNL A   1      47.009  26.446  26.670  1.00  0.00     0.074 A 
ATOM     64  C   UNL A   1      47.146  25.074  26.229  1.00  0.00     0.031 C 
ATOM     65  C   UNL A   1      47.999  27.368  26.617  1.00  0.00     0.031 A 
BRANCH  52  66
ATOM     66  C   UNL A   1      46.300  32.951  28.607  1.00  0.00    -0.014 A 
ATOM     67  C   UNL A   1      46.846  33.387  29.826  1.00  0.00     0.010 A 
ATOM     68  C   UNL A   1      46.120  33.871  27.559  1.00  0.00     0.010 A 
ATOM     69  C   UNL A   1      47.173  34.735  30.007  1.00  0.00     0.020 A 
ATOM     70  C   UNL A   1      46.456  35.216  27.734  1.00  0.00     0.020 A 
ATOM     71  C   UNL A   1      46.963  35.643  28.964  1.00  0.00     0.054 A 
BRANCH  71  72
ATOM     72  S   UNL A   1      47.389  37.389  29.205  1.00  0.00     0.124 S 
ATOM     73  O   UNL A   1      47.560  37.458  30.654  1.00  0.00    -0.237 OA
ATOM     74  O   UNL A   1      48.613  37.544  28.422  1.00  0.00    -0.237 OA
ATOM     75  O   UNL A   1      46.226  38.098  28.678  1.00  0.00    -0.744 OA
ENDBRANCH  71  72
ENDBRANCH  52  66
BRANCH  53  76
ATOM     76  C   UNL A   1      43.260  23.642  26.988  1.00  0.00    -0.014 A 
ATOM     77  C   UNL A   1      43.033  23.221  25.666  1.00  0.00     0.010 A 
ATOM     78  C   UNL A   1      43.091  22.732  28.045  1.00  0.00     0.010 A 
ATOM     79  C   UNL A   1      42.649  21.904  25.404  1.00  0.00     0.020 A 
ATOM     80  C   UNL A   1      42.718  21.412  27.783  1.00  0.00     0.020 A 
ATOM     81  C   UNL A   1      42.497  21.006  26.465  1.00  0.00     0.054 A 
BRANCH  81  82
ATOM     82  S   UNL A   1      42.093  19.271  26.122  1.00  0.00     0.124 S 
ATOM     83  O   UNL A   1      42.467  18.620  27.373  1.00  0.00    -0.237 OA
ATOM     84  O   UNL A   1      40.662  19.315  25.832  1.00  0.00    -0.237 OA
ATOM     85  O   UNL A   1      42.939  18.961  24.971  1.00  0.00    -0.744 OA
ENDBRANCH  81  82
ENDBRANCH  53  76
BRANCH  65  86
ATOM     86  C   UNL A   1      49.319  26.924  26.057  1.00  0.00    -0.014 A 
ATOM     87  C   UNL A   1      49.609  27.110  24.694  1.00  0.00     0.010 A 
ATOM     88  C   UNL A   1      50.289  26.357  26.899  1.00  0.00     0.010 A 
ATOM     89  C   UNL A   1      50.847  26.719  24.177  1.00  0.00     0.020 A 
ATOM     90  C   UNL A   1      51.530  25.970  26.387  1.00  0.00     0.020 A 
ATOM     91  C   UNL A   1      51.798  26.144  25.027  1.00  0.00     0.054 A 
BRANCH  91  92
ATOM     92  S   UNL A   1      53.419  25.676  24.358  1.00  0.00     0.124 S 
ATOM     93  O   UNL A   1      54.313  26.588  25.066  1.00  0.00    -0.237 OA
ATOM     94  O   UNL A   1      53.538  24.268  24.728  1.00  0.00    -0.237 OA
ATOM     95  O   UNL A   1      53.278  25.925  22.925  1.00  0.00    -0.744 OA
ENDBRANCH  91  92
ENDBRANCH  65  86
ENDBRANCH  39  40
ENDBRANCH  31  34
ENDBRANCH  29  30
ENDBRANCH   1  29
TORSDOF 16
ENDMDL
