MODEL 1
REMARK VINA RESULT:     -12.2      0.000      0.000
REMARK SMILES O=C(COc1ccc(/C=C2\SC(=O)N(Cc3cc4c(cc3Cl)OCO4)C2=O)cc1)NCCCNC(=O)c1ccc(-c2c3nc(c(-c4ccc(S(=O)(=O)[O-])cc4)c4ccc([nH]4)c(-c4ccc(S(=O)(=O)[O-])cc4)c4nc(c(-c5ccc(S(=O)(=O)[O-])cc5)c5ccc2[nH]5)C=C4)C=C3)cc1
REMARK SMILES IDX 31 1 30 2 1 3 2 4 3 6 4 7 5 8 6 9 29 10 7 11 28 12 8 13 9 14
REMARK SMILES IDX 10 15 11 16 26 17 12 18 14 19 27 20 13 21 15 22 16 23 17 24
REMARK SMILES IDX 21 25 18 26 20 27 22 28 19 29 25 30 23 31 24 32 32 33 33 34
REMARK SMILES IDX 34 35 35 36 36 38 37 39 38 40 96 41 39 42 95 43 40 44 41 45
REMARK SMILES IDX 42 46 89 47 43 48 94 49 88 50 90 51 44 52 93 53 87 54 86 55
REMARK SMILES IDX 45 57 75 58 56 59 74 60 57 61 60 62 73 63 91 64 58 65 59 66
REMARK SMILES IDX 72 68 92 69 61 70 46 71 47 72 55 73 48 74 54 75 49 76 50 77
REMARK SMILES IDX 51 78 52 79 53 80 76 81 77 82 85 83 78 84 84 85 79 86 80 87
REMARK SMILES IDX 81 88 82 89 83 90 62 91 63 92 71 93 64 94 70 95 65 96 66 97
REMARK SMILES IDX 67 98 68 99 69 100
REMARK H PARENT 30 5 34 37 90 56 60 67
REMARK Flexibility Score: inf
ROOT
ATOM      1  C   UNL A   1      45.216  22.612  26.763  1.00  0.00     0.117 C 
ENDROOT
BRANCH   1   2
ATOM      2  N   UNL A   1      43.869  22.090  26.867  1.00  0.00    -0.353 N 
ATOM      3  O   UNL A   1      43.394  22.153  24.617  1.00  0.00    -0.271 OA
ATOM      4  C   UNL A   1      43.117  21.776  25.752  1.00  0.00     0.257 C 
ATOM      5  H   UNL A   1      43.477  21.955  27.759  1.00  0.00     0.163 HD
BRANCH   4   6
ATOM      6  C   UNL A   1      41.924  20.856  26.043  1.00  0.00     0.329 C 
BRANCH   6   7
ATOM      7  O   UNL A   1      40.998  21.301  27.037  1.00  0.00    -0.484 OA
BRANCH   7   8
ATOM      8  C   UNL A   1      39.865  21.892  26.541  1.00  0.00     0.120 A 
ATOM      9  C   UNL A   1      39.607  23.210  26.923  1.00  0.00     0.047 A 
ATOM     10  C   UNL A   1      38.929  21.211  25.767  1.00  0.00     0.047 A 
ATOM     11  C   UNL A   1      38.435  23.854  26.500  1.00  0.00     0.012 A 
ATOM     12  C   UNL A   1      37.759  21.836  25.362  1.00  0.00     0.012 A 
ATOM     13  C   UNL A   1      37.506  23.158  25.722  1.00  0.00    -0.024 A 
BRANCH  13  14
ATOM     14  C   UNL A   1      36.309  23.767  25.160  1.00  0.00     0.029 C 
ATOM     15  C   UNL A   1      35.057  23.565  25.585  1.00  0.00     0.083 C 
ATOM     16  S   UNL A   1      34.464  22.837  27.019  1.00  0.00    -0.022 SA
ATOM     17  C   UNL A   1      33.922  23.996  24.747  1.00  0.00     0.268 C 
ATOM     18  C   UNL A   1      32.822  23.398  26.693  1.00  0.00     0.293 C 
ATOM     19  N   UNL A   1      32.788  24.079  25.508  1.00  0.00    -0.264 N 
ATOM     20  O   UNL A   1      34.006  24.133  23.535  1.00  0.00    -0.268 OA
ATOM     21  O   UNL A   1      31.880  23.162  27.434  1.00  0.00    -0.261 OA
BRANCH  19  22
ATOM     22  C   UNL A   1      31.587  24.713  25.000  1.00  0.00     0.167 C 
BRANCH  22  23
ATOM     23  C   UNL A   1      31.699  26.230  25.044  1.00  0.00    -0.005 A 
ATOM     24  C   UNL A   1      31.737  26.867  26.303  1.00  0.00     0.057 A 
ATOM     25  C   UNL A   1      31.787  27.039  23.878  1.00  0.00     0.050 A 
ATOM     26  C   UNL A   1      31.846  28.244  26.341  1.00  0.00     0.166 A 
ATOM     27  C   UNL A   1      31.990  28.420  23.955  1.00  0.00     0.071 A 
ATOM     28  Cl  UNL A   1      31.540  26.432  22.284  1.00  0.00    -0.084 Cl
ATOM     29  C   UNL A   1      31.993  28.993  25.201  1.00  0.00     0.167 A 
ATOM     30  O   UNL A   1      31.795  29.023  27.456  1.00  0.00    -0.454 OA
ATOM     31  O   UNL A   1      32.078  30.325  25.454  1.00  0.00    -0.454 OA
ATOM     32  C   UNL A   1      31.760  30.339  26.859  1.00  0.00     0.468 C 
ENDBRANCH  22  23
ENDBRANCH  19  22
ENDBRANCH  13  14
ENDBRANCH   7   8
ENDBRANCH   6   7
ENDBRANCH   4   6
ENDBRANCH   1   2
BRANCH   1  33
ATOM     33  C   UNL A   1      45.269  24.104  26.490  1.00  0.00     0.042 C 
BRANCH  33  34
ATOM     34  C   UNL A   1      44.047  24.872  26.978  1.00  0.00     0.118 C 
BRANCH  34  35
ATOM     35  N   UNL A   1      43.037  25.070  25.948  1.00  0.00    -0.352 N 
ATOM     36  C   UNL A   1      41.906  25.850  25.952  1.00  0.00     0.251 C 
ATOM     37  H   UNL A   1      43.189  24.566  25.116  1.00  0.00     0.163 HD
ATOM     38  O   UNL A   1      41.130  25.778  25.001  1.00  0.00    -0.269 OA
BRANCH  36  39
ATOM     39  C   UNL A   1      41.596  26.745  27.092  1.00  0.00     0.039 A 
ATOM     40  C   UNL A   1      40.700  26.294  28.066  1.00  0.00     0.014 A 
ATOM     41  C   UNL A   1      42.151  28.023  27.202  1.00  0.00     0.014 A 
ATOM     42  C   UNL A   1      40.413  27.095  29.174  1.00  0.00     0.010 A 
ATOM     43  C   UNL A   1      41.926  28.787  28.347  1.00  0.00     0.010 A 
ATOM     44  C   UNL A   1      41.049  28.335  29.343  1.00  0.00    -0.014 A 
BRANCH  44  45
ATOM     45  C   UNL A   1      40.808  29.154  30.560  1.00  0.00     0.031 A 
ATOM     46  C   UNL A   1      41.652  28.967  31.793  1.00  0.00     0.074 A 
ATOM     47  C   UNL A   1      39.801  30.049  30.568  1.00  0.00     0.049 A 
ATOM     48  N   UNL A   1      41.595  29.604  32.936  1.00  0.00    -0.248 NA
ATOM     49  C   UNL A   1      42.678  27.912  31.748  1.00  0.00     0.031 C 
ATOM     50  C   UNL A   1      38.871  30.290  29.460  1.00  0.00     0.029 A 
ATOM     51  N   UNL A   1      39.391  30.929  31.539  1.00  0.00    -0.354 N 
ATOM     52  C   UNL A   1      42.564  29.022  33.745  1.00  0.00     0.074 A 
ATOM     53  C   UNL A   1      43.159  27.947  32.982  1.00  0.00     0.031 C 
ATOM     54  C   UNL A   1      38.027  31.277  29.799  1.00  0.00     0.029 A 
ATOM     55  C   UNL A   1      38.333  31.720  31.156  1.00  0.00     0.049 A 
ATOM     56  H   UNL A   1      39.814  30.988  32.426  1.00  0.00     0.167 HD
ATOM     57  C   UNL A   1      42.940  29.364  35.001  1.00  0.00     0.031 A 
ATOM     58  C   UNL A   1      37.685  32.698  31.816  1.00  0.00     0.031 A 
ATOM     59  C   UNL A   1      42.357  30.441  35.757  1.00  0.00     0.049 A 
ATOM     60  C   UNL A   1      38.137  33.076  33.199  1.00  0.00     0.074 A 
ATOM     61  C   UNL A   1      42.709  30.901  37.014  1.00  0.00     0.029 A 
ATOM     62  N   UNL A   1      41.300  31.229  35.327  1.00  0.00    -0.354 N 
ATOM     63  N   UNL A   1      39.103  32.559  33.920  1.00  0.00    -0.248 NA
ATOM     64  C   UNL A   1      37.421  34.182  33.850  1.00  0.00     0.031 C 
ATOM     65  C   UNL A   1      41.837  31.939  37.362  1.00  0.00     0.029 A 
ATOM     66  C   UNL A   1      40.977  32.161  36.299  1.00  0.00     0.049 A 
ATOM     67  H   UNL A   1      40.847  31.139  34.457  1.00  0.00     0.167 HD
ATOM     68  C   UNL A   1      39.129  33.296  35.100  1.00  0.00     0.074 A 
ATOM     69  C   UNL A   1      38.093  34.303  34.987  1.00  0.00     0.031 C 
ATOM     70  C   UNL A   1      39.938  33.151  36.179  1.00  0.00     0.031 A 
BRANCH  57  71
ATOM     71  C   UNL A   1      44.043  28.558  35.638  1.00  0.00    -0.014 A 
ATOM     72  C   UNL A   1      45.382  28.985  35.574  1.00  0.00     0.010 A 
ATOM     73  C   UNL A   1      43.735  27.378  36.340  1.00  0.00     0.010 A 
ATOM     74  C   UNL A   1      46.397  28.225  36.161  1.00  0.00     0.020 A 
ATOM     75  C   UNL A   1      44.744  26.629  36.952  1.00  0.00     0.020 A 
ATOM     76  C   UNL A   1      46.071  27.048  36.842  1.00  0.00     0.054 A 
BRANCH  76  77
ATOM     77  S   UNL A   1      47.407  26.089  37.610  1.00  0.00     0.124 S 
ATOM     78  O   UNL A   1      48.463  26.187  36.605  1.00  0.00    -0.237 OA
ATOM     79  O   UNL A   1      47.653  26.817  38.852  1.00  0.00    -0.237 OA
ATOM     80  O   UNL A   1      46.827  24.758  37.776  1.00  0.00    -0.744 OA
ENDBRANCH  76  77
ENDBRANCH  57  71
BRANCH  58  81
ATOM     81  C   UNL A   1      36.560  33.418  31.159  1.00  0.00    -0.014 A 
ATOM     82  C   UNL A   1      36.782  34.178  29.997  1.00  0.00     0.010 A 
ATOM     83  C   UNL A   1      35.258  33.335  31.685  1.00  0.00     0.010 A 
ATOM     84  C   UNL A   1      35.726  34.858  29.384  1.00  0.00     0.020 A 
ATOM     85  C   UNL A   1      34.195  33.992  31.059  1.00  0.00     0.020 A 
ATOM     86  C   UNL A   1      34.438  34.760  29.917  1.00  0.00     0.054 A 
BRANCH  86  87
ATOM     87  S   UNL A   1      33.074  35.607  29.075  1.00  0.00     0.124 S 
ATOM     88  O   UNL A   1      32.228  36.009  30.194  1.00  0.00    -0.237 OA
ATOM     89  O   UNL A   1      33.757  36.692  28.375  1.00  0.00    -0.237 OA
ATOM     90  O   UNL A   1      32.515  34.572  28.206  1.00  0.00    -0.744 OA
ENDBRANCH  86  87
ENDBRANCH  58  81
BRANCH  70  91
ATOM     91  C   UNL A   1      39.752  34.126  37.311  1.00  0.00    -0.014 A 
ATOM     92  C   UNL A   1      40.454  35.344  37.348  1.00  0.00     0.010 A 
ATOM     93  C   UNL A   1      38.845  33.826  38.343  1.00  0.00     0.010 A 
ATOM     94  C   UNL A   1      40.288  36.222  38.422  1.00  0.00     0.020 A 
ATOM     95  C   UNL A   1      38.656  34.714  39.405  1.00  0.00     0.020 A 
ATOM     96  C   UNL A   1      39.396  35.898  39.448  1.00  0.00     0.054 A 
BRANCH  96  97
ATOM     97  S   UNL A   1      39.189  37.057  40.828  1.00  0.00     0.124 S 
ATOM     98  O   UNL A   1      38.737  36.175  41.899  1.00  0.00    -0.237 OA
ATOM     99  O   UNL A   1      40.532  37.608  40.991  1.00  0.00    -0.237 OA
ATOM    100  O   UNL A   1      38.190  38.004  40.337  1.00  0.00    -0.744 OA
ENDBRANCH  96  97
ENDBRANCH  70  91
ENDBRANCH  44  45
ENDBRANCH  36  39
ENDBRANCH  34  35
ENDBRANCH  33  34
ENDBRANCH   1  33
TORSDOF 18
ENDMDL
MODEL 2
REMARK VINA RESULT:     -11.5      4.435     12.784
REMARK SMILES O=C(COc1ccc(/C=C2\SC(=O)N(Cc3cc4c(cc3Cl)OCO4)C2=O)cc1)NCCCNC(=O)c1ccc(-c2c3nc(c(-c4ccc(S(=O)(=O)[O-])cc4)c4ccc([nH]4)c(-c4ccc(S(=O)(=O)[O-])cc4)c4nc(c(-c5ccc(S(=O)(=O)[O-])cc5)c5ccc2[nH]5)C=C4)C=C3)cc1
REMARK SMILES IDX 31 1 30 2 1 3 2 4 3 6 4 7 5 8 6 9 29 10 7 11 28 12 8 13 9 14
REMARK SMILES IDX 10 15 11 16 26 17 12 18 14 19 27 20 13 21 15 22 16 23 17 24
REMARK SMILES IDX 21 25 18 26 20 27 22 28 19 29 25 30 23 31 24 32 32 33 33 34
REMARK SMILES IDX 34 35 35 36 36 38 37 39 38 40 96 41 39 42 95 43 40 44 41 45
REMARK SMILES IDX 42 46 89 47 43 48 94 49 88 50 90 51 44 52 93 53 87 54 86 55
REMARK SMILES IDX 45 57 75 58 56 59 74 60 57 61 60 62 73 63 91 64 58 65 59 66
REMARK SMILES IDX 72 68 92 69 61 70 46 71 47 72 55 73 48 74 54 75 49 76 50 77
REMARK SMILES IDX 51 78 52 79 53 80 76 81 77 82 85 83 78 84 84 85 79 86 80 87
REMARK SMILES IDX 81 88 82 89 83 90 62 91 63 92 71 93 64 94 70 95 65 96 66 97
REMARK SMILES IDX 67 98 68 99 69 100
REMARK H PARENT 30 5 34 37 90 56 60 67
REMARK Flexibility Score: inf
ROOT
ATOM      1  C   UNL A   1      35.438  32.990  30.417  1.00  0.00     0.117 C 
ENDROOT
BRANCH   1   2
ATOM      2  N   UNL A   1      35.419  33.835  31.594  1.00  0.00    -0.353 N 
ATOM      3  O   UNL A   1      33.652  32.791  32.631  1.00  0.00    -0.271 OA
ATOM      4  C   UNL A   1      34.601  33.568  32.674  1.00  0.00     0.257 C 
ATOM      5  H   UNL A   1      36.007  34.623  31.625  1.00  0.00     0.163 HD
BRANCH   4   6
ATOM      6  C   UNL A   1      35.015  34.288  33.964  1.00  0.00     0.329 C 
BRANCH   6   7
ATOM      7  O   UNL A   1      36.258  34.994  33.934  1.00  0.00    -0.484 OA
BRANCH   7   8
ATOM      8  C   UNL A   1      37.337  34.272  34.373  1.00  0.00     0.120 A 
ATOM      9  C   UNL A   1      38.499  34.317  33.599  1.00  0.00     0.047 A 
ATOM     10  C   UNL A   1      37.291  33.434  35.484  1.00  0.00     0.047 A 
ATOM     11  C   UNL A   1      39.619  33.554  33.959  1.00  0.00     0.012 A 
ATOM     12  C   UNL A   1      38.389  32.662  35.832  1.00  0.00     0.012 A 
ATOM     13  C   UNL A   1      39.558  32.719  35.077  1.00  0.00    -0.024 A 
BRANCH  13  14
ATOM     14  C   UNL A   1      40.695  31.962  35.582  1.00  0.00     0.029 C 
ATOM     15  C   UNL A   1      41.146  30.806  35.084  1.00  0.00     0.083 C 
ATOM     16  S   UNL A   1      40.795  30.008  33.608  1.00  0.00    -0.022 SA
ATOM     17  C   UNL A   1      42.102  29.997  35.865  1.00  0.00     0.268 C 
ATOM     18  C   UNL A   1      42.112  28.857  33.851  1.00  0.00     0.293 C 
ATOM     19  N   UNL A   1      42.734  29.105  35.043  1.00  0.00    -0.264 N 
ATOM     20  O   UNL A   1      42.195  30.071  37.081  1.00  0.00    -0.268 OA
ATOM     21  O   UNL A   1      42.372  27.968  33.055  1.00  0.00    -0.261 OA
BRANCH  19  22
ATOM     22  C   UNL A   1      43.894  28.361  35.493  1.00  0.00     0.167 C 
BRANCH  22  23
ATOM     23  C   UNL A   1      43.725  26.868  35.250  1.00  0.00    -0.005 A 
ATOM     24  C   UNL A   1      44.572  26.238  34.314  1.00  0.00     0.057 A 
ATOM     25  C   UNL A   1      42.768  26.071  35.936  1.00  0.00     0.050 A 
ATOM     26  C   UNL A   1      44.422  24.881  34.099  1.00  0.00     0.166 A 
ATOM     27  C   UNL A   1      42.708  24.685  35.763  1.00  0.00     0.071 A 
ATOM     28  Cl  UNL A   1      41.533  26.729  36.940  1.00  0.00    -0.084 Cl
ATOM     29  C   UNL A   1      43.533  24.125  34.822  1.00  0.00     0.167 A 
ATOM     30  O   UNL A   1      45.078  24.137  33.167  1.00  0.00    -0.454 OA
ATOM     31  O   UNL A   1      43.536  22.816  34.456  1.00  0.00    -0.454 OA
ATOM     32  C   UNL A   1      44.375  22.881  33.286  1.00  0.00     0.468 C 
ENDBRANCH  22  23
ENDBRANCH  19  22
ENDBRANCH  13  14
ENDBRANCH   7   8
ENDBRANCH   6   7
ENDBRANCH   4   6
ENDBRANCH   1   2
BRANCH   1  33
ATOM     33  C   UNL A   1      34.373  33.346  29.397  1.00  0.00     0.042 C 
BRANCH  33  34
ATOM     34  C   UNL A   1      34.606  32.747  28.015  1.00  0.00     0.118 C 
BRANCH  34  35
ATOM     35  N   UNL A   1      33.940  31.467  27.818  1.00  0.00    -0.352 N 
ATOM     36  C   UNL A   1      34.451  30.192  27.815  1.00  0.00     0.251 C 
ATOM     37  H   UNL A   1      32.970  31.524  27.662  1.00  0.00     0.163 HD
ATOM     38  O   UNL A   1      33.713  29.256  27.514  1.00  0.00    -0.269 OA
BRANCH  36  39
ATOM     39  C   UNL A   1      35.876  29.936  28.136  1.00  0.00     0.039 A 
ATOM     40  C   UNL A   1      36.203  29.540  29.436  1.00  0.00     0.014 A 
ATOM     41  C   UNL A   1      36.890  30.106  27.189  1.00  0.00     0.014 A 
ATOM     42  C   UNL A   1      37.530  29.255  29.765  1.00  0.00     0.010 A 
ATOM     43  C   UNL A   1      38.201  29.744  27.496  1.00  0.00     0.010 A 
ATOM     44  C   UNL A   1      38.538  29.321  28.789  1.00  0.00    -0.014 A 
BRANCH  44  45
ATOM     45  C   UNL A   1      39.938  28.941  29.115  1.00  0.00     0.031 A 
ATOM     46  C   UNL A   1      40.857  29.910  29.810  1.00  0.00     0.074 A 
ATOM     47  C   UNL A   1      40.396  27.726  28.751  1.00  0.00     0.049 A 
ATOM     48  N   UNL A   1      42.100  29.742  30.186  1.00  0.00    -0.248 NA
ATOM     49  C   UNL A   1      40.321  31.250  30.100  1.00  0.00     0.031 C 
ATOM     50  C   UNL A   1      39.627  26.713  28.022  1.00  0.00     0.029 A 
ATOM     51  N   UNL A   1      41.618  27.133  28.951  1.00  0.00    -0.354 N 
ATOM     52  C   UNL A   1      42.496  30.952  30.744  1.00  0.00     0.074 A 
ATOM     53  C   UNL A   1      41.380  31.862  30.610  1.00  0.00     0.031 C 
ATOM     54  C   UNL A   1      40.382  25.613  27.870  1.00  0.00     0.029 A 
ATOM     55  C   UNL A   1      41.695  25.850  28.461  1.00  0.00     0.049 A 
ATOM     56  H   UNL A   1      42.369  27.583  29.401  1.00  0.00     0.167 HD
ATOM     57  C   UNL A   1      43.673  31.272  31.333  1.00  0.00     0.031 A 
ATOM     58  C   UNL A   1      42.703  24.958  28.491  1.00  0.00     0.031 A 
ATOM     59  C   UNL A   1      44.781  30.364  31.478  1.00  0.00     0.049 A 
ATOM     60  C   UNL A   1      43.991  25.329  29.173  1.00  0.00     0.074 A 
ATOM     61  C   UNL A   1      45.993  30.577  32.111  1.00  0.00     0.029 A 
ATOM     62  N   UNL A   1      44.812  29.068  30.985  1.00  0.00    -0.354 N 
ATOM     63  N   UNL A   1      44.320  26.456  29.757  1.00  0.00    -0.248 NA
ATOM     64  C   UNL A   1      45.038  24.297  29.214  1.00  0.00     0.031 C 
ATOM     65  C   UNL A   1      46.775  29.426  31.962  1.00  0.00     0.029 A 
ATOM     66  C   UNL A   1      46.028  28.476  31.284  1.00  0.00     0.049 A 
ATOM     67  H   UNL A   1      44.077  28.633  30.494  1.00  0.00     0.167 HD
ATOM     68  C   UNL A   1      45.602  26.260  30.259  1.00  0.00     0.074 A 
ATOM     69  C   UNL A   1      45.981  24.902  29.924  1.00  0.00     0.031 C 
ATOM     70  C   UNL A   1      46.395  27.127  30.937  1.00  0.00     0.031 A 
BRANCH  57  71
ATOM     71  C   UNL A   1      43.822  32.672  31.870  1.00  0.00    -0.014 A 
ATOM     72  C   UNL A   1      44.338  33.706  31.067  1.00  0.00     0.010 A 
ATOM     73  C   UNL A   1      43.408  32.968  33.182  1.00  0.00     0.010 A 
ATOM     74  C   UNL A   1      44.479  34.998  31.580  1.00  0.00     0.020 A 
ATOM     75  C   UNL A   1      43.522  34.266  33.690  1.00  0.00     0.020 A 
ATOM     76  C   UNL A   1      44.075  35.268  32.890  1.00  0.00     0.054 A 
BRANCH  76  77
ATOM     77  S   UNL A   1      44.254  36.959  33.525  1.00  0.00     0.124 S 
ATOM     78  O   UNL A   1      45.676  37.005  33.859  1.00  0.00    -0.237 OA
ATOM     79  O   UNL A   1      43.851  37.776  32.383  1.00  0.00    -0.237 OA
ATOM     80  O   UNL A   1      43.344  36.999  34.668  1.00  0.00    -0.744 OA
ENDBRANCH  76  77
ENDBRANCH  57  71
BRANCH  58  81
ATOM     81  C   UNL A   1      42.520  23.610  27.888  1.00  0.00    -0.014 A 
ATOM     82  C   UNL A   1      43.079  23.309  26.634  1.00  0.00     0.010 A 
ATOM     83  C   UNL A   1      41.797  22.617  28.572  1.00  0.00     0.010 A 
ATOM     84  C   UNL A   1      42.902  22.045  26.064  1.00  0.00     0.020 A 
ATOM     85  C   UNL A   1      41.641  21.343  28.019  1.00  0.00     0.020 A 
ATOM     86  C   UNL A   1      42.185  21.068  26.761  1.00  0.00     0.054 A 
BRANCH  86  87
ATOM     87  S   UNL A   1      42.012  19.418  26.029  1.00  0.00     0.124 S 
ATOM     88  O   UNL A   1      40.572  19.331  25.810  1.00  0.00    -0.237 OA
ATOM     89  O   UNL A   1      42.832  19.518  24.824  1.00  0.00    -0.237 OA
ATOM     90  O   UNL A   1      42.545  18.530  27.061  1.00  0.00    -0.744 OA
ENDBRANCH  86  87
ENDBRANCH  58  81
BRANCH  70  91
ATOM     91  C   UNL A   1      47.739  26.619  31.387  1.00  0.00    -0.014 A 
ATOM     92  C   UNL A   1      48.868  26.703  30.553  1.00  0.00     0.010 A 
ATOM     93  C   UNL A   1      47.876  26.066  32.673  1.00  0.00     0.010 A 
ATOM     94  C   UNL A   1      50.099  26.199  30.979  1.00  0.00     0.020 A 
ATOM     95  C   UNL A   1      49.113  25.587  33.113  1.00  0.00     0.020 A 
ATOM     96  C   UNL A   1      50.213  25.637  32.254  1.00  0.00     0.054 A 
BRANCH  96  97
ATOM     97  S   UNL A   1      51.823  24.998  32.790  1.00  0.00     0.124 S 
ATOM     98  O   UNL A   1      51.782  25.242  34.229  1.00  0.00    -0.237 OA
ATOM     99  O   UNL A   1      51.764  23.595  32.388  1.00  0.00    -0.237 OA
ATOM    100  O   UNL A   1      52.783  25.812  32.047  1.00  0.00    -0.744 OA
ENDBRANCH  96  97
ENDBRANCH  70  91
ENDBRANCH  44  45
ENDBRANCH  36  39
ENDBRANCH  34  35
ENDBRANCH  33  34
ENDBRANCH   1  33
TORSDOF 18
ENDMDL
MODEL 3
REMARK VINA RESULT:     -11.3      4.936     12.652
REMARK SMILES O=C(COc1ccc(/C=C2\SC(=O)N(Cc3cc4c(cc3Cl)OCO4)C2=O)cc1)NCCCNC(=O)c1ccc(-c2c3nc(c(-c4ccc(S(=O)(=O)[O-])cc4)c4ccc([nH]4)c(-c4ccc(S(=O)(=O)[O-])cc4)c4nc(c(-c5ccc(S(=O)(=O)[O-])cc5)c5ccc2[nH]5)C=C4)C=C3)cc1
REMARK SMILES IDX 31 1 30 2 1 3 2 4 3 6 4 7 5 8 6 9 29 10 7 11 28 12 8 13 9 14
REMARK SMILES IDX 10 15 11 16 26 17 12 18 14 19 27 20 13 21 15 22 16 23 17 24
REMARK SMILES IDX 21 25 18 26 20 27 22 28 19 29 25 30 23 31 24 32 32 33 33 34
REMARK SMILES IDX 34 35 35 36 36 38 37 39 38 40 96 41 39 42 95 43 40 44 41 45
REMARK SMILES IDX 42 46 89 47 43 48 94 49 88 50 90 51 44 52 93 53 87 54 86 55
REMARK SMILES IDX 45 57 75 58 56 59 74 60 57 61 60 62 73 63 91 64 58 65 59 66
REMARK SMILES IDX 72 68 92 69 61 70 46 71 47 72 55 73 48 74 54 75 49 76 50 77
REMARK SMILES IDX 51 78 52 79 53 80 76 81 77 82 85 83 78 84 84 85 79 86 80 87
REMARK SMILES IDX 81 88 82 89 83 90 62 91 63 92 71 93 64 94 70 95 65 96 66 97
REMARK SMILES IDX 67 98 68 99 69 100
REMARK H PARENT 30 5 34 37 90 56 60 67
REMARK Flexibility Score: inf
ROOT
ATOM      1  C   UNL A   1      33.615  34.666  30.263  1.00  0.00     0.117 C 
ENDROOT
BRANCH   1   2
ATOM      2  N   UNL A   1      34.552  34.988  31.319  1.00  0.00    -0.353 N 
ATOM      3  O   UNL A   1      33.395  33.951  33.015  1.00  0.00    -0.271 OA
ATOM      4  C   UNL A   1      34.422  34.477  32.595  1.00  0.00     0.257 C 
ATOM      5  H   UNL A   1      35.305  35.591  31.122  1.00  0.00     0.163 HD
BRANCH   4   6
ATOM      6  C   UNL A   1      35.700  34.568  33.438  1.00  0.00     0.329 C 
BRANCH   6   7
ATOM      7  O   UNL A   1      36.881  35.016  32.767  1.00  0.00    -0.484 OA
BRANCH   7   8
ATOM      8  C   UNL A   1      38.011  34.296  33.054  1.00  0.00     0.120 A 
ATOM      9  C   UNL A   1      38.002  32.934  32.751  1.00  0.00     0.047 A 
ATOM     10  C   UNL A   1      39.110  34.840  33.716  1.00  0.00     0.047 A 
ATOM     11  C   UNL A   1      39.104  32.128  33.074  1.00  0.00     0.012 A 
ATOM     12  C   UNL A   1      40.193  34.043  34.056  1.00  0.00     0.012 A 
ATOM     13  C   UNL A   1      40.199  32.688  33.736  1.00  0.00    -0.024 A 
BRANCH  13  14
ATOM     14  C   UNL A   1      41.423  31.956  34.030  1.00  0.00     0.029 C 
ATOM     15  C   UNL A   1      41.525  30.901  34.846  1.00  0.00     0.083 C 
ATOM     16  S   UNL A   1      40.319  29.902  35.542  1.00  0.00    -0.022 SA
ATOM     17  C   UNL A   1      42.856  30.447  35.291  1.00  0.00     0.268 C 
ATOM     18  C   UNL A   1      41.523  28.734  36.093  1.00  0.00     0.293 C 
ATOM     19  N   UNL A   1      42.777  29.163  35.757  1.00  0.00    -0.264 N 
ATOM     20  O   UNL A   1      43.831  31.183  35.327  1.00  0.00    -0.268 OA
ATOM     21  O   UNL A   1      41.232  27.719  36.708  1.00  0.00    -0.261 OA
BRANCH  19  22
ATOM     22  C   UNL A   1      43.971  28.386  36.024  1.00  0.00     0.167 C 
BRANCH  22  23
ATOM     23  C   UNL A   1      44.281  27.433  34.879  1.00  0.00    -0.005 A 
ATOM     24  C   UNL A   1      43.763  26.122  34.934  1.00  0.00     0.057 A 
ATOM     25  C   UNL A   1      45.054  27.804  33.744  1.00  0.00     0.050 A 
ATOM     26  C   UNL A   1      44.039  25.260  33.891  1.00  0.00     0.166 A 
ATOM     27  C   UNL A   1      45.234  26.936  32.663  1.00  0.00     0.071 A 
ATOM     28  Cl  UNL A   1      45.925  29.287  33.636  1.00  0.00    -0.084 Cl
ATOM     29  C   UNL A   1      44.733  25.666  32.778  1.00  0.00     0.167 A 
ATOM     30  O   UNL A   1      43.708  23.941  33.827  1.00  0.00    -0.454 OA
ATOM     31  O   UNL A   1      44.903  24.668  31.871  1.00  0.00    -0.454 OA
ATOM     32  C   UNL A   1      44.418  23.545  32.633  1.00  0.00     0.468 C 
ENDBRANCH  22  23
ENDBRANCH  19  22
ENDBRANCH  13  14
ENDBRANCH   7   8
ENDBRANCH   6   7
ENDBRANCH   4   6
ENDBRANCH   1   2
BRANCH   1  33
ATOM     33  C   UNL A   1      34.269  34.057  29.036  1.00  0.00     0.042 C 
BRANCH  33  34
ATOM     34  C   UNL A   1      34.932  32.708  29.286  1.00  0.00     0.118 C 
BRANCH  34  35
ATOM     35  N   UNL A   1      34.215  31.590  28.689  1.00  0.00    -0.352 N 
ATOM     36  C   UNL A   1      34.675  30.371  28.253  1.00  0.00     0.251 C 
ATOM     37  H   UNL A   1      33.247  31.729  28.581  1.00  0.00     0.163 HD
ATOM     38  O   UNL A   1      33.899  29.614  27.675  1.00  0.00    -0.269 OA
BRANCH  36  39
ATOM     39  C   UNL A   1      36.092  29.975  28.442  1.00  0.00     0.039 A 
ATOM     40  C   UNL A   1      36.969  30.111  27.362  1.00  0.00     0.014 A 
ATOM     41  C   UNL A   1      36.559  29.451  29.650  1.00  0.00     0.014 A 
ATOM     42  C   UNL A   1      38.318  29.784  27.513  1.00  0.00     0.010 A 
ATOM     43  C   UNL A   1      37.920  29.200  29.823  1.00  0.00     0.010 A 
ATOM     44  C   UNL A   1      38.814  29.356  28.756  1.00  0.00    -0.014 A 
BRANCH  44  45
ATOM     45  C   UNL A   1      40.264  29.084  28.943  1.00  0.00     0.031 A 
ATOM     46  C   UNL A   1      40.846  27.741  28.590  1.00  0.00     0.074 A 
ATOM     47  C   UNL A   1      41.056  30.041  29.467  1.00  0.00     0.049 A 
ATOM     48  N   UNL A   1      42.088  27.334  28.671  1.00  0.00    -0.248 NA
ATOM     49  C   UNL A   1      39.911  26.712  28.106  1.00  0.00     0.031 C 
ATOM     50  C   UNL A   1      40.608  31.366  29.905  1.00  0.00     0.029 A 
ATOM     51  N   UNL A   1      42.406  30.049  29.715  1.00  0.00    -0.354 N 
ATOM     52  C   UNL A   1      42.081  26.006  28.261  1.00  0.00     0.074 A 
ATOM     53  C   UNL A   1      40.705  25.659  27.982  1.00  0.00     0.031 C 
ATOM     54  C   UNL A   1      41.669  32.070  30.331  1.00  0.00     0.029 A 
ATOM     55  C   UNL A   1      42.865  31.241  30.226  1.00  0.00     0.049 A 
ATOM     56  H   UNL A   1      42.990  29.276  29.544  1.00  0.00     0.167 HD
ATOM     57  C   UNL A   1      43.126  25.157  28.110  1.00  0.00     0.031 A 
ATOM     58  C   UNL A   1      44.109  31.628  30.565  1.00  0.00     0.031 A 
ATOM     59  C   UNL A   1      44.498  25.504  28.375  1.00  0.00     0.049 A 
ATOM     60  C   UNL A   1      45.256  30.677  30.365  1.00  0.00     0.074 A 
ATOM     61  C   UNL A   1      45.633  24.731  28.198  1.00  0.00     0.029 A 
ATOM     62  N   UNL A   1      44.923  26.726  28.875  1.00  0.00    -0.354 N 
ATOM     63  N   UNL A   1      45.236  29.448  29.909  1.00  0.00    -0.248 NA
ATOM     64  C   UNL A   1      46.595  31.174  30.710  1.00  0.00     0.031 C 
ATOM     65  C   UNL A   1      46.739  25.471  28.631  1.00  0.00     0.029 A 
ATOM     66  C   UNL A   1      46.299  26.723  29.027  1.00  0.00     0.049 A 
ATOM     67  H   UNL A   1      44.332  27.484  29.090  1.00  0.00     0.167 HD
ATOM     68  C   UNL A   1      46.564  29.033  29.886  1.00  0.00     0.074 A 
ATOM     69  C   UNL A   1      47.359  30.149  30.358  1.00  0.00     0.031 C 
ATOM     70  C   UNL A   1      47.077  27.836  29.507  1.00  0.00     0.031 A 
BRANCH  57  71
ATOM     71  C   UNL A   1      42.822  23.762  27.629  1.00  0.00    -0.014 A 
ATOM     72  C   UNL A   1      42.711  23.475  26.256  1.00  0.00     0.010 A 
ATOM     73  C   UNL A   1      42.680  22.714  28.559  1.00  0.00     0.010 A 
ATOM     74  C   UNL A   1      42.420  22.179  25.824  1.00  0.00     0.020 A 
ATOM     75  C   UNL A   1      42.416  21.410  28.129  1.00  0.00     0.020 A 
ATOM     76  C   UNL A   1      42.270  21.155  26.764  1.00  0.00     0.054 A 
BRANCH  76  77
ATOM     77  S   UNL A   1      41.909  19.478  26.174  1.00  0.00     0.124 S 
ATOM     78  O   UNL A   1      42.841  19.346  25.056  1.00  0.00    -0.237 OA
ATOM     79  O   UNL A   1      42.209  18.654  27.341  1.00  0.00    -0.237 OA
ATOM     80  O   UNL A   1      40.497  19.537  25.803  1.00  0.00    -0.744 OA
ENDBRANCH  76  77
ENDBRANCH  57  71
BRANCH  58  81
ATOM     81  C   UNL A   1      44.340  33.000  31.095  1.00  0.00    -0.014 A 
ATOM     82  C   UNL A   1      44.605  34.067  30.219  1.00  0.00     0.010 A 
ATOM     83  C   UNL A   1      44.283  33.248  32.478  1.00  0.00     0.010 A 
ATOM     84  C   UNL A   1      44.828  35.354  30.717  1.00  0.00     0.020 A 
ATOM     85  C   UNL A   1      44.479  34.538  32.978  1.00  0.00     0.020 A 
ATOM     86  C   UNL A   1      44.762  35.582  32.094  1.00  0.00     0.054 A 
BRANCH  86  87
ATOM     87  S   UNL A   1      45.002  37.269  32.715  1.00  0.00     0.124 S 
ATOM     88  O   UNL A   1      43.758  37.505  33.441  1.00  0.00    -0.237 OA
ATOM     89  O   UNL A   1      46.202  37.138  33.538  1.00  0.00    -0.237 OA
ATOM     90  O   UNL A   1      45.176  38.059  31.496  1.00  0.00    -0.744 OA
ENDBRANCH  86  87
ENDBRANCH  58  81
BRANCH  70  91
ATOM     91  C   UNL A   1      48.574  27.685  29.561  1.00  0.00    -0.014 A 
ATOM     92  C   UNL A   1      49.214  27.142  30.690  1.00  0.00     0.010 A 
ATOM     93  C   UNL A   1      49.351  28.076  28.455  1.00  0.00     0.010 A 
ATOM     94  C   UNL A   1      50.606  27.037  30.731  1.00  0.00     0.020 A 
ATOM     95  C   UNL A   1      50.742  27.947  28.482  1.00  0.00     0.020 A 
ATOM     96  C   UNL A   1      51.363  27.447  29.629  1.00  0.00     0.054 A 
BRANCH  96  97
ATOM     97  S   UNL A   1      53.168  27.294  29.699  1.00  0.00     0.124 S 
ATOM     98  O   UNL A   1      53.602  28.638  29.331  1.00  0.00    -0.237 OA
ATOM     99  O   UNL A   1      53.406  26.915  31.090  1.00  0.00    -0.237 OA
ATOM    100  O   UNL A   1      53.465  26.252  28.718  1.00  0.00    -0.744 OA
ENDBRANCH  96  97
ENDBRANCH  70  91
ENDBRANCH  44  45
ENDBRANCH  36  39
ENDBRANCH  34  35
ENDBRANCH  33  34
ENDBRANCH   1  33
TORSDOF 18
ENDMDL
