MODEL 1
REMARK VINA RESULT:     -11.4      0.000      0.000
REMARK SMILES CC[C@](C)(C(=O)NCCCNC(=O)c1ccc(-c2c3nc(c(-c4ccc(S(=O)(=O)[O-])cc4)c4ccc([nH]4)c(-c4ccc(S(=O)(=O)[O-])cc4)c4nc(c(-c5ccc(S(=O)(=O)[O-])cc5)c5ccc2[nH]5)C=C4)C=C3)cc1)[C@H]1CCC[C@H](OC)C1
REMARK SMILES IDX 9 1 8 2 7 3 5 4 6 5 3 7 4 8 2 9 1 10 74 11 75 12 81 13 76 14
REMARK SMILES IDX 78 15 77 16 79 17 80 18 10 19 11 20 12 21 13 23 14 24 15 25
REMARK SMILES IDX 73 26 16 27 72 28 17 29 18 30 19 31 66 32 20 33 71 34 65 35
REMARK SMILES IDX 67 36 21 37 70 38 64 39 63 40 22 42 52 43 33 44 51 45 34 46
REMARK SMILES IDX 37 47 50 48 68 49 35 50 36 51 49 53 69 54 38 55 23 56 24 57
REMARK SMILES IDX 32 58 25 59 31 60 26 61 27 62 28 63 29 64 30 65 53 66 54 67
REMARK SMILES IDX 62 68 55 69 61 70 56 71 57 72 58 73 59 74 60 75 39 76 40 77
REMARK SMILES IDX 48 78 41 79 47 80 42 81 43 82 44 83 45 84 46 85
REMARK H PARENT 7 6 11 22 67 41 37 52
REMARK Flexibility Score: inf
ROOT
ATOM      1  C   UNL A   1      38.568  22.855  26.418  1.00  0.00     0.042 C 
ENDROOT
BRANCH   1   2
ATOM      2  C   UNL A   1      37.669  23.836  25.675  1.00  0.00     0.117 C 
BRANCH   2   3
ATOM      3  N   UNL A   1      37.288  23.340  24.364  1.00  0.00    -0.356 N 
ATOM      4  C   UNL A   1      36.120  23.319  23.672  1.00  0.00     0.226 C 
ATOM      5  O   UNL A   1      36.240  22.990  22.487  1.00  0.00    -0.274 OA
ATOM      6  H   UNL A   1      38.036  22.930  23.872  1.00  0.00     0.163 HD
BRANCH   4   7
ATOM      7  C   UNL A   1      34.760  23.800  24.254  1.00  0.00     0.049 C 
ATOM      8  C   UNL A   1      34.960  24.836  25.374  1.00  0.00     0.022 C 
BRANCH   7   9
ATOM      9  C   UNL A   1      33.979  24.502  23.084  1.00  0.00     0.013 C 
ATOM     10  C   UNL A   1      33.348  25.854  23.418  1.00  0.00     0.005 C 
ENDBRANCH   7   9
BRANCH   7  11
ATOM     11  C   UNL A   1      33.892  22.559  24.797  1.00  0.00     0.007 C 
ATOM     12  C   UNL A   1      34.557  21.555  25.778  1.00  0.00     0.005 C 
ATOM     13  C   UNL A   1      32.494  22.921  25.378  1.00  0.00     0.036 C 
ATOM     14  C   UNL A   1      34.582  21.961  27.246  1.00  0.00     0.003 C 
ATOM     15  C   UNL A   1      32.481  23.316  26.867  1.00  0.00     0.118 C 
ATOM     16  C   UNL A   1      33.192  22.303  27.761  1.00  0.00     0.032 C 
BRANCH  15  17
ATOM     17  O   UNL A   1      31.168  23.655  27.329  1.00  0.00    -0.381 OA
ATOM     18  C   UNL A   1      30.107  22.802  26.938  1.00  0.00     0.195 C 
ENDBRANCH  15  17
ENDBRANCH   7  11
ENDBRANCH   4   7
ENDBRANCH   2   3
ENDBRANCH   1   2
BRANCH   1  19
ATOM     19  C   UNL A   1      39.763  23.519  27.088  1.00  0.00     0.118 C 
BRANCH  19  20
ATOM     20  N   UNL A   1      40.615  24.212  26.131  1.00  0.00    -0.352 N 
ATOM     21  C   UNL A   1      41.032  25.515  26.101  1.00  0.00     0.251 C 
ATOM     22  H   UNL A   1      40.942  23.655  25.387  1.00  0.00     0.163 HD
ATOM     23  O   UNL A   1      41.534  25.960  25.064  1.00  0.00    -0.269 OA
BRANCH  21  24
ATOM     24  C   UNL A   1      40.884  26.387  27.284  1.00  0.00     0.039 A 
ATOM     25  C   UNL A   1      41.740  27.482  27.429  1.00  0.00     0.014 A 
ATOM     26  C   UNL A   1      39.940  26.105  28.276  1.00  0.00     0.014 A 
ATOM     27  C   UNL A   1      41.617  28.315  28.543  1.00  0.00     0.010 A 
ATOM     28  C   UNL A   1      39.758  26.987  29.337  1.00  0.00     0.010 A 
ATOM     29  C   UNL A   1      40.607  28.090  29.493  1.00  0.00    -0.014 A 
BRANCH  29  30
ATOM     30  C   UNL A   1      40.447  28.988  30.664  1.00  0.00     0.031 A 
ATOM     31  C   UNL A   1      41.315  28.810  31.882  1.00  0.00     0.074 A 
ATOM     32  C   UNL A   1      39.495  29.940  30.644  1.00  0.00     0.049 A 
ATOM     33  N   UNL A   1      41.319  29.494  32.997  1.00  0.00    -0.248 NA
ATOM     34  C   UNL A   1      42.286  27.704  31.856  1.00  0.00     0.031 C 
ATOM     35  C   UNL A   1      38.551  30.173  29.547  1.00  0.00     0.029 A 
ATOM     36  N   UNL A   1      39.162  30.893  31.573  1.00  0.00    -0.354 N 
ATOM     37  C   UNL A   1      42.278  28.896  33.806  1.00  0.00     0.074 A 
ATOM     38  C   UNL A   1      42.793  27.757  33.079  1.00  0.00     0.031 C 
ATOM     39  C   UNL A   1      37.773  31.225  29.851  1.00  0.00     0.029 A 
ATOM     40  C   UNL A   1      38.140  31.720  31.174  1.00  0.00     0.049 A 
ATOM     41  H   UNL A   1      39.614  30.976  32.444  1.00  0.00     0.167 HD
ATOM     42  C   UNL A   1      42.712  29.273  35.034  1.00  0.00     0.031 A 
ATOM     43  C   UNL A   1      37.565  32.766  31.799  1.00  0.00     0.031 A 
ATOM     44  C   UNL A   1      42.208  30.415  35.749  1.00  0.00     0.049 A 
ATOM     45  C   UNL A   1      38.080  33.183  33.148  1.00  0.00     0.074 A 
ATOM     46  C   UNL A   1      42.614  30.913  36.973  1.00  0.00     0.029 A 
ATOM     47  N   UNL A   1      41.188  31.241  35.298  1.00  0.00    -0.354 N 
ATOM     48  N   UNL A   1      39.035  32.642  33.868  1.00  0.00    -0.248 NA
ATOM     49  C   UNL A   1      37.454  34.362  33.759  1.00  0.00     0.031 C 
ATOM     50  C   UNL A   1      41.812  32.018  37.283  1.00  0.00     0.029 A 
ATOM     51  C   UNL A   1      40.941  32.237  36.228  1.00  0.00     0.049 A 
ATOM     52  H   UNL A   1      40.710  31.134  34.445  1.00  0.00     0.167 HD
ATOM     53  C   UNL A   1      39.137  33.427  35.010  1.00  0.00     0.074 A 
ATOM     54  C   UNL A   1      38.163  34.492  34.872  1.00  0.00     0.031 C 
ATOM     55  C   UNL A   1      39.961  33.282  36.077  1.00  0.00     0.031 A 
BRANCH  42  56
ATOM     56  C   UNL A   1      43.793  28.440  35.673  1.00  0.00    -0.014 A 
ATOM     57  C   UNL A   1      45.152  28.727  35.451  1.00  0.00     0.010 A 
ATOM     58  C   UNL A   1      43.449  27.375  36.525  1.00  0.00     0.010 A 
ATOM     59  C   UNL A   1      46.148  27.936  36.032  1.00  0.00     0.020 A 
ATOM     60  C   UNL A   1      44.441  26.600  37.131  1.00  0.00     0.020 A 
ATOM     61  C   UNL A   1      45.785  26.874  36.865  1.00  0.00     0.054 A 
BRANCH  61  62
ATOM     62  S   UNL A   1      47.097  25.874  37.621  1.00  0.00     0.124 S 
ATOM     63  O   UNL A   1      47.928  25.547  36.465  1.00  0.00    -0.237 OA
ATOM     64  O   UNL A   1      47.695  26.800  38.581  1.00  0.00    -0.237 OA
ATOM     65  O   UNL A   1      46.379  24.748  38.211  1.00  0.00    -0.744 OA
ENDBRANCH  61  62
ENDBRANCH  42  56
BRANCH  43  66
ATOM     66  C   UNL A   1      36.459  33.507  31.135  1.00  0.00    -0.014 A 
ATOM     67  C   UNL A   1      36.567  33.895  29.788  1.00  0.00     0.010 A 
ATOM     68  C   UNL A   1      35.281  33.809  31.842  1.00  0.00     0.010 A 
ATOM     69  C   UNL A   1      35.524  34.586  29.164  1.00  0.00     0.020 A 
ATOM     70  C   UNL A   1      34.226  34.476  31.214  1.00  0.00     0.020 A 
ATOM     71  C   UNL A   1      34.359  34.871  29.881  1.00  0.00     0.054 A 
BRANCH  71  72
ATOM     72  S   UNL A   1      32.994  35.718  29.037  1.00  0.00     0.124 S 
ATOM     73  O   UNL A   1      32.406  34.637  28.252  1.00  0.00    -0.237 OA
ATOM     74  O   UNL A   1      32.184  36.204  30.152  1.00  0.00    -0.237 OA
ATOM     75  O   UNL A   1      33.666  36.761  28.265  1.00  0.00    -0.744 OA
ENDBRANCH  71  72
ENDBRANCH  43  66
BRANCH  55  76
ATOM     76  C   UNL A   1      39.856  34.312  37.168  1.00  0.00    -0.014 A 
ATOM     77  C   UNL A   1      40.502  35.556  37.058  1.00  0.00     0.010 A 
ATOM     78  C   UNL A   1      39.075  34.042  38.307  1.00  0.00     0.010 A 
ATOM     79  C   UNL A   1      40.406  36.495  38.088  1.00  0.00     0.020 A 
ATOM     80  C   UNL A   1      38.954  34.988  39.326  1.00  0.00     0.020 A 
ATOM     81  C   UNL A   1      39.636  36.202  39.219  1.00  0.00     0.054 A 
BRANCH  81  82
ATOM     82  S   UNL A   1      39.509  37.443  40.535  1.00  0.00     0.124 S 
ATOM     83  O   UNL A   1      38.741  38.499  39.882  1.00  0.00    -0.237 OA
ATOM     84  O   UNL A   1      38.810  36.720  41.595  1.00  0.00    -0.237 OA
ATOM     85  O   UNL A   1      40.901  37.777  40.831  1.00  0.00    -0.744 OA
ENDBRANCH  81  82
ENDBRANCH  55  76
ENDBRANCH  29  30
ENDBRANCH  21  24
ENDBRANCH  19  20
ENDBRANCH   1  19
TORSDOF 16
ENDMDL
MODEL 2
REMARK VINA RESULT:     -11.3      6.752     12.523
REMARK SMILES CC[C@](C)(C(=O)NCCCNC(=O)c1ccc(-c2c3nc(c(-c4ccc(S(=O)(=O)[O-])cc4)c4ccc([nH]4)c(-c4ccc(S(=O)(=O)[O-])cc4)c4nc(c(-c5ccc(S(=O)(=O)[O-])cc5)c5ccc2[nH]5)C=C4)C=C3)cc1)[C@H]1CCC[C@H](OC)C1
REMARK SMILES IDX 9 1 8 2 7 3 5 4 6 5 3 7 4 8 2 9 1 10 74 11 75 12 81 13 76 14
REMARK SMILES IDX 78 15 77 16 79 17 80 18 10 19 11 20 12 21 13 23 14 24 15 25
REMARK SMILES IDX 73 26 16 27 72 28 17 29 18 30 19 31 66 32 20 33 71 34 65 35
REMARK SMILES IDX 67 36 21 37 70 38 64 39 63 40 22 42 52 43 33 44 51 45 34 46
REMARK SMILES IDX 37 47 50 48 68 49 35 50 36 51 49 53 69 54 38 55 23 56 24 57
REMARK SMILES IDX 32 58 25 59 31 60 26 61 27 62 28 63 29 64 30 65 53 66 54 67
REMARK SMILES IDX 62 68 55 69 61 70 56 71 57 72 58 73 59 74 60 75 39 76 40 77
REMARK SMILES IDX 48 78 41 79 47 80 42 81 43 82 44 83 45 84 46 85
REMARK H PARENT 7 6 11 22 67 41 37 52
REMARK Flexibility Score: inf
ROOT
ATOM      1  C   UNL A   1      34.530  30.740  27.460  1.00  0.00     0.042 C 
ENDROOT
BRANCH   1   2
ATOM      2  C   UNL A   1      33.514  30.081  26.535  1.00  0.00     0.117 C 
BRANCH   2   3
ATOM      3  N   UNL A   1      32.492  29.361  27.274  1.00  0.00    -0.356 N 
ATOM      4  C   UNL A   1      31.774  28.235  27.028  1.00  0.00     0.226 C 
ATOM      5  O   UNL A   1      31.136  27.819  28.001  1.00  0.00    -0.274 OA
ATOM      6  H   UNL A   1      32.271  29.779  28.138  1.00  0.00     0.163 HD
BRANCH   4   7
ATOM      7  C   UNL A   1      31.844  27.439  25.694  1.00  0.00     0.049 C 
ATOM      8  C   UNL A   1      31.048  26.125  25.777  1.00  0.00     0.022 C 
BRANCH   7   9
ATOM      9  C   UNL A   1      31.178  28.334  24.586  1.00  0.00     0.013 C 
ATOM     10  C   UNL A   1      30.108  27.655  23.730  1.00  0.00     0.005 C 
ENDBRANCH   7   9
BRANCH   7  11
ATOM     11  C   UNL A   1      33.369  27.137  25.280  1.00  0.00     0.007 C 
ATOM     12  C   UNL A   1      34.131  26.000  26.015  1.00  0.00     0.005 C 
ATOM     13  C   UNL A   1      33.628  26.962  23.755  1.00  0.00     0.036 C 
ATOM     14  C   UNL A   1      33.890  24.586  25.503  1.00  0.00     0.003 C 
ATOM     15  C   UNL A   1      33.414  25.537  23.209  1.00  0.00     0.118 C 
ATOM     16  C   UNL A   1      34.158  24.471  24.010  1.00  0.00     0.032 C 
BRANCH  15  17
ATOM     17  O   UNL A   1      33.651  25.453  21.799  1.00  0.00    -0.381 OA
ATOM     18  C   UNL A   1      32.654  25.984  20.945  1.00  0.00     0.195 C 
ENDBRANCH  15  17
ENDBRANCH   7  11
ENDBRANCH   4   7
ENDBRANCH   2   3
ENDBRANCH   1   2
BRANCH   1  19
ATOM     19  C   UNL A   1      35.425  29.743  28.184  1.00  0.00     0.118 C 
BRANCH  19  20
ATOM     20  N   UNL A   1      35.528  30.032  29.608  1.00  0.00    -0.352 N 
ATOM     21  C   UNL A   1      36.552  29.797  30.485  1.00  0.00     0.251 C 
ATOM     22  H   UNL A   1      34.735  30.463  30.002  1.00  0.00     0.163 HD
ATOM     23  O   UNL A   1      36.333  29.881  31.698  1.00  0.00    -0.269 OA
BRANCH  21  24
ATOM     24  C   UNL A   1      37.902  29.444  30.000  1.00  0.00     0.039 A 
ATOM     25  C   UNL A   1      38.205  29.628  28.648  1.00  0.00     0.014 A 
ATOM     26  C   UNL A   1      38.854  28.885  30.857  1.00  0.00     0.014 A 
ATOM     27  C   UNL A   1      39.474  29.296  28.171  1.00  0.00     0.010 A 
ATOM     28  C   UNL A   1      40.146  28.641  30.400  1.00  0.00     0.010 A 
ATOM     29  C   UNL A   1      40.464  28.824  29.049  1.00  0.00    -0.014 A 
BRANCH  29  30
ATOM     30  C   UNL A   1      41.826  28.498  28.558  1.00  0.00     0.031 A 
ATOM     31  C   UNL A   1      42.879  29.571  28.469  1.00  0.00     0.074 A 
ATOM     32  C   UNL A   1      42.104  27.242  28.158  1.00  0.00     0.049 A 
ATOM     33  N   UNL A   1      44.120  29.476  28.065  1.00  0.00    -0.248 NA
ATOM     34  C   UNL A   1      42.481  30.933  28.859  1.00  0.00     0.031 C 
ATOM     35  C   UNL A   1      41.152  26.128  28.139  1.00  0.00     0.029 A 
ATOM     36  N   UNL A   1      43.269  26.688  27.691  1.00  0.00    -0.354 N 
ATOM     37  C   UNL A   1      44.642  30.762  28.139  1.00  0.00     0.074 A 
ATOM     38  C   UNL A   1      43.569  31.630  28.570  1.00  0.00     0.031 C 
ATOM     39  C   UNL A   1      41.781  25.018  27.720  1.00  0.00     0.029 A 
ATOM     40  C   UNL A   1      43.169  25.346  27.411  1.00  0.00     0.049 A 
ATOM     41  H   UNL A   1      44.099  27.204  27.568  1.00  0.00     0.167 HD
ATOM     42  C   UNL A   1      45.908  31.182  27.897  1.00  0.00     0.031 A 
ATOM     43  C   UNL A   1      44.093  24.475  26.963  1.00  0.00     0.031 A 
ATOM     44  C   UNL A   1      46.978  30.313  27.483  1.00  0.00     0.049 A 
ATOM     45  C   UNL A   1      45.497  24.956  26.726  1.00  0.00     0.074 A 
ATOM     46  C   UNL A   1      48.306  30.627  27.261  1.00  0.00     0.029 A 
ATOM     47  N   UNL A   1      46.840  28.955  27.233  1.00  0.00    -0.354 N 
ATOM     48  N   UNL A   1      45.987  26.166  26.866  1.00  0.00    -0.248 NA
ATOM     49  C   UNL A   1      46.475  23.952  26.291  1.00  0.00     0.031 C 
ATOM     50  C   UNL A   1      48.965  29.467  26.837  1.00  0.00     0.029 A 
ATOM     51  C   UNL A   1      48.056  28.419  26.845  1.00  0.00     0.049 A 
ATOM     52  H   UNL A   1      46.001  28.447  27.319  1.00  0.00     0.167 HD
ATOM     53  C   UNL A   1      47.337  26.064  26.554  1.00  0.00     0.074 A 
ATOM     54  C   UNL A   1      47.588  24.670  26.241  1.00  0.00     0.031 C 
ATOM     55  C   UNL A   1      48.285  27.033  26.528  1.00  0.00     0.031 A 
BRANCH  42  56
ATOM     56  C   UNL A   1      46.200  32.648  28.083  1.00  0.00    -0.014 A 
ATOM     57  C   UNL A   1      46.660  33.142  29.318  1.00  0.00     0.010 A 
ATOM     58  C   UNL A   1      46.039  33.539  27.008  1.00  0.00     0.010 A 
ATOM     59  C   UNL A   1      46.908  34.508  29.487  1.00  0.00     0.020 A 
ATOM     60  C   UNL A   1      46.314  34.901  27.164  1.00  0.00     0.020 A 
ATOM     61  C   UNL A   1      46.729  35.379  28.409  1.00  0.00     0.054 A 
BRANCH  61  62
ATOM     62  S   UNL A   1      47.076  37.143  28.652  1.00  0.00     0.124 S 
ATOM     63  O   UNL A   1      48.536  37.160  28.684  1.00  0.00    -0.237 OA
ATOM     64  O   UNL A   1      46.467  37.756  27.473  1.00  0.00    -0.237 OA
ATOM     65  O   UNL A   1      46.422  37.454  29.920  1.00  0.00    -0.744 OA
ENDBRANCH  61  62
ENDBRANCH  42  56
BRANCH  43  66
ATOM     66  C   UNL A   1      43.720  23.051  26.741  1.00  0.00    -0.014 A 
ATOM     67  C   UNL A   1      42.986  22.346  27.711  1.00  0.00     0.010 A 
ATOM     68  C   UNL A   1      44.078  22.401  25.547  1.00  0.00     0.010 A 
ATOM     69  C   UNL A   1      42.631  21.011  27.498  1.00  0.00     0.020 A 
ATOM     70  C   UNL A   1      43.702  21.074  25.320  1.00  0.00     0.020 A 
ATOM     71  C   UNL A   1      42.991  20.383  26.303  1.00  0.00     0.054 A 
BRANCH  71  72
ATOM     72  S   UNL A   1      42.471  18.667  26.022  1.00  0.00     0.124 S 
ATOM     73  O   UNL A   1      42.718  18.058  27.325  1.00  0.00    -0.237 OA
ATOM     74  O   UNL A   1      41.067  18.819  25.649  1.00  0.00    -0.237 OA
ATOM     75  O   UNL A   1      43.349  18.219  24.943  1.00  0.00    -0.744 OA
ENDBRANCH  71  72
ENDBRANCH  43  66
BRANCH  55  76
ATOM     76  C   UNL A   1      49.684  26.614  26.168  1.00  0.00    -0.014 A 
ATOM     77  C   UNL A   1      50.507  25.954  27.097  1.00  0.00     0.010 A 
ATOM     78  C   UNL A   1      50.170  26.858  24.870  1.00  0.00     0.010 A 
ATOM     79  C   UNL A   1      51.809  25.586  26.748  1.00  0.00     0.020 A 
ATOM     80  C   UNL A   1      51.460  26.466  24.509  1.00  0.00     0.020 A 
ATOM     81  C   UNL A   1      52.279  25.850  25.458  1.00  0.00     0.054 A 
BRANCH  81  82
ATOM     82  S   UNL A   1      53.966  25.345  25.022  1.00  0.00     0.124 S 
ATOM     83  O   UNL A   1      53.854  23.889  25.016  1.00  0.00    -0.237 OA
ATOM     84  O   UNL A   1      54.161  25.967  23.714  1.00  0.00    -0.237 OA
ATOM     85  O   UNL A   1      54.782  25.903  26.097  1.00  0.00    -0.744 OA
ENDBRANCH  81  82
ENDBRANCH  55  76
ENDBRANCH  29  30
ENDBRANCH  21  24
ENDBRANCH  19  20
ENDBRANCH   1  19
TORSDOF 16
ENDMDL
MODEL 3
REMARK VINA RESULT:     -11.2      3.670      4.824
REMARK SMILES CC[C@](C)(C(=O)NCCCNC(=O)c1ccc(-c2c3nc(c(-c4ccc(S(=O)(=O)[O-])cc4)c4ccc([nH]4)c(-c4ccc(S(=O)(=O)[O-])cc4)c4nc(c(-c5ccc(S(=O)(=O)[O-])cc5)c5ccc2[nH]5)C=C4)C=C3)cc1)[C@H]1CCC[C@H](OC)C1
REMARK SMILES IDX 9 1 8 2 7 3 5 4 6 5 3 7 4 8 2 9 1 10 74 11 75 12 81 13 76 14
REMARK SMILES IDX 78 15 77 16 79 17 80 18 10 19 11 20 12 21 13 23 14 24 15 25
REMARK SMILES IDX 73 26 16 27 72 28 17 29 18 30 19 31 66 32 20 33 71 34 65 35
REMARK SMILES IDX 67 36 21 37 70 38 64 39 63 40 22 42 52 43 33 44 51 45 34 46
REMARK SMILES IDX 37 47 50 48 68 49 35 50 36 51 49 53 69 54 38 55 23 56 24 57
REMARK SMILES IDX 32 58 25 59 31 60 26 61 27 62 28 63 29 64 30 65 53 66 54 67
REMARK SMILES IDX 62 68 55 69 61 70 56 71 57 72 58 73 59 74 60 75 39 76 40 77
REMARK SMILES IDX 48 78 41 79 47 80 42 81 43 82 44 83 45 84 46 85
REMARK H PARENT 7 6 11 22 67 41 37 52
REMARK Flexibility Score: inf
ROOT
ATOM      1  C   UNL A   1      34.983  23.553  26.284  1.00  0.00     0.042 C 
ENDROOT
BRANCH   1   2
ATOM      2  C   UNL A   1      33.742  24.259  25.753  1.00  0.00     0.117 C 
BRANCH   2   3
ATOM      3  N   UNL A   1      33.602  24.107  24.315  1.00  0.00    -0.356 N 
ATOM      4  C   UNL A   1      33.376  24.978  23.297  1.00  0.00     0.226 C 
ATOM      5  O   UNL A   1      33.527  24.490  22.172  1.00  0.00    -0.274 OA
ATOM      6  H   UNL A   1      33.687  23.174  24.014  1.00  0.00     0.163 HD
BRANCH   4   7
ATOM      7  C   UNL A   1      33.095  26.494  23.501  1.00  0.00     0.049 C 
ATOM      8  C   UNL A   1      34.046  27.110  24.542  1.00  0.00     0.022 C 
BRANCH   7   9
ATOM      9  C   UNL A   1      33.366  27.203  22.125  1.00  0.00     0.013 C 
ATOM     10  C   UNL A   1      34.221  28.469  22.181  1.00  0.00     0.005 C 
ENDBRANCH   7   9
BRANCH   7  11
ATOM     11  C   UNL A   1      31.565  26.745  23.931  1.00  0.00     0.007 C 
ATOM     12  C   UNL A   1      31.277  27.538  25.236  1.00  0.00     0.005 C 
ATOM     13  C   UNL A   1      30.643  27.326  22.820  1.00  0.00     0.036 C 
ATOM     14  C   UNL A   1      31.319  29.057  25.125  1.00  0.00     0.003 C 
ATOM     15  C   UNL A   1      30.646  28.862  22.696  1.00  0.00     0.118 C 
ATOM     16  C   UNL A   1      30.401  29.570  24.027  1.00  0.00     0.032 C 
BRANCH  15  17
ATOM     17  O   UNL A   1      29.792  29.324  21.643  1.00  0.00    -0.381 OA
ATOM     18  C   UNL A   1      28.468  29.683  21.997  1.00  0.00     0.195 C 
ENDBRANCH  15  17
ENDBRANCH   7  11
ENDBRANCH   4   7
ENDBRANCH   2   3
ENDBRANCH   1   2
BRANCH   1  19
ATOM     19  C   UNL A   1      36.265  23.966  25.574  1.00  0.00     0.118 C 
BRANCH  19  20
ATOM     20  N   UNL A   1      37.293  22.937  25.654  1.00  0.00    -0.352 N 
ATOM     21  C   UNL A   1      38.595  23.020  26.066  1.00  0.00     0.251 C 
ATOM     22  H   UNL A   1      37.005  22.041  25.365  1.00  0.00     0.163 HD
ATOM     23  O   UNL A   1      39.365  22.089  25.808  1.00  0.00    -0.269 OA
BRANCH  21  24
ATOM     24  C   UNL A   1      39.085  24.201  26.804  1.00  0.00     0.039 A 
ATOM     25  C   UNL A   1      39.876  25.139  26.133  1.00  0.00     0.014 A 
ATOM     26  C   UNL A   1      38.812  24.367  28.165  1.00  0.00     0.014 A 
ATOM     27  C   UNL A   1      40.351  26.259  26.816  1.00  0.00     0.010 A 
ATOM     28  C   UNL A   1      39.209  25.529  28.820  1.00  0.00     0.010 A 
ATOM     29  C   UNL A   1      39.999  26.478  28.159  1.00  0.00    -0.014 A 
BRANCH  29  30
ATOM     30  C   UNL A   1      40.473  27.682  28.885  1.00  0.00     0.031 A 
ATOM     31  C   UNL A   1      41.855  27.715  29.483  1.00  0.00     0.074 A 
ATOM     32  C   UNL A   1      39.643  28.733  29.039  1.00  0.00     0.049 A 
ATOM     33  N   UNL A   1      42.440  28.675  30.152  1.00  0.00    -0.248 NA
ATOM     34  C   UNL A   1      42.677  26.503  29.334  1.00  0.00     0.031 C 
ATOM     35  C   UNL A   1      38.261  28.799  28.559  1.00  0.00     0.029 A 
ATOM     36  N   UNL A   1      39.842  29.950  29.641  1.00  0.00    -0.354 N 
ATOM     37  C   UNL A   1      43.688  28.180  30.513  1.00  0.00     0.074 A 
ATOM     38  C   UNL A   1      43.753  26.814  30.041  1.00  0.00     0.031 C 
ATOM     39  C   UNL A   1      37.750  30.006  28.851  1.00  0.00     0.029 A 
ATOM     40  C   UNL A   1      38.755  30.787  29.565  1.00  0.00     0.049 A 
ATOM     41  H   UNL A   1      40.686  30.199  30.084  1.00  0.00     0.167 HD
ATOM     42  C   UNL A   1      44.701  28.811  31.156  1.00  0.00     0.031 A 
ATOM     43  C   UNL A   1      38.586  32.045  30.015  1.00  0.00     0.031 A 
ATOM     44  C   UNL A   1      44.639  30.174  31.610  1.00  0.00     0.049 A 
ATOM     45  C   UNL A   1      39.732  32.734  30.702  1.00  0.00     0.074 A 
ATOM     46  C   UNL A   1      45.626  30.923  32.225  1.00  0.00     0.029 A 
ATOM     47  N   UNL A   1      43.527  30.995  31.494  1.00  0.00    -0.354 N 
ATOM     48  N   UNL A   1      40.928  32.269  30.975  1.00  0.00    -0.248 NA
ATOM     49  C   UNL A   1      39.511  34.123  31.122  1.00  0.00     0.031 C 
ATOM     50  C   UNL A   1      45.097  32.186  32.518  1.00  0.00     0.029 A 
ATOM     51  C   UNL A   1      43.797  32.239  32.038  1.00  0.00     0.049 A 
ATOM     52  H   UNL A   1      42.671  30.732  31.085  1.00  0.00     0.167 HD
ATOM     53  C   UNL A   1      41.610  33.316  31.583  1.00  0.00     0.074 A 
ATOM     54  C   UNL A   1      40.699  34.444  31.616  1.00  0.00     0.031 C 
ATOM     55  C   UNL A   1      42.875  33.345  32.071  1.00  0.00     0.031 A 
BRANCH  42  56
ATOM     56  C   UNL A   1      45.965  28.027  31.395  1.00  0.00    -0.014 A 
ATOM     57  C   UNL A   1      47.087  28.191  30.562  1.00  0.00     0.010 A 
ATOM     58  C   UNL A   1      46.044  27.134  32.479  1.00  0.00     0.010 A 
ATOM     59  C   UNL A   1      48.248  27.444  30.780  1.00  0.00     0.020 A 
ATOM     60  C   UNL A   1      47.213  26.406  32.718  1.00  0.00     0.020 A 
ATOM     61  C   UNL A   1      48.302  26.552  31.855  1.00  0.00     0.054 A 
BRANCH  61  62
ATOM     62  S   UNL A   1      49.828  25.608  32.125  1.00  0.00     0.124 S 
ATOM     63  O   UNL A   1      49.389  24.598  33.084  1.00  0.00    -0.237 OA
ATOM     64  O   UNL A   1      50.140  25.111  30.787  1.00  0.00    -0.237 OA
ATOM     65  O   UNL A   1      50.761  26.601  32.650  1.00  0.00    -0.744 OA
ENDBRANCH  61  62
ENDBRANCH  42  56
BRANCH  43  66
ATOM     66  C   UNL A   1      37.288  32.740  29.798  1.00  0.00    -0.014 A 
ATOM     67  C   UNL A   1      36.264  32.655  30.758  1.00  0.00     0.010 A 
ATOM     68  C   UNL A   1      37.080  33.510  28.641  1.00  0.00     0.010 A 
ATOM     69  C   UNL A   1      35.048  33.313  30.555  1.00  0.00     0.020 A 
ATOM     70  C   UNL A   1      35.874  34.191  28.447  1.00  0.00     0.020 A 
ATOM     71  C   UNL A   1      34.861  34.078  29.401  1.00  0.00     0.054 A 
BRANCH  71  72
ATOM     72  S   UNL A   1      33.296  34.972  29.185  1.00  0.00     0.124 S 
ATOM     73  O   UNL A   1      32.769  34.995  30.545  1.00  0.00    -0.237 OA
ATOM     74  O   UNL A   1      33.738  36.260  28.655  1.00  0.00    -0.237 OA
ATOM     75  O   UNL A   1      32.557  34.139  28.239  1.00  0.00    -0.744 OA
ENDBRANCH  71  72
ENDBRANCH  43  66
BRANCH  55  76
ATOM     76  C   UNL A   1      43.352  34.643  32.662  1.00  0.00    -0.014 A 
ATOM     77  C   UNL A   1      43.908  35.650  31.854  1.00  0.00     0.010 A 
ATOM     78  C   UNL A   1      43.213  34.870  34.044  1.00  0.00     0.010 A 
ATOM     79  C   UNL A   1      44.360  36.843  32.424  1.00  0.00     0.020 A 
ATOM     80  C   UNL A   1      43.637  36.072  34.613  1.00  0.00     0.020 A 
ATOM     81  C   UNL A   1      44.226  37.044  33.801  1.00  0.00     0.054 A 
BRANCH  81  82
ATOM     82  S   UNL A   1      44.800  38.609  34.516  1.00  0.00     0.124 S 
ATOM     83  O   UNL A   1      44.149  38.602  35.822  1.00  0.00    -0.237 OA
ATOM     84  O   UNL A   1      46.252  38.441  34.535  1.00  0.00    -0.237 OA
ATOM     85  O   UNL A   1      44.309  39.617  33.579  1.00  0.00    -0.744 OA
ENDBRANCH  81  82
ENDBRANCH  55  76
ENDBRANCH  29  30
ENDBRANCH  21  24
ENDBRANCH  19  20
ENDBRANCH   1  19
TORSDOF 16
ENDMDL
